#------------------------------------------------------------------------------
#$Date: 2017-09-12 06:00:05 +0300 (Tue, 12 Sep 2017) $
#$Revision: 200566 $
#$URL: file:///home/coder/svn-repositories/cod/cif/1/54/70/1547057.cif $
#------------------------------------------------------------------------------
#
# This file is available in the Crystallography Open Database (COD),
# http://www.crystallography.net/
#
# All data on this site have been placed in the public domain by the
# contributors.
#
data_1547057
loop_
_publ_author_name
'Li, Yuewen'
'Mao, Runyu'
'Wu, Jie'
_publ_section_title
;
 N-Radical Initiated Aminosulfonylation of Unactivated C(sp(3))-H Bond
 through Insertion of Sulfur Dioxide.
;
_journal_issue                   17
_journal_name_full               'Organic letters'
_journal_page_first              4472
_journal_page_last               4475
_journal_paper_doi               10.1021/acs.orglett.7b02010
_journal_volume                  19
_journal_year                    2017
_chemical_formula_sum            'C13 H17 N O2 S'
_chemical_formula_weight         251.33
_space_group_crystal_system      orthorhombic
_space_group_IT_number           19
_space_group_name_Hall           'P 2ac 2ab'
_space_group_name_H-M_alt        'P 21 21 21'
_symmetry_space_group_name_Hall  'P 2ac 2ab'
_symmetry_space_group_name_H-M   'P 21 21 21'
_atom_sites_solution_hydrogens   geom
_audit_creation_method           SHELXL-2014/7
_cell_angle_alpha                90
_cell_angle_beta                 90
_cell_angle_gamma                90
_cell_formula_units_Z            4
_cell_length_a                   6.1330(19)
_cell_length_b                   10.094(3)
_cell_length_c                   20.181(6)
_cell_measurement_reflns_used    2941
_cell_measurement_temperature    203(2)
_cell_measurement_theta_max      26.82
_cell_measurement_theta_min      2.26
_cell_volume                     1249.3(7)
_computing_cell_refinement       'Bruker SAINT'
_computing_data_collection       'Bruker APEX2'
_computing_data_reduction        'Bruker SAINT'
_computing_molecular_graphics    'Bruker SHELXTL'
_computing_publication_material  'Bruker SHELXTL'
_computing_structure_refinement  'SHELXL-2014/7 (Sheldrick, 2014)'
_computing_structure_solution    'SHELXS-97 (Sheldrick, 2008)'
_diffrn_ambient_temperature      203(2)
_diffrn_measured_fraction_theta_full 0.984
_diffrn_measured_fraction_theta_max 0.984
_diffrn_measurement_device_type  'Bruker APEX-II CCD'
_diffrn_measurement_method       '\f and \w scans'
_diffrn_radiation_type           MoK\a
_diffrn_radiation_wavelength     0.71073
_diffrn_reflns_av_R_equivalents  0.0354
_diffrn_reflns_av_unetI/netI     0.0449
_diffrn_reflns_Laue_measured_fraction_full 0.984
_diffrn_reflns_Laue_measured_fraction_max 0.984
_diffrn_reflns_limit_h_max       7
_diffrn_reflns_limit_h_min       -7
_diffrn_reflns_limit_k_max       12
_diffrn_reflns_limit_k_min       -12
_diffrn_reflns_limit_l_max       15
_diffrn_reflns_limit_l_min       -25
_diffrn_reflns_number            7105
_diffrn_reflns_point_group_measured_fraction_full 0.973
_diffrn_reflns_point_group_measured_fraction_max 0.972
_diffrn_reflns_theta_full        25.242
_diffrn_reflns_theta_max         27.143
_diffrn_reflns_theta_min         2.018
_exptl_absorpt_coefficient_mu    0.249
_exptl_absorpt_correction_T_max  0.970
_exptl_absorpt_correction_T_min  0.801
_exptl_absorpt_correction_type   multi-scan
_exptl_absorpt_process_details   sadabs
_exptl_crystal_colour            colourless
_exptl_crystal_density_diffrn    1.336
_exptl_crystal_description       prism
_exptl_crystal_F_000             536
_exptl_crystal_size_max          0.470
_exptl_crystal_size_mid          0.130
_exptl_crystal_size_min          0.130
_refine_diff_density_max         0.312
_refine_diff_density_min         -0.298
_refine_diff_density_rms         0.066
_refine_ls_abs_structure_details
; 
 Flack x determined using 856 quotients [(I+)-(I-)]/[(I+)+(I-)] 
 (Parsons, Flack and Wagner, Acta Cryst. B69 (2013) 249-259). 
;
_refine_ls_abs_structure_Flack   0.02(4)
_refine_ls_extinction_method     none
_refine_ls_goodness_of_fit_ref   1.115
_refine_ls_hydrogen_treatment    constr
_refine_ls_matrix_type           full
_refine_ls_number_parameters     157
_refine_ls_number_reflns         2673
_refine_ls_number_restraints     0
_refine_ls_restrained_S_all      1.115
_refine_ls_R_factor_all          0.0453
_refine_ls_R_factor_gt           0.0374
_refine_ls_shift/su_max          0.003
_refine_ls_shift/su_mean         0.000
_refine_ls_structure_factor_coef Fsqd
_refine_ls_weighting_details
'w=1/[\s^2^(Fo^2^)+(0.0693P)^2^] where P=(Fo^2^+2Fc^2^)/3'
_refine_ls_weighting_scheme      calc
_refine_ls_wR_factor_gt          0.1071
_refine_ls_wR_factor_ref         0.1153
_reflns_Friedel_coverage         0.684
_reflns_Friedel_fraction_full    0.958
_reflns_Friedel_fraction_max     0.953
_reflns_number_gt                2383
_reflns_number_total             2673
_reflns_threshold_expression     'I > 2\s(I)'
_cod_data_source_file            ol7b02010_si_002.cif
_cod_data_source_block           mo_70228b
_cod_database_code               1547057
_shelx_shelxl_version_number     2014/7
_shelx_space_group_comment
; 
The symmetry employed for this shelxl refinement is uniquely defined 
by the following loop, which should always be used as a source of 
symmetry information in preference to the above space-group names. 
They are only intended as comments. 
;
_shelx_estimated_absorpt_t_min   0.892
_shelx_estimated_absorpt_t_max   0.968
_shelx_res_file
; 
  
    mo_70228b.res created by SHELXL-2014/7 
  
TITL mo_70228b in P2(1)2(1)2(1) 
CELL 0.71073   6.1330  10.0942  20.1807  90.000  90.000  90.000 
ZERR    4.00   0.0019   0.0031   0.0062   0.000   0.000   0.000 
LATT -1 
SYMM 0.5-X, -Y, 0.5+Z 
SYMM -X, 0.5+Y, 0.5-Z 
SYMM 0.5+X, 0.5-Y, -Z 
SFAC C  H  N  O  S 
UNIT 52 68 4 8 4 
L.S. 5 
ACTA 
BOND 
FMAP 2 
PLAN 1 
SIZE 0.13 0.13 0.47 
TEMP -70 
WGHT    0.069300 
FVAR       0.27382 
MOLE 1 
S1    5    0.538818    0.887638    0.191259    11.00000    0.02268    0.02138 = 
         0.02476   -0.00019   -0.00374    0.00053 
N1    3    0.687221    0.896694    0.259432    11.00000    0.02875    0.02583 = 
         0.02506   -0.00265   -0.00378    0.00448 
O1    4    0.556736    1.014072    0.159715    11.00000    0.04605    0.02392 = 
         0.04237    0.00704   -0.01819   -0.00336 
O2    4    0.324143    0.845443    0.210381    11.00000    0.02147    0.04813 = 
         0.03539   -0.00184   -0.00090   -0.00076 
C1    1    0.662960    0.762984    0.140102    11.00000    0.02210    0.02477 = 
         0.02495   -0.00208   -0.00021   -0.00144 
C2    1    0.704878    0.645875    0.186303    11.00000    0.02850    0.02122 = 
         0.02870   -0.00359   -0.00111   -0.00036 
AFIX  23 
H2A   2    0.566043    0.617695    0.205779    11.00000   -1.20000 
H2B   2    0.761945    0.571711    0.160201    11.00000   -1.20000 
AFIX   0 
C3    1    0.864290    0.676769    0.241786    11.00000    0.02680    0.02182 = 
         0.02508   -0.00135   -0.00110    0.00222 
AFIX  23 
H3A   2    0.861203    0.603809    0.273809    11.00000   -1.20000 
H3B   2    1.011697    0.680792    0.223150    11.00000   -1.20000 
AFIX   0 
C4    1    0.819128    0.805050    0.278166    11.00000    0.02131    0.02227 = 
         0.02334    0.00041    0.00384    0.00015 
C5    1    0.935752    0.829849    0.341122    11.00000    0.02436    0.02240 = 
         0.02373    0.00186    0.00317    0.00086 
C6    1    0.848487    0.915424    0.387977    11.00000    0.02558    0.02818 = 
         0.02825   -0.00197   -0.00050    0.00491 
AFIX  43 
H6    2    0.713407    0.956252    0.379771    11.00000   -1.20000 
AFIX   0 
C7    1    0.957377    0.941506    0.446568    11.00000    0.03114    0.02923 = 
         0.02857   -0.00527   -0.00055    0.00357 
AFIX  43 
H7    2    0.894102    0.998578    0.477951    11.00000   -1.20000 
AFIX   0 
C8    1    1.158326    0.884678    0.459611    11.00000    0.02857    0.02650 = 
         0.02301    0.00401   -0.00102   -0.00460 
C9    1    1.245231    0.798413    0.413003    11.00000    0.02212    0.03248 = 
         0.02688    0.00421   -0.00213    0.00392 
AFIX  43 
H9    2    1.381154    0.758554    0.421116    11.00000   -1.20000 
AFIX   0 
C10   1    1.135158    0.769981    0.354699    11.00000    0.02556    0.02962 = 
         0.02217    0.00211    0.00204    0.00621 
AFIX  43 
H10   2    1.195565    0.709950    0.324187    11.00000   -1.20000 
AFIX   0 
C11   1    0.869592    0.820402    0.109339    11.00000    0.02696    0.05397 = 
         0.03216    0.00677    0.00676   -0.00306 
AFIX 137 
H11A  2    0.968216    0.848376    0.144213    11.00000   -1.50000 
H11B  2    0.831989    0.895944    0.081917    11.00000   -1.50000 
H11C  2    0.939954    0.753393    0.082327    11.00000   -1.50000 
AFIX   0 
C12   1    0.497500    0.725873    0.086306    11.00000    0.03801    0.03578 = 
         0.02836   -0.00663   -0.01103   -0.00127 
AFIX 137 
H12A  2    0.471271    0.801910    0.058017    11.00000   -1.50000 
H12B  2    0.361772    0.698765    0.106922    11.00000   -1.50000 
H12C  2    0.554734    0.653457    0.059929    11.00000   -1.50000 
AFIX   0 
C13   1    1.279979    0.915277    0.523412    11.00000    0.04211    0.03544 = 
         0.02862   -0.00015   -0.01035   -0.00019 
AFIX 137 
H13A  2    1.360940    0.837599    0.537387    11.00000   -1.50000 
H13B  2    1.176427    0.939671    0.557633    11.00000   -1.50000 
H13C  2    1.380214    0.988092    0.515935    11.00000   -1.50000 
AFIX   0 
HKLF 4 
  
REM  mo_70228b in P2(1)2(1)2(1) 
REM R1 =  0.0374 for    2383 Fo > 4sig(Fo)  and  0.0453 for all    2673 data 
REM    157 parameters refined using      0 restraints 
  
END 
  
WGHT      0.0693      0.0000 
  
REM Highest difference peak  0.312,  deepest hole -0.298,  1-sigma level  0.066 
Q1    1   0.6140  0.8923  0.2293  11.00000  0.05    0.31 
;
_shelx_res_checksum              31964
_shelx_hkl_file
; 
  -1   0   0   -0.06    0.10 
   1   0   0   -0.33    0.15 
   3   0   0   -0.21    0.33 
  -3   0   0   -0.16    0.15 
   4   0   0   -0.14    0.49 
  -4   0   0    0.07    0.19 
  -5   0   0    0.14    0.24 
   5   0   0   -0.73    0.62 
   6   0   0   41.55    2.33 
   0   1   0    0.79    0.11 
   0   1   0    0.76    0.15 
  -1   1   0    0.50    0.16 
   1   1   0    0.22    0.16 
  -1  -1   0   -0.06    0.06 
  -1  -1   0    0.27    0.11 
   1  -1   0    0.31    0.21 
   2  -1   0   27.62    1.28 
  -2  -1   0   20.61    0.95 
  -2  -1   0   24.27    0.84 
  -2   1   0   25.43    0.90 
   2   1   0   24.86    1.09 
  -3   1   0  238.64    7.03 
  -3  -1   0  238.11    6.97 
   3   1   0  240.34    8.72 
   4  -1   0    0.21    0.48 
  -4   1   0    1.73    0.31 
  -4  -1   0    2.18    0.29 
   4   1   0    2.43    0.46 
  -5  -1   0   44.87    1.61 
   5   1   0   45.22    2.17 
  -5   1   0   43.96    1.67 
  -6   1   0   10.75    0.77 
   6  -1   0   11.83    1.61 
   0   2   0  324.42    9.39 
   0   2   0  330.07   11.61 
   1  -2   0    0.82    0.24 
   1   2   0    1.21    0.22 
  -2  -2   0   61.77    1.87 
   2  -2   0   55.19    2.49 
  -2   2   0   63.15    1.98 
   2   2   0   62.90    2.37 
   3   2   0   13.96    0.83 
  -3   2   0   14.47    0.72 
  -3  -2   0   14.73    0.83 
  -3  -2   0   15.57    0.63 
   3  -2   0   15.20    1.09 
  -4   2   0   15.40    0.81 
  -4  -2   0   17.01    0.73 
   4   2   0   17.14    1.00 
   5   2   0   14.38    1.00 
  -5   2   0   14.26    0.82 
  -5  -2   0   13.52    0.72 
   6  -2   0    5.53    1.43 
  -6   2   0    8.30    0.70 
   0   3   0   -0.19    0.14 
   1   3   0   98.64    3.68 
  -2   3   0    0.12    0.22 
   2  -3   0    0.07    0.25 
   2   3   0    0.01    0.19 
  -2  -3   0    0.07    0.13 
  -2  -3   0   -0.18    0.21 
  -3   3   0   14.12    0.74 
  -3  -3   0   12.78    0.77 
  -3  -3   0   14.40    0.61 
   3  -3   0   14.93    1.02 
  -4   3   0   13.02    0.74 
   4  -3   0   13.16    1.20 
  -4  -3   0   13.76    0.65 
   4   3   0   12.70    0.87 
   5   3   0    5.23    0.67 
  -5   3   0    4.26    0.53 
   7  -3   0    1.81    1.29 
   0   4   0  193.98    7.11 
  -2  -4   0    7.97    0.59 
  -2  -4   0    6.71    0.43 
   2  -4   0    7.90    0.71 
   2   4   0    6.37    0.52 
  -2   4   0    6.65    0.50 
   3   4   0    0.52    0.26 
  -3  -4   0    0.74    0.19 
   3  -4   0    0.22    0.32 
  -3  -4   0    0.55    0.30 
  -3   4   0    0.99    0.31 
  -4   4   0    5.82    0.58 
   4   4   0    5.27    0.60 
  -4  -4   0    5.06    0.41 
   4  -4   0    5.41    0.82 
  -5   4   0    5.59    0.64 
   5   4   0    5.80    0.70 
   6  -4   0    0.83    0.79 
  -6   4   0    2.77    0.55 
   7  -4   0    2.68    1.34 
   0   5   0   -0.08    0.21 
   1  -5   0    0.82    0.34 
  -1   5   0    0.80    0.28 
   1   5   0    1.52    0.33 
   2  -5   0   11.65    0.92 
   2   5   0   10.39    0.74 
  -2  -5   0   11.53    0.58 
   3  -5   0    1.10    0.48 
   3   5   0    1.88    0.39 
  -3   5   0    1.57    0.36 
  -3  -5   0    1.49    0.26 
  -3  -5   0    1.90    0.43 
  -4  -5   0   20.97    0.91 
   4   5   0   22.21    1.23 
   4  -5   0   20.65    1.51 
  -4  -5   0   21.76    1.28 
  -4   5   0   21.88    1.13 
  -5  -5   0   12.07    1.02 
  -5   5   0   11.98    0.88 
   5  -5   0   10.17    1.40 
   7  -5   0    5.49    1.69 
   0   6   0    2.82    0.47 
   1   6   0  175.98    6.63 
  -1   6   0  176.14    5.43 
   1  -6   0  176.42    6.81 
   2  -6   0    0.03    0.22 
   2   6   0    0.45    0.29 
  -2   6   0   -0.06    0.11 
  -3  -6   0   26.24    1.11 
  -3   6   0   28.84    1.32 
   3   6   0   29.14    1.47 
   3  -6   0   28.29    1.75 
  -3  -6   0   29.34    1.43 
  -4  -6   0    3.65    0.66 
   4  -6   0    3.91    0.82 
   4   6   0    4.70    0.64 
  -4   6   0    4.27    0.59 
   5  -6   0    7.57    1.16 
  -5  -6   0    8.45    1.00 
  -5   6   0    6.51    0.75 
   6  -6   0    1.55    0.82 
  -6   6   0    4.72    0.71 
   0   7   0    0.17    0.32 
   1   7   0    9.72    0.82 
   1  -7   0    9.84    0.95 
   3  -7   0    3.63    0.77 
  -3  -7   0    3.62    0.64 
   3   7   0    2.71    0.53 
  -3   7   0    2.76    0.54 
  -3  -7   0    3.16    0.42 
  -4   7   0    6.71    0.76 
  -4  -7   0    9.78    1.00 
   4  -7   0    8.99    1.21 
   4   7   0    8.16    0.82 
  -5   7   0   19.32    1.27 
   5  -7   0   21.32    1.78 
  -5  -7   0   19.98    1.49 
  -6   7   0   12.52    1.11 
   6  -7   0    9.32    1.52 
   0  -8   0   18.51    1.36 
   0   8   0   19.78    1.32 
   1  -8   0   17.19    1.33 
   1   8   0   15.81    1.14 
   2  -8   0   21.60    1.61 
   2   8   0   24.04    1.42 
  -3  -8   0   17.91    0.95 
   3  -8   0   16.48    1.47 
  -3   8   0   17.92    1.12 
  -3  -8   0   16.75    1.19 
   3   8   0   17.97    1.23 
   4  -8   0    1.58    0.74 
  -4  -8   0    2.83    0.69 
  -4   8   0    3.82    0.68 
   5  -8   0    1.54    0.74 
  -5   8   0    0.94    0.54 
  -5  -8   0    2.37    0.77 
   6  -8   0    2.11    0.91 
  -6   8   0    2.48    0.74 
   0  -9   0   -0.03    0.42 
   0   9   0    0.00    0.41 
   1   9   0    5.76    0.83 
   1  -9   0    6.33    0.95 
   2  -9   0   19.48    1.60 
   2   9   0   20.34    1.40 
  -3  -9   0    2.29    0.46 
   3  -9   0    3.09    0.80 
  -3  -9   0    3.34    0.65 
   3   9   0    2.75    0.65 
   4  -9   0   10.17    1.41 
  -4   9   0    8.17    0.91 
  -4  -9   0    9.29    1.08 
  -5   9   0    4.60    0.84 
   5  -9   0    3.81    1.01 
  -5  -9   0    2.87    0.89 
   0 -10   0   32.55    2.04 
   1 -10   0    5.35    0.98 
   1  10   0    5.79    0.89 
  -1 -10   0    6.06    0.95 
   2  10   0    0.29    0.50 
   2 -10   0    0.83    0.62 
  -3 -10   0    5.00    0.80 
   3 -10   0    4.26    0.97 
  -4 -10   0    1.58    0.74 
   4 -10   0    2.32    0.88 
   0 -11   0   -0.53    0.51 
   1 -11   0    4.06    0.98 
   1  11   0    6.91    0.99 
  -1 -11   0    4.80    0.95 
   2 -11   0   10.26    1.43 
  -2 -11   0   12.69    1.12 
   2  11   0   10.96    1.15 
   3 -11   0    1.00    0.69 
  -3 -11   0    0.49    0.62 
  -4 -11   0    5.96    1.07 
   4 -11   0    4.70    1.14 
   0 -12   0    0.51    0.72 
   1 -12   0   11.62    1.56 
  -1 -12   0   11.07    1.44 
   2 -12   0    3.77    1.16 
   2  12   0    3.87    0.87 
  -2 -12   0    1.93    0.85 
   0   0   1   -0.97    0.02 
   0   0  -1   -0.94    0.01 
   0   0  -1   -0.92    0.01 
  -1   0   1  138.39    3.97 
  -1   0  -1  134.20    3.92 
   1   0   1  145.60    4.96 
  -1   0  -1  134.17    4.01 
  -2   0  -1   28.39    0.98 
  -2   0  -1   27.75    1.06 
  -2   0   1   27.29    0.93 
  -3   0  -1   53.81    1.77 
  -3   0   1   53.21    1.72 
  -4   0  -1   39.06    1.42 
   4   0  -1   35.56    2.05 
  -4   0   1   40.48    1.38 
  -5   0  -1   55.86    1.99 
   5   0   1   54.07    2.77 
   5   0  -1   57.61    2.82 
  -5   0   1   56.64    1.94 
   6   0  -1   32.87    2.05 
   6   0   1   29.12    1.96 
   0   1  -1    2.15    0.17 
   0  -1  -1    1.56    0.16 
  -1  -1  -1  459.81   13.28 
   1   1  -1  457.82   16.43 
  -1   1   1  467.25   13.30 
   1  -1   1  458.43   16.45 
  -1  -1   1  463.74   13.22 
   1   1   1  457.49   16.36 
   1  -1  -1  497.12   16.52 
   2  -1   1  114.31    4.06 
  -2  -1  -1  105.86    3.19 
   2   1  -1  103.31    3.98 
  -2  -1  -1  100.51    3.22 
  -2   1   1  105.04    3.20 
  -2  -1   1  107.89    3.12 
   2   1   1  105.79    3.91 
  -2   1  -1  109.27    3.24 
  -3  -1  -1   54.42    1.74 
  -3  -1  -1   52.66    1.90 
  -3   1   1   52.39    1.74 
   3   1   1   51.13    2.21 
  -3  -1   1   52.93    1.67 
  -3   1  -1   53.05    1.79 
  -4   1   1   42.81    1.51 
   4   1  -1   43.67    2.00 
  -4  -1  -1   42.99    1.50 
   4   1   1   40.60    1.90 
  -4  -1   1   41.89    1.43 
  -4   1  -1   40.62    1.54 
   5  -1   1    1.18    0.86 
  -5   1   1    4.86    0.49 
  -5  -1  -1    4.53    0.46 
   5   1  -1    4.29    0.69 
  -5   1  -1    4.70    0.52 
   5  -1  -1    3.16    1.03 
  -5  -1   1    5.34    0.45 
   5   1   1    4.75    0.66 
   6   1  -1   16.17    1.31 
   6  -1   1   17.31    1.89 
  -6   1  -1   18.07    1.00 
   6  -1  -1   21.12    2.11 
   0  -2  -1 1000.00   34.24 
   0   2  -1  982.42   34.24 
   0   2  -1  976.43   27.70 
   0   2   1  939.47   34.20 
   1  -2   1  156.87    5.55 
   1   2  -1  150.19    5.47 
  -1  -2  -1  150.36    4.41 
  -1   2   1  145.51    4.45 
   1  -2  -1  152.15    5.57 
   1   2   1  151.95    5.42 
  -1  -2   1  150.50    4.35 
   2  -2   1   66.81    2.70 
  -2   2   1   66.96    2.13 
  -2  -2  -1   64.19    2.05 
   2   2  -1   64.12    2.59 
  -2   2  -1   67.88    2.16 
  -2  -2   1   67.37    2.00 
  -2  -2   1   68.96    2.17 
   2   2   1   67.40    2.53 
  -3  -2  -1    1.93    0.37 
   3  -2   1    2.50    0.48 
  -3  -2  -1    2.52    0.28 
  -3   2   1    2.31    0.32 
  -3   2  -1    2.19    0.33 
   3  -2  -1    2.46    0.55 
  -3  -2   1    2.60    0.24 
   3   2   1    2.00    0.33 
  -4   2   1    7.17    0.54 
  -4  -2  -1    5.52    0.64 
   4   2  -1    6.68    0.65 
  -4  -2  -1    6.91    0.48 
   4   2   1    5.00    0.54 
  -4  -2   1    8.10    0.44 
  -4   2  -1    7.43    0.57 
  -5  -2  -1    3.86    0.43 
  -5   2   1    3.62    0.46 
   5   2  -1    3.43    0.60 
   5   2   1    4.21    0.58 
   5  -2  -1    0.83    0.78 
  -5   2  -1    3.03    0.45 
  -6   2   1    8.75    0.73 
   6  -2  -1    6.17    1.49 
  -6   2  -1   10.77    0.78 
   7  -2  -1    0.54    1.12 
   0   3   1  195.96    7.08 
   0   3  -1  194.84    7.11 
   0   3  -1  196.82    5.74 
   1   3  -1  101.05    3.77 
   1  -3   1   97.70    3.84 
   1   3   1  102.11    3.72 
   2  -3   1   33.71    1.59 
   2   3  -1   34.38    1.47 
  -2  -3  -1   32.74    1.14 
  -2   3   1   34.21    1.24 
   2  -3  -1   32.62    1.61 
  -2  -3   1   30.59    1.26 
  -2   3  -1   35.71    1.27 
  -2  -3   1   31.75    1.08 
   2   3   1   32.13    1.39 
  -3   3   1   14.72    0.73 
   3  -3   1   13.90    0.98 
  -3  -3  -1   14.82    0.64 
  -3   3  -1   14.12    0.76 
   3   3   1   13.38    0.77 
  -3  -3   1   13.47    0.57 
   3  -3  -1   13.81    1.02 
  -3  -3   1   14.06    0.83 
  -4  -3  -1   12.02    0.62 
  -4   3   1   10.04    0.69 
   4  -3   1   11.67    1.05 
   4   3  -1   11.92    0.87 
  -4  -3   1   12.66    0.57 
  -4   3  -1   12.33    0.75 
   4   3   1   10.78    0.76 
  -5   3   1   27.37    1.25 
   5   3  -1   25.20    1.46 
  -5  -3  -1   26.47    1.10 
   5   3   1   28.04    1.43 
  -5   3  -1   25.07    1.23 
  -6   3   1    7.26    0.71 
   6  -3  -1    2.87    1.10 
  -6   3  -1    6.47    0.70 
   7  -3  -1    2.11    1.36 
   0   4  -1    5.88    0.43 
   0   4   1    6.11    0.52 
   1   4  -1   19.63    1.04 
   1  -4  -1   23.62    1.19 
  -2  -4  -1   15.05    0.69 
  -2   4   1   16.11    0.80 
   2  -4   1   16.12    1.03 
   2  -4  -1   15.56    1.04 
  -2   4  -1   15.31    0.78 
  -2  -4   1   15.05    0.64 
  -2  -4   1   15.48    0.85 
   2   4   1   16.01    0.85 
   3   4  -1    3.59    0.48 
   3  -4   1    3.75    0.60 
  -3  -4  -1    2.94    0.46 
  -3   4   1    3.80    0.43 
  -3  -4  -1    2.84    0.31 
  -3  -4   1    2.70    0.27 
  -3   4  -1    2.68    0.41 
  -3  -4   1    2.76    0.47 
   3  -4  -1    2.09    0.52 
  -4  -4  -1    7.13    0.51 
   4  -4   1    8.12    0.89 
  -4   4   1    7.25    0.62 
   4   4  -1    7.08    0.71 
  -4  -4   1    7.05    0.46 
  -4   4  -1    6.87    0.60 
   4   4   1    7.36    0.65 
  -4  -4   1    6.62    0.73 
   4  -4  -1    7.42    1.02 
  -5  -4  -1   18.77    1.23 
   5  -4   1   14.46    1.49 
  -5   4   1   18.08    1.00 
   5   4  -1   17.06    1.16 
  -5   4  -1   17.84    1.00 
  -6   4   1    3.62    0.58 
   6  -4   1    0.54    0.68 
  -6   4  -1    3.50    0.58 
   6  -4  -1    1.56    0.86 
   7  -4   1    1.84    1.22 
   7  -4  -1    1.68    1.33 
   0   5  -1   47.77    2.12 
   0   5   1   49.57    2.11 
   1   5  -1   14.27    0.88 
  -1   5   1   15.77    0.77 
  -1   5  -1   15.39    0.77 
  -1   5  -1   15.98    0.97 
   1  -5  -1   15.06    1.00 
   1   5   1   12.67    0.83 
   2   5  -1   12.58    0.82 
  -2   5   1   12.29    0.72 
   2  -5   1   13.33    0.98 
  -2  -5  -1   11.86    0.63 
  -2  -5   1   11.46    0.77 
   2  -5  -1   11.41    0.93 
  -3  -5  -1   20.61    0.90 
   3  -5   1   20.33    1.40 
  -3  -5  -1   21.05    1.17 
   3   5  -1   21.70    1.19 
  -3   5   1   20.02    1.04 
  -3  -5   1   22.05    0.86 
  -3   5  -1   20.53    1.04 
   3   5   1   22.03    1.13 
  -3  -5   1   22.43    1.13 
   3  -5  -1   19.61    1.40 
  -4  -5  -1    1.98    0.32 
   4  -5   1    1.70    0.59 
  -4   5   1    2.85    0.47 
  -4  -5  -1    2.46    0.57 
   4   5  -1    1.80    0.48 
   4  -5  -1    2.38    0.69 
  -4   5  -1    1.59    0.45 
   4   5   1    2.24    0.43 
  -4  -5   1    2.31    0.57 
  -5   5   1   10.12    0.83 
   5  -5   1    9.77    1.32 
  -5  -5  -1   11.87    1.00 
   5  -5  -1    8.25    1.26 
  -5   5  -1   11.72    0.88 
   6  -5   1   10.74    1.45 
   7  -5   1    4.83    1.54 
  -7   5  -1    4.04    0.75 
   7  -5  -1    6.16    1.82 
   0  -6  -1   41.96    1.96 
   0   6  -1   40.68    1.91 
   0   6   1   38.66    1.86 
   1  -6   1   11.97    0.95 
   1   6  -1   13.67    0.92 
  -1   6  -1   14.02    0.95 
   1   6   1   12.90    0.88 
  -1   6  -1   13.63    0.77 
   1  -6  -1   13.66    1.02 
   2   6  -1   67.70    2.89 
  -2  -6  -1   67.91    2.30 
   2  -6   1   68.59    3.12 
   2   6   1   68.73    2.84 
  -2  -6   1   71.51    2.42 
  -3  -6  -1   18.71    1.14 
   3   6  -1   17.46    1.14 
  -3  -6  -1   18.58    0.88 
  -3   6   1   18.39    1.02 
   3  -6   1   18.93    1.41 
   3  -6  -1   17.91    1.40 
  -3  -6   1   18.33    1.13 
   3   6   1   18.79    1.09 
  -3   6  -1   18.46    1.02 
  -3  -6   1   18.67    0.83 
  -4   6   1   10.88    0.81 
  -4  -6  -1    9.96    0.65 
   4   6  -1   10.24    0.90 
   4  -6   1    9.31    1.10 
  -4  -6  -1   10.27    0.93 
   4   6   1   10.17    0.82 
   4  -6  -1    8.33    1.14 
  -4   6  -1    9.44    0.78 
  -4  -6   1    9.93    0.99 
   5  -6   1    3.45    0.82 
  -5   6   1    4.09    0.62 
  -5  -6  -1    3.78    0.75 
  -5   6  -1    2.38    0.55 
  -5  -6   1    2.43    0.69 
   5  -6  -1    3.41    0.92 
   6  -6   1    0.85    0.68 
  -6   6   1    0.55    0.50 
   6  -6  -1    1.43    0.75 
  -6   6  -1    0.83    0.52 
   0   7  -1    6.02    0.69 
   0   7   1    5.83    0.71 
   0  -7  -1    6.02    0.77 
   1  -7   1    6.07    0.81 
   1   7  -1    5.66    0.66 
   1   7   1    6.58    0.71 
   1  -7  -1    5.13    0.78 
  -1   7  -1    6.16    0.63 
   3  -7   1    5.01    0.87 
  -3  -7  -1    6.55    0.76 
   3   7  -1    5.93    0.74 
  -3   7   1    6.47    0.71 
  -3  -7  -1    6.03    0.57 
  -3  -7   1    6.90    0.77 
  -3   7  -1    6.84    0.72 
  -3  -7   1    6.12    0.53 
   3   7   1    6.28    0.68 
   3  -7  -1    5.55    0.90 
  -4  -7  -1   26.88    1.51 
  -4   7   1   28.48    1.43 
   4   7  -1   26.12    1.54 
   4  -7   1   26.77    1.94 
  -4   7  -1   26.35    1.42 
  -4  -7   1   27.34    1.54 
   4  -7  -1   24.78    1.85 
  -5   7   1   21.36    1.28 
   5  -7   1   21.46    1.77 
  -5  -7  -1   20.67    1.46 
  -5   7  -1   21.93    1.34 
  -5  -7   1   19.99    1.49 
   5  -7  -1   22.58    1.88 
  -6   7   1    0.54    0.56 
   6  -7   1    0.74    0.71 
  -6  -7  -1    0.62    0.62 
  -6   7  -1    1.80    0.63 
   6  -7  -1    1.59    0.82 
   0   8  -1   74.08    3.25 
   0  -8  -1   71.76    3.31 
   1  -8   1  132.15    5.48 
   1   8  -1  131.68    5.28 
   1   8   1  130.83    5.24 
   1  -8  -1  131.31    5.48 
   2  -8   1    0.18    0.45 
   2   8  -1    0.29    0.41 
  -2  -8   1   -0.07    0.37 
  -2   8  -1   -0.05    0.35 
   2   8   1    0.34    0.39 
   2  -8  -1    0.18    0.42 
  -3   8   1    0.25    0.36 
   3   8  -1   -0.07    0.38 
   3  -8   1   -0.02    0.58 
  -3  -8  -1    0.38    0.31 
  -3  -8  -1    0.58    0.48 
  -3  -8   1    0.27    0.45 
   3   8   1    0.85    0.44 
  -3  -8   1    0.30    0.28 
   3  -8  -1    0.20    0.48 
  -3   8  -1    0.78    0.40 
   4   8  -1    0.94    0.51 
   4  -8   1    0.81    0.58 
  -4  -8  -1    0.85    0.57 
  -4   8   1    1.37    0.51 
   4  -8  -1    0.33    0.55 
  -4   8  -1    0.61    0.47 
  -4  -8   1    0.96    0.52 
   5  -8   1    9.96    1.39 
  -5  -8  -1    9.16    1.15 
  -5   8   1    8.77    0.95 
   5  -8  -1   10.69    1.46 
  -5  -8   1    9.55    1.16 
  -5   8  -1    9.03    0.98 
  -6  -8  -1    1.35    0.80 
   6  -8   1    1.52    0.93 
  -6   8   1    1.71    0.69 
  -6   8  -1    2.21    0.73 
   6  -8  -1    1.01    0.88 
   0   9  -1   11.52    1.11 
   0  -9  -1    9.48    1.03 
   0  -9   1   12.49    1.18 
  -1  -9  -1    9.81    1.02 
   1  -9   1   10.57    1.12 
   1   9  -1   10.30    1.05 
   1  -9  -1    9.63    1.13 
   1   9   1    9.15    0.99 
   2  -9   1   54.31    2.88 
   2   9  -1   53.14    2.59 
   2  -9  -1   52.24    2.85 
  -2  -9   1   53.80    2.14 
   2   9   1   52.08    2.54 
  -3  -9  -1    9.42    0.98 
   3   9  -1    9.43    1.00 
  -3  -9  -1    9.20    0.74 
   3  -9   1    8.65    1.22 
   3  -9  -1   10.08    1.19 
   3   9   1    9.25    0.99 
  -3   9  -1    7.90    0.85 
  -3  -9   1   11.15    1.02 
  -4  -9  -1    8.24    1.05 
   4  -9   1    7.91    1.27 
   4  -9  -1   10.35    1.40 
  -4   9  -1    9.37    0.97 
  -4  -9   1    8.07    1.00 
  -5  -9  -1    3.97    0.88 
   5  -9   1    2.49    0.88 
   5  -9  -1    2.99    0.98 
  -5   9  -1    2.70    0.76 
  -5  -9   1    3.13    0.91 
   0  10  -1    4.77    0.84 
   0 -10  -1    5.35    0.96 
   0 -10   1    4.04    0.85 
  -1 -10  -1   13.17    1.24 
   1 -10   1   12.80    1.32 
   1  10  -1   13.80    1.26 
   1  10   1   13.25    1.21 
   1 -10  -1   15.36    1.40 
   2 -10   1    0.45    0.58 
   2  10  -1    0.44    0.52 
  -2 -10   1    0.30    0.46 
   2 -10  -1    1.12    0.64 
   2  10   1    0.63    0.54 
   3  10  -1   29.13    1.86 
  -3 -10  -1   33.08    1.77 
   3 -10   1   31.82    2.25 
  -3 -10   1   32.64    1.76 
   3 -10  -1   31.62    2.21 
  -4 -10  -1    1.38    0.71 
   4 -10   1    0.19    0.67 
  -4 -10   1    0.31    0.63 
   4 -10  -1    0.14    0.68 
  -4  10  -1   -0.51    0.40 
   0 -11   1    0.65    0.63 
   0 -11  -1   -0.03    0.55 
  -1 -11  -1    1.22    0.65 
   1 -11   1    0.72    0.68 
   1  11  -1    0.59    0.56 
  -1 -11   1    0.15    0.58 
   1 -11  -1    0.80    0.74 
   2  11  -1    9.36    1.15 
   2 -11   1    8.78    1.29 
  -2 -11  -1    9.55    1.19 
   2  11   1    9.57    1.11 
   2 -11  -1    7.74    1.31 
   3 -11   1    3.37    0.91 
  -3 -11  -1    3.50    0.81 
   3 -11  -1    1.51    0.78 
  -3 -11   1    2.44    0.77 
   4 -11   1    0.59    0.85 
  -4 -11  -1    0.23    0.70 
  -4 -11   1    0.87    0.76 
   4 -11  -1    0.21    0.73 
   0 -12   1    9.72    1.41 
   0 -12  -1    9.66    1.38 
   1 -12   1    6.87    1.29 
  -1 -12  -1    7.87    1.23 
  -1 -12   1    6.88    1.19 
   1 -12  -1    6.22    1.26 
   2 -12   1    2.17    0.94 
  -2 -12  -1    0.77    0.76 
   2  12  -1    2.46    0.76 
  -2 -12  -1    2.13    0.63 
   2 -12  -1    2.30    1.04 
  -2 -12   1    1.09    0.78 
   0   0  -2  638.88   18.16 
  -1   0   2  211.49    5.77 
  -1   0  -2  181.28    5.84 
   1   0  -2  186.85    7.30 
   1   0   2  227.76    7.16 
  -2   0  -2    0.32    0.20 
   2   0   2   -0.15    0.19 
   2   0  -2    0.58    0.35 
  -2   0   2    0.47    0.13 
  -2   0  -2    0.55    0.19 
  -3   0  -2   27.30    1.12 
   3   0  -2   24.49    1.85 
  -3   0   2   25.61    0.93 
  -3   0  -2   26.72    1.04 
   4   0   2    1.15    0.54 
   4   0  -2    2.29    0.65 
  -4   0   2    2.94    0.31 
  -4   0  -2    2.31    0.35 
  -5   0  -2    8.95    0.67 
   5   0  -2    8.78    1.11 
   5   0   2    8.73    1.07 
  -5   0   2    9.71    0.59 
  -6   0  -2   13.84    0.88 
   6   0  -2   12.46    1.41 
   0  -1  -2    2.18    0.23 
   0   1  -2    2.23    0.19 
  -1  -1  -2  600.22   17.02 
   1   1  -2  606.83   21.07 
  -1   1   2  588.66   17.01 
  -1  -1  -2  589.75   20.91 
   1  -1   2  604.79   21.04 
  -1   1  -2  608.78   16.50 
   1   1   2  582.36   20.92 
  -2  -1  -2   87.49    2.66 
   2  -1   2   89.74    3.33 
  -2   1   2   87.73    2.63 
  -2  -1  -2   86.58    2.69 
   2   1  -2   86.42    3.34 
   2   1   2   85.09    3.19 
  -2  -1   2   86.89    2.53 
  -2   1  -2   85.18    2.70 
  -3   1   2   11.97    0.55 
  -3  -1  -2   13.30    0.61 
  -3  -1  -2   13.12    0.75 
   3   1  -2    8.25    0.82 
   3  -1   2    8.66    0.78 
   3   1   2    9.38    0.78 
  -3  -1   2   12.50    0.49 
  -3   1  -2   12.21    0.64 
  -4  -1  -2   28.08    1.37 
   4   1  -2   29.79    1.56 
  -4   1   2   28.99    1.12 
  -4  -1  -2   30.52    1.17 
  -4   1  -2   29.44    1.21 
  -4  -1   2   29.60    1.05 
  -5  -1  -2   38.25    1.48 
  -5   1   2   36.97    1.41 
   5   1  -2   38.84    1.99 
   5   1   2   40.02    1.85 
   5  -1  -2   30.41    2.37 
  -5   1  -2   39.21    1.54 
   6  -1   2    9.31    1.53 
   6   1  -2   10.11    1.14 
   6  -1  -2   13.63    1.65 
  -6   1  -2   11.38    0.80 
   7  -1  -2    5.01    1.16 
   0  -2  -2   91.74    3.37 
   0   2  -2   86.74    3.37 
   0   2  -2   92.36    2.71 
  -1   2   2  498.29   14.01 
   1   2  -2  502.23   17.32 
  -1  -2  -2  490.66   13.99 
  -1   2  -2  444.52   14.02 
  -1   2  -2  489.64   17.31 
  -1  -2   2  489.43   13.63 
   1   2   2  507.63   17.19 
   2  -2   2   40.01    1.76 
  -2   2   2   40.45    1.37 
  -2  -2  -2   38.97    1.34 
   2   2  -2   40.57    1.72 
  -2  -2   2   40.10    1.46 
  -2   2  -2   41.30    1.43 
  -2  -2   2   40.89    1.22 
   2   2   2   39.73    1.56 
  -3  -2  -2   15.53    0.71 
  -3   2   2   16.30    0.74 
   3  -2   2   15.80    1.01 
  -3  -2  -2   15.33    0.87 
   3   2  -2   14.48    0.92 
  -3  -2   2   16.27    0.58 
   3   2   2   16.48    0.82 
  -3   2  -2   15.89    0.79 
  -4  -2  -2   78.76    2.51 
   4  -2   2   63.54    3.31 
  -4   2   2   81.35    2.55 
   4   2  -2   78.04    3.20 
  -4  -2  -2   79.17    2.74 
  -4  -2   2   77.73    2.35 
  -4   2  -2   76.64    2.60 
  -5  -2  -2   24.60    1.08 
  -5   2   2   23.89    1.09 
   5   2  -2   24.14    1.46 
   5   2   2   22.61    1.27 
  -5   2  -2   24.79    1.16 
   6   2  -2   12.50    1.19 
  -6   2  -2   15.02    0.95 
   6  -2  -2   13.65    1.90 
   7  -2  -2    4.75    1.39 
   0  -3  -2   66.47    2.54 
   0   3  -2   63.92    2.02 
   0   3  -2   63.34    2.53 
  -1  -3  -2   15.86    0.67 
   1   3  -2   17.20    0.86 
  -1   3  -2   13.09    0.67 
   1   3   2   16.72    0.76 
  -1  -3   2   16.50    0.70 
  -2  -3  -2   32.94    1.18 
   2  -3   2   31.25    1.57 
  -2   3   2   34.32    1.23 
   2   3   2   32.47    1.35 
  -2   3  -2   36.00    1.28 
  -2  -3   2   32.00    1.27 
   2  -3  -2   32.56    1.63 
  -2  -3   2   32.07    1.06 
   3  -3   2   12.37    0.92 
  -3   3   2   11.96    0.65 
  -3  -3  -2   12.85    0.62 
   3   3  -2   12.51    0.82 
  -3  -3  -2   11.81    0.79 
   3   3   2   12.58    0.70 
  -3  -3   2   11.75    0.80 
  -3   3  -2   12.37    0.73 
   3  -3  -2   11.72    1.05 
  -3  -3   2   12.41    0.50 
  -4   3   2    7.23    0.56 
   4   3  -2    7.39    0.70 
   4  -3   2    8.31    0.89 
  -4  -3  -2    7.45    0.75 
  -4  -3  -2    6.63    0.51 
  -4  -3   2    6.40    0.39 
  -4   3  -2    6.57    0.57 
  -5  -3  -2   17.46    0.89 
  -5  -3  -2   15.90    1.22 
   5   3  -2   16.85    1.17 
  -5   3   2   15.99    0.92 
  -5   3  -2   18.31    1.00 
  -6   3   2   36.59    1.56 
  -6   3  -2   36.87    1.64 
   7  -3  -2    4.24    1.54 
   0  -4  -2  179.81    6.59 
   0   4  -2  176.05    5.28 
   1   4   2   44.06    1.81 
  -1   4  -2   45.11    1.57 
  -1  -4   2   42.75    1.49 
   1  -4  -2   44.60    2.00 
  -2   4   2   32.04    1.24 
  -2  -4  -2   30.51    1.16 
   2  -4   2   30.41    1.58 
   2   4  -2   30.65    1.46 
  -2  -4   2   31.77    1.28 
   2   4   2   31.48    1.36 
   2  -4  -2   32.29    1.64 
   3  -4   2    4.05    0.61 
   3   4  -2    3.80    0.51 
  -3   4   2    3.75    0.44 
  -3  -4  -2    3.64    0.37 
  -3  -4  -2    4.04    0.51 
   3   4   2    3.99    0.41 
   3  -4  -2    4.32    0.66 
  -3   4  -2    3.86    0.47 
  -3  -4   2    3.38    0.48 
  -3  -4   2    3.99    0.30 
   4   4  -2   13.35    0.97 
  -4   4   2   15.27    0.86 
  -4  -4  -2   14.66    0.73 
   4  -4   2   14.52    1.19 
   4  -4  -2   12.46    1.25 
  -4   4  -2   14.26    0.88 
   5  -4   2   19.28    1.62 
   5   4  -2   20.06    1.28 
  -5  -4  -2   23.07    1.36 
  -5   4   2   19.17    1.06 
  -5   4  -2   18.09    1.08 
   6  -4   2    0.01    0.60 
  -6   4   2    1.85    0.45 
   6  -4  -2    0.67    0.77 
  -6   4  -2    1.49    0.44 
  -7   4  -2    4.43    0.74 
   7  -4  -2    2.65    1.45 
   0   5  -2   10.60    0.79 
   0  -5  -2   11.91    0.84 
   0   5  -2   11.03    0.61 
   1   5  -2   30.16    1.42 
   1  -5  -2   28.24    1.51 
  -1   5  -2   27.00    1.15 
  -1   5  -2   26.36    1.41 
   2  -5   2   35.37    1.81 
  -2  -5  -2   35.21    1.31 
  -2   5   2   35.89    1.40 
   2   5  -2   33.66    1.64 
  -2  -5   2   34.12    1.40 
  -3  -5  -2    9.95    0.60 
   3  -5   2    9.52    0.97 
   3   5  -2    9.79    0.80 
  -3   5   2   10.35    0.72 
  -3  -5  -2   11.84    0.83 
   3  -5  -2   10.60    1.04 
  -3  -5   2   10.34    0.53 
  -3  -5   2   10.61    0.83 
  -3   5  -2   11.02    0.77 
   4  -5   2   40.10    2.18 
  -4  -5  -2   42.86    1.83 
  -4   5   2   38.52    1.62 
   4   5  -2   38.49    1.93 
  -4  -5  -2   40.07    1.49 
  -4   5  -2   37.08    1.66 
   4   5   2   39.09    1.77 
  -4  -5   2   39.27    1.80 
   4  -5  -2   40.02    2.32 
   5   5  -2    1.53    0.53 
  -5   5   2    1.26    0.42 
   5  -5   2    0.85    0.63 
  -5  -5  -2    1.20    0.51 
   5  -5  -2    0.80    0.73 
  -5   5  -2    2.07    0.48 
   6  -5   2    1.66    0.75 
  -6   5   2    3.35    0.59 
  -6   5  -2    3.16    0.63 
   6  -5  -2    0.23    0.70 
   7  -5   2    5.55    1.57 
   7  -5  -2    6.78    1.88 
   0   6  -2   54.12    1.94 
   0   6  -2   56.35    2.47 
   0  -6  -2   57.07    2.52 
   1   6  -2   38.39    1.84 
   1   6   2   39.00    1.80 
  -1   6  -2   39.05    1.91 
  -1   6  -2   40.55    1.55 
   1  -6  -2   38.98    1.98 
   2   6  -2    6.64    0.68 
  -2  -6  -2    5.92    0.51 
   2  -6   2    5.62    0.80 
  -2  -6   2    5.68    0.59 
   2   6   2    6.85    0.60 
  -2   6  -2    4.31    0.52 
  -3  -6  -2    4.05    0.62 
   3   6  -2    3.47    0.57 
  -3  -6  -2    3.88    0.44 
  -3   6   2    3.09    0.51 
   3  -6   2    3.18    0.68 
   3  -6  -2    3.51    0.73 
  -3  -6   2    4.40    0.40 
  -3  -6   2    4.17    0.61 
   3   6   2    4.15    0.51 
  -3   6  -2    1.71    0.39 
  -4  -6  -2   23.80    1.08 
   4  -6   2   25.32    1.76 
   4   6  -2   24.56    1.45 
  -4   6   2   24.22    1.27 
  -4  -6  -2   24.04    1.39 
   4  -6  -2   25.12    1.77 
  -4   6  -2   25.62    1.29 
  -4  -6   2   23.72    1.41 
  -5  -6  -2    6.47    0.88 
  -5   6   2    5.54    0.70 
   5  -6   2    5.66    1.02 
   5  -6  -2    4.22    1.05 
  -5   6  -2    5.16    0.69 
  -6  -6  -2    2.10    0.67 
   6  -6   2    2.27    0.89 
  -6   6   2    2.05    0.57 
  -6   6  -2    1.39    0.60 
   6  -6  -2    0.45    0.70 
   0   7  -2   66.38    2.93 
   0  -7  -2   65.49    2.95 
   1   7  -2   73.96    3.23 
  -1   7  -2   75.65    2.66 
  -1   7  -2   77.71    3.32 
   1   7   2   76.41    3.19 
   1  -7  -2   76.98    3.42 
  -2  -7  -2   58.94    2.02 
   2   7  -2   54.46    2.49 
  -2  -7   2   54.37    2.06 
   2   7   2   56.96    2.41 
  -2   7  -2   46.95    2.05 
  -3   7   2   23.79    1.24 
  -3  -7  -2   22.45    1.07 
   3  -7   2   20.62    1.57 
   3   7  -2   24.22    1.44 
  -3  -7   2   23.53    1.29 
  -3   7  -2   19.93    1.16 
   3  -7  -2   23.68    1.68 
   3   7   2   22.25    1.27 
  -3  -7   2   24.01    1.02 
  -4  -7  -2    0.81    0.31 
  -4   7   2    0.70    0.45 
  -4  -7  -2    1.76    0.59 
   4   7  -2    0.59    0.48 
   4  -7   2    1.41    0.67 
   4  -7  -2    1.27    0.72 
  -4  -7   2    1.12    0.54 
  -4   7  -2    1.96    0.51 
   5  -7   2    1.96    0.73 
  -5  -7  -2    3.48    0.76 
  -5   7   2    3.51    0.66 
  -5   7  -2    2.85    0.65 
   5  -7  -2    2.09    0.83 
  -6   7   2   13.47    1.10 
   6  -7   2   13.56    1.75 
  -6  -7  -2   10.26    1.23 
  -6   7  -2   10.62    1.11 
   0  -8  -2   18.83    1.37 
   0   8  -2   19.30    1.34 
   1  -8   2   30.46    1.85 
   1   8  -2   30.84    1.72 
  -1  -8  -2   30.70    1.72 
   1   8   2   29.12    1.66 
  -1   8  -2   32.39    1.46 
   1  -8  -2   29.61    1.85 
  -1   8  -2   32.61    1.80 
   2  -8   2   19.57    1.52 
   2   8  -2   21.03    1.37 
  -2  -8  -2   22.00    1.09 
  -2  -8   2   22.25    1.20 
  -2   8  -2   19.03    1.18 
   2  -8  -2   21.44    1.58 
   2   8   2   21.10    1.32 
   3   8  -2   31.48    1.78 
  -3  -8  -2   30.20    1.57 
   3  -8   2   33.95    2.14 
  -3  -8  -2   30.76    1.38 
   3  -8  -2   31.88    2.04 
   3   8   2   29.69    1.63 
  -3   8  -2   30.89    1.52 
  -3  -8   2   31.81    1.58 
   4  -8   2   13.85    1.37 
  -4  -8  -2   12.18    1.19 
   4   8  -2   14.50    1.21 
  -4  -8   2   12.40    1.14 
   4  -8  -2   12.59    1.40 
  -4   8  -2   15.16    1.09 
   5  -8   2    4.06    0.97 
  -5  -8  -2    4.72    0.94 
   5  -8  -2    4.55    1.11 
  -5   8  -2    4.66    0.79 
  -6  -8  -2    4.26    1.03 
   6  -8   2    3.50    1.04 
  -6   8  -2    3.45    0.78 
   6  -8  -2    2.95    1.05 
   0  -9  -2   18.67    1.42 
   0   9  -2   20.43    1.42 
   1  -9   2   34.19    2.06 
  -1  -9  -2   32.16    1.91 
   1   9  -2   33.96    1.94 
   1  -9  -2   34.31    2.09 
   2  -9   2   23.20    1.73 
  -2  -9  -2   26.67    1.28 
   2   9  -2   24.24    1.60 
  -2  -9   2   24.63    1.34 
  -2   9  -2   24.88    1.37 
   2   9   2   25.92    1.57 
   2  -9  -2   25.17    1.80 
   3  -9   2    8.27    1.17 
  -3  -9  -2    8.00    0.77 
  -3  -9  -2    7.49    0.91 
   3   9  -2    8.17    0.98 
   3  -9  -2    7.35    1.13 
  -3   9  -2    7.00    0.81 
  -3  -9   2    6.61    0.85 
  -4  -9  -2    3.88    0.81 
   4  -9   2    4.09    0.96 
   4  -9  -2    3.42    0.91 
  -4  -9   2    5.47    0.89 
  -4   9  -2    4.31    0.71 
   5  -9   2    1.17    0.76 
  -5  -9  -2    1.04    0.76 
   5  -9  -2    1.05    0.83 
  -5   9  -2    1.96    0.71 
   0 -10  -2    6.85    1.01 
   0 -10   2    8.02    1.09 
   0  10  -2    6.47    0.94 
  -1 -10  -2    4.55    0.85 
   1 -10   2    5.45    0.97 
   1  10  -2    4.95    0.87 
   1 -10  -2    4.65    0.96 
   2 -10   2   13.69    1.41 
   2  10  -2   17.65    1.39 
  -2 -10  -2   15.44    1.04 
  -2 -10  -2   19.61    1.41 
   2 -10  -2   15.36    1.51 
   2  10   2   17.87    1.33 
  -2 -10   2   17.56    1.20 
   3  10  -2    8.69    1.09 
  -3 -10  -2    9.01    0.81 
   3 -10   2    7.87    1.23 
  -3 -10  -2    7.73    0.97 
  -3 -10   2    9.84    1.02 
  -3  10  -2    6.83    0.86 
   3 -10  -2    7.96    1.27 
  -4 -10  -2    1.13    0.68 
   4 -10   2    1.42    0.78 
  -4  10  -2    0.98    0.54 
  -4 -10   2    1.02    0.71 
   4 -10  -2    1.25    0.78 
   0 -11  -2    1.95    0.76 
   0 -11   2    1.59    0.75 
  -1 -11  -2    6.09    0.99 
   1 -11   2    3.86    0.96 
   1  11  -2    6.16    0.97 
   1 -11  -2    4.32    1.04 
   2 -11   2    1.78    0.79 
  -2 -11  -2    2.03    0.58 
  -2 -11  -2    1.54    0.66 
   2  11  -2    2.70    0.73 
   2 -11  -2    1.83    0.93 
   3 -11   2    3.75    0.97 
  -3 -11  -2    4.53    0.88 
   3  11  -2    4.24    0.86 
  -3 -11   2    4.74    0.82 
   3 -11  -2    5.73    1.15 
   4 -11   2    4.80    1.29 
  -4 -11  -2    7.37    1.12 
  -4 -11   2    5.39    1.00 
   4 -11  -2    4.88    1.19 
   0 -12   2   -0.41    0.64 
   0 -12  -2    0.08    0.73 
   1 -12   2    4.90    1.21 
  -1 -12  -2    5.11    1.00 
   1  12  -2    5.24    1.00 
   1 -12  -2    4.83    1.11 
  -1 -12   2    5.61    1.13 
   2  12  -2    1.08    0.64 
   2 -12   2    0.83    0.80 
  -2 -12  -2    1.46    0.58 
   2 -12  -2    0.34    0.80 
   0   0  -3    0.09    0.12 
   0   0  -3    0.02    0.10 
   1   0  -3  162.00    5.71 
  -1   0  -3  149.23    5.50 
   2   0   3   90.45    3.12 
  -2   0  -3   81.13    2.53 
  -2   0   3   80.99    2.43 
  -2   0  -3   82.03    2.56 
   2   0  -3   76.75    3.31 
  -3   0   3   47.79    1.49 
  -3   0  -3   46.50    1.63 
  -3   0  -3   47.18    1.70 
   3   0  -3   44.05    2.34 
   4   0  -3   71.89    3.17 
  -4   0  -3   67.53    2.32 
  -4   0   3   66.87    2.16 
  -5   0   3    5.65    0.45 
   5   0  -3    6.63    1.00 
  -5   0  -3    5.63    0.57 
   5   0   3    4.37    0.85 
   6   0  -3   44.70    2.52 
  -6   0  -3   42.74    1.77 
   7   0  -3    0.47    0.60 
   0  -1  -3  307.91    8.91 
   0   1  -3  313.30    8.90 
  -1  -1  -3  330.14    9.51 
   1   1  -3  333.08   11.78 
  -1   1  -3  331.77   11.70 
  -1   1  -3  326.96    9.17 
   2  -1   3   44.69    1.77 
  -2  -1  -3   44.45    1.44 
   2   1  -3   43.34    1.84 
  -2   1   3   42.93    1.38 
  -2   1  -3   41.31    1.47 
   2   1   3   41.11    1.61 
  -2   1  -3   41.10    1.42 
  -3   1   3   29.62    1.06 
   3  -1   3   30.87    1.48 
  -3  -1  -3   30.64    1.15 
   3   1  -3   29.63    1.48 
  -3  -1  -3   30.73    1.25 
  -3  -1   3   29.08    0.95 
   3   1   3   28.25    1.33 
  -3   1  -3   28.53    1.17 
  -4  -1  -3   21.94    1.17 
  -4  -1  -3   22.08    0.97 
  -4   1   3   23.28    0.91 
   4   1  -3   23.03    1.33 
  -4   1  -3   22.28    1.02 
   4   1   3   19.28    1.09 
  -4  -1   3   21.64    0.80 
  -5   1   3    5.22    0.49 
  -5  -1  -3    5.12    0.54 
   5   1  -3    5.09    0.77 
   5  -1  -3    4.65    1.12 
   5   1   3    6.25    0.67 
  -5   1  -3    4.15    0.54 
  -6  -1  -3    6.14    0.64 
   6   1  -3    7.60    1.05 
   6  -1  -3    8.10    1.41 
  -6   1  -3    6.37    0.67 
   7  -1  -3    0.78    0.85 
   0   2  -3    3.60    0.30 
   0  -2  -3    3.55    0.39 
  -1  -2  -3  354.09   10.52 
   1   2  -3  373.92   10.41 
   1   2  -3  363.44   13.03 
   1   2   3  360.56   12.85 
  -1   2  -3  368.58   13.00 
  -1   2  -3  371.52   10.56 
   2  -2   3   13.62    0.81 
  -2  -2  -3   11.88    0.59 
  -2   2   3   12.97    0.59 
  -2   2  -3   13.88    0.67 
   2   2   3   12.96    0.58 
   3  -2   3   65.89    2.78 
  -3  -2  -3   67.70    2.33 
  -3   2   3   67.31    2.17 
   3   2  -3   65.36    2.76 
  -3  -2  -3   65.72    2.17 
  -3  -2   3   64.63    1.95 
   3   2   3   66.34    2.52 
  -3   2  -3   68.08    2.26 
   4  -2   3   33.87    1.83 
   4   2  -3   32.32    1.68 
  -4  -2  -3   32.30    1.28 
  -4   2   3   33.10    1.26 
  -4  -2  -3   33.70    1.52 
  -4  -2   3   32.21    1.07 
   4   2   3   31.84    1.45 
  -4   2  -3   34.12    1.39 
  -5  -2  -3   41.89    1.59 
   5   2  -3   41.26    2.11 
  -5  -2  -3   40.49    1.89 
  -5   2   3   38.58    1.53 
  -5   2  -3   40.37    1.66 
   6   2  -3    2.85    0.72 
   6  -2   3    1.71    1.00 
  -6   2  -3    3.36    0.55 
   6  -2  -3    2.84    1.31 
   7  -2  -3    2.36    1.20 
   0  -3  -3  325.76   11.54 
   0   3  -3  325.47    9.31 
   0  -3   3  315.48    8.95 
  -1  -3  -3   34.30    1.23 
   1   3  -3   33.91    1.53 
   1   3  -3   34.62    1.14 
  -1   3  -3   36.04    1.56 
  -1  -3   3   35.14    1.22 
   1   3   3   35.27    1.41 
   1  -3  -3   38.56    1.64 
  -2   3   3   14.06    0.68 
   2  -3   3   13.62    0.88 
  -2  -3  -3   14.68    0.67 
  -2  -3   3   14.58    0.76 
   2  -3  -3   15.93    1.05 
   2   3   3   14.30    0.68 
  -2  -3   3   13.91    0.52 
   3   3  -3    4.17    0.53 
  -3  -3  -3    4.61    0.55 
  -3   3   3    4.48    0.43 
  -3  -3  -3    3.90    0.38 
   3  -3   3    4.05    0.57 
  -3  -3   3    3.92    0.24 
   3  -3  -3    3.02    0.64 
   3   3   3    3.71    0.36 
  -3   3  -3    3.70    0.44 
  -4  -3  -3   36.64    1.68 
   4   3  -3   39.04    1.91 
  -4   3   3   39.87    1.50 
  -4  -3  -3   40.18    1.48 
   4  -3   3   39.49    2.00 
   4   3   3   38.84    1.67 
  -4   3  -3   38.48    1.58 
  -5   3   3    1.38    0.37 
  -5  -3  -3    0.67    0.32 
   5   3  -3    1.05    0.51 
   5  -3   3    0.65    0.62 
  -5  -3  -3    0.78    0.53 
  -5   3  -3    1.19    0.42 
   5  -3  -3    2.24    1.03 
   6   3  -3    2.57    0.66 
   6  -3   3    1.07    0.76 
  -6   3   3    3.04    0.51 
   6  -3  -3    1.50    1.04 
  -6   3  -3    2.59    0.53 
   7  -3  -3    3.66    1.51 
  -7   3  -3    3.62    0.65 
   0  -4  -3    9.59    0.71 
   0   4  -3    9.71    0.54 
   1   4  -3  154.93    5.90 
  -1   4  -3  158.55    4.80 
   1  -4  -3  160.41    6.01 
  -1  -4   3  157.30    4.62 
   1   4   3  158.89    5.78 
  -2   4   3   24.67    1.03 
   2  -4   3   24.94    1.36 
   2   4  -3   24.44    1.26 
  -2  -4  -3   24.01    0.98 
  -2  -4   3   22.97    1.06 
   2   4   3   24.29    1.09 
   3  -4   3   16.60    1.13 
  -3  -4  -3   15.37    0.76 
  -3   4   3   15.37    0.82 
   3   4  -3   15.44    0.98 
   3  -4  -3   16.92    1.22 
  -3  -4   3   15.35    0.91 
  -3   4  -3   16.80    0.87 
  -3  -4   3   14.99    0.59 
   3   4   3   16.33    0.82 
  -4   4   3   18.23    0.95 
   4  -4   3   18.24    1.31 
  -4  -4  -3   18.01    0.87 
   4   4  -3   18.53    1.17 
   4   4   3   17.90    0.94 
  -4   4  -3   17.78    0.99 
   5  -4   3   33.87    2.09 
   5   4  -3   31.52    1.77 
  -5  -4  -3   33.67    1.77 
  -5  -4  -3   31.94    1.36 
  -5   4   3   32.55    1.43 
  -5   4  -3   31.67    1.49 
  -6   4  -3   13.41    0.99 
  -7   4  -3    5.37    0.79 
   7  -4  -3    3.09    1.47 
   0   5  -3   73.15    2.97 
   0   5  -3   71.62    2.35 
   0  -5  -3   70.97    2.98 
   1   5  -3    6.55    0.63 
   1  -5  -3    8.60    0.74 
  -1  -5   3    7.41    0.56 
  -1   5  -3    7.90    0.56 
   2   5  -3   20.44    1.15 
  -2  -5  -3   20.24    0.90 
   2  -5   3   21.14    1.30 
  -2  -5   3   19.20    0.97 
   2   5   3   18.82    0.99 
  -2   5  -3   19.48    0.97 
  -3   5   3   30.08    1.27 
  -3  -5  -3   29.04    1.18 
   3  -5   3   27.86    1.67 
   3   5  -3   26.66    1.50 
   3   5   3   27.41    1.31 
  -3   5  -3   30.99    1.32 
  -3  -5   3   29.10    1.34 
   3  -5  -3   30.16    1.76 
  -3  -5   3   30.00    1.03 
  -4  -5  -3    1.48    0.32 
  -4   5   3    0.99    0.38 
   4  -5   3    1.25    0.53 
   4   5  -3    0.85    0.44 
  -4  -5  -3    0.16    0.35 
  -4   5  -3    0.46    0.39 
   4  -5  -3    0.97    0.63 
  -5   5   3    3.12    0.52 
   5  -5   3    3.09    0.77 
  -5  -5  -3    3.70    0.68 
   5   5  -3    3.57    0.70 
  -5   5  -3    3.54    0.59 
   5  -5  -3    0.64    0.69 
   6  -5   3   13.30    1.54 
  -6  -5  -3   15.43    1.31 
  -6   5   3   16.69    1.05 
  -6   5  -3   18.56    1.19 
  -7   5  -3    1.88    0.65 
   7  -5  -3    4.54    1.74 
   0   6  -3   55.03    1.94 
   0   6  -3   54.64    2.45 
   0  -6  -3   55.57    2.49 
  -1  -6  -3   21.19    1.21 
   1   6  -3   20.42    1.20 
   1   6   3   20.58    1.13 
  -1   6  -3   21.38    1.02 
  -1   6  -3   21.76    1.26 
  -1  -6   3   20.57    0.93 
   1  -6  -3   20.24    1.31 
  -2  -6  -3    0.59    0.27 
   2  -6   3    0.45    0.38 
   2   6  -3    0.25    0.31 
   2  -6  -3    0.46    0.36 
  -2   6  -3    0.76    0.34 
  -2  -6   3    0.83    0.33 
   2   6   3    0.79    0.31 
  -3  -6  -3   18.65    0.94 
   3  -6   3   18.85    1.37 
   3   6  -3   18.86    1.21 
   3   6   3   18.78    1.04 
  -3  -6   3   18.68    1.13 
  -3  -6   3   18.27    0.80 
   4   6  -3    3.61    0.65 
  -4  -6  -3    2.97    0.63 
  -4  -6  -3    5.10    0.53 
   4  -6   3    4.37    0.86 
  -4   6   3    4.34    0.58 
   4  -6  -3    2.47    0.79 
  -4  -6   3    2.94    0.62 
  -4   6  -3    3.40    0.60 
  -5  -6  -3   31.10    1.71 
   5  -6   3   31.08    2.10 
   5   6  -3   32.37    1.83 
  -5   6   3   33.09    1.54 
  -5   6  -3   31.13    1.60 
  -6  -6  -3    1.67    0.61 
   6  -6   3    3.37    0.97 
  -6   6   3    1.80    0.55 
   6  -6  -3    0.38    0.76 
  -6   6  -3    1.75    0.63 
   0   7  -3  100.68    4.06 
   0  -7  -3   94.97    4.07 
   0   7  -3   97.48    3.21 
   1   7  -3    9.03    0.82 
  -1  -7  -3    9.12    0.83 
   1   7   3    8.46    0.79 
   1  -7  -3    8.61    0.93 
  -1  -7   3    8.93    0.66 
  -1   7  -3    8.53    0.71 
  -1   7  -3    7.40    0.79 
   2   7  -3   38.56    1.93 
  -2  -7  -3   37.19    1.51 
   2  -7   3   36.52    2.07 
   2   7   3   36.31    1.76 
   2  -7  -3   37.18    2.12 
  -2  -7   3   37.91    1.59 
  -2   7  -3   37.08    1.61 
  -3  -7  -3   36.76    1.51 
   3   7  -3   35.10    1.89 
   3  -7   3   36.37    2.15 
  -3  -7   3   35.70    1.36 
   3  -7  -3   35.99    2.15 
   3   7   3   37.95    1.75 
  -3   7  -3   34.50    1.62 
  -3  -7   3   38.07    1.70 
  -4  -7  -3   11.96    0.77 
   4   7  -3   12.77    1.09 
   4  -7   3   11.12    1.36 
  -4  -7  -3   12.78    1.07 
   4  -7  -3   10.00    1.30 
  -4  -7   3   10.04    1.03 
  -4   7  -3   10.71    0.88 
   5  -7   3    5.59    1.01 
  -5  -7  -3    5.04    0.82 
   5  -7  -3    2.61    0.88 
  -5   7  -3    4.15    0.74 
  -6  -7  -3    0.02    0.54 
   6  -7   3    0.25    0.66 
  -6   7  -3    0.07    0.54 
   6  -7  -3    0.60    0.73 
   0   8  -3    6.31    0.83 
   0  -8  -3    7.75    0.90 
  -1  -8  -3   12.79    1.06 
   1  -8   3    9.23    1.03 
   1   8  -3   12.98    1.09 
  -1   8  -3   13.10    1.13 
  -1  -8   3   13.19    0.83 
  -1   8  -3   13.41    0.91 
   1  -8  -3   13.87    1.21 
   2  -8   3   23.53    1.67 
  -2  -8  -3   22.14    1.13 
   2   8  -3   20.43    1.40 
   2  -8  -3   19.59    1.58 
  -2  -8   3   20.74    1.18 
   2   8   3   23.67    1.35 
  -2   8  -3   22.69    1.23 
   3  -8   3   18.91    1.57 
  -3  -8  -3   18.66    1.05 
   3   8  -3   17.81    1.33 
   3  -8  -3   15.97    1.44 
  -3   8  -3   19.67    1.18 
  -3  -8   3   18.16    1.19 
  -4  -8  -3   11.53    1.18 
   4   8  -3   12.23    1.14 
   4  -8   3   11.42    1.33 
   4  -8  -3   12.80    1.36 
  -4  -8   3   14.00    1.17 
  -4   8  -3   12.11    1.01 
  -5  -8  -3    9.91    1.20 
   5  -8   3   10.07    1.37 
   5  -8  -3    7.49    1.37 
  -5   8  -3    8.33    0.97 
  -6  -8  -3   10.31    1.29 
   6  -8   3    9.88    1.52 
  -6   8  -3    9.92    1.14 
   0  -9  -3    2.19    0.65 
   0   9  -3    2.20    0.65 
   1  -9   3   36.05    2.13 
  -1  -9  -3   37.53    2.03 
   1   9  -3   35.50    2.01 
   1  -9  -3   33.86    2.09 
  -1  -9   3   35.35    1.51 
  -1   9  -3   33.90    2.02 
   2   9  -3    6.14    0.91 
   2  -9   3    6.03    0.98 
  -2  -9  -3    5.92    0.84 
  -2  -9  -3    5.03    0.65 
   2  -9  -3    5.28    0.95 
  -2   9  -3    5.21    0.74 
   2   9   3    5.00    0.73 
  -2  -9   3    5.36    0.70 
   3  -9   3   11.78    1.29 
  -3  -9  -3   12.52    0.90 
   3   9  -3   11.18    1.14 
  -3  -9   3   12.77    1.06 
  -3   9  -3   12.72    1.02 
   3  -9  -3   13.19    1.38 
  -4  -9  -3    0.46    0.63 
   4   9  -3    0.22    0.52 
   4  -9   3    0.36    0.61 
  -4   9  -3    0.75    0.45 
  -4  -9   3    0.15    0.55 
   4  -9  -3   -0.29    0.57 
  -5  -9  -3    0.71    0.73 
   5  -9   3    0.82    0.69 
  -5   9  -3    1.78    0.67 
   5  -9  -3    0.74    0.86 
   0  10  -3   11.18    1.16 
   0 -10  -3   12.01    1.17 
   1  10  -3    5.82    0.93 
   1 -10   3    6.32    1.01 
  -1 -10  -3    5.29    0.88 
   1 -10  -3    7.23    1.10 
   2  10  -3   18.67    1.38 
   2 -10   3   17.49    1.54 
  -2 -10  -3   17.20    1.09 
  -2 -10  -3   17.22    1.35 
   2 -10  -3   16.40    1.57 
  -2 -10   3   14.82    1.14 
  -2  10  -3   15.24    1.10 
  -3 -10  -3    3.21    0.59 
   3 -10   3    3.85    0.97 
   3  10  -3    3.55    0.76 
  -3  10  -3    3.72    0.71 
   3 -10  -3    3.79    0.92 
  -3 -10   3    3.94    0.73 
  -4 -10  -3    8.84    1.13 
   4 -10   3    8.24    1.33 
  -4 -10   3    6.78    1.02 
   4 -10  -3    7.03    1.26 
  -4  10  -3    9.53    1.03 
   0  11  -3    2.51    0.72 
   0 -11  -3    3.31    0.85 
   0 -11   3    2.85    0.83 
   1 -11   3   18.94    1.70 
  -1 -11  -3   18.30    1.52 
   1  11  -3   17.21    1.47 
   1 -11  -3   18.19    1.69 
  -2 -11  -3   22.37    1.68 
   2  11  -3   25.13    1.74 
  -2 -11  -3   25.38    1.42 
   2 -11   3   24.45    1.95 
   2 -11  -3   24.27    2.00 
   3 -11   3    0.96    0.67 
  -3 -11  -3    0.85    0.69 
   3  11  -3    1.28    0.64 
   3 -11  -3    1.26    0.82 
   4 -11   3    2.49    1.05 
  -4 -11  -3    3.47    0.92 
  -4 -11   3    2.20    0.82 
  -4  11  -3    3.39    0.74 
   4 -11  -3    1.86    0.92 
   0 -12  -3    3.42    0.99 
   0 -12   3    4.31    1.04 
   1 -12   3    1.98    0.98 
  -1 -12  -3    1.38    0.81 
   1  12  -3    1.29    0.65 
  -1 -12   3    1.86    0.88 
   1 -12  -3    1.73    0.87 
  -2 -12  -3    0.17    0.54 
   2  12  -3    0.48    0.64 
   2 -12   3    0.68    0.68 
   2 -12  -3   -0.09    0.85 
   0   0  -4   26.43    0.89 
   0   0  -4   26.08    1.09 
   1   0  -4    0.97    0.15 
  -1   0  -4    1.51    0.19 
   1   0  -4    0.44    0.23 
   2   0   4   93.12    3.32 
  -2   0  -4   85.05    2.73 
  -2   0  -4   90.30    2.80 
  -3   0   4   81.89    2.50 
  -3   0  -4   82.80    2.69 
  -3   0  -4   82.02    2.69 
   3   0  -4   86.23    3.55 
   4   0  -4    3.71    0.72 
  -4   0  -4    3.00    0.51 
  -4   0  -4    3.08    0.43 
  -4   0   4    3.33    0.30 
   5   0   4   66.26    3.37 
  -5   0  -4   83.69    2.76 
   5   0  -4   87.26    3.72 
   6   0  -4    3.69    0.96 
  -6   0  -4    4.30    0.59 
   7   0  -4   14.15    1.41 
   0   1  -4  372.52   10.49 
   0  -1  -4  364.85   10.51 
   0   1  -4  361.14   12.98 
   1   1  -4  207.98    5.93 
   1   1  -4  204.42    7.53 
  -1   1  -4  208.92    7.43 
  -1   1  -4  209.87    6.09 
   2  -1   4  235.51    8.47 
  -2  -1  -4  238.16    6.91 
  -2   1  -4  231.83    6.69 
  -2   1  -4  238.47    6.94 
   2   1   4  232.05    8.28 
   3   1  -4   42.55    1.98 
   3  -1   4   45.74    1.90 
  -3   1   4   42.07    1.43 
  -3  -1  -4   41.16    1.53 
  -3  -1  -4   43.30    1.63 
   3   1   4   43.55    1.72 
  -3  -1   4   41.97    1.30 
  -3   1  -4   44.15    1.59 
  -4  -1  -4   32.52    1.46 
  -4   1   4   34.16    1.21 
   4   1  -4   33.18    1.76 
  -4  -1  -4   32.14    1.32 
  -4   1  -4   32.68    1.36 
  -4  -1   4   32.35    1.07 
   4   1   4   32.53    1.47 
  -5   1   4    4.80    0.46 
  -5  -1  -4    4.74    0.54 
   5   1  -4    4.87    0.78 
   5  -1  -4    4.52    1.12 
  -5   1  -4    3.40    0.51 
   6   1  -4    1.31    0.69 
  -6  -1  -4    3.09    0.51 
  -6   1  -4    2.39    0.50 
   6  -1  -4    3.51    1.16 
   7  -1  -4    1.09    0.88 
   0   2  -4  107.85    3.28 
   0  -2  -4  112.49    4.10 
  -1  -2  -4  287.84    8.27 
   1   2  -4  286.68    8.12 
   1   2  -4  281.22   10.23 
  -1  -2  -4  296.32   10.04 
   1  -2  -4  264.94   10.35 
  -1   2  -4  283.74   10.18 
  -1   2  -4  287.78    8.29 
   2  -2   4   20.78    1.03 
  -2  -2  -4   19.59    0.82 
  -2   2  -4   17.77    0.83 
   2   2   4   19.94    0.76 
  -3   2   4   58.22    1.92 
  -3  -2  -4   59.95    1.97 
  -3  -2  -4   60.81    2.10 
   3  -2   4   48.59    2.40 
   3   2  -4   60.16    2.52 
   3   2   4   59.00    2.18 
  -3   2  -4   58.54    2.04 
  -4   2   4   59.79    2.01 
   4   2  -4   56.38    2.65 
   4  -2   4   62.52    2.71 
  -4  -2  -4   61.06    2.09 
  -4  -2  -4   58.05    2.23 
   4   2   4   58.56    2.33 
  -4   2  -4   58.50    2.15 
   5   2  -4   22.78    1.50 
  -5  -2  -4   23.92    1.11 
  -5   2   4   22.42    1.02 
  -5  -2  -4   23.41    1.36 
   5  -2  -4   17.75    2.10 
  -5   2  -4   23.23    1.16 
   6   2  -4    9.06    1.07 
   6  -2  -4    9.58    1.61 
  -6   2  -4   10.94    0.85 
  -7   2  -4    2.56    0.57 
   7  -2  -4    2.07    1.18 
   0  -3  -4    1.94    0.32 
   0   3  -4    2.14    0.26 
  -1  -3  -4   22.27    1.00 
   1   3  -4   22.99    0.80 
  -1  -3  -4   24.68    0.93 
   1  -3  -4   23.09    1.21 
  -1   3  -4   21.69    1.12 
   2   3  -4  121.06    4.61 
  -2  -3  -4  118.74    3.67 
   2  -3   4  119.38    4.61 
  -2  -3   4  115.71    3.46 
   2   3   4  123.04    4.31 
   3  -3   4  110.64    4.38 
  -3   3   4  108.42    3.45 
  -3  -3  -4  112.80    3.47 
   3   3  -4  113.95    4.37 
   3   3   4  107.48    4.01 
  -3   3  -4  108.08    3.55 
  -4  -3  -4   27.82    1.17 
   4  -3   4   27.19    1.58 
   4   3  -4   26.20    1.52 
  -4   3   4   27.60    1.16 
  -4  -3  -4   30.29    1.46 
  -4   3  -4   27.82    1.28 
  -5   3   4   13.73    0.80 
   5   3  -4   13.39    1.15 
  -5  -3  -4   13.70    1.15 
  -5  -3  -4   13.12    0.82 
   5  -3   4   12.67    1.29 
  -5   3  -4   13.11    0.91 
   6   3  -4    3.05    0.74 
   6  -3   4    0.51    0.69 
  -6   3  -4    4.17    0.61 
   6  -3  -4    1.48    1.15 
   7  -3  -4    1.41    1.28 
  -7   3  -4    0.61    0.50 
   0  -4   4  317.95    8.71 
   0  -4  -4  340.49   11.32 
   0   4  -4  287.94    9.07 
   0   4  -4  301.72   11.29 
   1   4  -4   23.30    1.23 
  -1  -4  -4   23.39    0.97 
   1   4  -4   22.83    0.87 
  -1  -4  -4   23.28    1.12 
  -1   4  -4   23.04    1.21 
  -1  -4   4   23.56    0.93 
  -1   4  -4   24.77    1.01 
   1  -4  -4   23.15    1.29 
  -2  -4  -4   13.24    0.69 
   2   4  -4   12.56    0.85 
   2  -4   4   13.31    0.95 
  -2  -4   4   13.74    0.77 
   2   4   4   13.03    0.67 
  -2   4  -4   12.12    0.72 
  -3  -4  -4    2.20    0.33 
   3  -4   4    2.13    0.49 
   3   4  -4    2.20    0.45 
  -3   4   4    2.14    0.36 
  -3   4  -4    1.68    0.36 
   3  -4  -4    2.33    0.64 
   3   4   4    1.71    0.27 
  -3  -4   4    2.08    0.19 
  -4  -4  -4    3.95    0.45 
   4   4  -4    4.25    0.64 
  -4   4   4    3.12    0.44 
   4  -4   4    3.56    0.67 
  -4   4  -4    3.15    0.51 
  -5  -4  -4   52.28    1.96 
  -5  -4  -4   53.57    2.33 
  -5   4   4   51.38    1.99 
   5  -4   4   54.89    2.76 
   5   4  -4   50.18    2.52 
  -5   4  -4   52.05    2.11 
  -6   4   4    6.85    0.70 
   6   4  -4    7.87    0.99 
  -6  -4  -4    6.29    0.93 
  -6   4  -4    5.48    0.74 
  -7   4  -4    4.28    0.75 
   7  -4  -4    4.80    1.80 
   0   5  -4   44.38    2.04 
   0  -5  -4   45.39    2.06 
   0  -5   4   44.56    1.45 
   0   5  -4   47.90    1.61 
   1   5  -4  101.38    4.05 
  -1  -5  -4  102.65    3.97 
   1  -5  -4  102.07    4.14 
  -1   5  -4  103.62    3.30 
  -1  -5   4  101.53    3.12 
   2   5  -4   52.13    2.33 
  -2  -5  -4   51.09    1.85 
   2  -5   4   52.94    2.43 
   2   5   4   52.96    2.12 
   2  -5  -4   51.15    2.47 
  -2  -5   4   52.41    1.89 
  -2   5  -4   52.95    1.94 
   3  -5   4   27.57    1.57 
  -3  -5  -4   26.30    1.11 
   3   5  -4   27.93    1.48 
   3   5   4   26.11    1.18 
  -3   5  -4   20.94    1.14 
  -3  -5   4   24.21    0.90 
  -4   5   4    1.79    0.39 
  -4  -5  -4    1.31    0.46 
  -4  -5  -4    1.83    0.36 
   4   5  -4    1.28    0.49 
   4  -5   4    1.36    0.57 
  -4   5  -4    1.98    0.46 
   4  -5  -4    0.85    0.63 
  -5   5   4   10.16    0.80 
  -5  -5  -4   11.36    0.77 
   5   5  -4   11.40    1.10 
   5  -5   4   10.79    1.21 
  -5  -5  -4   10.90    1.08 
  -5   5  -4   10.76    0.91 
  -6  -5  -4    4.00    0.84 
   6  -5   4    4.49    1.01 
  -6   5   4    4.25    0.63 
   6  -5  -4    0.66    0.95 
  -6   5  -4    3.94    0.71 
  -7   5  -4    4.65    0.83 
   7  -5  -4    4.39    1.82 
   0  -6  -4    0.14    0.31 
   0   6  -4    0.16    0.28 
   0   6  -4    0.54    0.27 
   1   6  -4   20.11    1.21 
  -1  -6  -4   19.49    1.14 
   1  -6  -4   20.52    1.31 
  -1  -6   4   19.02    0.90 
  -1   6  -4   20.21    0.98 
  -2  -6  -4   11.33    0.72 
   2  -6   4   10.56    0.98 
   2   6  -4   10.60    0.86 
   2  -6  -4   11.24    1.04 
  -2   6  -4   11.07    0.79 
   2   6   4   10.71    0.74 
  -2  -6   4   10.89    0.76 
  -3  -6  -4    8.10    0.63 
   3  -6   4    7.50    0.97 
   3   6  -4    8.30    0.80 
  -3  -6   4    7.43    0.47 
  -3  -6   4    6.91    0.75 
   4  -6   4   63.79    3.22 
   4   6  -4   69.21    3.07 
  -4  -6  -4   66.74    2.66 
  -4  -6  -4   69.75    2.39 
  -4   6  -4   66.18    2.55 
   4  -6  -4   65.35    3.45 
  -5  -6  -4    8.29    0.99 
   5   6  -4    9.06    1.04 
   5  -6   4    8.28    1.20 
  -5   6  -4    7.88    0.85 
   6  -6   4   18.93    1.77 
  -6  -6  -4   20.26    1.45 
  -6   6  -4   19.04    1.28 
   0   7  -4    1.19    0.35 
   0  -7  -4    1.23    0.43 
   0   7  -4    1.08    0.43 
   1   7  -4   40.42    2.03 
  -1  -7  -4   41.91    2.01 
   1  -7  -4   41.16    2.16 
  -1   7  -4   41.92    1.68 
  -1  -7   4   39.53    1.53 
  -2  -7  -4    2.95    0.54 
   2  -7   4    3.32    0.70 
  -2  -7  -4    2.21    0.42 
   2   7  -4    2.14    0.54 
  -2   7  -4    2.87    0.50 
   2  -7  -4    2.25    0.61 
   2   7   4    2.39    0.45 
  -2  -7   4    1.80    0.44 
  -3  -7  -4   51.38    1.93 
   3  -7   4   50.91    2.65 
   3   7  -4   49.35    2.43 
   3  -7  -4   48.19    2.66 
  -3  -7   4   47.83    2.03 
  -3   7  -4   49.26    2.04 
   4   7  -4   11.26    1.07 
  -4  -7  -4   10.98    0.78 
   4  -7   4   11.48    1.34 
  -4  -7  -4   12.27    1.09 
  -4   7  -4   11.85    0.93 
   4  -7  -4   11.44    1.30 
   5   7  -4    0.43    0.51 
   5  -7   4    0.20    0.51 
  -5  -7  -4    0.51    0.53 
  -5   7  -4    0.14    0.46 
   5  -7  -4    0.44    0.71 
  -6  -7  -4    0.80    0.60 
   6  -7   4    1.20    0.79 
   6  -7  -4    0.49    0.75 
  -6   7  -4    1.66    0.66 
   0  -8  -4    1.24    0.51 
   0   8  -4    1.54    0.51 
  -1  -8  -4    7.90    0.87 
   1   8  -4    9.52    0.96 
  -1  -8   4    8.00    0.68 
  -1   8  -4    7.20    0.70 
   1  -8  -4    7.79    1.00 
  -1   8  -4    9.64    0.95 
  -2  -8  -4   10.82    0.82 
   2   8  -4   11.63    1.07 
   2  -8   4   11.08    1.20 
  -2  -8  -4   11.71    0.99 
  -2   8  -4   11.37    0.90 
   2  -8  -4   11.38    1.16 
  -2  -8   4   11.91    0.91 
   3  -8   4    6.81    1.06 
  -3  -8  -4    6.94    0.69 
   3   8  -4    5.14    0.83 
  -3   8  -4    6.57    0.75 
   3  -8  -4    6.14    1.00 
  -3  -8   4    5.79    0.76 
  -4  -8  -4    0.81    0.37 
  -4  -8  -4    1.33    0.64 
   4  -8   4    0.17    0.56 
   4   8  -4    0.22    0.51 
   4  -8  -4    0.69    0.64 
  -4   8  -4    0.36    0.40 
   5  -8   4   14.88    1.49 
  -5  -8  -4   16.34    1.36 
   5  -8  -4   12.49    1.73 
  -5   8  -4   14.73    1.22 
  -6  -8  -4   13.90    1.46 
   6  -8   4   13.82    1.63 
  -6   8  -4   14.74    1.31 
   0   9  -4   72.65    3.31 
   0  -9  -4   66.80    3.27 
   1   9  -4    7.25    0.96 
  -1  -9  -4    8.05    0.94 
   1  -9   4    6.42    0.98 
  -1  -9   4    6.01    0.64 
  -1   9  -4    6.41    0.73 
  -1   9  -4    6.59    0.97 
   1  -9  -4    6.63    1.00 
  -2  -9  -4   27.50    1.64 
   2  -9   4   29.19    1.92 
  -2  -9  -4   23.84    1.29 
   2   9  -4   27.12    1.70 
  -2  -9   4   29.37    1.42 
   2  -9  -4   27.07    1.93 
  -2   9  -4   27.03    1.44 
   3   9  -4    2.62    0.67 
   3  -9   4    4.41    0.93 
  -3  -9  -4    3.54    0.56 
  -3  -9   4    3.59    0.66 
  -3   9  -4    3.19    0.61 
   3  -9  -4    1.94    0.70 
   4  -9   4    7.61    1.23 
  -4  -9  -4    6.32    0.95 
   4   9  -4    7.26    1.02 
  -4   9  -4    7.03    0.86 
   4  -9  -4    9.46    1.34 
  -5  -9  -4   -0.03    0.72 
   5  -9   4    1.32    0.77 
  -5   9  -4    1.05    0.67 
   5  -9  -4    0.59    0.77 
   0  10  -4    4.60    0.83 
   0 -10  -4    4.56    0.86 
   1  10  -4    3.03    0.70 
  -1 -10  -4    3.44    0.75 
   1 -10   4    2.41    0.74 
  -1  10  -4    3.33    0.75 
   1 -10  -4    4.16    0.89 
  -2 -10  -4    2.52    0.53 
   2  10  -4    2.27    0.68 
   2 -10   4    1.59    0.64 
  -2 -10  -4    1.60    0.60 
   2 -10  -4    1.37    0.76 
  -2  10  -4    0.82    0.49 
   3 -10   4   18.80    1.72 
  -3 -10  -4   17.99    1.15 
   3  10  -4   18.53    1.45 
  -3 -10   4   19.75    1.34 
  -3  10  -4   19.27    1.29 
   3 -10  -4   16.57    1.63 
   4  10  -4    1.70    0.68 
  -4 -10  -4    1.40    0.76 
   4 -10   4    2.35    0.85 
   4 -10  -4    1.67    0.82 
  -4  10  -4    1.26    0.53 
   0 -11  -4    1.10    0.65 
   0  11  -4    0.67    0.55 
   0 -11   4    0.36    0.64 
   1 -11   4    9.02    1.29 
   1  11  -4    8.52    1.10 
  -1 -11  -4    6.86    1.06 
   1 -11  -4    8.43    1.24 
   2  11  -4    3.02    0.78 
   2 -11   4    3.31    0.90 
  -2 -11  -4    4.25    0.73 
   2 -11  -4    4.65    1.09 
   3 -11   4   18.93    1.81 
  -3 -11  -4   19.63    1.31 
   3  11  -4   19.06    1.56 
   3 -11  -4   18.47    1.84 
  -3  11  -4   19.52    1.37 
   0  12  -4    2.04    0.73 
   0 -12   4    1.16    0.81 
   0 -12  -4    0.26    0.71 
  -1 -12  -4    2.09    0.86 
   1 -12   4    2.25    0.98 
   1  12  -4    2.41    0.75 
   1 -12  -4    3.30    0.99 
   2 -12   4   10.11    1.46 
   2  12  -4   10.64    1.33 
  -2 -12  -4   11.98    1.12 
   2 -12  -4    9.85    1.57 
   0   0  -5   -0.14    0.14 
   0   0  -5   -0.19    0.17 
  -1   0  -5   87.65    3.08 
  -1   0  -5   78.81    2.61 
   1   0  -5   88.01    2.52 
   2   0   5   49.37    1.87 
  -2   0  -5   48.08    1.68 
  -3   0  -5   -0.10    0.22 
   3   0   5    0.58    0.26 
   3   0  -5    0.51    0.46 
  -3   0  -5   -0.01    0.25 
  -4   0   5   69.71    2.27 
   4   0  -5   80.76    3.43 
  -4   0  -5   72.64    2.58 
  -4   0  -5   74.56    2.54 
   5   0  -5    3.21    0.86 
  -5   0  -5    2.41    0.47 
   6   0  -5   43.42    2.53 
  -6   0  -5   41.60    1.79 
   7   0  -5    0.21    0.64 
   0  -1  -5   29.98    1.47 
   0   1  -5   35.11    1.43 
   0  -1  -5   36.07    1.17 
   0   1  -5   36.99    1.15 
  -1  -1  -5  146.13    5.18 
   1   1  -5  145.51    4.23 
  -1   1  -5  147.54    4.39 
  -1   1  -5  147.11    5.31 
   2   1  -5    3.42    0.49 
  -2  -1  -5    4.67    0.41 
   2  -1   5    4.71    0.45 
   2  -1  -5    1.94    0.57 
  -2   1  -5    4.23    0.41 
  -2   1  -5    4.30    0.36 
  -3  -1  -5   37.76    1.43 
  -3  -1  -5   35.22    1.47 
   3   1  -5   38.42    1.84 
   3  -1   5   38.34    1.68 
   3   1   5   37.32    1.50 
  -3   1  -5   38.93    1.47 
  -4  -1  -5   64.62    2.30 
  -4   1   5   65.42    2.12 
  -4  -1  -5   67.48    2.42 
   4   1  -5   67.56    2.98 
  -4   1  -5   68.71    2.35 
   4  -1  -5   59.14    3.26 
   4   1   5   66.19    2.58 
   5   1  -5    5.01    0.89 
  -5  -1  -5    6.31    0.81 
  -5  -1  -5    6.64    0.63 
  -5   1  -5    5.58    0.62 
   5  -1  -5    8.33    1.34 
   6   1  -5    5.09    0.96 
  -6  -1  -5    5.62    0.66 
  -6   1  -5    6.17    0.70 
   6  -1  -5    6.17    1.28 
   7   1  -5    0.86    0.62 
   7  -1  -5    0.33    0.80 
   0  -2  -5    0.29    0.17 
   0  -2  -5   -0.13    0.21 
   0   2  -5    0.19    0.20 
   0   2  -5    0.34    0.17 
   1   2  -5  217.96    5.97 
  -1  -2  -5  184.15    6.10 
  -1   2  -5  214.66    7.52 
  -1   2  -5  212.47    6.14 
  -2  -2  -5   69.06    2.26 
   2  -2   5   69.79    2.76 
   2   2  -5   70.41    2.86 
  -2   2  -5   68.72    2.72 
   3   2  -5   95.98    3.88 
  -3  -2  -5  100.45    3.09 
  -3   2  -5   92.91    3.13 
   3   2   5   94.77    3.45 
  -4  -2  -5    3.41    0.45 
   4   2  -5    2.20    0.52 
  -4   2   5    3.45    0.38 
  -4  -2  -5    4.13    0.61 
   4  -2   5    3.52    0.59 
   4  -2  -5    1.03    0.81 
  -4   2  -5    3.15    0.48 
  -5  -2  -5   37.82    1.57 
   5   2  -5   39.83    2.09 
  -5  -2  -5   40.05    1.84 
  -5   2   5   37.18    1.45 
  -5   2  -5   40.48    1.68 
   5  -2  -5   31.14    2.75 
  -6  -2  -5    6.71    0.71 
   6   2  -5    7.68    1.06 
   6  -2  -5    5.84    1.47 
  -6   2  -5    5.92    0.70 
  -7   2  -5    9.26    0.93 
   7  -2  -5    7.88    1.52 
   0   3  -5  216.69    6.38 
   0  -3  -5  218.51    7.93 
  -1  -3  -5  135.79    4.20 
  -1  -3  -5  138.58    5.03 
   1   3  -5  134.24    4.05 
  -1   3  -5  134.21    5.16 
   1  -3  -5  147.92    5.35 
   2   3  -5  154.93    5.74 
  -2  -3  -5  142.74    5.37 
   2  -3   5  154.44    5.70 
  -2  -3  -5  147.93    4.58 
  -2   3  -5  154.23    5.66 
  -3  -3  -5    7.34    0.54 
   3   3  -5    6.41    0.67 
   3  -3   5    7.13    0.71 
  -3   3  -5    8.13    0.61 
   3   3   5    7.63    0.39 
   4   3  -5   10.59    0.93 
   4  -3   5    9.42    0.93 
  -4  -3  -5   10.36    0.69 
  -4  -3  -5    9.69    0.85 
  -4   3  -5    9.74    0.77 
  -5  -3  -5    5.20    0.76 
  -5  -3  -5    5.72    0.59 
  -5   3   5    5.48    0.55 
   5  -3   5    5.15    0.87 
   5   3  -5    6.61    0.89 
   5  -3  -5    1.58    1.02 
  -5   3  -5    5.49    0.65 
  -6  -3  -5   10.17    1.08 
   6   3  -5   10.32    1.14 
   6  -3  -5    8.41    1.64 
  -6   3  -5   10.52    0.89 
  -7   3  -5    2.32    0.62 
   7  -3  -5    2.37    1.34 
   0   4  -5   40.85    1.43 
   1   4  -5  265.34    9.95 
   1   4  -5  273.47    7.90 
  -1  -4  -5  267.11    8.03 
  -1  -4  -5  273.43    9.81 
   1  -4  -5  276.48   10.05 
  -1   4  -5  270.64    9.94 
  -1   4  -5  278.69    8.07 
  -2  -4  -5   45.64    1.65 
  -2  -4  -5   41.82    1.80 
   2   4  -5   47.05    2.11 
   2  -4   5   45.64    2.12 
  -2   4  -5   45.35    2.05 
   2  -4  -5   51.14    2.32 
  -2   4  -5   46.94    1.73 
   3  -4   5    0.53    0.36 
   3   4  -5    0.27    0.31 
  -3  -4  -5    0.34    0.24 
   3   4   5    0.68    0.18 
  -3   4  -5    1.00    0.33 
   3  -4  -5    0.52    0.43 
   4   4  -5   42.81    2.17 
  -4  -4  -5   44.43    1.69 
  -4  -4  -5   46.77    1.98 
   4  -4   5   43.53    2.23 
  -4   4  -5   41.78    1.78 
   5   4  -5    0.46    0.50 
   5  -4   5    0.28    0.49 
  -5  -4  -5    0.43    0.33 
  -5  -4  -5    0.12    0.47 
  -5   4  -5    0.41    0.41 
   5  -4  -5    2.04    0.97 
   6   4  -5   19.78    1.50 
  -6  -4  -5   18.75    1.42 
  -6   4  -5   20.05    1.24 
   7  -4  -5    6.62    2.06 
  -7   4  -5    3.74    0.76 
   0   5  -5   78.25    3.23 
   0   5  -5   78.92    2.56 
   0  -5  -5   79.46    3.23 
   0  -5   5   77.57    2.33 
   1   5  -5    9.62    0.76 
  -1  -5  -5    9.03    0.69 
  -1  -5  -5    9.84    0.61 
  -1  -5   5    8.80    0.56 
  -1   5  -5    8.91    0.74 
   1  -5  -5    8.75    0.79 
  -1   5  -5    8.74    0.62 
  -2  -5  -5   30.53    1.39 
   2  -5   5   31.41    1.69 
  -2  -5  -5   30.15    1.25 
   2   5  -5   30.49    1.60 
  -2   5  -5   29.98    1.60 
   2  -5  -5   31.67    1.74 
  -2   5  -5   31.61    1.34 
  -3  -5  -5   68.97    2.41 
   3  -5   5   71.66    3.18 
   3   5  -5   72.42    3.09 
   3   5   5   68.15    2.69 
   4   5  -5   38.81    2.05 
  -4  -5  -5   37.89    1.79 
  -4  -5  -5   39.28    1.57 
   4  -5   5   39.41    2.18 
  -4   5  -5   40.63    1.72 
  -5  -5  -5   11.71    0.80 
  -5  -5  -5   12.88    1.12 
   5  -5   5   11.51    1.24 
   5   5  -5   13.45    1.16 
  -5   5  -5    9.31    0.89 
   6  -5   5    2.82    0.91 
  -6  -5  -5    1.59    0.66 
   6   5  -5    2.24    0.71 
   6  -5  -5    1.00    1.05 
  -6   5  -5    1.11    0.51 
   7  -5  -5    2.97    1.81 
  -7   5  -5    1.51    0.66 
   0   6  -5    0.72    0.29 
   0  -6  -5    1.52    0.42 
   0  -6   5    1.56    0.23 
   0   6  -5    1.30    0.38 
  -1  -6  -5   18.55    1.09 
   1   6  -5   18.17    1.17 
   1  -6  -5   18.34    1.24 
  -1   6  -5   17.68    0.94 
  -1  -6   5   17.41    0.84 
  -2  -6  -5   22.28    1.11 
   2   6  -5   24.53    1.44 
   2  -6   5   23.65    1.49 
  -2  -6  -5   25.59    1.26 
  -2   6  -5   24.87    1.44 
  -2  -6   5   22.37    1.12 
   2  -6  -5   24.01    1.57 
  -2   6  -5   26.45    1.22 
   4   6  -5   18.25    1.33 
   4  -6   5   18.30    1.50 
  -4  -6  -5   17.43    0.98 
  -4  -6  -5   19.16    1.26 
  -4   6  -5   18.18    1.14 
   4  -6  -5   16.51    1.62 
  -5  -6  -5   16.28    1.25 
   5   6  -5   15.37    1.28 
   5  -6   5   14.86    1.46 
  -5   6  -5   13.52    1.08 
  -6  -6  -5   10.56    1.21 
   6  -6   5   10.21    1.42 
  -6   6  -5    9.67    1.04 
   0   7  -5   29.98    1.66 
   0  -7   5   29.86    1.09 
   0   7  -5   28.23    1.25 
   0  -7  -5   28.81    1.64 
   1   7  -5    6.22    0.78 
  -1  -7  -5    7.19    0.75 
   1  -7  -5    5.56    0.80 
  -1  -7   5    6.43    0.59 
  -1   7  -5    5.83    0.63 
   2   7  -5   53.92    2.55 
  -2  -7  -5   52.76    2.02 
  -2  -7  -5   53.45    2.37 
   2  -7   5   52.29    2.66 
  -2  -7   5   52.77    2.01 
   2  -7  -5   53.89    2.72 
  -2   7  -5   55.73    2.12 
  -2   7  -5   51.81    2.56 
   3   7  -5    7.95    0.97 
  -3  -7  -5    8.20    0.71 
   3  -7   5    9.12    1.16 
   3  -7  -5    8.93    1.05 
  -3   7  -5    8.31    0.84 
  -4  -7  -5    1.81    0.43 
   4  -7   5    2.18    0.77 
   4   7  -5    1.79    0.63 
  -4  -7  -5    2.12    0.58 
   4  -7  -5    1.17    0.68 
  -4   7  -5    1.64    0.53 
  -5  -7  -5    0.84    0.55 
   5  -7   5    0.20    0.53 
   5   7  -5    0.53    0.57 
  -5   7  -5   -0.06    0.51 
   5  -7  -5    0.53    0.67 
   6  -7   5   -0.32    0.58 
  -6  -7  -5   -0.40    0.46 
  -6   7  -5    0.36    0.56 
   6  -7  -5    0.76    0.83 
   0   8  -5    4.32    0.74 
   0  -8  -5    4.69    0.75 
   0   8  -5    5.31    0.58 
  -1  -8  -5   18.33    1.26 
   1   8  -5   17.04    1.27 
  -1  -8   5   19.42    0.96 
   1  -8  -5   17.99    1.40 
  -1   8  -5   19.51    1.06 
  -1   8  -5   16.75    1.28 
  -2  -8  -5    3.24    0.53 
   2  -8   5    3.11    0.74 
  -2  -8  -5    3.06    0.60 
   2   8  -5    2.99    0.69 
  -2   8  -5    3.44    0.59 
  -2  -8   5    2.34    0.51 
   2  -8  -5    2.68    0.70 
   3   8  -5    6.30    0.91 
   3  -8   5    6.76    1.08 
  -3  -8  -5    6.76    0.70 
  -3   8  -5    5.23    0.69 
  -3  -8   5    5.11    0.69 
   3  -8  -5    5.24    0.95 
   4  -8   5   18.54    1.60 
   4   8  -5   17.21    1.40 
  -4  -8  -5   18.42    1.33 
  -4  -8  -5   18.26    1.07 
  -4   8  -5   18.80    1.21 
   4  -8  -5   16.26    1.61 
   5  -8   5    1.99    0.79 
   5   8  -5    1.84    0.65 
  -5  -8  -5    1.02    0.66 
   5  -8  -5    0.85    0.74 
  -5   8  -5    0.52    0.59 
   0  -9  -5    3.62    0.73 
   0   9  -5    3.01    0.71 
   1   9  -5   32.37    1.92 
  -1  -9  -5   32.51    1.86 
   1  -9  -5   29.06    1.96 
  -1   9  -5   32.35    1.95 
  -1   9  -5   31.02    1.53 
   2  -9   5    8.46    1.15 
  -2  -9  -5    7.72    0.92 
   2   9  -5    8.74    1.07 
  -2  -9  -5    9.93    0.83 
  -2  -9   5    8.08    0.81 
   2  -9  -5    8.40    1.19 
  -2   9  -5   10.04    0.93 
  -3  -9  -5   35.80    1.65 
   3  -9   5   37.44    2.33 
   3   9  -5   36.16    2.12 
   3  -9  -5   35.15    2.35 
  -3   9  -5   35.28    1.78 
  -3  -9   5   38.10    1.76 
  -4  -9  -5    6.30    0.95 
   4  -9   5    6.83    1.17 
  -4  -9  -5    6.25    0.74 
   4   9  -5    6.77    0.99 
  -4   9  -5    5.86    0.82 
   4  -9  -5    8.71    1.37 
  -5  -9  -5    4.15    0.98 
   5  -9   5    3.67    0.96 
   5  -9  -5    3.24    1.13 
  -5   9  -5    4.47    0.85 
   0 -10  -5    3.20    0.76 
   0  10  -5    1.92    0.65 
  -1 -10  -5    2.36    0.67 
   1 -10   5    2.19    0.73 
   1  10  -5    1.87    0.62 
   1 -10  -5    1.93    0.68 
  -1  10  -5    2.08    0.68 
   2  10  -5    4.41    0.84 
   2 -10   5    4.80    0.96 
  -2 -10  -5    5.37    0.72 
  -2  10  -5    4.72    0.73 
   2 -10  -5    4.34    1.00 
   3 -10   5    6.18    1.15 
  -3 -10  -5    6.29    0.78 
   3  10  -5    7.56    1.05 
   3 -10  -5    7.00    1.24 
  -3  10  -5    6.94    0.88 
   4  10  -5    6.06    0.98 
  -4 -10  -5    4.62    0.96 
   4 -10   5    3.93    1.04 
   4 -10  -5    4.54    1.12 
  -4  10  -5    4.31    0.78 
   0 -11  -5    4.25    0.93 
   0  11  -5    5.12    0.94 
   1  11  -5    1.48    0.62 
  -1 -11  -5    0.33    0.59 
   1 -11   5    0.32    0.59 
   1 -11  -5    0.35    0.69 
   2 -11   5   22.04    1.84 
   2  11  -5   24.26    1.75 
  -2 -11  -5   23.80    1.43 
   2 -11  -5   21.71    1.93 
  -2  11  -5   24.25    1.42 
   3  11  -5    0.76    0.60 
  -3 -11  -5    0.37    0.49 
   3 -11   5    0.65    0.68 
   3 -11  -5    0.78    0.83 
  -3  11  -5    0.16    0.49 
   0 -12   5    0.68    0.81 
   0 -12  -5    3.28    0.97 
   0  12  -5    1.44    0.67 
  -1 -12  -5    2.31    0.89 
   1 -12   5    2.03    0.87 
   1  12  -5    2.12    0.74 
   1 -12  -5    2.05    0.91 
   2  12  -5    5.07    1.00 
  -2 -12  -5    5.26    0.87 
   2 -12   5    4.57    1.11 
   2 -12  -5    4.06    1.16 
   0   0  -6    1.26    0.21 
   0   0  -6    1.24    0.24 
   1   0  -6  137.62    3.85 
   1   0  -6  134.24    4.92 
  -1   0  -6  134.66    4.71 
  -1   0  -6  116.38    3.92 
   2   0  -6   96.77    3.98 
   2   0   6  103.64    3.66 
   2   0  -6   97.20    2.95 
  -2   0  -6  102.77    3.17 
  -3   0  -6   16.32    0.87 
   3   0  -6   17.52    1.27 
   3   0   6   18.03    0.92 
  -3   0  -6   17.56    0.86 
  -4   0  -6    5.24    0.56 
   4   0  -6    4.70    0.84 
  -4   0  -6    4.76    0.59 
  -5   0  -6   29.57    1.38 
   5   0  -6   29.50    1.97 
  -6   0  -6    7.21    0.76 
   6   0  -6    6.49    1.12 
   7   0  -6    2.84    0.85 
   0  -1  -6   19.97    0.78 
   0   1  -6   19.12    0.75 
   0  -1  -6   19.46    0.95 
   0   1  -6   18.90    0.92 
   1   1  -6  113.49    3.31 
  -1  -1  -6  115.51    4.05 
  -1   1  -6  112.83    3.45 
  -1   1  -6  112.01    4.16 
   1  -1  -6  110.55    3.37 
   2   1  -6  119.84    4.53 
  -2  -1  -6  115.52    3.60 
   2  -1   6  117.50    4.31 
  -2   1  -6  112.03    4.27 
  -3  -1  -6   72.39    2.40 
   3  -1   6   74.38    2.82 
   3   1  -6   67.75    3.01 
   3   1   6   71.27    2.59 
  -3   1  -6   73.66    2.43 
   3  -1  -6   60.56    3.25 
  -4  -1  -6   10.04    0.70 
  -4  -1  -6    8.86    0.83 
   4   1  -6   10.43    0.95 
  -4   1  -6    9.84    0.76 
   4  -1  -6   11.68    1.39 
  -4   1  -6   10.22    0.71 
  -5  -1  -6   43.24    1.94 
  -5  -1  -6   41.02    1.72 
   5   1  -6   40.05    2.27 
  -5   1  -6   40.86    1.76 
   5  -1  -6   46.31    2.81 
  -6  -1  -6    0.92    0.40 
   6   1  -6    0.29    0.59 
   6  -1  -6    0.71    0.82 
  -6   1  -6    0.74    0.40 
   7   1  -6    3.56    0.89 
  -7   1  -6    3.12    0.63 
   7  -1  -6    3.58    1.05 
   0   2  -6  144.39    4.28 
   0   2  -6  143.72    5.34 
   0  -2  -6  143.55    4.32 
  -1  -2  -6   33.40    1.32 
  -1   2  -6   30.72    1.19 
   2   2  -6   33.06    1.66 
  -2  -2  -6   37.01    1.31 
  -2   2  -6   34.14    1.51 
  -2   2  -6   34.09    1.16 
   3   2  -6   30.97    1.59 
  -3  -2  -6   29.23    1.22 
  -3   2  -6   30.28    1.28 
  -4  -2  -6  119.82    3.89 
  -4  -2  -6  122.22    3.98 
   4   2  -6  120.90    4.91 
   4  -2   6  121.75    4.78 
  -4   2  -6  119.19    3.95 
  -5  -2  -6   23.65    1.15 
   5   2  -6   20.86    1.53 
  -5  -2  -6   23.11    1.41 
   5  -2  -6   18.99    2.20 
  -5   2  -6   21.82    1.18 
  -6  -2  -6    6.47    0.72 
  -6  -2  -6    5.46    0.84 
   6   2  -6    5.58    0.95 
  -6   2  -6    6.20    0.73 
   6  -2  -6    8.25    1.51 
   7   2  -6    1.56    0.73 
   7  -2  -6    0.50    1.09 
  -7   2  -6    1.23    0.55 
   0  -3  -6    8.50    0.70 
   0   3  -6    8.06    0.64 
   0   3  -6    8.82    0.49 
  -1  -3  -6  192.76    6.52 
   1   3  -6  178.41    6.70 
  -1  -3  -6  179.32    5.40 
   1   3  -6  178.61    5.24 
  -1   3  -6  181.32    6.65 
  -1   3  -6  167.22    5.39 
  -2  -3  -6   61.22    2.07 
   2   3  -6   62.73    2.62 
  -2   3  -6   59.28    2.50 
  -2   3  -6   59.46    2.11 
   3   3  -6    9.73    0.84 
   3  -3   6    8.50    0.76 
  -3  -3  -6    9.57    0.63 
  -3   3  -6    8.10    0.66 
   4   3  -6   38.70    2.03 
  -4  -3  -6   40.14    1.75 
   4  -3   6   39.57    1.97 
  -4  -3  -6   38.09    1.55 
  -4   3  -6   39.15    1.66 
  -5  -3  -6   14.14    1.18 
   5   3  -6   12.99    1.20 
  -5  -3  -6   14.30    0.90 
   5  -3   6   13.26    1.19 
  -5   3  -6   12.18    0.93 
  -6  -3  -6    5.05    0.64 
  -6  -3  -6    5.65    0.85 
   6   3  -6    5.45    0.93 
   6  -3  -6    4.27    1.43 
  -6   3  -6    5.25    0.71 
  -7   3  -6    0.07    0.51 
   7  -3  -6    1.77    1.28 
   0  -4  -6    0.86    0.31 
   0   4  -6    0.23    0.14 
   0   4  -6   -0.01    0.14 
   1   4  -6   53.08    1.75 
   1   4  -6   52.93    2.35 
  -1  -4  -6   54.19    1.90 
  -1  -4  -6   54.34    2.21 
   1  -4  -6   58.36    2.48 
  -1   4  -6   54.16    1.90 
  -1   4  -6   54.14    2.33 
   2   4  -6   28.58    1.49 
  -2  -4  -6   27.83    1.18 
  -2  -4  -6   28.30    1.20 
   2  -4  -6   27.94    1.70 
  -2   4  -6   29.46    1.46 
  -2   4  -6   27.90    1.21 
   3   4  -6   40.05    1.98 
   3  -4   6   40.69    1.99 
  -3  -4  -6   37.26    1.50 
  -3  -4  -6   40.88    1.54 
  -4  -4  -6   54.63    2.23 
   4   4  -6   55.26    2.59 
   4  -4   6   51.11    2.55 
  -4  -4  -6   54.09    1.99 
  -4   4  -6   52.09    2.09 
  -5  -4  -6    6.11    0.85 
  -5  -4  -6    5.43    0.61 
   5   4  -6    4.88    0.83 
   5  -4   6    5.77    0.89 
  -5   4  -6    4.84    0.65 
   5  -4  -6    3.03    1.26 
   6   4  -6   13.80    1.29 
  -6  -4  -6   12.86    1.29 
  -6   4  -6   12.82    1.06 
   7  -4  -6    8.62    2.33 
  -7   4  -6   11.29    1.12 
   0  -5  -6   87.39    3.51 
   0   5  -6   85.09    2.77 
  -1  -5  -6   93.40    3.63 
   1   5  -6   91.18    3.78 
  -1  -5  -6   93.92    3.04 
  -1   5  -6   93.69    3.05 
   1  -5  -6   91.41    3.85 
  -1   5  -6   92.50    3.77 
   2   5  -6   13.85    1.00 
  -2  -5  -6   14.92    0.82 
  -2  -5  -6   12.99    0.79 
  -2   5  -6   14.78    0.87 
  -2   5  -6   13.60    0.97 
   2  -5  -6   16.27    1.21 
  -4  -5  -6    3.22    0.66 
  -4  -5  -6    2.16    0.42 
   4  -5   6    2.02    0.61 
   4   5  -6    2.84    0.64 
  -4   5  -6    3.44    0.58 
   5   5  -6    5.95    0.90 
  -5  -5  -6    6.35    0.89 
  -5  -5  -6    5.84    0.64 
   5  -5   6    5.75    0.94 
  -5   5  -6    4.77    0.70 
   6   5  -6    1.34    0.62 
  -6  -5  -6    1.47    0.66 
   6  -5   6    0.79    0.75 
  -6   5  -6    1.22    0.59 
   6  -5  -6    1.13    1.17 
  -7  -5  -6    6.66    1.13 
   7  -5  -6    4.26    1.87 
  -7   5  -6    5.24    0.88 
   0   6  -6    2.55    0.38 
   0   6  -6    2.27    0.45 
   0  -6  -6    1.99    0.48 
   1   6  -6    8.26    0.54 
  -1  -6  -6   10.01    0.77 
   1   6  -6    9.05    0.81 
  -1  -6  -6    6.99    0.64 
  -1   6  -6    6.57    0.72 
   1  -6  -6    8.70    0.87 
  -1   6  -6    7.91    0.62 
   2   6  -6   25.09    1.46 
  -2  -6  -6   23.65    1.15 
  -2  -6  -6   24.83    1.26 
   2  -6   6   24.08    1.51 
  -2   6  -6   24.87    1.20 
  -2   6  -6   24.60    1.45 
   2  -6  -6   23.84    1.57 
  -3  -6  -6   18.02    0.98 
   3   6  -6   18.93    1.32 
   3  -6   6   20.76    1.43 
   3  -6  -6   18.98    1.52 
  -4  -6  -6   38.70    1.60 
   4   6  -6   36.88    2.05 
   4  -6   6   37.15    2.22 
  -4   6  -6   37.21    1.72 
   5  -6   6    3.61    0.87 
  -5  -6  -6    3.65    0.74 
  -5  -6  -6    3.68    0.55 
   5   6  -6    4.76    0.85 
  -5   6  -6    2.97    0.64 
   6  -6   6    3.42    0.90 
  -6  -6  -6    4.25    0.86 
   6  -6  -6    1.04    0.96 
  -6   6  -6    5.14    0.82 
   0  -7   6   -0.02    0.20 
   0  -7  -6   -0.27    0.32 
   0   7  -6    0.21    0.34 
   0   7  -6   -0.24    0.23 
  -1  -7  -6    9.32    0.75 
  -1  -7  -6   10.36    0.87 
   1   7  -6   10.23    0.93 
  -1  -7   6   10.73    0.68 
   1  -7  -6    9.26    0.94 
  -1   7  -6    9.90    0.74 
   2  -7   6    7.11    0.95 
  -2  -7  -6    6.83    0.64 
   2   7  -6    6.22    0.82 
  -2  -7  -6    6.87    0.71 
  -2   7  -6    6.97    0.81 
  -2   7  -6    6.97    0.75 
   2  -7  -6    7.72    1.01 
   3   7  -6   53.18    2.59 
   3  -7   6   49.73    2.74 
  -3  -7  -6   52.03    2.05 
   3  -7  -6   52.42    2.86 
  -3   7  -6   53.98    2.18 
   4  -7   6   34.82    2.16 
  -4  -7  -6   34.41    1.52 
   4   7  -6   33.68    1.96 
   4  -7  -6   26.64    2.16 
  -4   7  -6   33.00    1.61 
  -5  -7  -6    1.12    0.55 
   5  -7   6    0.83    0.59 
   5   7  -6    0.33    0.52 
  -5   7  -6    0.41    0.55 
   5  -7  -6   -0.39    0.52 
  -6  -7  -6    4.84    0.93 
   6  -7   6    6.07    1.11 
  -6   7  -6    5.71    0.90 
   6  -7  -6    1.90    1.06 
   0   8  -6   61.59    2.92 
   0   8  -6   64.22    2.29 
   0  -8  -6   60.78    2.93 
  -1  -8  -6   38.65    1.97 
   1   8  -6   37.79    2.04 
   1  -8  -6   36.61    2.12 
  -1  -8   6   36.49    1.47 
  -1   8  -6   36.31    2.03 
  -1   8  -6   36.71    1.64 
  -2  -8  -6    2.61    0.56 
  -2  -8  -6    2.61    0.49 
   2  -8   6    3.17    0.75 
   2   8  -6    2.90    0.71 
  -2   8  -6    2.29    0.53 
  -2   8  -6    2.24    0.62 
   2  -8  -6    2.42    0.70 
  -3  -8  -6    5.50    0.68 
   3   8  -6    5.25    0.87 
   3  -8   6    5.57    1.03 
  -3   8  -6    5.54    0.74 
   3  -8  -6    5.29    0.99 
   4   8  -6    2.46    0.71 
  -4  -8  -6    3.55    0.57 
   4  -8   6    2.41    0.76 
   4  -8  -6    2.95    0.88 
  -4   8  -6    3.43    0.65 
  -5  -8  -6   10.80    1.23 
   5   8  -6   12.84    1.27 
   5  -8   6   11.82    1.49 
  -5   8  -6   12.25    1.13 
   0   9  -6   14.40    0.95 
   0   9  -6   13.94    1.22 
   0  -9  -6   12.69    1.20 
   1   9  -6    0.39    0.53 
  -1  -9  -6    0.23    0.44 
   1  -9  -6    0.25    0.50 
  -1   9  -6    0.48    0.44 
  -1   9  -6    0.42    0.48 
  -2  -9  -6   24.20    1.34 
   2  -9   6   24.68    1.79 
   2   9  -6   25.13    1.69 
   2  -9  -6   26.25    1.86 
  -2   9  -6   27.00    1.40 
   3  -9   6    1.19    0.64 
   3   9  -6    2.05    0.66 
  -3  -9  -6    1.69    0.49 
  -3   9  -6    0.87    0.49 
   3  -9  -6    0.41    0.67 
   4  -9   6    8.90    1.30 
  -4  -9  -6    9.39    0.85 
   4   9  -6    8.30    1.12 
  -4  -9  -6    8.82    1.10 
   4  -9  -6    8.24    1.36 
  -4   9  -6    7.87    0.93 
   5  -9   6   12.37    1.59 
  -5  -9  -6   12.17    1.35 
  -5   9  -6   11.70    1.09 
   5  -9  -6    6.57    1.39 
   0  10  -6    1.39    0.58 
   0 -10  -6    1.38    0.61 
  -1 -10  -6    6.47    0.94 
   1  10  -6    5.96    0.91 
  -1  10  -6    4.47    0.66 
   1 -10  -6    5.90    1.00 
  -1  10  -6    6.25    0.97 
   2 -10   6   22.99    1.78 
  -2 -10  -6   23.54    1.32 
   2  10  -6   24.36    1.69 
  -2  10  -6   22.17    1.36 
   2 -10  -6   21.39    1.86 
   3 -10   6   13.47    1.44 
  -3 -10  -6   13.96    1.06 
   3  10  -6   14.59    1.34 
   3 -10  -6   12.21    1.62 
  -3  10  -6   12.28    1.09 
   4  10  -6    7.53    1.11 
   4 -10   6    5.64    1.15 
  -4 -10  -6    6.55    1.08 
   4 -10  -6    6.08    1.24 
  -4  10  -6    6.06    0.91 
   0 -11  -6   -0.07    0.56 
   0  11  -6    0.05    0.47 
  -1 -11  -6   12.62    1.30 
  -1 -11  -6   14.57    1.17 
   1 -11   6   16.32    1.49 
   1  11  -6   15.88    1.43 
   1 -11  -6   14.14    1.53 
  -1  11  -6   15.70    1.42 
   2 -11   6    0.46    0.63 
   2  11  -6   -0.43    0.49 
  -2 -11  -6    0.23    0.50 
   2 -11  -6    0.53    0.76 
  -2  11  -6   -0.39    0.41 
  -3 -11  -6    4.80    0.79 
   3 -11   6    5.21    1.14 
   3  11  -6    4.86    0.97 
  -3  11  -6    4.51    0.79 
   3 -11  -6    4.73    1.23 
   0  12  -6    0.21    0.61 
   0 -12  -6    1.25    0.83 
   1 -12   6    0.84    0.71 
  -1 -12  -6    0.29    0.56 
   1  12  -6    1.00    0.71 
   1 -12  -6    2.48    0.97 
   2  12  -6    3.37    0.91 
   2 -12   6    3.63    0.97 
  -2 -12  -6    3.53    0.80 
   2 -12  -6    2.45    1.07 
   0   0  -7    0.13    0.19 
   0   0  -7    0.00    0.16 
   1   0  -7  105.05    3.10 
  -1   0  -7  102.70    3.79 
   1   0  -7  103.03    4.00 
   2   0  -7   28.78    0.95 
   2   0  -7   27.27    1.50 
  -2   0  -7   25.76    1.11 
  -2   0  -7   28.62    1.13 
  -3   0  -7    3.68    0.44 
  -3   0  -7    3.66    0.45 
   3   0  -7    3.73    0.64 
   3   0   7    4.41    0.41 
  -4   0  -7   25.79    1.21 
  -4   0  -7   23.24    1.23 
   4   0  -7   27.03    1.68 
  -5   0  -7    0.87    0.50 
  -5   0  -7    0.10    0.37 
   5   0  -7   -0.42    0.59 
   6   0  -7    1.19    0.72 
  -6   0  -7    1.47    0.46 
   7   0  -7    0.94    0.74 
  -7   0  -7    0.18    0.46 
   0  -1  -7  109.07    4.08 
   0   1  -7  111.43    3.31 
   0   1  -7  107.11    4.10 
   0  -1  -7  108.35    3.32 
   1   1  -7   22.50    0.79 
  -1  -1  -7   21.23    0.92 
   1   1  -7   21.01    1.12 
   1  -1  -7   25.08    1.29 
   1  -1  -7   23.68    0.86 
  -1   1  -7   22.24    1.02 
   2   1  -7  110.73    4.39 
   2   1  -7  113.66    3.23 
  -2  -1  -7  111.62    3.50 
  -2   1  -7  109.31    4.12 
   3  -1   7    0.01    0.21 
   3   1  -7   -0.14    0.28 
  -3  -1  -7    0.19    0.23 
   3  -1  -7    0.61    0.55 
  -3   1  -7    0.55    0.29 
  -3   1  -7    0.46    0.26 
  -4  -1  -7   15.09    0.89 
  -4  -1  -7   16.88    1.05 
   4   1  -7   15.66    1.19 
   4  -1  -7   15.04    1.52 
  -4   1  -7   15.60    0.97 
  -4   1  -7   16.10    0.95 
  -5  -1  -7  101.05    3.51 
  -5  -1  -7  103.63    3.65 
   5   1  -7  104.89    4.56 
   5  -1  -7  112.09    4.89 
  -5   1  -7   98.91    3.54 
  -6  -1  -7    2.85    0.53 
   6   1  -7    2.40    0.78 
  -6   1  -7    2.23    0.53 
   6  -1  -7    3.68    0.98 
   7   1  -7    1.75    0.74 
   7  -1  -7    1.69    0.93 
  -7   1  -7    1.63    0.59 
   0   2  -7    1.65    0.26 
   0   2  -7    2.34    0.37 
  -1  -2  -7   53.79    2.05 
   1   2  -7   53.01    1.67 
  -1   2  -7   53.51    2.18 
  -2  -2  -7  290.06    8.51 
   2   2  -7  290.38   10.57 
  -2   2  -7  292.63    8.11 
  -2   2  -7  290.14   10.38 
  -2   2  -7  274.96    8.53 
   3   2  -7   42.94    2.01 
   3  -2   7   33.71    1.77 
  -3  -2  -7   42.43    1.56 
  -3   2  -7   43.87    1.63 
  -4  -2  -7    2.21    0.43 
   4  -2   7    3.07    0.53 
   4   2  -7    2.66    0.60 
  -4  -2  -7    2.02    0.50 
  -4   2  -7    1.69    0.44 
   4  -2  -7    1.97    0.96 
   5   2  -7   31.07    1.91 
  -5  -2  -7   32.24    1.62 
  -5  -2  -7   29.77    1.42 
   5  -2  -7   25.62    2.40 
  -5   2  -7   30.88    1.49 
  -6  -2  -7    1.07    0.42 
  -6  -2  -7    1.01    0.53 
   6   2  -7    0.86    0.62 
  -6   2  -7    0.48    0.43 
   6  -2  -7    0.65    1.01 
   7   2  -7   -0.56    0.54 
  -7   2  -7   -0.24    0.49 
   7  -2  -7   -0.73    0.97 
   0   3  -7   32.21    1.20 
   0   3  -7   34.50    1.57 
   0  -3  -7   33.03    1.26 
   1   3  -7   19.50    1.15 
   1   3  -7   22.69    0.82 
  -1   3  -7   22.32    0.97 
  -1   3  -7   22.42    1.15 
  -2  -3  -7   11.94    0.69 
   2   3  -7    9.94    0.81 
  -2   3  -7   11.03    0.71 
  -2   3  -7   11.26    0.76 
  -3  -3  -7   17.64    0.90 
   3   3  -7   19.02    1.23 
   3  -3   7   18.91    1.13 
  -3   3  -7   17.72    0.97 
   4  -3   7    6.48    0.76 
   4   3  -7    5.59    0.82 
  -4  -3  -7    7.16    0.63 
  -4  -3  -7    7.36    0.82 
  -4   3  -7    4.94    0.62 
  -5  -3  -7   47.22    2.13 
  -5  -3  -7   43.53    1.82 
   5   3  -7   43.57    2.38 
   5  -3   7   47.49    2.34 
  -5   3  -7   41.21    1.87 
  -6  -3  -7   -0.08    0.33 
  -6  -3  -7   -0.83    0.44 
   6   3  -7    0.01    0.53 
  -6   3  -7   -0.16    0.42 
   6  -3  -7    0.35    1.20 
   7   3  -7    2.26    0.79 
   7  -3  -7    4.09    1.69 
  -7   3  -7    1.98    0.65 
   0   4  -7    5.00    0.59 
   0  -4  -7    5.10    0.46 
   0  -4  -7    5.04    0.59 
  -1  -4  -7   54.07    1.87 
   1   4  -7   53.43    2.33 
  -1  -4  -7   55.83    2.16 
   1   4  -7   52.13    1.69 
  -1   4  -7   51.82    1.85 
   1  -4  -7   47.40    2.42 
  -1   4  -7   49.68    2.26 
  -2  -4  -7    2.08    0.37 
  -2  -4  -7    1.65    0.25 
   2   4  -7    1.54    0.42 
  -2   4  -7    1.57    0.39 
   2  -4  -7    0.93    0.48 
  -2   4  -7    0.91    0.31 
   4   4  -7   30.76    1.74 
  -4  -4  -7   29.18    1.33 
   4  -4   7   28.63    1.70 
  -4   4  -7   30.19    1.45 
  -5  -4  -7   19.07    1.07 
  -5  -4  -7   17.06    1.26 
   5   4  -7   18.76    1.45 
   5  -4   7   19.18    1.44 
  -5   4  -7   18.48    1.18 
   6   4  -7    7.72    1.05 
  -6  -4  -7    5.47    0.90 
  -6   4  -7    6.74    0.85 
   6  -4  -7    6.26    1.62 
   7  -4  -7    5.45    1.86 
  -7   4  -7    3.94    0.80 
   0  -5  -7   36.22    1.72 
   0   5  -7   33.22    1.31 
   1   5  -7   54.22    2.43 
  -1  -5  -7   53.31    1.94 
  -1  -5  -7   53.95    2.26 
   1  -5  -7   53.71    2.50 
  -1   5  -7   52.80    2.39 
  -1   5  -7   51.85    1.93 
  -2  -5  -7   17.16    0.90 
  -2  -5  -7   16.93    0.90 
   2   5  -7   16.43    1.14 
  -2   5  -7   18.08    0.96 
  -2   5  -7   18.31    1.16 
   2  -5  -7   16.14    1.34 
  -4  -5  -7    7.70    0.70 
   4   5  -7    8.03    0.99 
   4  -5   7    9.85    1.06 
  -4   5  -7    8.93    0.79 
   5   5  -7    7.30    1.03 
  -5  -5  -7    8.79    0.77 
  -5  -5  -7    8.97    1.03 
   5  -5   7    8.21    1.12 
  -5   5  -7    7.49    0.85 
  -6  -5  -7    4.28    0.82 
   6   5  -7    6.12    0.96 
  -6   5  -7    6.84    0.90 
   6  -5  -7    0.86    1.17 
   0  -6  -7   32.92    1.72 
   0   6  -7   32.61    1.32 
   1   6  -7    3.90    0.62 
  -1  -6  -7    2.95    0.45 
   1   6  -7    3.52    0.39 
  -1  -6  -7    2.89    0.50 
  -1   6  -7    4.18    0.51 
   1  -6  -7    3.45    0.64 
  -1   6  -7    3.55    0.58 
   2   6  -7   21.90    1.39 
  -2  -6  -7   21.25    1.13 
  -2  -6  -7   22.40    1.10 
  -2   6  -7   20.97    1.12 
  -2   6  -7   20.17    1.32 
   2  -6  -7   20.74    1.49 
   3   6  -7   32.45    1.83 
   3  -6   7   33.54    1.94 
  -3  -6  -7   31.86    1.43 
   3  -6  -7   29.38    2.08 
  -3   6  -7   31.54    1.50 
   4  -6   7   21.03    1.59 
   4   6  -7   20.28    1.49 
  -4  -6  -7   19.29    1.08 
  -4   6  -7   20.48    1.22 
  -5  -6  -7    1.58    0.45 
  -5  -6  -7    2.22    0.62 
   5   6  -7    2.68    0.73 
   5  -6   7    1.72    0.71 
  -5   6  -7    1.87    0.57 
   5  -6  -7    0.30    0.72 
  -6  -6  -7    0.63    0.60 
   6  -6   7    1.25    0.69 
   6   6  -7    1.13    0.64 
   6  -6  -7    0.87    1.06 
  -6   6  -7    0.21    0.57 
   0  -7  -7    4.51    0.70 
   0   7  -7    5.10    0.54 
   1   7  -7    0.16    0.39 
  -1  -7  -7    0.54    0.36 
  -1  -7  -7    0.29    0.32 
   1   7  -7    0.26    0.28 
  -1   7  -7    0.89    0.39 
  -1   7  -7    0.01    0.19 
   1  -7  -7    0.55    0.46 
  -2  -7  -7    7.14    0.73 
   2   7  -7    6.43    0.88 
  -2  -7  -7    8.10    0.76 
   2  -7  -7    8.89    0.99 
  -2   7  -7    6.78    0.88 
  -2   7  -7    7.52    0.72 
  -3  -7  -7   18.33    1.03 
   3  -7   7   18.00    1.44 
   3   7  -7   18.66    1.39 
  -3   7  -7   15.39    1.07 
   3  -7  -7   17.25    1.55 
  -4  -7  -7   19.36    1.12 
   4  -7   7   22.11    1.69 
   4   7  -7   18.81    1.49 
  -4   7  -7   19.09    1.20 
   5  -7   7   10.99    1.27 
   5   7  -7   11.65    1.18 
  -5  -7  -7   10.02    1.13 
  -5  -7  -7   10.45    0.87 
  -5   7  -7    8.85    1.00 
   6  -7   7    0.64    0.65 
  -6  -7  -7    0.96    0.59 
  -6   7  -7   -0.63    0.58 
   6  -7  -7    2.85    1.40 
   0   8  -7    0.94    0.40 
   0   8  -7    0.81    0.46 
   0  -8  -7    0.71    0.48 
  -1  -8  -7   11.21    0.88 
   1   8  -7    9.47    1.01 
  -1  -8  -7   11.54    0.99 
  -1   8  -7   11.48    1.03 
  -1   8  -7   11.32    0.84 
   1  -8  -7   10.22    1.05 
   2  -8   7   26.29    1.78 
  -2  -8  -7   24.62    1.31 
   2   8  -7   27.28    1.70 
   2  -8  -7   23.92    1.74 
  -2   8  -7   26.05    1.66 
  -2   8  -7   24.94    1.38 
  -3  -8  -7   43.25    1.84 
   3   8  -7   42.22    2.36 
   3  -8   7   42.50    2.48 
   3  -8  -7   43.21    2.64 
  -3   8  -7   42.23    1.95 
  -4  -8  -7    8.30    0.83 
   4   8  -7    8.86    1.12 
   4  -8   7    9.63    1.29 
  -4   8  -7    9.12    0.97 
   4  -8  -7    5.74    1.15 
   5  -8   7    2.88    0.83 
   5   8  -7    3.52    0.79 
  -5  -8  -7    2.37    0.68 
   5  -8  -7    0.67    0.66 
  -5   8  -7    2.86    0.73 
   0  -9  -7    7.88    1.02 
   0   9  -7    8.95    1.09 
   0   9  -7    9.03    0.79 
   1   9  -7    3.15    0.73 
  -1  -9  -7    2.64    0.65 
  -1  -9  -7    2.40    0.56 
  -1   9  -7    3.09    0.70 
  -1   9  -7    2.04    0.52 
   1  -9  -7    1.41    0.61 
   2  -9   7   18.65    1.53 
  -2  -9  -7   18.91    1.16 
   2   9  -7   18.22    1.44 
  -2   9  -7   18.09    1.42 
   2  -9  -7   17.08    1.57 
  -2   9  -7   16.76    1.16 
   3  -9   7   11.40    1.41 
  -3  -9  -7   10.31    0.92 
   3   9  -7   11.09    1.17 
  -3   9  -7   10.17    0.93 
   3  -9  -7   11.97    1.53 
   4  -9   7   15.98    1.54 
   4   9  -7   16.85    1.44 
  -4  -9  -7   16.23    1.11 
   4  -9  -7   14.47    1.72 
  -4   9  -7   15.47    1.16 
   5   9  -7    4.52    0.92 
   5  -9   7    5.47    1.14 
  -5  -9  -7    4.81    1.04 
  -5   9  -7    4.39    0.80 
   5  -9  -7    2.48    0.95 
   0 -10  -7    6.20    0.98 
   0  10  -7    7.17    1.02 
  -1 -10  -7   11.84    0.97 
  -1 -10  -7   12.15    1.17 
   1  10  -7   12.89    1.25 
  -1  10  -7   11.24    0.94 
   1 -10  -7   13.20    1.34 
  -1  10  -7   12.21    1.20 
  -2 -10  -7    1.97    0.55 
   2  10  -7    1.82    0.65 
   2 -10   7    2.45    0.79 
   2 -10  -7    1.37    0.77 
  -2  10  -7    1.58    0.56 
   3  10  -7   12.89    1.32 
   3 -10   7   14.91    1.54 
  -3 -10  -7   12.07    1.07 
   3 -10  -7   13.77    1.74 
  -3  10  -7   13.08    1.11 
  -4 -10  -7    1.37    0.56 
   4  10  -7    1.78    0.71 
   4 -10   7    2.01    0.79 
   4 -10  -7    1.66    0.95 
  -4  10  -7    0.68    0.51 
   0  11  -7   -0.06    0.51 
   0 -11  -7    0.45    0.65 
   1 -11   7    1.23    0.71 
   1  11  -7    0.49    0.54 
  -1 -11  -7    0.56    0.58 
  -1  11  -7    1.18    0.66 
   1 -11  -7    1.77    0.84 
  -2 -11  -7   16.59    1.19 
   2  11  -7   15.75    1.46 
   2 -11   7   13.49    1.47 
  -2  11  -7   15.51    1.19 
   2 -11  -7   16.20    1.66 
  -3 -11  -7    4.76    0.81 
   3 -11   7    3.72    1.03 
   3  11  -7    4.81    0.98 
  -3  11  -7    4.89    0.87 
   3 -11  -7    3.36    1.11 
   0  12  -7    3.18    0.87 
   0 -12  -7    2.81    0.95 
   1  12  -7    3.20    0.83 
   1 -12   7    4.86    1.02 
  -1 -12  -7    2.33    0.72 
   1 -12  -7    3.60    1.07 
  -1  12  -7    4.60    1.03 
   2  12  -7    8.30    1.27 
   2 -12   7    6.90    1.26 
   2 -12  -7    5.52    1.30 
   0   0  -8   59.25    2.37 
   0   0  -8   59.31    1.93 
  -1   0  -8   75.42    2.82 
  -1   0  -8   66.64    2.40 
   1   0  -8   78.16    3.04 
   1   0  -8   79.00    2.33 
  -2   0  -8  183.88    6.72 
   2   0  -8  191.98    5.49 
   3   0  -8    1.35    0.21 
  -3   0  -8    1.47    0.34 
   3   0   8    1.42    0.26 
   3   0  -8    1.10    0.45 
  -4   0  -8  113.07    3.83 
   4   0  -8  119.24    4.95 
  -4   0  -8  115.23    3.77 
  -5   0  -8   62.80    2.49 
   5   0  -8   67.38    3.33 
  -5   0  -8   69.03    2.59 
  -6   0  -8    2.18    0.54 
   6   0  -8    1.54    0.72 
  -7   0  -8   14.64    1.14 
   7   0  -8   15.21    1.62 
   0  -1  -8   16.33    0.88 
   0   1  -8   16.14    0.71 
   0   1  -8   15.60    0.88 
   1   1  -8   45.89    1.46 
   1   1  -8   46.67    2.00 
  -1  -1  -8   44.61    1.74 
  -1  -1  -8   46.35    1.59 
  -1   1  -8   44.07    1.83 
   1  -1  -8   48.70    2.08 
   1  -1  -8   45.78    1.52 
  -1   1  -8   38.29    1.56 
   2   1  -8   19.70    1.13 
  -2  -1  -8   18.58    0.86 
   2   1  -8   19.25    0.64 
  -2   1  -8   14.36    0.81 
  -2   1  -8   18.89    0.88 
   2  -1  -8   18.45    0.74 
   2  -1  -8   13.51    1.15 
   3   1  -8   63.22    2.81 
  -3  -1  -8   61.54    2.19 
   3  -1   8   62.20    2.48 
  -3   1  -8   59.51    2.20 
   3  -1  -8   64.13    3.02 
  -3   1  -8   58.52    2.06 
  -4  -1  -8   15.03    1.01 
   4   1  -8   14.04    1.17 
  -4  -1  -8   12.75    0.83 
  -4   1  -8   13.14    0.87 
   4  -1  -8   14.24    1.39 
  -4   1  -8   13.83    0.94 
  -5  -1  -8   61.61    2.37 
  -5  -1  -8   62.56    2.50 
   5   1  -8   61.08    3.09 
   5  -1  -8   67.77    3.38 
  -5   1  -8   59.58    2.39 
  -6  -1  -8    5.44    0.84 
   6   1  -8    5.91    1.00 
  -6  -1  -8    5.38    0.70 
  -6   1  -8    5.36    0.73 
   6  -1  -8    3.72    1.00 
   7   1  -8    5.52    1.12 
  -7   1  -8    5.64    0.82 
   7  -1  -8    5.55    1.19 
   0  -2  -8   18.21    0.79 
   0   2  -8   17.66    0.96 
   0  -2  -8   14.55    1.02 
   0   2  -8   17.85    0.76 
  -1  -2  -8   29.38    1.19 
   1   2  -8   28.66    0.99 
  -1  -2  -8   27.58    1.12 
   1   2  -8   25.54    1.39 
  -1   2  -8   29.18    1.15 
  -1   2  -8   28.72    1.33 
  -2  -2  -8   15.60    0.79 
   2   2  -8   15.14    0.53 
   2   2  -8   16.26    1.03 
  -2   2  -8   15.52    0.84 
  -2   2  -8   15.19    0.86 
  -3  -2  -8   56.29    2.03 
   3   2  -8   55.42    2.58 
   3  -2   8   53.24    2.36 
  -3   2  -8   59.46    2.11 
   4  -2   8    6.62    0.71 
  -4  -2  -8    6.05    0.73 
  -4  -2  -8    6.54    0.65 
   4   2  -8    4.97    0.80 
  -4   2  -8    6.32    0.69 
   4  -2  -8    6.22    1.29 
  -5  -2  -8   11.94    0.89 
   5   2  -8   12.00    1.27 
  -5  -2  -8   13.13    1.09 
   5  -2  -8   16.64    1.97 
  -5   2  -8   12.40    0.91 
  -6  -2  -8    0.84    0.43 
   6   2  -8    0.79    0.58 
  -6  -2  -8    1.19    0.56 
  -6   2  -8    0.27    0.40 
   6  -2  -8    0.88    1.02 
   7   2  -8    4.42    0.99 
   7  -2  -8    2.94    1.35 
  -7   2  -8    4.87    0.81 
   0  -3  -8   41.97    1.54 
   0   3  -8   42.48    1.90 
   1   3  -8   29.22    1.05 
  -1   3  -8   29.83    1.43 
  -1   3  -8   29.60    1.19 
  -2  -3  -8   50.47    1.82 
   2   3  -8   49.23    2.29 
   2   3  -8   48.85    1.51 
  -2   3  -8   50.59    2.17 
  -2   3  -8   52.08    1.87 
   3   3  -8   15.56    1.15 
   3  -3   8   15.31    1.03 
  -3  -3  -8   15.96    0.86 
   4  -3   8   13.99    1.04 
   4   3  -8   12.23    1.10 
  -4  -3  -8   13.94    0.84 
  -4   3  -8   13.82    0.92 
   4  -3  -8   10.92    1.65 
   5  -3   8   11.68    1.10 
  -5  -3  -8   11.03    1.11 
  -5  -3  -8   11.58    0.86 
   5   3  -8   11.04    1.20 
   5  -3  -8    9.63    1.83 
  -5   3  -8   10.33    0.88 
  -6  -3  -8    4.31    0.81 
  -6  -3  -8    4.01    0.62 
   6   3  -8    4.54    0.89 
   6  -3  -8    4.69    1.40 
  -6   3  -8    3.64    0.69 
   7   3  -8    1.49    0.75 
  -7   3  -8    1.44    0.64 
   7  -3  -8    2.24    1.63 
   0  -4  -8   89.11    2.95 
   0   4  -8   90.59    3.66 
   0   4  -8   91.62    2.89 
   1   4  -8    0.42    0.19 
   1   4  -8   -0.18    0.25 
  -1  -4  -8    0.31    0.26 
  -1  -4  -8   -0.10    0.18 
   1  -4  -8    0.82    0.41 
  -1   4  -8    0.35    0.26 
  -1   4  -8    0.48    0.29 
  -2  -4  -8   27.45    1.19 
   2   4  -8   27.60    1.52 
   2   4  -8   27.22    0.90 
  -2   4  -8   25.86    1.20 
  -2   4  -8   24.78    1.38 
   4  -4   8    4.27    0.71 
   4   4  -8    3.72    0.72 
  -4  -4  -8    4.29    0.55 
   4  -4  -8    0.90    0.78 
  -4   4  -8    3.56    0.58 
  -5  -4  -8    7.44    0.92 
   5  -4   8    7.06    0.96 
   5   4  -8    5.97    0.97 
  -5  -4  -8    6.62    0.73 
  -5   4  -8    6.58    0.79 
   5  -4  -8    4.04    1.25 
  -6  -4  -8    0.76    0.56 
  -6  -4  -8    0.62    0.41 
   6   4  -8    1.09    0.62 
   6  -4  -8    1.20    1.43 
  -6   4  -8    0.88    0.57 
  -7  -4  -8   -0.30    0.73 
  -7   4  -8    0.51    0.61 
   7  -4  -8    0.72    1.69 
   0   5  -8   34.81    1.86 
   0   5  -8   39.55    1.48 
   0  -5  -8   42.79    1.94 
   0  -5  -8   40.49    1.55 
  -1  -5  -8    1.87    0.38 
   1   5  -8    2.12    0.46 
  -1  -5  -8    1.37    0.35 
  -1   5  -8    1.95    0.38 
   1  -5  -8    1.31    0.49 
  -1   5  -8    1.70    0.40 
  -2  -5  -8   37.71    1.56 
   2   5  -8   35.24    1.87 
  -2  -5  -8   37.54    1.52 
  -2   5  -8   35.25    1.52 
  -2   5  -8   33.50    1.79 
   4   5  -8    9.08    0.99 
   4  -5   8    8.78    1.04 
  -4  -5  -8    9.07    0.76 
  -4   5  -8    9.18    0.85 
   5   5  -8   43.39    2.35 
   5  -5   8   38.53    2.28 
  -5  -5  -8   39.27    2.01 
  -5  -5  -8   40.10    1.74 
  -5   5  -8   39.21    1.87 
  -6  -5  -8    3.50    0.82 
   6   5  -8    3.14    0.78 
  -6   5  -8    2.23    0.69 
   6  -5  -8    2.86    1.41 
   0   6  -8    0.69    0.31 
   0  -6  -8    0.69    0.39 
  -1  -6  -8   44.32    1.81 
   1   6  -8   45.58    2.28 
  -1  -6  -8   46.88    2.12 
   1   6  -8   45.66    1.64 
  -1   6  -8   46.90    1.80 
   1  -6  -8   51.13    2.40 
  -1   6  -8   44.91    2.23 
  -2  -6  -8   48.35    1.90 
   2   6  -8   48.83    2.41 
  -2  -6  -8   50.70    2.10 
  -2   6  -8   46.75    1.94 
   2  -6  -8   48.70    2.64 
  -2   6  -8   47.51    2.35 
   3  -6   8   47.74    2.50 
  -3  -6  -8   50.37    1.98 
   3   6  -8   49.42    2.51 
  -3   6  -8   50.26    2.05 
   4  -6   8    3.02    0.77 
   4   6  -8    3.20    0.75 
  -4  -6  -8    2.20    0.48 
  -4   6  -8    2.37    0.55 
   5   6  -8    7.19    1.02 
  -5  -6  -8    7.72    0.78 
   5  -6   8    5.86    1.02 
  -5  -6  -8    8.01    1.01 
  -5   6  -8    6.54    0.85 
  -6  -6  -8    0.65    0.58 
   6   6  -8    1.23    0.66 
   6  -6  -8   -0.29    1.02 
  -6   6  -8    1.85    0.66 
   0  -7  -8   24.17    1.51 
   0   7  -8   25.09    1.15 
  -1  -7  -8    0.89    0.39 
   1   7  -8    1.42    0.35 
  -1  -7  -8    0.74    0.41 
   1   7  -8    1.04    0.50 
   1  -7  -8    1.43    0.52 
  -1   7  -8    1.20    0.45 
  -1   7  -8    1.41    0.44 
  -2  -7  -8   13.33    0.93 
   2   7  -8   15.66    1.26 
   2  -7  -8   14.37    1.30 
  -2   7  -8   13.46    0.98 
  -2   7  -8   15.18    1.17 
  -3  -7  -8   24.32    1.26 
   3  -7   8   24.09    1.71 
   3   7  -8   23.81    1.59 
  -3   7  -8   24.75    1.34 
   3  -7  -8   19.02    1.74 
  -4  -7  -8   36.94    1.67 
   4  -7   8   35.20    2.24 
   4   7  -8   38.78    2.17 
  -4   7  -8   36.91    1.77 
  -5  -7  -8    2.05    0.67 
   5   7  -8    2.09    0.70 
  -5  -7  -8    1.43    0.47 
   5  -7   8    2.70    0.79 
  -5   7  -8    2.88    0.69 
   5  -7  -8    0.87    0.86 
  -6  -7  -8   24.39    1.71 
   6   7  -8   23.63    1.83 
  -6   7  -8   24.02    1.60 
   0  -8  -8   31.13    1.80 
   0   8  -8   27.84    1.78 
   0   8  -8   31.46    1.38 
  -1  -8  -8   27.80    1.38 
   1   8  -8   26.49    1.19 
  -1  -8  -8   26.66    1.57 
   1   8  -8   28.01    1.72 
  -1   8  -8   25.19    1.64 
   1  -8  -8   25.58    1.71 
  -1   8  -8   26.94    1.35 
   2   8  -8   17.15    1.38 
  -2  -8  -8   15.48    1.04 
  -2   8  -8   14.68    1.09 
   2  -8  -8   14.67    1.36 
  -2   8  -8   15.05    1.25 
   3  -8   8    7.53    1.09 
  -3  -8  -8    8.31    0.86 
   3   8  -8    8.66    1.10 
  -3   8  -8    8.42    0.91 
   3  -8  -8    6.08    1.13 
   4   8  -8    1.97    0.64 
   4  -8   8    1.75    0.68 
  -4  -8  -8    2.59    0.55 
  -4   8  -8    2.69    0.61 
   4  -8  -8    0.01    0.61 
   5  -8   8    0.71    0.64 
   5   8  -8   -0.21    0.52 
  -5  -8  -8   -0.12    0.53 
   5  -8  -8   -0.43    0.60 
  -5   8  -8   -0.41    0.42 
   0  -9  -8    8.73    1.02 
   0   9  -8    8.90    0.99 
   0   9  -8    9.35    0.80 
  -1  -9  -8    0.99    0.48 
  -1  -9  -8    0.58    0.50 
   1   9  -8    1.19    0.54 
  -1   9  -8    1.62    0.52 
  -1   9  -8    1.06    0.50 
   1  -9  -8    1.23    0.60 
  -2  -9  -8    3.20    0.59 
   2  -9   8    3.91    0.86 
   2   9  -8    3.89    0.78 
   2  -9  -8    4.22    0.92 
  -2   9  -8    3.20    0.76 
  -2   9  -8    4.32    0.67 
   3   9  -8    9.52    1.18 
  -3  -9  -8    8.32    0.90 
   3  -9   8    8.15    1.19 
   3  -9  -8    7.03    1.32 
  -3   9  -8    8.67    0.95 
   4   9  -8    2.58    0.75 
   4  -9   8    1.74    0.75 
  -4  -9  -8    2.24    0.58 
   4  -9  -8    1.11    0.78 
  -4   9  -8    0.71    0.50 
  -5  -9  -8   10.55    1.33 
   5   9  -8   11.22    1.29 
   5  -9   8   12.84    1.63 
  -5   9  -8   10.46    1.14 
   0 -10  -8   -0.46    0.44 
   0  10  -8   -0.39    0.40 
  -1 -10  -8    7.52    0.89 
   1  10  -8    7.50    1.06 
   1 -10  -8    7.50    1.12 
  -1  10  -8    6.57    0.78 
  -1  10  -8    7.55    1.09 
   2 -10   8   14.44    1.42 
  -2 -10  -8   13.79    1.08 
   2  10  -8   16.29    1.38 
  -2  10  -8   14.43    1.11 
   2 -10  -8   13.48    1.53 
  -2  10  -8   13.19    1.29 
   3  10  -8    8.37    1.16 
   3 -10   8    7.20    1.21 
  -3 -10  -8    7.88    0.93 
  -3  10  -8    8.73    0.98 
   3 -10  -8    6.75    1.38 
   4  10  -8    7.47    1.15 
   4 -10   8    5.21    1.10 
  -4 -10  -8    7.39    0.93 
   4 -10  -8    4.37    1.24 
  -4  10  -8    6.28    0.97 
   0  11  -8    3.91    0.89 
   0 -11  -8    5.25    0.99 
  -1 -11  -8    6.36    0.88 
   1  11  -8    5.19    0.99 
  -1  11  -8    6.50    0.79 
   1 -11  -8    5.49    1.11 
  -1  11  -8    6.01    1.00 
   2  11  -8    4.65    0.92 
   2 -11   8    5.34    1.08 
  -2 -11  -8    6.60    0.92 
  -2  11  -8    5.99    0.83 
   2 -11  -8    6.90    1.26 
   3 -11   8    2.32    0.98 
   3  11  -8    1.90    0.73 
  -3 -11  -8    3.38    0.75 
   3 -11  -8    1.91    1.01 
  -3  11  -8    3.75    0.80 
   0 -12  -8   18.37    1.79 
   0  12  -8   19.99    1.74 
   1 -12   8    9.04    1.34 
   1  12  -8    7.69    1.25 
  -1 -12  -8    6.89    0.98 
   1 -12  -8    8.10    1.35 
  -1  12  -8    8.40    1.27 
   0   0  -9    0.21    0.24 
   0   0  -9    0.20    0.16 
   1   0  -9  361.75   13.02 
  -1   0  -9  353.28   12.79 
   1   0  -9  361.54   10.39 
  -1   0  -9  360.75   10.51 
  -2   0  -9   45.53    1.81 
   2   0  -9   47.91    1.52 
  -3   0  -9   13.57    0.84 
   3   0  -9   15.13    1.13 
   3   0   9   13.60    0.72 
   3   0  -9   13.88    0.59 
   4   0  -9   33.89    2.07 
  -4   0  -9   35.35    1.56 
  -4   0  -9   35.98    1.57 
  -5   0  -9    8.17    0.87 
  -5   0  -9    7.87    0.81 
   5   0  -9    6.93    1.17 
  -6   0  -9   10.43    0.92 
   6   0  -9    9.27    1.27 
  -7   0  -9    0.58    0.55 
   7   0  -9   -0.43    0.65 
   0  -1  -9   28.69    1.27 
   0  -1  -9   21.39    1.00 
   0   1  -9   28.92    1.30 
   1   1  -9  129.26    3.78 
   1   1  -9  125.87    4.87 
  -1  -1  -9  126.07    4.61 
  -1  -1  -9  126.23    3.92 
  -1   1  -9  123.18    3.92 
   1  -1  -9  129.89    4.94 
  -1   1  -9  121.83    4.69 
  -2  -1  -9   38.77    1.46 
   2   1  -9   39.50    1.26 
   2  -1  -9   40.61    2.08 
  -2   1  -9   38.72    1.63 
   2  -1  -9   38.66    1.36 
  -2   1  -9   39.32    1.52 
  -3  -1  -9   51.60    1.95 
   3   1  -9   54.56    2.50 
   3  -1   9   49.49    2.11 
  -3   1  -9   51.66    1.82 
  -3   1  -9   49.83    1.93 
   4   1  -9   82.81    3.75 
  -4  -1  -9   84.29    2.95 
  -4  -1  -9   79.69    2.91 
  -4   1  -9   80.65    2.94 
  -4   1  -9   81.73    2.83 
   4  -1  -9   91.70    4.04 
  -5  -1  -9    7.25    0.86 
  -5  -1  -9    6.31    0.71 
   5   1  -9    5.10    0.97 
  -5   1  -9    6.23    0.72 
   5  -1  -9    7.88    1.37 
  -6  -1  -9    5.62    0.86 
  -6  -1  -9    4.79    0.70 
   6   1  -9    5.51    1.01 
  -6   1  -9    5.91    0.78 
   6  -1  -9    5.70    1.11 
   7   1  -9    6.75    1.24 
  -7  -1  -9    5.28    0.83 
  -7   1  -9    6.09    0.89 
   7  -1  -9    3.36    1.20 
   0   2  -9   49.54    2.15 
   0  -2  -9   49.31    1.76 
   0  -2  -9   51.47    2.25 
   1   2  -9   49.68    2.16 
  -1  -2  -9   50.34    1.74 
   1   2  -9   49.68    1.57 
  -1  -2  -9   46.27    1.87 
  -1   2  -9   48.20    1.72 
   1  -2  -9   40.41    2.37 
   1  -2  -9   47.24    1.66 
  -1   2  -9   47.88    2.02 
  -2  -2  -9   31.11    1.25 
   2   2  -9   30.92    1.60 
   2   2  -9   29.47    0.96 
  -2   2  -9   30.81    1.39 
  -2   2  -9   31.10    1.29 
   2  -2  -9   23.11    1.76 
   3   2  -9    1.97    0.54 
   3  -2   9    2.89    0.46 
  -3  -2  -9    3.11    0.44 
  -4  -2  -9   18.03    1.14 
  -4  -2  -9   19.27    1.05 
   4  -2   9   19.63    1.20 
   4   2  -9   18.25    1.43 
  -4   2  -9   18.99    1.09 
   4  -2  -9   23.38    2.25 
  -5  -2  -9   19.73    1.31 
   5   2  -9   20.95    1.58 
  -5  -2  -9   19.27    1.11 
  -5   2  -9   20.90    1.23 
   5  -2  -9   19.67    2.22 
  -6  -2  -9    4.99    0.82 
  -6  -2  -9    4.55    0.68 
   6   2  -9    6.11    1.04 
  -6   2  -9    6.02    0.82 
   6  -2  -9    6.46    1.32 
   7   2  -9    7.19    1.21 
   7  -2  -9    1.61    1.33 
  -7   2  -9    5.93    0.91 
   0   3  -9    3.75    0.37 
   0  -3  -9    1.86    0.48 
   1   3  -9    4.72    0.54 
  -1  -3  -9    4.78    0.45 
   1   3  -9    5.67    0.40 
  -1  -3  -9    4.29    0.54 
   1  -3  -9    5.02    0.48 
  -1   3  -9    4.62    0.46 
  -1   3  -9    5.86    0.54 
   2   3  -9   21.56    1.31 
  -2  -3  -9   23.14    1.05 
   2   3  -9   22.04    0.76 
  -2   3  -9   21.71    1.09 
  -2   3  -9   22.19    1.19 
  -2   3  -9   23.73    0.81 
   4  -3   9   61.44    2.74 
  -4  -3  -9   60.48    2.28 
   4   3  -9   61.16    2.96 
  -4   3  -9   61.26    2.38 
   5   3  -9   22.90    1.68 
  -5  -3  -9   24.53    1.51 
  -5  -3  -9   23.41    1.25 
  -5   3  -9   20.77    1.29 
   5  -3  -9   22.22    2.27 
   6   3  -9    9.27    1.19 
  -6  -3  -9    7.46    0.84 
  -6  -3  -9    6.95    0.97 
  -6   3  -9    7.24    0.91 
   6  -3  -9    8.77    1.74 
   7   3  -9   10.18    1.38 
  -7  -3  -9    8.96    1.17 
   7  -3  -9    9.01    1.87 
  -7   3  -9    9.27    1.09 
   0  -4  -9    3.93    0.47 
   0   4  -9    3.31    0.40 
   0   4  -9    3.79    0.54 
   1   4  -9   85.31    2.75 
  -1   4  -9   93.28    2.96 
  -1   4  -9   87.89    3.60 
   2   4  -9   23.81    1.43 
   2   4  -9   24.55    0.85 
  -2  -4  -9   24.29    1.15 
  -2   4  -9   24.78    1.35 
  -2   4  -9   24.00    1.16 
  -3  -4  -9    2.56    0.45 
   3   4  -9    1.58    0.51 
   3  -4   9    2.87    0.56 
   3  -4  -9    0.06    0.44 
  -4  -4  -9    6.56    0.67 
   4   4  -9    5.52    0.89 
   4  -4   9    6.60    0.86 
   4  -4  -9    3.73    1.18 
  -4   4  -9    6.59    0.75 
   5  -4   9    4.91    0.83 
  -5  -4  -9    7.54    0.95 
   5   4  -9    6.75    1.03 
  -5  -4  -9    5.62    0.68 
  -5   4  -9    5.43    0.75 
   5  -4  -9    4.07    1.34 
  -6  -4  -9    0.60    0.54 
   6   4  -9    0.21    0.54 
  -6  -4  -9    0.39    0.40 
   6  -4  -9    1.86    1.33 
  -6   4  -9    1.21    0.57 
   0   5  -9    2.89    0.39 
   0  -5  -9    1.92    0.52 
   0   5  -9    3.04    0.54 
   0  -5  -9    3.42    0.47 
  -1  -5  -9    4.20    0.57 
   1   5  -9    3.33    0.35 
  -1   5  -9    4.03    0.50 
   1  -5  -9    2.20    0.56 
  -1   5  -9    4.67    0.64 
  -2  -5  -9   20.21    1.06 
   2   5  -9   19.47    1.31 
   2   5  -9   19.92    0.79 
  -2   5  -9   22.01    1.29 
  -2   5  -9   18.75    1.08 
   3   5  -9    6.49    0.88 
   3  -5   9    8.22    0.95 
  -3  -5  -9    7.28    0.69 
  -3   5  -9    6.78    0.73 
  -4  -5  -9   43.78    1.82 
   4   5  -9   41.99    2.34 
   4  -5   9   42.21    2.30 
  -4   5  -9   44.02    1.91 
   5  -5   9   12.21    1.23 
   5   5  -9   10.62    1.15 
  -5  -5  -9   10.91    1.14 
  -5  -5  -9   10.80    0.87 
  -5   5  -9   10.18    1.04 
  -6  -5  -9    2.96    0.78 
   6   5  -9    3.66    0.83 
   6  -5  -9    1.85    1.40 
  -6   5  -9    3.09    0.76 
   1   6  -9    9.18    0.60 
  -1  -6  -9   10.02    0.84 
  -1  -6  -9    8.68    0.69 
  -1   6  -9    9.40    0.90 
  -1   6  -9    9.86    0.72 
   1  -6  -9    9.12    1.02 
  -2  -6  -9  103.05    3.46 
   2   6  -9   99.17    4.28 
  -2   6  -9   99.52    3.46 
  -2   6  -9  102.41    4.25 
  -3  -6  -9   36.11    1.59 
   3   6  -9   35.55    2.03 
   3  -6   9   36.45    2.04 
  -3   6  -9   34.88    1.66 
   4  -6   9    5.65    0.93 
   4   6  -9    5.42    0.92 
  -4  -6  -9    4.13    0.61 
  -4   6  -9    3.79    0.63 
  -5  -6  -9    3.81    0.77 
   5   6  -9    3.88    0.79 
  -5  -6  -9    3.56    0.59 
   5  -6   9    3.42    0.86 
   5  -6  -9    0.50    0.87 
  -5   6  -9    2.93    0.69 
   6   6  -9    3.40    0.83 
  -6  -6  -9    1.76    0.73 
  -6   6  -9    3.05    0.78 
   6  -6  -9    2.80    1.50 
   0  -7  -9   37.99    2.00 
   0   7  -9   36.75    1.52 
   1   7  -9    4.21    0.73 
  -1  -7  -9    4.64    0.67 
   1   7  -9    4.20    0.48 
  -1  -7  -9    5.12    0.64 
   1  -7  -9    4.29    0.78 
  -1   7  -9    3.64    0.66 
  -1   7  -9    3.54    0.54 
   2   7  -9    7.07    0.94 
  -2  -7  -9    8.04    0.73 
  -2   7  -9    7.84    0.88 
   2  -7  -9    6.99    1.10 
  -2   7  -9    8.64    0.79 
  -3  -7  -9   22.56    1.27 
   3   7  -9   25.88    1.73 
   3  -7   9   23.41    1.73 
  -3   7  -9   25.55    1.39 
   4   7  -9    1.12    0.60 
   4  -7   9    0.84    0.60 
  -4  -7  -9    1.44    0.46 
   4  -7  -9    0.32    0.57 
  -4   7  -9    0.94    0.46 
   5  -7   9   10.48    1.33 
  -5  -7  -9   11.57    0.95 
   5   7  -9   11.33    1.24 
  -5  -7  -9   11.84    1.24 
  -5   7  -9    9.77    1.04 
  -6  -7  -9    0.36    0.74 
   6   7  -9    0.33    0.61 
   6  -7  -9    3.12    1.68 
  -6   7  -9    0.31    0.65 
   0   8  -9    0.04    0.37 
   0   8  -9    0.07    0.35 
   0  -8  -9    0.20    0.42 
  -1  -8  -9   17.24    1.07 
   1   8  -9   16.43    1.37 
   1   8  -9   16.70    0.93 
  -1  -8  -9   16.82    1.24 
  -1   8  -9   17.43    1.33 
  -1   8  -9   17.01    1.07 
   1  -8  -9   16.55    1.36 
   2   8  -9    3.15    0.75 
  -2  -8  -9    2.68    0.53 
  -2   8  -9    3.14    0.64 
   2  -8  -9    3.29    0.86 
  -2   8  -9    2.67    0.71 
   3   8  -9   15.89    1.32 
  -3  -8  -9   16.04    1.04 
   3  -8   9   16.18    1.43 
  -3   8  -9   15.81    1.12 
   3  -8  -9   10.14    1.49 
  -4  -8  -9   13.52    1.04 
   4  -8   9   14.44    1.45 
   4   8  -9   16.26    1.41 
  -4   8  -9   16.50    1.15 
  -5  -8  -9    2.88    0.63 
   5  -8   9    2.38    0.84 
   5   8  -9    1.86    0.71 
  -5  -8  -9    2.27    0.70 
  -5   8  -9    1.61    0.60 
   5  -8  -9    0.23    0.72 
   0  -9  -9    9.86    1.07 
   0   9  -9    9.42    0.82 
   0   9  -9    9.56    1.06 
  -1  -9  -9   11.86    1.11 
   1   9  -9   10.04    1.08 
  -1  -9  -9   10.93    0.92 
  -1   9  -9    9.72    1.08 
   1  -9  -9   11.45    1.17 
  -1   9  -9   10.97    0.94 
   2  -9   9    1.40    0.65 
  -2  -9  -9    1.77    0.52 
   2   9  -9    0.84    0.55 
   2  -9  -9    0.82    0.66 
  -2   9  -9    1.64    0.51 
  -2   9  -9    1.46    0.64 
  -3  -9  -9    4.51    0.72 
   3   9  -9    4.08    0.82 
   3  -9   9    4.26    0.92 
  -3   9  -9    4.13    0.72 
   3  -9  -9    1.86    0.91 
  -4  -9  -9   11.68    1.04 
   4   9  -9   10.76    1.24 
   4  -9   9   11.20    1.46 
  -4   9  -9   11.94    1.10 
   0  10  -9    0.06    0.49 
   0  10  -9    0.81    0.47 
   0 -10  -9    1.47    0.67 
   1  10  -9    4.74    0.89 
  -1 -10  -9    3.44    0.71 
  -1  10  -9    3.90    0.83 
  -1  10  -9    4.05    0.67 
   1 -10  -9    5.13    0.97 
   2 -10   9   17.66    1.57 
   2  10  -9   17.63    1.49 
  -2 -10  -9   17.11    1.21 
  -2  10  -9   18.42    1.52 
   2 -10  -9   16.33    1.64 
  -2  10  -9   18.50    1.24 
   3  10  -9    9.81    1.27 
  -3 -10  -9    8.43    0.98 
   3 -10   9    8.18    1.29 
  -3  10  -9    8.48    0.98 
   3 -10  -9    6.29    1.37 
   4 -10   9   10.31    1.46 
  -4 -10  -9   10.59    1.09 
   4  10  -9    9.09    1.30 
   4 -10  -9    4.33    1.27 
  -4  10  -9    9.28    1.11 
   0  11  -9    3.09    0.85 
   0 -11  -9    3.29    0.85 
   0 -11  -9    1.03    0.58 
   1  11  -9    2.22    0.77 
  -1 -11  -9    1.98    0.65 
  -1  11  -9    1.91    0.58 
   1 -11  -9    1.72    0.78 
  -1  11  -9    1.96    0.71 
   2  11  -9    0.75    0.63 
   2 -11   9    0.99    0.69 
  -2 -11  -9    0.70    0.60 
   2 -11  -9    0.22    0.81 
  -2  11  -9   -0.02    0.49 
  -3 -11  -9   14.64    1.29 
   3  11  -9   15.71    1.52 
   3 -11   9   13.83    1.78 
   3 -11  -9   13.25    1.90 
  -3  11  -9   14.08    1.30 
   0 -12  -9   27.85    1.76 
   0  12  -9   28.51    2.13 
   1  12  -9    3.63    1.00 
   1 -12   9    4.74    1.05 
  -1  12  -9    4.04    0.94 
   1 -12  -9    3.14    1.05 
   0   0 -10   -0.43    0.18 
   0   0 -10   -0.40    0.22 
  -1   0 -10  176.20    5.17 
   1   0 -10  167.05    6.38 
  -1   0 -10  170.56    6.17 
   1   0 -10  160.61    5.02 
   2   0 -10    1.02    0.21 
   2   0 -10    1.26    0.40 
  -2   0 -10    1.09    0.21 
  -2   0 -10    0.82    0.29 
   3   0  10   11.19    0.64 
  -3   0 -10   11.83    0.81 
   3   0 -10   11.20    0.55 
  -4   0 -10   32.74    1.53 
   4   0 -10   33.32    2.09 
  -4   0 -10   33.13    1.52 
   5   0 -10   18.24    1.68 
  -5   0 -10   17.75    1.09 
  -5   0 -10   16.17    1.25 
   6   0 -10    0.82    0.65 
  -6   0 -10    0.15    0.44 
   7   0 -10   11.41    1.63 
  -7   0 -10   10.51    1.11 
   0   1 -10   23.24    1.18 
   0  -1 -10   24.52    0.99 
   0  -1 -10   19.97    1.13 
  -1  -1 -10   16.76    0.84 
   1   1 -10   18.23    1.07 
   1   1 -10   16.68    0.73 
  -1  -1 -10   15.96    0.83 
  -1   1 -10   16.66    0.91 
   1  -1 -10   18.97    1.12 
  -1   1 -10   17.55    0.85 
  -2  -1 -10   47.64    1.85 
   2   1 -10   49.35    1.58 
  -2   1 -10   51.29    1.87 
   2  -1 -10   51.98    2.42 
  -2   1 -10   48.88    2.02 
   3  -1 -10   26.42    1.02 
  -4  -1 -10   72.76    2.70 
   4   1 -10   76.01    3.51 
  -4  -1 -10   73.40    2.72 
  -4   1 -10   72.27    2.72 
  -4   1 -10   75.84    2.61 
   4  -1 -10   80.38    3.72 
  -5  -1 -10    1.30    0.56 
   5   1 -10   -0.25    0.62 
  -5  -1 -10    1.28    0.45 
   5  -1 -10   -1.27    0.69 
  -5   1 -10    1.25    0.51 
  -5   1 -10    0.48    0.40 
  -6  -1 -10   19.33    1.24 
  -6  -1 -10   21.06    1.41 
   6   1 -10   21.88    1.72 
  -6   1 -10   18.29    1.28 
   6  -1 -10   17.53    1.79 
   7   1 -10    0.65    0.76 
  -7  -1 -10    1.81    0.63 
  -7   1 -10    0.54    0.58 
   7  -1 -10   -0.35    0.93 
   0  -2 -10    9.80    0.62 
   0   2 -10    7.67    0.53 
   0  -2 -10    8.64    0.71 
   0   2 -10    8.92    0.71 
   1   2 -10   77.28    3.21 
  -1  -2 -10   75.69    2.93 
  -1  -2 -10   78.68    2.59 
   1   2 -10   76.36    2.43 
  -1   2 -10   79.57    2.60 
   1  -2 -10   75.35    3.37 
  -1   2 -10   76.10    3.08 
   1  -2 -10   78.84    2.53 
  -2  -2 -10   16.97    0.94 
   2   2 -10   22.05    0.77 
  -2   2 -10   22.11    1.10 
   2  -2 -10   22.22    0.93 
  -2   2 -10   22.76    1.08 
   2  -2 -10   21.33    1.54 
  -3  -2 -10   74.45    2.68 
   3   2 -10   77.11    3.40 
   3  -2  10   77.74    3.11 
   4  -2  10   21.25    1.26 
  -4  -2 -10   21.91    1.19 
   4   2 -10   23.14    1.61 
   4  -2 -10   23.38    1.97 
  -4   2 -10   22.45    1.24 
  -4   2 -10   20.86    1.13 
  -5  -2 -10    1.63    0.60 
   5   2 -10    2.64    0.77 
  -5  -2 -10    1.85    0.46 
   5  -2 -10    1.50    0.99 
  -5   2 -10    0.86    0.48 
  -6  -2 -10    7.38    0.84 
   6   2 -10    8.06    1.20 
  -6  -2 -10    6.76    0.96 
   6  -2 -10    6.49    1.42 
  -6   2 -10    8.50    0.95 
   7   2 -10    2.86    0.92 
  -7   2 -10    1.42    0.64 
   7  -2 -10    0.17    1.09 
   0   3 -10   10.36    0.81 
   0   3 -10   10.87    0.64 
   0  -3 -10    8.47    0.99 
   0  -3 -10   10.83    0.69 
   1   3 -10    2.60    0.31 
  -1  -3 -10    2.94    0.41 
   1   3 -10    2.77    0.49 
  -1  -3 -10    2.48    0.40 
   1  -3 -10    1.20    0.54 
  -1   3 -10    2.06    0.35 
   1  -3 -10    2.33    0.38 
  -1   3 -10    2.44    0.43 
  -2  -3 -10   11.15    0.73 
   2   3 -10   10.37    0.45 
   2   3 -10    8.30    0.81 
  -2   3 -10   10.02    0.71 
   2  -3 -10    5.97    1.04 
  -2   3 -10   10.58    0.50 
  -2   3 -10   10.12    0.75 
   3  -3  10   43.63    2.10 
   3   3 -10   46.86    2.33 
  -3  -3 -10   46.24    1.81 
  -3   3 -10   44.87    2.06 
  -4  -3 -10   44.89    1.81 
   4  -3  10   44.49    2.13 
   4   3 -10   43.33    2.37 
  -4   3 -10   43.04    1.87 
   4  -3 -10   37.63    2.87 
  -5  -3 -10    0.23    0.38 
  -5  -3 -10    0.20    0.47 
   5   3 -10    0.39    0.55 
  -5   3 -10    0.01    0.43 
   5  -3 -10    1.61    1.28 
  -6  -3 -10   11.40    0.97 
  -6  -3 -10   10.33    1.14 
   6   3 -10   11.34    1.30 
  -6   3 -10   11.84    1.05 
   6  -3 -10   11.22    1.88 
  -7  -3 -10    0.91    0.68 
   7   3 -10    1.23    0.77 
   7  -3 -10   -1.81    1.23 
  -7   3 -10    0.92    0.65 
   0   4 -10   98.80    3.15 
   0  -4 -10   97.29    3.22 
   0   4 -10   98.33    3.98 
   1  -4 -10   38.58    1.54 
  -1   4 -10   40.04    1.58 
  -1   4 -10   40.83    1.91 
   2   4 -10   20.60    1.36 
   2   4 -10   22.50    0.82 
  -2  -4 -10   22.45    1.11 
  -2   4 -10   23.32    1.30 
  -2   4 -10   24.34    1.16 
  -3  -4 -10    4.41    0.56 
   3  -4  10    6.20    0.76 
   3   4 -10    5.31    0.79 
  -3   4 -10    6.33    0.68 
   3  -4 -10    1.97    0.88 
   4  -4  10    4.78    0.76 
  -4  -4 -10    3.80    0.58 
   4   4 -10    4.15    0.81 
  -4   4 -10    3.99    0.61 
   4  -4 -10    1.84    1.06 
   5   4 -10    1.48    0.60 
  -5  -4 -10    0.35    0.38 
  -5  -4 -10    0.18    0.46 
   5  -4 -10    0.57    1.15 
  -5   4 -10    0.28    0.45 
  -6  -4 -10    4.98    0.89 
   6   4 -10    5.88    1.03 
  -6  -4 -10    5.66    0.76 
   6  -4 -10    5.74    1.61 
  -6   4 -10    6.12    0.90 
   0   5 -10   19.73    0.93 
   0  -5 -10   19.26    1.00 
   0   5 -10   18.19    1.22 
   2   5 -10   12.55    1.06 
  -2  -5 -10   12.27    0.86 
  -2   5 -10   11.72    0.97 
  -2   5 -10   13.47    0.91 
   3   5 -10   11.06    1.13 
  -3  -5 -10   11.53    0.86 
   3  -5  10   12.13    1.09 
  -3   5 -10   12.40    1.00 
  -3   5 -10   11.45    0.90 
  -4  -5 -10    0.42    0.38 
   4  -5  10    1.06    0.54 
   4   5 -10    0.76    0.57 
  -4   5 -10    1.17    0.46 
   4  -5 -10    2.18    1.15 
   5   5 -10   27.02    1.85 
   5  -5  10   26.00    1.79 
  -5  -5 -10   28.91    1.63 
  -5  -5 -10   25.58    1.38 
  -5   5 -10   26.84    1.52 
  -6  -5 -10    0.52    0.49 
   6   5 -10    0.60    0.62 
  -6  -5 -10    0.60    0.59 
   6  -5 -10   -0.27    1.33 
  -6   5 -10   -0.19    0.53 
   0   6 -10    0.21    0.28 
   0  -6 -10    0.05    0.24 
   0   6 -10    0.47    0.32 
   0  -6 -10   -0.06    0.39 
  -1  -6 -10   18.61    1.22 
   1   6 -10   19.18    0.90 
  -1   6 -10   21.30    1.31 
  -1   6 -10   20.93    1.08 
   1  -6 -10   13.96    1.34 
  -2  -6 -10   57.02    2.25 
   2   6 -10   58.15    2.82 
  -2   6 -10   56.80    2.71 
  -2   6 -10   59.67    2.27 
   3  -6  10    6.61    0.97 
  -3  -6 -10    6.29    0.71 
   3   6 -10    5.89    0.94 
  -3   6 -10    7.60    0.92 
  -3   6 -10    6.73    0.78 
   4  -6  10    2.96    0.71 
  -4  -6 -10    2.61    0.54 
   4   6 -10    2.49    0.68 
  -4   6 -10    2.55    0.56 
   4  -6 -10    0.70    0.80 
  -5  -6 -10    2.76    0.74 
  -5  -6 -10    1.94    0.54 
   5   6 -10    3.29    0.81 
   5  -6  10    2.45    0.80 
   5  -6 -10    0.51    1.10 
  -5   6 -10    3.00    0.66 
  -6  -6 -10    5.49    1.05 
   6   6 -10    5.42    1.05 
  -6   6 -10    5.88    0.96 
   6  -6 -10    6.47    2.01 
   0  -7 -10    0.65    0.48 
   0   7 -10    0.11    0.34 
   0   7 -10    0.16    0.33 
   0  -7 -10   -0.29    0.31 
   1   7 -10    6.14    0.90 
   1   7 -10    5.52    0.55 
  -1  -7 -10    5.22    0.66 
  -1  -7 -10    6.98    0.81 
  -1   7 -10    6.12    0.83 
   1  -7 -10    4.60    0.89 
  -1   7 -10    5.11    0.65 
   2   7 -10   12.14    1.16 
  -2  -7 -10   12.44    0.95 
  -2   7 -10   14.23    1.19 
  -2   7 -10   13.82    0.98 
   3   7 -10   12.78    1.24 
  -3  -7 -10   10.33    0.85 
   3  -7  10   11.44    1.19 
  -3   7 -10   10.19    0.93 
   4   7 -10   16.44    1.43 
  -4  -7 -10   16.32    1.12 
   4  -7  10   20.37    1.56 
  -4   7 -10   15.52    1.12 
   5  -7  10    8.48    1.23 
   5   7 -10    7.04    1.11 
  -5  -7 -10    7.19    1.02 
  -5  -7 -10    7.44    0.86 
  -5   7 -10    6.96    0.89 
   0   8 -10    2.97    0.53 
   0  -8 -10    2.88    0.69 
   0  -8 -10    3.45    0.58 
   0   8 -10    2.98    0.66 
   1   8 -10    0.79    0.54 
  -1  -8 -10    0.70    0.41 
  -1  -8 -10    1.04    0.49 
   1   8 -10    1.09    0.39 
  -1   8 -10    0.80    0.47 
   1  -8 -10    1.54    0.61 
  -1   8 -10    0.74    0.46 
   2   8 -10   26.92    1.79 
  -2  -8 -10   28.28    1.44 
  -2   8 -10   30.17    1.87 
  -2   8 -10   30.76    1.52 
   2  -8 -10   23.44    1.97 
   3  -8  10   11.71    1.21 
   3   8 -10   10.15    1.16 
  -3  -8 -10   12.78    1.00 
  -3   8 -10   11.17    0.94 
  -4  -8 -10   11.27    1.00 
   4  -8  10   11.10    1.29 
   4   8 -10   10.96    1.23 
  -4   8 -10   10.51    0.96 
   5  -8  10    5.63    1.09 
  -5  -8 -10    5.97    0.83 
   5   8 -10    7.21    1.11 
  -5  -8 -10    5.77    0.98 
  -5   8 -10    7.15    0.93 
   0   9 -10   21.68    1.18 
   0  -9 -10   20.14    1.25 
   0   9 -10   22.51    1.59 
   0  -9 -10   20.29    1.55 
   1   9 -10    0.92    0.56 
  -1  -9 -10    1.04    0.50 
   1  -9 -10    0.99    0.61 
  -1   9 -10    1.07    0.54 
  -1   9 -10    0.48    0.48 
  -2  -9 -10    2.53    0.60 
   2   9 -10    3.77    0.83 
  -2   9 -10    2.29    0.56 
  -2   9 -10    4.04    0.86 
   2  -9 -10    3.76    0.98 
  -3  -9 -10   12.07    1.06 
   3  -9  10   11.57    1.33 
   3   9 -10   13.79    1.35 
  -3   9 -10   11.82    1.07 
  -4  -9 -10    0.31    0.50 
   4  -9  10    1.26    0.67 
   4   9 -10    1.41    0.67 
   4  -9 -10   -0.54    0.59 
  -4   9 -10    0.78    0.58 
   0  10 -10    7.20    0.80 
   0  10 -10    7.25    1.09 
   0 -10 -10    8.17    1.13 
   0 -10 -10    6.60    0.84 
  -1 -10 -10   12.38    1.07 
   1  10 -10   13.53    1.30 
  -1  10 -10   14.46    1.04 
  -1  10 -10   14.38    1.35 
   1 -10 -10   12.70    1.41 
  -2 -10 -10    9.62    1.05 
   2 -10  10   11.77    1.30 
   2  10 -10   10.44    1.19 
  -2  10 -10    9.42    1.27 
   2 -10 -10   10.76    1.55 
  -2  10 -10    8.84    0.98 
  -3 -10 -10   -0.55    0.49 
   3 -10  10   -0.14    0.59 
   3  10 -10    0.43    0.63 
   3 -10 -10   -0.21    0.77 
  -3  10 -10    1.33    0.53 
   0  11 -10    5.94    1.08 
   0 -11 -10    5.24    0.86 
   1  11 -10    1.60    0.69 
  -1 -11 -10    2.32    0.73 
   1 -11 -10    1.26    0.84 
  -1  11 -10    2.20    0.74 
  -1  11 -10    1.96    0.57 
   2 -11  10    0.60    0.73 
   2  11 -10    0.93    0.70 
  -2 -11 -10    0.38    0.59 
  -2  11 -10    0.75    0.53 
   2 -11 -10   -0.91    0.68 
  -2  11 -10    0.20    0.60 
   0   0 -11   -0.19    0.21 
   0   0 -11    0.07    0.23 
   1   0 -11    7.74    0.72 
  -1   0 -11    8.94    0.63 
  -1   0 -11    8.52    0.59 
  -2   0 -11   30.69    1.37 
   2   0 -11   34.32    1.20 
   2   0 -11   33.05    1.77 
  -2   0 -11   34.46    1.40 
  -3   0 -11   21.17    1.14 
   3   0 -11   26.30    0.94 
   4   0 -11    1.26    0.68 
  -4   0 -11    1.91    0.49 
  -4   0 -11    1.91    0.50 
  -5   0 -11   -0.41    0.36 
  -5   0 -11   -0.36    0.43 
   5   0 -11    0.04    0.63 
  -6   0 -11    6.51    0.90 
  -6   0 -11    6.82    0.85 
   6   0 -11    5.72    1.12 
  -7   0 -11    0.37    0.58 
   7   0 -11    0.00    0.77 
   0   1 -11   91.24    3.69 
   0   1 -11   94.48    3.00 
   0  -1 -11   94.53    3.02 
   0  -1 -11   93.98    3.67 
   1   1 -11    0.69    0.33 
  -1  -1 -11    1.14    0.26 
   1   1 -11    0.75    0.21 
  -1  -1 -11    0.56    0.26 
  -1   1 -11    1.17    0.29 
  -1   1 -11    0.92    0.31 
   1  -1 -11    1.08    0.27 
   1  -1 -11    0.53    0.33 
  -2  -1 -11   39.55    1.57 
   2   1 -11   37.90    1.98 
   2   1 -11   43.06    1.37 
   2  -1 -11   32.57    1.39 
  -2   1 -11   41.26    1.72 
   2  -1 -11   47.12    2.16 
  -2   1 -11   43.89    1.65 
   4   1 -11   18.22    1.49 
  -4  -1 -11   19.10    1.11 
  -4   1 -11   19.67    1.17 
   4  -1 -11   21.85    1.75 
  -4   1 -11   21.00    1.16 
  -5  -1 -11    1.91    0.61 
  -5  -1 -11    2.94    0.58 
   5   1 -11    2.57    0.83 
  -5   1 -11    1.36    0.52 
  -5   1 -11    2.47    0.60 
   5  -1 -11    1.37    0.87 
  -6  -1 -11   13.92    1.26 
   6   1 -11   13.06    1.46 
  -6  -1 -11   11.40    1.03 
   6  -1 -11   10.53    1.55 
  -6   1 -11   13.29    1.12 
  -7  -1 -11    0.63    0.59 
   7   1 -11   -0.17    0.74 
  -7   1 -11    0.02    0.56 
   7  -1 -11   -0.41    0.88 
   0   2 -11   43.42    1.98 
   0   2 -11   44.35    1.59 
   0  -2 -11   43.92    1.61 
   0  -2 -11   42.02    1.93 
   1   2 -11   27.66    1.45 
   1   2 -11   21.37    0.96 
  -1  -2 -11   25.75    1.15 
  -1  -2 -11   26.89    1.17 
  -1   2 -11   25.51    1.14 
  -1   2 -11   24.85    1.28 
   1  -2 -11   27.25    1.53 
   1  -2 -11   25.49    1.07 
   2   2 -11   11.09    0.52 
   2  -2 -11   11.50    0.68 
  -2   2 -11   11.38    0.75 
  -2   2 -11   10.78    0.74 
   2  -2 -11   10.84    1.11 
   3  -2  11   23.43    1.21 
  -3  -2 -11   22.77    1.13 
   3   2 -11   17.31    1.34 
   3  -2 -11   22.78    0.98 
  -3   2 -11   23.46    1.17 
  -3   2 -11   16.85    0.93 
   4   2 -11    8.17    1.06 
  -4  -2 -11    7.42    0.77 
  -4   2 -11    7.04    0.76 
   4  -2 -11    8.23    1.45 
  -4   2 -11    8.00    0.70 
  -5  -2 -11   20.76    1.40 
   5   2 -11   19.64    1.62 
  -5  -2 -11   19.69    1.20 
   5  -2 -11   24.54    2.05 
  -5   2 -11   18.99    1.27 
  -6  -2 -11   13.41    1.08 
  -6  -2 -11   13.36    1.22 
   6   2 -11   13.77    1.42 
  -6   2 -11   12.26    1.13 
   6  -2 -11   14.80    1.82 
  -7  -2 -11    9.30    1.06 
   7   2 -11    8.98    1.38 
  -7  -2 -11    8.60    1.13 
  -7   2 -11    8.22    1.03 
   7  -2 -11    7.14    1.59 
   0   3 -11  104.73    4.14 
   0   3 -11  103.68    3.29 
   0  -3 -11   95.92    4.16 
   0  -3 -11  108.04    3.38 
   1   3 -11    0.66    0.21 
  -1  -3 -11    1.92    0.37 
   1   3 -11    1.62    0.43 
  -1  -3 -11    2.47    0.36 
  -1   3 -11    1.36    0.37 
   1  -3 -11    0.29    0.54 
   1  -3 -11    1.91    0.35 
  -1   3 -11    1.01    0.33 
   2   3 -11    6.70    0.40 
   2  -3 -11    6.11    1.12 
  -2   3 -11    5.71    0.62 
   2  -3 -11    5.97    0.55 
  -2   3 -11    6.08    0.62 
  -3  -3 -11   49.25    1.89 
   3   3 -11   47.40    2.40 
   3  -3  11   44.47    2.13 
   3  -3 -11   37.73    2.72 
  -3   3 -11   47.40    2.11 
   4  -3  11   54.04    2.50 
   4   3 -11   54.96    2.80 
  -4  -3 -11   55.06    2.17 
   4  -3 -11   49.32    3.20 
  -4   3 -11   55.55    2.23 
   5   3 -11   10.54    1.16 
  -5  -3 -11   10.62    1.09 
  -5  -3 -11   11.38    0.93 
  -5   3 -11    9.57    0.92 
   5  -3 -11   11.10    1.78 
   6   3 -11    8.15    1.24 
  -6  -3 -11    7.94    0.91 
  -6  -3 -11    8.10    1.04 
  -6   3 -11    8.34    0.98 
   6  -3 -11    8.03    1.58 
   0   4 -11    1.86    0.36 
   0   4 -11    2.67    0.50 
   0  -4 -11    2.02    0.39 
   1   4 -11   51.39    2.43 
  -1   4 -11   52.04    1.94 
  -1   4 -11   53.61    2.38 
   1  -4 -11   50.41    1.92 
  -2  -4 -11   59.77    2.24 
  -2   4 -11   62.16    2.29 
  -2   4 -11   60.21    2.67 
  -3  -4 -11   31.67    1.47 
   3   4 -11   31.24    1.85 
   3  -4  11   31.12    1.71 
  -3   4 -11   32.42    1.52 
  -3   4 -11   32.11    1.67 
  -4  -4 -11    1.57    0.45 
   4  -4  11    1.38    0.54 
   4   4 -11    0.94    0.62 
   4  -4 -11    1.24    1.18 
  -4   4 -11    1.24    0.45 
   5   4 -11    4.69    0.87 
  -5  -4 -11    5.31    0.83 
  -5  -4 -11    4.03    0.66 
  -5   4 -11    3.01    0.69 
   5  -4 -11    5.44    1.45 
  -6  -4 -11   19.87    1.30 
  -6  -4 -11   20.00    1.51 
   6   4 -11   19.63    1.65 
   6  -4 -11   19.88    2.45 
  -6   4 -11   19.44    1.42 
   0   5 -11    2.78    0.43 
   0  -5 -11    3.06    0.49 
   0   5 -11    3.01    0.57 
   1   5 -11   70.86    2.32 
  -1   5 -11   69.62    2.51 
   1  -5 -11   70.50    2.52 
  -1   5 -11   69.87    3.09 
   2   5 -11   19.54    1.38 
  -2  -5 -11   21.17    1.14 
  -2   5 -11   21.32    1.33 
  -2   5 -11   21.07    1.14 
   3  -5  11    1.26    0.51 
  -3  -5 -11    0.43    0.38 
   3   5 -11    0.80    0.55 
  -3   5 -11    0.92    0.49 
   3  -5 -11   -0.77    0.72 
  -3   5 -11    0.29    0.36 
   4  -5  11    7.64    0.99 
   4   5 -11    5.71    0.94 
  -4  -5 -11    5.62    0.70 
  -4   5 -11    6.85    0.79 
   4  -5 -11    2.37    1.09 
  -5  -5 -11    6.28    0.91 
   5   5 -11    8.21    1.10 
  -5  -5 -11    6.06    0.76 
   5  -5 -11    3.41    1.32 
  -5   5 -11    7.17    0.88 
  -6  -5 -11    2.89    0.80 
   6   5 -11    3.06    0.86 
  -6  -5 -11    1.80    0.61 
   6  -5 -11    3.62    1.71 
  -6   5 -11    1.60    0.66 
   0   6 -11    4.15    0.70 
   0   6 -11    4.57    0.54 
   0  -6 -11    4.14    0.58 
   1   6 -11    4.36    0.48 
   1  -6 -11    3.14    0.55 
  -1   6 -11    4.41    0.59 
  -1   6 -11    4.42    0.70 
  -2  -6 -11   10.97    0.83 
   2   6 -11   10.60    1.09 
  -2   6 -11    9.41    0.83 
  -2   6 -11    9.25    0.96 
  -3  -6 -11   36.45    1.70 
   3   6 -11   38.31    2.22 
   3  -6  11   36.55    2.12 
  -3   6 -11   38.93    2.07 
  -3   6 -11   38.59    1.80 
  -4  -6 -11    4.64    0.66 
   4  -6  11    3.74    0.82 
   4   6 -11    4.95    0.90 
  -4   6 -11    4.51    0.69 
  -5  -6 -11    6.17    0.94 
   5   6 -11    5.40    1.01 
  -5  -6 -11    6.25    0.81 
  -5   6 -11    6.49    0.87 
   6   6 -11    0.19    0.64 
  -6  -6 -11   -0.12    0.65 
   6  -6 -11    3.89    1.95 
  -6   6 -11    0.53    0.63 
   0   7 -11   43.65    1.69 
   0  -7 -11   42.00    1.81 
   0   7 -11   47.42    2.31 
   0  -7 -11   34.26    2.19 
  -1  -7 -11   10.97    1.05 
  -1  -7 -11   12.69    0.91 
   1   7 -11   14.16    1.19 
   1   7 -11   13.18    0.79 
  -1   7 -11   12.79    0.93 
  -1   7 -11   13.90    1.17 
   2   7 -11   11.55    1.16 
  -2  -7 -11   13.06    0.98 
  -2   7 -11   12.56    0.99 
  -2   7 -11   12.25    1.13 
  -3  -7 -11    9.81    0.93 
   3  -7  11   11.98    1.28 
   3   7 -11   13.63    1.26 
  -3   7 -11   12.64    1.16 
  -3   7 -11   12.99    0.98 
   4  -7  11    2.96    0.76 
  -4  -7 -11    3.06    0.61 
   4   7 -11    2.43    0.72 
   4  -7 -11   -0.38    0.73 
  -4   7 -11    2.18    0.59 
  -5  -7 -11    6.03    0.83 
  -5  -7 -11    5.77    0.98 
   5   7 -11    5.53    0.99 
   5  -7  11    6.08    1.07 
  -5   7 -11    5.86    0.85 
   0   8 -11    0.43    0.38 
   0  -8 -11    0.32    0.51 
   0  -8 -11    0.49    0.39 
   0   8 -11    0.33    0.43 
   1   8 -11    0.66    0.49 
  -1  -8 -11    0.67    0.42 
  -1   8 -11    0.83    0.47 
  -1   8 -11    0.68    0.45 
   1  -8 -11    0.46    0.58 
  -2  -8 -11   23.62    1.33 
   2   8 -11   22.56    1.62 
  -2   8 -11   23.53    1.65 
  -2   8 -11   21.12    1.25 
   3  -8  11    0.28    0.47 
   3   8 -11    1.02    0.60 
  -3  -8 -11    0.32    0.44 
   3  -8 -11   -0.84    0.48 
  -3   8 -11    0.34    0.45 
   4   8 -11    3.66    0.86 
   4  -8  11    2.86    0.81 
  -4  -8 -11    2.97    0.66 
   4  -8 -11    0.43    0.77 
  -4   8 -11    2.61    0.66 
  -5  -8 -11   12.45    1.36 
  -5  -8 -11   15.25    1.19 
   5   8 -11   12.71    1.39 
   5  -8  11   11.77    1.41 
  -5   8 -11   13.06    1.14 
   0   9 -11    0.73    0.44 
   0   9 -11    0.10    0.38 
   0  -9 -11    0.41    0.43 
   0  -9 -11    0.62    0.56 
  -1  -9 -11   11.95    0.96 
   1   9 -11   10.65    1.18 
   1  -9 -11   11.38    1.30 
  -1   9 -11   10.37    1.14 
  -1   9 -11    8.72    0.82 
   2   9 -11    0.76    0.59 
  -2  -9 -11    0.54    0.48 
   2  -9 -11    0.51    0.65 
  -2   9 -11    0.53    0.55 
  -2   9 -11    0.64    0.48 
   3  -9  11   10.14    1.33 
   3   9 -11    7.78    1.13 
  -3  -9 -11    9.10    0.97 
  -3   9 -11    7.98    0.93 
   4  -9  11    0.87    0.64 
  -4  -9 -11    1.15    0.58 
   4   9 -11   -0.41    0.57 
  -4   9 -11    1.08    0.58 
   4  -9 -11   -1.07    0.65 
   0 -10 -11    3.13    0.85 
   0  10 -11    2.96    0.74 
   0 -10 -11    2.60    0.63 
   0  10 -11    2.04    0.55 
   1  10 -11    3.26    0.84 
  -1 -10 -11    4.24    0.77 
  -1  10 -11    4.37    0.89 
   1 -10 -11    3.96    0.98 
  -1  10 -11    4.08    0.69 
  -2 -10 -11   11.70    1.11 
   2  10 -11   11.27    1.30 
   2 -10  11   11.65    1.30 
   2 -10 -11    7.94    1.42 
  -2  10 -11   10.06    0.94 
  -2  10 -11   11.18    1.39 
  -3 -10 -11    9.92    1.09 
   3  10 -11    9.49    1.32 
   3 -10  11    8.36    1.30 
  -3  10 -11   11.04    1.02 
   0 -11 -11   14.56    1.16 
   0  11 -11   14.73    1.43 
   1  11 -11    3.25    0.83 
  -1 -11 -11    2.85    0.79 
  -1  11 -11    3.08    0.85 
   1 -11 -11    2.27    0.98 
  -1  11 -11    2.77    0.65 
   2  11 -11    3.06    0.94 
  -2 -11 -11    3.63    0.81 
   2 -11  11    3.99    1.08 
  -2  11 -11    4.97    1.04 
  -2  11 -11    3.62    0.71 
   2 -11 -11    1.17    0.97 
   0   0 -12    0.87    0.28 
   0   0 -12    0.79    0.32 
  -1   0 -12    3.81    0.47 
   1   0 -12    4.22    0.58 
   1   0 -12    4.07    0.41 
  -1   0 -12    4.33    0.46 
   2   0 -12    6.59    0.81 
  -2   0 -12    6.16    0.62 
  -2   0 -12    5.17    0.45 
   3   0 -12    0.66    0.24 
  -3   0 -12    0.04    0.17 
  -4   0 -12    9.33    0.87 
   4   0 -12    9.78    1.24 
  -4   0 -12    9.18    0.85 
  -5   0 -12   40.13    1.91 
   5   0 -12   41.87    2.54 
  -5   0 -12   43.92    1.93 
  -6   0 -12   14.08    1.25 
  -6   0 -12   13.84    1.16 
   6   0 -12   13.07    1.53 
   0  -1 -12   69.74    2.34 
   0   1 -12   68.94    2.32 
   0   1 -12   67.12    2.85 
   0  -1 -12   68.07    2.83 
   1   1 -12   11.67    0.91 
  -1  -1 -12   10.52    0.69 
  -1  -1 -12   11.04    0.70 
  -1   1 -12   11.72    0.76 
   1  -1 -12   11.43    0.66 
   1  -1 -12   12.44    0.89 
  -1   1 -12   11.44    0.74 
  -2  -1 -12   21.00    0.95 
   2   1 -12   21.33    0.86 
   2   1 -12   21.93    1.38 
   2  -1 -12   22.06    1.43 
  -2   1 -12   22.51    1.09 
   2  -1 -12   21.99    0.95 
  -2   1 -12   20.11    1.06 
   3  -1  12    7.79    0.63 
   4   1 -12   25.35    1.75 
  -4  -1 -12   22.57    1.27 
  -4   1 -12   24.11    1.24 
  -4   1 -12   26.47    1.37 
   4  -1 -12   25.19    1.85 
  -5  -1 -12    6.98    0.88 
  -5  -1 -12    5.79    0.76 
   5   1 -12    6.73    1.06 
  -5   1 -12    5.61    0.76 
   5  -1 -12    5.54    1.09 
  -5   1 -12    6.46    0.78 
  -6  -1 -12   -0.18    0.47 
   6   1 -12    0.48    0.69 
  -6  -1 -12    1.42    0.60 
   6  -1 -12   -0.01    0.75 
  -6   1 -12    0.33    0.54 
   0  -2 -12    3.22    0.47 
   0   2 -12    3.82    0.55 
   0  -2 -12    3.09    0.43 
   0   2 -12    3.64    0.42 
  -1  -2 -12    2.25    0.39 
  -1  -2 -12    2.23    0.34 
   1   2 -12    2.21    0.48 
  -1   2 -12    1.95    0.39 
  -1   2 -12    2.09    0.40 
   1  -2 -12    2.36    0.38 
   1  -2 -12    2.63    0.56 
  -2  -2 -12    2.32    0.23 
   2   2 -12    0.78    0.37 
   2   2 -12    2.26    0.28 
  -2   2 -12    2.48    0.47 
  -2   2 -12    2.21    0.39 
   2  -2 -12    2.35    0.38 
   2  -2 -12    3.03    0.76 
  -3  -2 -12   26.97    1.33 
   3  -2 -12   28.88    1.20 
   3  -2 -12   30.09    2.04 
  -3   2 -12   27.63    1.19 
  -3   2 -12   28.14    1.40 
  -4  -2 -12   25.99    1.37 
   4   2 -12   24.14    1.77 
   4  -2 -12   25.55    1.97 
  -4   2 -12   27.18    1.42 
  -5  -2 -12    1.98    0.65 
   5   2 -12    1.53    0.66 
  -5  -2 -12    1.41    0.47 
  -5   2 -12    1.58    0.54 
   5  -2 -12    1.58    0.92 
   6   2 -12    8.97    1.29 
  -6  -2 -12    7.69    1.00 
  -6  -2 -12    6.19    0.85 
   6  -2 -12    8.16    1.46 
  -6   2 -12    7.33    0.96 
   0   3 -12   64.58    2.80 
   0   3 -12   61.44    2.20 
   0  -3 -12   63.93    2.28 
   0  -3 -12   66.27    2.80 
  -1  -3 -12   88.66    3.01 
   1   3 -12   88.26    3.73 
  -1  -3 -12   90.10    3.42 
   1  -3 -12   90.70    2.96 
   1  -3 -12   82.98    3.88 
  -1   3 -12   86.77    3.60 
  -1   3 -12   90.98    3.01 
   2   3 -12   17.61    0.73 
   2  -3 -12   17.95    1.62 
   2  -3 -12   19.36    0.95 
  -2   3 -12   16.58    1.05 
  -2   3 -12   17.98    1.01 
   3   3 -12   11.98    1.17 
  -3  -3 -12   13.13    0.92 
   3  -3 -12   13.26    1.65 
   3  -3 -12   11.94    0.81 
  -3   3 -12   12.11    0.91 
  -3   3 -12   14.55    0.94 
   4   3 -12    4.93    0.92 
  -4  -3 -12    4.07    0.60 
   4  -3 -12    5.66    1.39 
  -4   3 -12    4.59    0.66 
  -5  -3 -12    9.93    0.93 
  -5  -3 -12   13.73    1.14 
   5   3 -12   10.00    1.17 
   5  -3 -12   11.89    1.72 
  -5   3 -12   10.32    1.05 
  -6  -3 -12    0.15    0.49 
  -6  -3 -12   -0.19    0.46 
   6   3 -12   -0.45    0.58 
  -6   3 -12   -0.09    0.55 
   6  -3 -12   -0.44    0.97 
   0   4 -12   49.66    1.84 
   0  -4 -12   50.46    1.92 
   0   4 -12   51.95    2.38 
  -1  -4 -12   35.90    1.71 
   1   4 -12   36.16    1.34 
   1   4 -12   37.08    1.92 
   1  -4 -12   34.67    1.49 
  -1   4 -12   34.31    1.79 
  -1   4 -12   34.36    1.49 
   2  -4 -12   15.79    1.53 
  -3  -4 -12   27.55    1.38 
   3   4 -12   27.52    1.77 
  -3   4 -12   29.48    1.57 
  -3   4 -12   27.11    1.40 
   3  -4 -12   21.26    2.19 
   4  -4  12    3.80    0.70 
  -4  -4 -12    2.35    0.53 
   4   4 -12    2.18    0.72 
  -4   4 -12    2.84    0.55 
   4  -4 -12    1.80    1.16 
  -5  -4 -12    7.62    0.88 
  -5  -4 -12    8.65    1.01 
   5   4 -12    7.32    1.10 
  -5   4 -12    7.48    0.90 
   5  -4 -12    6.92    1.57 
  -6  -4 -12    2.35    0.63 
  -6  -4 -12    1.53    0.68 
   6   4 -12    2.19    0.81 
   6  -4 -12    2.36    1.41 
  -6   4 -12    1.79    0.71 
   0   5 -12   24.58    1.46 
   0   5 -12   22.60    1.11 
   0  -5 -12   23.66    1.21 
  -1  -5 -12    9.49    0.95 
  -2  -5 -12   23.25    1.22 
   2   5 -12   20.26    1.44 
  -2   5 -12   21.06    1.35 
   2  -5 -12   22.10    1.16 
  -2   5 -12   21.60    1.22 
   3   5 -12   14.12    1.25 
  -3  -5 -12   14.73    1.01 
  -3   5 -12   13.97    1.07 
  -3   5 -12   12.06    1.05 
   4  -5  12   33.58    2.02 
  -4  -5 -12   33.65    1.65 
   4   5 -12   35.76    2.12 
  -4   5 -12   35.31    1.72 
   5   5 -12    8.44    1.19 
  -5  -5 -12    9.03    0.93 
  -5  -5 -12    8.92    1.06 
  -5   5 -12    9.73    1.01 
   5  -5 -12    7.76    1.75 
  -6  -5 -12    0.81    0.62 
  -6  -5 -12    1.51    0.60 
   6   5 -12    1.61    0.73 
   6  -5 -12    2.86    1.79 
  -6   5 -12    0.36    0.64 
   0  -6 -12    7.78    0.74 
   0   6 -12    8.61    0.94 
   0   6 -12    8.75    0.73 
   1   6 -12   12.23    1.08 
  -1  -6 -12   14.00    0.91 
   1   6 -12   14.19    0.78 
  -1   6 -12   13.39    1.08 
  -1   6 -12   13.94    0.94 
   1  -6 -12   13.19    0.92 
  -2  -6 -12   19.03    1.12 
   2   6 -12   17.92    1.39 
  -2   6 -12   19.32    1.19 
  -2   6 -12   19.30    1.33 
   3  -6  12    8.20    1.05 
   3   6 -12    6.43    0.97 
  -3  -6 -12    6.14    0.76 
  -3   6 -12    6.61    0.89 
  -3   6 -12    6.87    0.83 
   4  -6  12    7.67    1.08 
  -4  -6 -12    7.41    0.85 
   4   6 -12    7.44    1.07 
  -4   6 -12    6.68    0.83 
   5   6 -12    9.86    1.28 
  -5  -6 -12   10.65    0.99 
  -5   6 -12    9.48    1.02 
   5  -6 -12    6.70    1.66 
   0  -7 -12    4.93    0.70 
   0   7 -12    4.84    0.79 
   0   7 -12    4.81    0.59 
   1   7 -12   48.13    1.81 
  -1  -7 -12   50.23    2.04 
   1   7 -12   49.69    2.55 
  -1   7 -12   49.56    2.00 
  -1   7 -12   47.11    2.47 
   1  -7 -12   47.38    2.02 
   2   7 -12    4.87    0.84 
  -2  -7 -12    3.90    0.67 
  -2   7 -12    5.11    0.83 
  -2   7 -12    4.44    0.68 
   3  -7  12    7.86    1.11 
  -3  -7 -12    9.01    0.90 
   3   7 -12    7.71    1.07 
  -3   7 -12    8.86    0.92 
  -3   7 -12    7.56    1.01 
   4  -7  12    1.00    0.57 
   4   7 -12    0.99    0.63 
  -4  -7 -12    0.71    0.47 
   4  -7 -12   -0.44    0.90 
  -4   7 -12    0.36    0.47 
  -5  -7 -12    6.13    0.87 
   5   7 -12    5.32    1.07 
   5  -7 -12    1.53    1.29 
  -5   7 -12    5.64    0.83 
   0  -8 -12    1.74    0.63 
   0   8 -12    1.88    0.59 
   0  -8 -12    2.23    0.55 
   0   8 -12    2.02    0.49 
  -1  -8 -12    0.93    0.45 
   1   8 -12    0.59    0.48 
   1  -8 -12    0.11    0.53 
  -1   8 -12    0.18    0.39 
   1  -8 -12    0.51    0.46 
  -1   8 -12    0.94    0.56 
  -2  -8 -12   10.68    1.03 
   2   8 -12   10.94    1.19 
  -2   8 -12    9.90    0.91 
  -2   8 -12   11.29    1.19 
   3   8 -12    6.78    1.06 
   3  -8  12    7.73    1.11 
  -3  -8 -12    5.39    0.82 
  -3   8 -12    6.72    1.05 
  -3   8 -12    6.61    0.86 
   4  -8  12    2.77    0.80 
   4   8 -12    2.57    0.81 
  -4  -8 -12    2.78    0.66 
   4  -8 -12    0.07    0.84 
  -4   8 -12    1.51    0.61 
   5   8 -12    4.75    1.02 
   0  -9 -12    6.12    0.81 
   0  -9 -12    6.47    1.06 
   0   9 -12    6.55    0.76 
   0   9 -12    6.16    0.95 
  -1  -9 -12    0.92    0.49 
   1   9 -12    1.31    0.60 
   1  -9 -12    0.67    0.64 
   1  -9 -12    1.04    0.51 
  -1   9 -12    0.66    0.47 
  -1   9 -12    0.71    0.54 
   2   9 -12    5.08    0.93 
  -2  -9 -12    5.31    0.81 
  -2   9 -12    4.99    0.96 
  -2   9 -12    5.25    0.78 
  -3  -9 -12    1.10    0.60 
   3  -9  12    1.02    0.63 
   3   9 -12    1.14    0.65 
   3  -9 -12   -0.36    0.65 
  -3   9 -12    1.48    0.56 
   4   9 -12    3.02    0.88 
  -4  -9 -12    3.14    0.71 
   4  -9  12    4.75    1.00 
  -4   9 -12    3.99    0.86 
   4  -9 -12   -0.16    0.92 
   0 -10 -12    0.83    0.48 
   0  10 -12    0.57    0.46 
   0  10 -12    0.89    0.61 
   1  10 -12    7.55    1.12 
  -1 -10 -12    6.49    0.92 
   1 -10 -12    5.06    1.09 
  -1  10 -12    6.58    0.82 
  -1  10 -12    5.98    1.02 
   1 -10 -12    5.91    0.84 
  -2 -10 -12   10.34    1.14 
   2  10 -12   10.68    1.38 
  -2  10 -12   10.79    1.01 
  -2  10 -12   11.77    1.48 
   3  10 -12    3.42    0.89 
   3 -10  12    2.01    0.77 
  -3 -10 -12    2.22    0.71 
   3 -10 -12    0.17    0.72 
  -3  10 -12    1.95    0.64 
   0 -11 -12    4.18    0.79 
   0  11 -12    4.57    0.99 
   1  11 -12   18.00    1.66 
  -1 -11 -12   17.00    1.40 
  -1  11 -12   19.78    1.65 
  -1  11 -12   18.04    1.24 
   1 -11 -12   17.06    1.33 
   1 -11 -12   13.88    1.83 
   2  11 -12    3.85    1.07 
  -2  11 -12    2.80    1.00 
   0   0 -13   -0.25    0.24 
   0   0 -13   -0.07    0.26 
  -1   0 -13    2.69    0.41 
   1   0 -13    3.14    0.40 
  -1   0 -13    2.85    0.45 
   1   0 -13    2.83    0.53 
  -2   0 -13    3.84    0.42 
   2   0 -13    2.95    0.62 
   2   0 -13    3.39    0.39 
  -2   0 -13    3.84    0.53 
  -4   0 -13    3.22    0.59 
  -4   0 -13    4.03    0.62 
   4   0 -13    3.27    0.82 
  -5   0 -13    1.26    0.54 
  -5   0 -13    1.19    0.56 
   5   0 -13    0.96    0.61 
  -6   0 -13   12.22    1.16 
   6   0 -13   13.46    1.57 
   0   1 -13   84.78    3.47 
   0  -1 -13   83.96    2.83 
   0   1 -13   84.96    2.82 
   0  -1 -13   85.62    3.44 
  -1  -1 -13   30.63    1.31 
   1   1 -13   30.60    1.20 
  -1  -1 -13   30.68    1.40 
   1   1 -13   31.04    1.64 
  -1   1 -13   27.93    1.44 
   1  -1 -13   29.38    1.22 
  -1   1 -13   30.73    1.33 
   1  -1 -13   28.15    1.57 
   2   1 -13   16.81    1.21 
  -2  -1 -13   11.63    0.83 
  -2  -1 -13   15.24    0.77 
  -2   1 -13   16.06    0.90 
   2  -1 -13   15.79    0.79 
   2  -1 -13   18.52    1.28 
  -2   1 -13   16.22    0.96 
   3  -1 -13    6.84    0.57 
   3  -1 -13    4.77    0.89 
  -3   1 -13    5.74    0.53 
  -4  -1 -13    3.57    0.61 
   4   1 -13    4.24    0.88 
   4  -1 -13    3.27    0.85 
  -4   1 -13    2.11    0.55 
  -4   1 -13    3.44    0.58 
   5   1 -13    8.50    1.23 
  -5  -1 -13    8.88    0.94 
  -5  -1 -13    7.83    0.95 
  -5   1 -13    7.96    0.92 
   5  -1 -13    8.33    1.27 
  -6  -1 -13    7.45    0.98 
   6   1 -13    8.03    1.27 
  -6  -1 -13    6.58    0.91 
   6  -1 -13    6.12    1.20 
  -6   1 -13    6.56    0.91 
   0  -2 -13   27.28    1.43 
   0   2 -13   28.68    1.51 
   0   2 -13   28.12    1.20 
   0  -2 -13   28.35    1.23 
   1   2 -13   20.92    0.94 
  -1  -2 -13   20.36    1.05 
   1   2 -13   20.83    1.32 
  -1  -2 -13   21.88    1.08 
  -1   2 -13   21.21    1.08 
  -1   2 -13   21.63    1.20 
   1  -2 -13   21.95    1.03 
   1  -2 -13   22.65    1.39 
   2   2 -13    2.56    0.58 
   2   2 -13    3.26    0.35 
   2  -2 -13    2.79    0.69 
  -2   2 -13    4.17    0.52 
  -2   2 -13    4.49    0.58 
   2  -2 -13    2.90    0.43 
  -3  -2 -13   39.42    1.73 
   3  -2 -13   39.99    2.38 
  -3   2 -13   39.48    1.77 
   3  -2 -13   42.07    1.57 
  -3   2 -13   39.57    1.84 
   4   2 -13   -0.23    0.52 
  -4  -2 -13    1.02    0.44 
  -4   2 -13    1.37    0.45 
   4  -2 -13    0.47    0.81 
   5   2 -13   12.01    1.35 
  -5  -2 -13   10.63    1.10 
  -5  -2 -13   11.81    1.00 
   5  -2 -13   12.56    1.58 
  -5   2 -13   10.96    1.05 
  -6  -2 -13    5.24    0.84 
  -6  -2 -13    4.89    0.83 
   6   2 -13    4.17    1.06 
  -6   2 -13    4.51    0.86 
   6  -2 -13    6.24    1.28 
   0   3 -13   10.76    0.86 
   0  -3 -13    9.05    0.73 
   0   3 -13    9.76    0.69 
   0  -3 -13    9.94    0.91 
  -1  -3 -13   35.43    1.57 
   1   3 -13   34.99    1.87 
  -1  -3 -13   33.56    1.48 
   1   3 -13   33.27    1.33 
   1  -3 -13   37.00    2.02 
   1  -3 -13   34.64    1.44 
  -1   3 -13   36.23    1.51 
  -1   3 -13   33.79    1.73 
  -2   3 -13   53.11    2.12 
  -2   3 -13   52.55    2.38 
   2  -3 -13   55.49    2.93 
   2  -3 -13   53.48    1.98 
   3   3 -13   39.11    2.19 
  -3  -3 -13   35.47    1.66 
  -3   3 -13   36.43    1.72 
   3  -3 -13   39.27    2.55 
  -3   3 -13   38.17    1.85 
   3  -3 -13   39.74    1.57 
   4   3 -13   25.43    1.84 
  -4  -3 -13   25.51    1.40 
   4  -3 -13   26.60    2.21 
  -4   3 -13   28.13    1.45 
   5   3 -13    1.83    0.69 
  -5  -3 -13    1.33    0.54 
  -5  -3 -13    2.93    0.67 
   5  -3 -13    3.93    1.20 
  -5   3 -13    1.68    0.57 
   6   3 -13    0.64    0.69 
  -6  -3 -13    0.62    0.57 
  -6  -3 -13    0.92    0.60 
  -6   3 -13   -0.34    0.50 
   6  -3 -13   -0.46    0.88 
   0  -4 -13    4.40    0.56 
   0   4 -13    3.98    0.63 
   0  -4 -13    4.19    0.78 
   0   4 -13    4.46    0.52 
  -1  -4 -13    3.31    0.53 
   1   4 -13    4.58    0.72 
   1   4 -13    3.57    0.44 
  -1  -4 -13    4.77    0.57 
   1  -4 -13    3.43    0.51 
  -1   4 -13    4.33    0.64 
   1  -4 -13    2.91    0.79 
  -1   4 -13    3.49    0.52 
   2  -4 -13   19.40    1.05 
   2  -4 -13   14.19    1.58 
  -2   4 -13   20.79    1.25 
  -2   4 -13   18.97    1.14 
  -3  -4 -13    6.62    0.73 
   3   4 -13    6.29    0.93 
  -3   4 -13    6.06    0.77 
   3  -4 -13    5.82    1.29 
   3  -4 -13    6.88    0.71 
  -3   4 -13    6.66    0.79 
  -4  -4 -13   15.79    1.09 
   4   4 -13   14.13    1.35 
   4  -4 -13   14.69    2.02 
  -4   4 -13   17.06    1.11 
  -5  -4 -13    7.96    1.00 
   5   4 -13    8.60    1.22 
  -5  -4 -13    6.93    0.90 
   5  -4 -13    6.00    1.49 
  -5   4 -13    8.44    0.97 
  -6  -4 -13   34.14    1.84 
  -6  -4 -13   35.48    2.03 
   6   4 -13   36.49    2.42 
  -6   4 -13   33.30    1.94 
   6  -4 -13   34.43    3.13 
   0   5 -13   29.88    1.38 
   0  -5 -13   33.74    1.49 
   0   5 -13   32.51    1.79 
   1   5 -13  142.54    4.39 
  -1  -5 -13  133.92    4.62 
   1   5 -13  148.05    5.79 
  -1   5 -13  141.00    5.65 
   1  -5 -13  138.24    4.60 
  -1   5 -13  147.02    4.61 
  -2  -5 -13    3.70    0.59 
   2   5 -13    3.08    0.66 
   2  -5 -13    2.70    1.04 
  -2   5 -13    3.84    0.64 
   2  -5 -13    3.32    0.57 
  -2   5 -13    3.63    0.63 
  -3  -5 -13    3.77    0.63 
   3   5 -13    3.75    0.80 
  -3   5 -13    1.91    0.60 
  -3   5 -13    3.42    0.64 
   3  -5 -13    2.14    1.22 
   4  -5  13    5.34    0.88 
   4   5 -13    5.26    0.96 
  -4  -5 -13    6.14    0.76 
   4  -5 -13    2.85    1.19 
  -4   5 -13    5.91    0.80 
   5   5 -13    2.23    0.73 
  -5  -5 -13    1.46    0.57 
  -5   5 -13    2.51    0.65 
   5  -5 -13    1.40    1.32 
  -6  -5 -13   -0.63    0.56 
   6   5 -13    0.87    0.67 
  -6  -5 -13    0.78    0.60 
   6  -5 -13    2.35    1.73 
  -6   5 -13    0.09    0.68 
   0   6 -13   12.56    0.87 
   0   6 -13   13.88    1.13 
   0  -6 -13   11.42    0.89 
   1   6 -13    8.01    0.64 
   1   6 -13    8.16    1.01 
  -1  -6 -13    9.09    0.83 
   1  -6 -13    7.49    0.78 
  -1   6 -13    7.17    0.74 
  -1   6 -13    7.17    0.92 
  -2  -6 -13   24.54    1.31 
   2   6 -13   24.03    1.66 
  -2   6 -13   24.72    1.37 
   2  -6 -13   22.07    1.28 
  -2   6 -13   24.38    1.55 
  -3  -6 -13    6.15    0.76 
   3   6 -13    4.41    0.83 
  -3   6 -13    6.32    0.79 
  -3   6 -13    6.03    0.87 
   3  -6 -13    1.81    1.03 
   4   6 -13    8.62    1.15 
  -4  -6 -13   10.98    0.97 
   4  -6  13    8.20    1.11 
  -4   6 -13    9.05    0.96 
   4  -6 -13    3.33    1.36 
  -5  -6 -13    7.58    0.92 
   5   6 -13    7.81    1.18 
  -5   6 -13    7.57    0.96 
   5  -6 -13    4.14    1.57 
   0   7 -13    2.03    0.59 
   0   7 -13    1.75    0.45 
   0  -7 -13    1.93    0.51 
   1   7 -13    1.57    0.55 
  -1  -7 -13    1.91    0.50 
  -1   7 -13    1.58    0.59 
  -1   7 -13    1.00    0.48 
   1  -7 -13    0.97    0.52 
   1  -7 -13   -0.15    0.50 
  -2  -7 -13   17.76    1.16 
   2   7 -13   18.31    1.46 
   2  -7 -13   17.64    1.15 
  -2   7 -13   17.39    1.36 
  -2   7 -13   17.58    1.18 
   3   7 -13    1.38    0.61 
   3  -7  13    1.75    0.64 
  -3  -7 -13    1.14    0.51 
  -3   7 -13    1.18    0.56 
  -3   7 -13    0.91    0.48 
   3  -7 -13    0.41    0.89 
   4   7 -13    4.50    0.94 
   4  -7  13    3.99    0.85 
  -4  -7 -13    4.42    0.77 
  -4   7 -13    2.46    0.66 
   4  -7 -13    0.05    1.04 
   5   7 -13    3.26    0.91 
  -5  -7 -13    3.78    0.76 
  -5   7 -13    2.02    0.62 
   5  -7 -13    1.02    1.49 
   0   8 -13    2.07    0.51 
   0   8 -13    1.96    0.63 
   0  -8 -13    0.83    0.52 
   0  -8 -13    1.24    0.50 
  -1  -8 -13    1.13    0.45 
   1   8 -13    0.89    0.53 
  -1   8 -13    0.63    0.46 
   1  -8 -13    0.54    0.48 
  -1   8 -13    0.90    0.55 
   1  -8 -13    0.26    0.49 
   2   8 -13    3.17    0.74 
  -2  -8 -13    2.63    0.62 
  -2   8 -13    3.01    0.64 
  -2   8 -13    2.82    0.76 
   3   8 -13    0.40    0.54 
  -3  -8 -13    0.62    0.57 
   3  -8  13   -0.05    0.50 
  -3   8 -13    1.49    0.68 
   3  -8 -13   -0.41    0.81 
  -3   8 -13    0.48    0.51 
  -4  -8 -13    3.84    0.78 
   4  -8  13    3.88    0.93 
   4   8 -13    3.80    0.90 
  -4   8 -13    3.35    0.71 
   4  -8 -13    1.10    1.16 
   0  -9 -13    1.53    0.50 
   0   9 -13    1.82    0.63 
   0   9 -13    0.53    0.46 
  -1  -9 -13   28.74    1.56 
   1   9 -13   27.98    1.93 
  -1   9 -13   28.12    1.49 
  -1   9 -13   29.66    1.99 
   1  -9 -13   30.01    1.58 
   2   9 -13    1.59    0.65 
  -2  -9 -13    1.59    0.61 
  -2   9 -13    2.00    0.72 
  -2   9 -13    2.88    0.65 
   2  -9 -13    0.45    0.64 
  -3  -9 -13    1.97    0.65 
   3  -9  13    2.84    0.84 
   3   9 -13    3.43    0.88 
  -3   9 -13    4.50    0.74 
  -4  -9 -13    0.92    0.64 
   4  -9  13    0.54    0.70 
   4   9 -13    0.21    0.70 
   4  -9 -13   -0.26    1.06 
  -4   9 -13    1.11    0.73 
   0 -10 -13    0.79    0.51 
   0  10 -13   -0.57    0.41 
   1  10 -13    0.50    0.61 
  -1 -10 -13   -0.20    0.45 
   1 -10 -13    0.28    0.59 
   1 -10 -13    0.09    0.46 
  -1  10 -13    0.70    0.63 
  -1  10 -13    0.48    0.48 
   2  10 -13    1.48    0.75 
  -2 -10 -13    1.08    0.66 
  -2  10 -13    1.52    0.55 
   2 -10 -13    0.75    0.72 
  -2  10 -13    1.37    0.77 
   3  10 -13    2.96    0.97 
   3 -10  13    3.36    0.96 
  -3 -10 -13    4.83    0.85 
  -3  10 -13    4.93    0.89 
   0 -11 -13   19.28    1.35 
   0  11 -13   17.83    1.62 
   1  11 -13    0.88    0.87 
  -1 -11 -13    0.52    0.69 
  -1  11 -13    2.27    0.84 
  -1  11 -13    1.72    0.62 
   1 -11 -13    1.75    0.69 
   0   0 -14   16.84    0.91 
   0   0 -14   17.37    1.08 
  -1   0 -14    7.43    0.64 
   1   0 -14    7.16    0.57 
  -1   0 -14    8.01    0.65 
   1   0 -14    7.61    0.77 
   2   0 -14    0.96    0.30 
  -2   0 -14    0.60    0.39 
  -2   0 -14    0.88    0.28 
   2   0 -14    0.80    0.47 
  -3   0 -14    3.00    0.55 
   3   0 -14    2.79    0.69 
  -4   0 -14    0.09    0.36 
   4   0 -14    0.19    0.59 
  -5   0 -14    5.58    0.80 
  -5   0 -14    7.56    0.90 
   5   0 -14    6.60    1.14 
   6   0 -14    0.84    0.81 
  -6   0 -14    0.71    0.62 
   0   1 -14    4.13    0.57 
   0  -1 -14    4.32    0.52 
   0  -1 -14    5.72    0.63 
   0   1 -14    4.35    0.49 
  -1  -1 -14   15.20    0.89 
   1   1 -14   13.57    0.76 
  -1  -1 -14   14.68    0.87 
   1   1 -14   13.23    1.05 
  -1   1 -14   13.47    0.90 
  -1   1 -14   15.80    0.89 
   1  -1 -14   14.36    0.81 
   1  -1 -14   14.50    1.04 
   2   1 -14    4.17    0.71 
  -2  -1 -14    4.97    0.60 
   2   1 -14    2.75    0.36 
  -2   1 -14    4.99    0.55 
   2  -1 -14    4.98    0.50 
  -2   1 -14    5.08    0.62 
   2  -1 -14    4.13    0.70 
  -3  -1 -14    2.77    0.53 
   3   1 -14    3.33    0.73 
   3  -1 -14    2.58    0.74 
  -3   1 -14    3.13    0.57 
  -4  -1 -14    1.80    0.49 
   4   1 -14    1.32    0.62 
  -4   1 -14    1.48    0.49 
  -4   1 -14    1.20    0.45 
   4  -1 -14    0.33    0.61 
   5   1 -14    1.22    0.68 
  -5  -1 -14    1.79    0.60 
  -5  -1 -14    1.42    0.61 
  -5   1 -14    0.92    0.57 
   5  -1 -14    2.25    0.81 
   6   1 -14   20.36    1.86 
  -6  -1 -14   18.80    1.38 
  -6  -1 -14   16.54    1.36 
   6  -1 -14   19.49    1.85 
  -6   1 -14   19.71    1.39 
   0   2 -14   41.20    1.61 
   0  -2 -14   41.71    1.64 
   0  -2 -14   40.40    1.92 
   0   2 -14   40.67    1.99 
   1   2 -14    2.20    0.37 
  -1  -2 -14    2.67    0.42 
   1   2 -14    2.37    0.55 
  -1  -2 -14    1.71    0.43 
  -1   2 -14    1.85    0.42 
  -1   2 -14    2.77    0.48 
   1  -2 -14    2.63    0.57 
   1  -2 -14    2.23    0.41 
   2   2 -14    4.46    0.76 
   2  -2 -14    5.33    0.88 
  -2   2 -14    4.23    0.56 
  -2   2 -14    4.94    0.63 
   2  -2 -14    4.91    0.55 
  -3  -2 -14   31.61    1.49 
   3   2 -14   30.66    1.88 
   3  -2 -14   32.29    1.33 
   3  -2 -14   31.02    2.13 
  -3   2 -14   29.94    1.52 
  -3   2 -14   28.85    1.49 
   4   2 -14   13.05    1.27 
  -4  -2 -14   12.18    1.00 
   4  -2 -14   12.05    1.41 
  -4   2 -14   12.53    1.01 
  -5  -2 -14   -0.22    0.44 
   5   2 -14    0.01    0.56 
  -5  -2 -14    0.59    0.50 
  -5   2 -14    0.07    0.48 
   5  -2 -14    0.01    0.70 
  -6  -2 -14   17.52    1.29 
   6   2 -14   17.26    1.68 
  -6  -2 -14   18.94    1.43 
   6  -2 -14   15.67    1.87 
  -6   2 -14   17.89    1.40 
   0  -3 -14  148.98    4.73 
   0   3 -14  145.91    4.63 
   0   3 -14  142.77    5.78 
   0  -3 -14  151.89    5.73 
  -1  -3 -14   84.56    3.00 
   1   3 -14   87.23    3.73 
   1   3 -14   84.59    2.81 
  -1  -3 -14   85.87    3.39 
   1  -3 -14   85.37    2.96 
  -1   3 -14   88.85    3.00 
  -1   3 -14   86.18    3.58 
   1  -3 -14   85.67    3.77 
   2   3 -14   47.40    2.41 
  -2   3 -14   46.50    1.95 
  -2   3 -14   43.42    2.12 
   2  -3 -14   44.54    1.79 
   2  -3 -14   50.25    2.62 
   3   3 -14   14.83    1.29 
  -3  -3 -14   12.37    0.97 
  -3   3 -14   13.94    1.07 
   3  -3 -14   14.68    0.92 
  -3   3 -14   14.26    1.01 
   3  -3 -14   16.43    1.58 
  -4  -3 -14    4.33    0.71 
   4   3 -14    3.30    0.85 
  -4   3 -14    4.30    0.68 
   4  -3 -14    4.03    1.21 
  -5  -3 -14    7.87    0.94 
  -5  -3 -14    9.01    1.02 
   5   3 -14    7.70    1.16 
  -5   3 -14    6.95    0.90 
   5  -3 -14    6.98    1.44 
   6   3 -14   -0.44    0.67 
  -6  -3 -14    0.36    0.59 
  -6  -3 -14    0.51    0.58 
   6  -3 -14   -1.43    1.02 
  -6   3 -14    0.64    0.67 
   0  -4 -14   87.32    3.05 
   0   4 -14   84.55    2.92 
   0  -4 -14   89.52    3.73 
   0   4 -14   83.80    3.70 
   1   4 -14   18.91    1.38 
   1   4 -14   20.90    0.97 
  -1  -4 -14   21.47    1.14 
  -1  -4 -14   19.45    1.12 
   1  -4 -14   20.35    1.11 
  -1   4 -14   19.52    1.29 
  -1   4 -14   20.85    1.13 
   1  -4 -14   18.72    1.61 
  -2  -4 -14   38.74    1.69 
   2   4 -14   37.28    2.07 
  -2   4 -14   37.96    1.71 
  -2   4 -14   34.33    1.86 
   2  -4 -14   34.09    2.40 
   2  -4 -14   38.29    1.60 
  -3  -4 -14   11.25    0.89 
   3   4 -14   11.33    1.13 
   3  -4 -14   11.51    0.87 
  -3   4 -14   11.77    0.99 
   3  -4 -14   13.21    1.82 
  -3   4 -14   11.97    0.98 
   4   4 -14    2.93    0.81 
  -4  -4 -14    2.82    0.62 
   4  -4 -14    1.36    1.12 
  -4   4 -14    2.93    0.60 
  -5  -4 -14   24.34    1.45 
   5   4 -14   21.65    1.80 
   5  -4 -14   24.26    2.40 
  -5   4 -14   22.17    1.42 
  -6  -4 -14   12.22    1.31 
   6   4 -14    9.13    1.39 
  -6  -4 -14    9.82    1.10 
  -6   4 -14    9.04    1.14 
   6  -4 -14    9.29    1.94 
   0   5 -14   -0.02    0.36 
   0  -5 -14   -0.54    0.55 
   0   5 -14   -0.36    0.34 
   0  -5 -14   -0.27    0.34 
   1   5 -14    1.90    0.40 
  -1  -5 -14    2.06    0.49 
   1   5 -14    1.03    0.50 
  -1   5 -14    2.84    0.56 
   1  -5 -14    2.80    0.95 
  -1   5 -14    2.92    0.62 
   1  -5 -14    2.45    0.55 
   2   5 -14   51.57    2.61 
  -2  -5 -14   47.97    2.05 
  -2   5 -14   50.51    2.11 
   2  -5 -14   48.19    2.01 
  -2   5 -14   51.26    2.45 
  -3  -5 -14    1.47    0.50 
   3   5 -14    2.98    0.75 
  -3   5 -14    2.07    0.56 
   3  -5 -14    3.34    0.59 
   3  -5 -14    2.50    1.23 
  -3   5 -14    3.70    0.66 
   4   5 -14    7.18    1.09 
  -4  -5 -14    7.75    0.90 
   4  -5 -14    8.93    0.88 
  -4   5 -14    6.85    0.86 
   4  -5 -14    8.32    1.69 
   5   5 -14    5.15    1.03 
  -5  -5 -14    4.70    0.80 
   5  -5 -14    4.81    1.50 
  -5   5 -14    3.74    0.73 
   0   6 -14    2.59    0.65 
   0  -6 -14   -0.36    0.63 
   0   6 -14    1.45    0.45 
   0  -6 -14    2.66    0.57 
   1   6 -14    3.05    0.68 
  -1  -6 -14    4.60    0.65 
  -1   6 -14    3.65    0.61 
   1  -6 -14    1.15    0.77 
   1  -6 -14    4.01    0.64 
  -1   6 -14    3.67    0.69 
  -2  -6 -14    1.78    0.51 
   2   6 -14    1.29    0.53 
   2  -6 -14    1.24    0.89 
  -2   6 -14    2.10    0.58 
   2  -6 -14    1.85    0.53 
  -2   6 -14    2.12    0.59 
  -3  -6 -14   12.89    1.00 
   3   6 -14   10.15    1.13 
  -3   6 -14   10.01    0.91 
  -3   6 -14   11.49    1.08 
   3  -6 -14   11.12    0.91 
  -4  -6 -14    6.13    0.84 
   4  -6  14    6.55    1.02 
   4   6 -14    4.91    0.97 
   4  -6 -14    4.33    1.58 
  -4   6 -14    5.96    0.85 
   5   6 -14    2.44    0.85 
  -5  -6 -14    1.50    0.59 
  -5   6 -14    1.41    0.58 
   5  -6 -14    2.04    1.46 
   0   7 -14    0.59    0.51 
   0   7 -14    0.13    0.39 
   0  -7 -14   -0.41    0.57 
   0  -7 -14    1.11    0.45 
  -1  -7 -14   14.69    1.04 
   1   7 -14   15.69    1.31 
  -1   7 -14   15.85    1.28 
   1  -7 -14   15.86    1.06 
  -1   7 -14   15.55    1.03 
   2   7 -14    2.08    0.64 
  -2  -7 -14    2.88    0.60 
  -2   7 -14    2.03    0.51 
   2  -7 -14   -0.29    0.73 
  -2   7 -14    3.48    0.72 
   2  -7 -14    3.10    0.61 
  -3  -7 -14    1.66    0.59 
   3   7 -14    1.36    0.64 
  -3   7 -14    0.78    0.49 
  -3   7 -14    1.90    0.63 
   3  -7 -14   -0.47    0.85 
   4  -7  14    4.95    0.93 
   4   7 -14    3.93    0.89 
  -4  -7 -14    3.87    0.76 
  -4   7 -14    3.89    0.74 
   4  -7 -14    1.88    1.28 
  -5  -7 -14    1.21    0.64 
   5   7 -14    1.08    0.77 
  -5   7 -14    0.77    0.59 
   5  -7 -14    3.27    1.71 
   0  -8 -14    0.13    0.43 
   0   8 -14    0.31    0.50 
   0   8 -14    0.84    0.48 
  -1  -8 -14    4.91    0.70 
   1   8 -14    4.11    0.84 
  -1   8 -14    6.65    1.04 
   1  -8 -14    6.79    0.82 
  -1   8 -14    7.51    0.83 
   2   8 -14    7.41    1.10 
  -2  -8 -14    8.55    0.94 
   2  -8 -14    9.72    0.90 
  -2   8 -14   10.13    1.24 
  -2   8 -14    8.11    0.92 
  -3  -8 -14    1.58    0.61 
   3  -8  14    1.96    0.66 
   3   8 -14    0.48    0.60 
  -3   8 -14    0.45    0.48 
  -3   8 -14    0.79    0.58 
   3  -8 -14   -0.14    0.87 
   4   8 -14    4.21    0.96 
  -4  -8 -14    4.39    0.83 
   4  -8  14    6.06    1.09 
  -4   8 -14    4.42    0.83 
   4  -8 -14    1.43    1.41 
   0   9 -14   16.25    1.41 
   0  -9 -14   15.72    1.14 
   1   9 -14    1.19    0.62 
  -1  -9 -14    0.77    0.51 
  -1   9 -14    0.45    0.61 
   1  -9 -14    0.35    0.62 
   1  -9 -14    0.98    0.51 
  -1   9 -14    2.19    0.58 
   2   9 -14    7.41    1.13 
  -2  -9 -14    6.90    0.92 
  -2   9 -14    8.05    0.91 
  -2   9 -14    7.69    1.20 
   2  -9 -14    7.37    0.92 
   3   9 -14    1.14    0.71 
   3  -9  14    1.80    0.71 
  -3  -9 -14    0.97    0.62 
  -3   9 -14    0.96    0.67 
  -3   9 -14    0.84    0.56 
   3  -9 -14   -0.03    0.95 
   0 -10 -14    8.54    0.99 
   0  10 -14    6.59    1.08 
  -1 -10 -14    1.63    0.58 
   1  10 -14    2.55    0.79 
   1 -10 -14    0.10    0.60 
  -1  10 -14    1.75    0.81 
   1 -10 -14    1.32    0.62 
  -1  10 -14    1.70    0.56 
   2  10 -14    6.99    1.25 
  -2 -10 -14    5.71    0.96 
   2 -10 -14    3.62    0.87 
  -2  10 -14    6.77    1.20 
  -2  10 -14    5.18    0.83 
   0   0 -15    0.31    0.34 
   0   0 -15   -0.09    0.30 
   1   0 -15    0.54    0.40 
  -1   0 -15    1.12    0.41 
   1   0 -15    1.29    0.35 
  -1   0 -15    0.60    0.31 
  -2   0 -15    7.93    0.64 
   2   0 -15    8.74    0.65 
   2   0 -15    7.78    0.97 
  -2   0 -15    8.27    0.79 
   3   0 -15    5.78    0.91 
  -3   0 -15    5.28    0.68 
   4   0 -15    0.46    0.54 
  -4   0 -15    0.28    0.40 
   5   0 -15    5.05    1.07 
  -5   0 -15    4.02    0.77 
   6   0 -15   -0.20    0.77 
  -6   0 -15    0.57    0.59 
   0   1 -15   66.89    2.33 
   0  -1 -15   66.22    2.36 
   0   1 -15   63.08    2.84 
   0  -1 -15   63.60    2.80 
   1   1 -15   28.95    1.67 
   1   1 -15   30.10    1.27 
  -1  -1 -15   28.75    1.36 
  -1  -1 -15   30.11    1.45 
   1  -1 -15   28.95    1.66 
   1  -1 -15   29.62    1.31 
  -1   1 -15   30.00    1.51 
  -1   1 -15   29.70    1.39 
  -2  -1 -15   -0.38    0.36 
   2   1 -15    0.88    0.32 
   2   1 -15    0.91    0.47 
  -2   1 -15    0.69    0.39 
   2  -1 -15    1.31    0.55 
   2  -1 -15    1.04    0.36 
  -2   1 -15    1.11    0.34 
   3   1 -15    4.35    0.79 
  -3  -1 -15    3.68    0.59 
  -3   1 -15    4.76    0.67 
   3  -1 -15    5.15    0.87 
   4   1 -15    5.72    0.98 
  -4  -1 -15    6.22    0.78 
  -4   1 -15    5.74    0.77 
   4  -1 -15    6.42    1.11 
  -5  -1 -15    3.65    0.73 
   5   1 -15    5.34    1.05 
  -5  -1 -15    4.81    0.82 
  -5   1 -15    5.52    0.85 
   5  -1 -15    3.75    0.97 
  -6  -1 -15    3.37    0.79 
   6   1 -15    4.09    1.17 
  -6   1 -15    4.15    0.82 
   6  -1 -15    3.05    1.16 
   0   2 -15   22.27    1.35 
   0  -2 -15   21.09    1.28 
   0  -2 -15   21.74    1.13 
   0   2 -15   21.55    1.09 
  -1  -2 -15    0.40    0.29 
  -1  -2 -15    1.06    0.41 
   1   2 -15    0.53    0.39 
   1   2 -15    0.94    0.32 
   1  -2 -15    0.95    0.44 
  -1   2 -15    0.31    0.35 
   1  -2 -15    0.40    0.35 
  -1   2 -15    0.31    0.32 
  -2  -2 -15   32.75    1.56 
   2   2 -15   32.16    1.91 
  -2   2 -15   32.26    1.64 
   2  -2 -15   35.85    2.01 
   2  -2 -15   33.37    1.42 
  -2   2 -15   34.86    1.60 
   3   2 -15   11.57    1.11 
  -3  -2 -15    9.61    0.82 
   3  -2 -15   10.92    1.22 
  -3   2 -15   10.02    0.90 
   3  -2 -15   10.11    0.77 
  -4  -2 -15    3.61    0.64 
   4   2 -15    3.27    0.83 
  -4   2 -15    2.33    0.58 
   4  -2 -15    2.01    0.90 
  -5  -2 -15    7.58    0.95 
   5   2 -15    9.55    1.31 
  -5  -2 -15    7.59    0.93 
  -5   2 -15    6.90    0.91 
   5  -2 -15    7.48    1.37 
  -6  -2 -15    0.21    0.54 
  -6  -2 -15    1.28    0.65 
   6   2 -15    1.68    0.95 
  -6   2 -15    0.70    0.68 
   6  -2 -15   -0.82    1.00 
   0   3 -15   55.18    2.07 
   0   3 -15   55.95    2.60 
   0  -3 -15   56.58    2.17 
   0  -3 -15   54.82    2.52 
  -1  -3 -15   10.77    0.82 
  -1  -3 -15    9.90    0.76 
   1   3 -15   10.26    0.71 
   1   3 -15    9.85    1.00 
   1  -3 -15   10.82    0.78 
   1  -3 -15    9.41    1.08 
  -1   3 -15   10.61    0.83 
  -1   3 -15    9.59    0.87 
   2   3 -15   24.00    1.59 
  -2  -3 -15   22.19    1.23 
   2  -3 -15   21.81    1.76 
  -2   3 -15   22.38    1.28 
   2  -3 -15   21.84    1.15 
  -2   3 -15   22.89    1.33 
  -3  -3 -15   10.36    0.85 
   3   3 -15   11.35    1.11 
  -3   3 -15   11.17    1.00 
   3  -3 -15   12.03    1.52 
  -3   3 -15    9.86    0.88 
   3  -3 -15   11.91    0.86 
  -4  -3 -15    4.74    0.74 
   4   3 -15    3.62    0.81 
  -4   3 -15    3.31    0.63 
   4  -3 -15    4.36    1.09 
   5   3 -15    4.80    1.02 
  -5  -3 -15    5.90    0.85 
  -5   3 -15    5.84    0.83 
   5  -3 -15    5.14    1.28 
  -6  -3 -15    6.67    1.02 
  -6  -3 -15    6.82    0.97 
   6   3 -15    8.67    1.43 
   6  -3 -15    4.88    1.60 
  -6   3 -15    6.74    1.06 
   0   4 -15  126.22    4.11 
   0  -4 -15  125.33    4.21 
   0  -4 -15  131.90    5.11 
   0   4 -15  122.86    5.15 
   1   4 -15   27.24    1.68 
  -1  -4 -15   25.89    1.33 
   1   4 -15   25.34    1.15 
  -1   4 -15   25.67    1.32 
   1  -4 -15   27.86    1.86 
  -1   4 -15   24.75    1.53 
   1  -4 -15   26.24    1.30 
  -2  -4 -15   14.20    0.97 
   2   4 -15   14.79    1.26 
   2  -4 -15   14.22    0.97 
  -2   4 -15   14.21    1.08 
   2  -4 -15   15.09    1.52 
  -2   4 -15   13.44    1.01 
  -3  -4 -15   24.33    1.32 
   3   4 -15   22.33    1.64 
  -3   4 -15   22.22    1.34 
   3  -4 -15   25.60    2.12 
  -3   4 -15   23.81    1.45 
   3  -4 -15   22.66    1.22 
   4   4 -15    5.07    0.93 
  -4  -4 -15    4.12    0.72 
   4  -4 -15    5.15    1.26 
  -4   4 -15    4.77    0.73 
   5   4 -15    6.25    1.08 
  -5  -4 -15    5.63    0.87 
  -5   4 -15    4.31    0.75 
   5  -4 -15    4.86    1.38 
   0   5 -15    5.04    0.80 
   0  -5 -15    4.54    0.88 
   0   5 -15    5.26    0.63 
   0  -5 -15    5.09    0.68 
  -1  -5 -15   22.63    1.27 
   1   5 -15   21.05    1.02 
   1   5 -15   20.83    1.46 
   1  -5 -15   21.16    1.18 
  -1   5 -15   22.08    1.18 
  -1   5 -15   20.06    1.40 
   1  -5 -15   14.88    1.63 
  -2  -5 -15    6.99    0.76 
   2   5 -15    5.82    0.89 
   2  -5 -15    6.34    0.74 
  -2   5 -15    6.06    0.79 
   2  -5 -15    6.85    1.49 
  -2   5 -15    5.54    0.81 
   3   5 -15   13.40    1.27 
  -3  -5 -15   12.84    1.04 
   3  -5 -15   14.35    1.97 
  -3   5 -15   15.16    1.12 
   3  -5 -15   14.89    1.02 
  -3   5 -15   13.65    1.16 
  -4  -5 -15   10.51    1.07 
   4   5 -15   11.06    1.28 
  -4   5 -15   11.07    1.04 
   4  -5 -15    9.89    1.87 
   5   5 -15    1.75    0.74 
  -5  -5 -15    2.59    0.67 
   5  -5 -15    1.66    1.25 
  -5   5 -15    2.82    0.68 
   0  -6 -15   21.43    1.25 
   0   6 -15   20.21    1.47 
   0  -6 -15   13.17    1.56 
   0   6 -15   20.62    1.13 
  -1  -6 -15    2.13    0.53 
   1   6 -15    2.18    0.67 
   1  -6 -15    1.31    0.92 
  -1   6 -15    2.20    0.60 
  -1   6 -15    2.28    0.56 
   1  -6 -15    2.89    0.62 
   2   6 -15    4.13    0.80 
  -2  -6 -15    3.59    0.63 
   2  -6 -15    3.99    0.65 
   2  -6 -15    2.80    1.04 
  -2   6 -15    3.50    0.64 
  -2   6 -15    3.48    0.71 
  -3  -6 -15    1.50    0.53 
   3   6 -15    1.14    0.58 
   3  -6 -15    1.04    0.52 
  -3   6 -15    1.47    0.56 
  -3   6 -15    1.36    0.54 
   3  -6 -15    0.17    1.04 
   4   6 -15    1.38    0.70 
  -4  -6 -15    1.71    0.62 
   4  -6 -15    2.03    1.35 
   4  -6 -15    2.61    0.61 
  -4   6 -15    1.40    0.60 
   5   6 -15    8.79    1.36 
  -5  -6 -15    9.97    1.08 
  -5   6 -15    8.23    1.05 
   5  -6 -15   11.10    2.20 
   0   7 -15   29.62    1.91 
   0   7 -15   29.66    1.41 
   0  -7 -15   28.32    1.49 
   1   7 -15    1.85    0.63 
  -1  -7 -15    1.72    0.52 
   1  -7 -15    1.16    0.50 
   1  -7 -15   -0.96    0.62 
  -1   7 -15    2.40    0.65 
  -1   7 -15    1.17    0.51 
  -2  -7 -15    4.88    0.73 
   2   7 -15    4.78    0.90 
   2  -7 -15    4.33    0.70 
  -2   7 -15    4.73    0.72 
  -2   7 -15    5.52    0.90 
   3   7 -15    4.10    0.87 
  -3  -7 -15    3.20    0.70 
  -3   7 -15    3.93    0.74 
   3  -7 -15    4.32    0.71 
  -3   7 -15    4.04    0.82 
   3  -7 -15    2.01    1.30 
  -4  -7 -15   -0.07    0.49 
   4  -7  15    0.16    0.52 
   4   7 -15    0.36    0.61 
  -4   7 -15   -0.12    0.48 
   4  -7 -15   -0.08    0.48 
   4  -7 -15    0.66    1.25 
   0   8 -15   21.47    1.66 
   0  -8 -15   20.21    1.30 
   0   8 -15   19.65    1.16 
  -1  -8 -15    9.76    0.92 
   1   8 -15    7.89    1.11 
  -1   8 -15    7.26    0.83 
  -1   8 -15    9.91    1.23 
   1  -8 -15    8.95    0.93 
   2   8 -15    3.58    0.84 
  -2  -8 -15    4.02    0.71 
  -2   8 -15    3.05    0.65 
  -2   8 -15    5.03    0.92 
   2  -8 -15    0.14    0.93 
   2  -8 -15    3.39    0.69 
   3  -8  15    1.80    0.73 
   3   8 -15    1.96    0.71 
  -3  -8 -15    3.02    0.73 
  -3   8 -15    2.39    0.77 
   3  -8 -15    2.26    0.65 
   3  -8 -15   -0.78    1.03 
  -3   8 -15    1.48    0.60 
   4   8 -15    3.30    1.00 
  -4  -8 -15    1.81    0.70 
   4  -8  15    1.71    0.73 
  -4   8 -15    1.08    0.69 
   4  -8 -15    2.09    1.60 
   4  -8 -15    0.75    0.57 
   0   9 -15    0.72    0.59 
   0  -9 -15    0.58    0.51 
   1   9 -15   11.02    1.27 
  -1  -9 -15    9.68    1.03 
  -1   9 -15    9.79    1.30 
  -1   9 -15   10.01    0.98 
   1  -9 -15    8.52    0.98 
  -2  -9 -15    1.09    0.66 
   2   9 -15    1.09    0.69 
   2  -9 -15    1.18    0.60 
  -2   9 -15    1.87    0.81 
  -2   9 -15    0.66    0.47 
   2  -9 -15    0.00    0.87 
  -3  -9 -15    1.14    0.67 
   3   9 -15    0.77    0.76 
   3  -9  15    1.28    0.72 
   3  -9 -15   -0.16    1.19 
   3  -9 -15    1.65    0.62 
  -3   9 -15    1.80    0.79 
  -3   9 -15    1.90    0.63 
   0  10 -15    3.06    0.82 
   0 -10 -15    3.11    0.73 
  -1 -10 -15    2.98    0.71 
   1  10 -15    4.87    0.99 
  -1  10 -15    4.33    0.72 
  -1  10 -15    4.22    0.99 
   1 -10 -15    5.86    0.96 
   2  10 -15    8.31    1.40 
  -2  10 -15    9.32    1.39 
  -2  10 -15    9.71    1.07 
   0   0 -16   -0.01    0.30 
   0   0 -16    0.49    0.33 
  -1   0 -16    3.33    0.57 
   1   0 -16    3.94    0.52 
  -1   0 -16    4.33    0.58 
   1   0 -16    4.78    0.74 
  -2   0 -16   18.44    1.12 
   2   0 -16   17.78    0.93 
   2   0 -16   18.00    1.36 
   3   0 -16    1.12    0.62 
  -3   0 -16    0.64    0.43 
  -4   0 -16    2.99    0.61 
   4   0 -16    2.86    0.78 
  -5   0 -16    2.73    0.71 
   5   0 -16    2.10    0.83 
   6   0 -16   -0.43    0.89 
  -6   0 -16    0.22    0.65 
   0  -1 -16   52.27    2.03 
   0  -1 -16   53.26    2.44 
   0   1 -16   55.05    2.49 
   0   1 -16   51.66    2.02 
   1   1 -16   29.01    1.70 
  -1  -1 -16   29.25    1.45 
  -1  -1 -16   26.87    1.35 
   1   1 -16   30.16    1.29 
   1  -1 -16   27.44    1.66 
  -1   1 -16   28.31    1.51 
   1  -1 -16   29.19    1.31 
  -1   1 -16   28.83    1.38 
   2   1 -16   13.14    1.20 
  -2  -1 -16   13.08    0.94 
  -2   1 -16   11.94    0.92 
   2  -1 -16   12.04    1.15 
  -2   1 -16   14.36    0.93 
   2  -1 -16   13.84    0.86 
   3   1 -16    3.87    0.83 
  -3  -1 -16    4.22    0.64 
   3  -1 -16    5.26    0.99 
  -3   1 -16    5.52    0.75 
   4   1 -16    0.24    0.54 
  -4  -1 -16    0.76    0.47 
  -4   1 -16    1.03    0.48 
   4  -1 -16    0.77    0.68 
   5   1 -16    4.67    1.03 
  -5  -1 -16    5.65    0.84 
  -5  -1 -16    4.83    0.83 
   5  -1 -16    5.15    1.14 
  -5   1 -16    5.03    0.84 
  -6  -1 -16   26.34    1.67 
   6   1 -16   26.61    2.36 
  -6   1 -16   28.25    1.77 
   6  -1 -16   28.39    2.49 
   0  -2 -16   14.23    1.03 
   0   2 -16   15.23    1.12 
   0  -2 -16   12.60    0.92 
   0   2 -16   14.00    0.90 
  -1  -2 -16   49.91    2.05 
  -1  -2 -16   52.16    2.24 
   1   2 -16   53.31    1.93 
   1   2 -16   53.34    2.56 
   1  -2 -16   50.67    1.99 
  -1   2 -16   50.30    2.04 
   1  -2 -16   52.68    2.51 
  -1   2 -16   50.16    2.35 
   2   2 -16    0.46    0.47 
  -2  -2 -16    0.32    0.42 
   2  -2 -16    0.32    0.36 
   2  -2 -16    0.11    0.50 
  -2   2 -16    0.42    0.46 
  -2   2 -16    0.03    0.31 
   3   2 -16   12.96    1.26 
  -3  -2 -16   13.25    0.99 
   3  -2 -16   12.96    1.51 
  -3   2 -16   13.68    1.04 
   4   2 -16    2.92    0.79 
  -4  -2 -16    2.30    0.60 
   4  -2 -16    2.42    0.82 
  -4   2 -16    2.27    0.55 
   5   2 -16    0.17    0.64 
  -5  -2 -16    0.60    0.53 
  -5  -2 -16   -0.36    0.46 
   5  -2 -16    0.09    0.62 
  -5   2 -16    0.06    0.45 
  -6  -2 -16    1.46    0.69 
   6   2 -16    1.98    1.07 
  -6  -2 -16    0.79    0.63 
  -6   2 -16    1.78    0.78 
   6  -2 -16    0.10    1.03 
   0  -3 -16   11.33    0.89 
   0   3 -16   11.76    1.03 
   0  -3 -16   11.50    0.96 
   0   3 -16   10.69    0.81 
   1   3 -16    2.19    0.44 
  -1  -3 -16    2.46    0.53 
   1   3 -16    2.57    0.64 
   1  -3 -16    1.39    0.59 
  -1   3 -16    2.62    0.55 
  -1   3 -16    2.48    0.55 
   1  -3 -16    3.31    0.56 
   2   3 -16    4.99    0.86 
  -2  -3 -16    5.47    0.71 
  -2   3 -16    6.09    0.75 
  -2   3 -16    5.25    0.73 
   2  -3 -16    4.91    0.91 
   2  -3 -16    5.41    0.67 
  -3  -3 -16    6.89    0.80 
   3   3 -16    6.23    0.96 
  -3   3 -16    6.70    0.82 
   3  -3 -16    6.92    0.71 
   3  -3 -16    8.13    1.29 
   4   3 -16    3.39    0.86 
  -4  -3 -16    4.16    0.74 
   4  -3 -16    3.78    1.08 
  -4   3 -16    3.88    0.68 
   5   3 -16    3.38    0.92 
  -5  -3 -16    4.73    0.86 
   5  -3 -16    4.21    1.18 
  -5   3 -16    4.95    0.80 
   0   4 -16   61.76    2.91 
   0  -4 -16   63.42    2.82 
   0   4 -16   61.08    2.30 
   0  -4 -16   59.80    2.38 
  -1  -4 -16    8.58    0.81 
   1   4 -16    7.96    0.94 
   1   4 -16    9.22    0.71 
  -1   4 -16    7.19    0.78 
   1  -4 -16    8.68    1.10 
  -1   4 -16    7.89    0.84 
   1  -4 -16    7.83    0.81 
   2   4 -16   15.70    1.33 
  -2  -4 -16   17.00    1.08 
  -2   4 -16   16.51    1.21 
  -2   4 -16   17.50    1.15 
   2  -4 -16   20.47    1.82 
   2  -4 -16   18.05    1.08 
   3   4 -16    1.84    0.68 
  -3  -4 -16    1.61    0.49 
  -3   4 -16    1.66    0.53 
  -3   4 -16    1.60    0.49 
   3  -4 -16    1.12    0.49 
   3  -4 -16    1.10    0.98 
   4   4 -16    7.48    1.13 
  -4  -4 -16    7.05    0.89 
   4  -4 -16    8.36    1.48 
  -4   4 -16    6.82    0.87 
  -5  -4 -16    7.34    1.01 
   5   4 -16    8.94    1.33 
  -5   4 -16    7.20    0.95 
   5  -4 -16    7.96    1.55 
   0  -5 -16   53.03    2.57 
   0   5 -16   48.53    1.97 
   0   5 -16   47.38    2.51 
   0  -5 -16   48.66    2.06 
   1   5 -16   17.97    1.39 
  -1  -5 -16   17.59    1.15 
  -1   5 -16   18.93    1.17 
   1  -5 -16   17.63    1.15 
   1  -5 -16   19.00    1.75 
  -1   5 -16   18.95    1.36 
  -2  -5 -16    5.22    0.72 
   2   5 -16    6.14    0.96 
  -2   5 -16    6.15    0.83 
  -2   5 -16    5.73    0.77 
   2  -5 -16    5.25    1.26 
   2  -5 -16    7.06    0.79 
   3   5 -16   19.73    1.59 
  -3  -5 -16   18.94    1.26 
  -3   5 -16   20.07    1.31 
   3  -5 -16   20.50    1.22 
  -3   5 -16   20.01    1.39 
   3  -5 -16   20.98    2.04 
  -4  -5 -16    2.25    0.65 
   4   5 -16    1.91    0.72 
   4  -5 -16    2.78    1.33 
  -4   5 -16    2.19    0.65 
  -5  -5 -16    6.16    0.91 
   5   5 -16    5.70    1.18 
   5  -5 -16    7.17    1.84 
  -5   5 -16    4.80    0.85 
   0  -6 -16   14.89    1.07 
   0  -6 -16   13.32    1.47 
   0   6 -16   13.29    0.94 
   0   6 -16   12.48    1.19 
   1   6 -16   22.96    1.59 
  -1  -6 -16   21.60    1.24 
   1  -6 -16   18.25    1.15 
  -1   6 -16   19.01    1.40 
   1  -6 -16   15.39    1.75 
  -1   6 -16   17.86    1.18 
  -2  -6 -16   13.45    1.04 
   2   6 -16   12.39    1.22 
   2  -6 -16   13.15    0.97 
  -2   6 -16   14.09    1.06 
   2  -6 -16   12.14    1.72 
  -2   6 -16   12.99    1.16 
  -3  -6 -16   17.05    1.24 
   3   6 -16   18.59    1.56 
  -3   6 -16   16.32    1.18 
   3  -6 -16   12.77    2.01 
  -3   6 -16   17.54    1.39 
   3  -6 -16   17.48    1.15 
   4   6 -16    1.17    0.65 
  -4  -6 -16    0.53    0.53 
   4  -6 -16    0.65    1.33 
  -4   6 -16    0.64    0.51 
   5   6 -16    5.23    1.15 
   0  -7 -16   -0.28    0.43 
   0   7 -16    0.18    0.52 
   0   7 -16   -0.35    0.39 
  -1  -7 -16    5.92    0.77 
   1   7 -16    6.62    1.00 
   1  -7 -16    6.05    0.80 
  -1   7 -16    6.83    0.82 
   1  -7 -16    2.42    1.05 
  -1   7 -16    7.25    1.01 
  -2  -7 -16   -0.01    0.37 
   2   7 -16    0.31    0.51 
   2  -7 -16    0.01    0.39 
  -2   7 -16    0.24    0.50 
  -2   7 -16    0.15    0.47 
   2  -7 -16   -0.69    0.92 
   3   7 -16    3.29    0.86 
  -3  -7 -16    2.85    0.72 
   3  -7 -16    1.95    1.34 
  -3   7 -16    3.93    0.84 
   3  -7 -16    3.35    0.67 
  -3   7 -16    2.05    0.62 
   4   7 -16    7.43    1.23 
  -4  -7 -16    7.60    1.00 
  -4   7 -16    5.36    0.92 
   4  -7 -16    4.52    1.84 
   4  -7 -16    5.96    0.87 
   0   8 -16   10.60    1.23 
   0  -8 -16   10.61    0.96 
  -1  -8 -16    8.31    0.94 
   1   8 -16    7.81    1.14 
   1  -8 -16    8.40    0.94 
  -1   8 -16    8.21    1.19 
  -1   8 -16    6.99    0.83 
   2   8 -16    0.90    0.61 
  -2  -8 -16    0.64    0.48 
  -2   8 -16    0.40    0.48 
   2  -8 -16   -0.19    1.04 
   2  -8 -16    0.09    0.46 
  -2   8 -16    0.11    0.53 
   3   8 -16    0.94    0.64 
  -3  -8 -16    0.70    0.61 
   3  -8 -16    0.14    1.22 
  -3   8 -16    0.94    0.55 
  -3   8 -16    1.42    0.71 
   3  -8 -16    1.78    0.61 
   0  -9 -16   -0.39    0.41 
   0   9 -16    0.60    0.65 
   1   9 -16    7.08    1.17 
  -1  -9 -16    7.14    0.92 
  -1   9 -16    8.42    1.24 
   1  -9 -16    7.13    0.92 
  -1   9 -16    8.20    0.91 
   2   9 -16   -0.18    0.51 
  -2  -9 -16   -0.44    0.55 
  -2   9 -16    0.00    0.49 
  -2   9 -16   -0.25    0.62 
   2  -9 -16   -1.13    0.97 
   2  -9 -16   -0.36    0.50 
   0  10 -16   -0.02    0.58 
   0 -10 -16    0.15    0.47 
   1  10 -16    8.90    1.31 
  -1 -10 -16    7.00    0.97 
  -1  10 -16    7.45    0.90 
  -1  10 -16    8.83    1.37 
   1 -10 -16    7.55    1.05 
   0   0 -17    0.23    0.33 
   0   0 -17    0.26    0.34 
  -1   0 -17   73.44    3.14 
  -1   0 -17   76.18    2.79 
   1   0 -17   73.73    3.38 
   1   0 -17   77.53    2.66 
   2   0 -17    0.12    0.44 
  -2   0 -17    0.00    0.44 
   2   0 -17   -0.23    0.31 
  -3   0 -17    0.02    0.38 
   3   0 -17    0.56    0.55 
  -4   0 -17   -0.19    0.36 
   4   0 -17    0.00    0.48 
  -5   0 -17    7.70    1.02 
   5   0 -17    7.52    1.28 
   0   1 -17   -0.18    0.34 
   0   1 -17    1.07    0.43 
   0  -1 -17    0.71    0.38 
   0  -1 -17    0.17    0.38 
   1   1 -17    4.91    0.79 
  -1  -1 -17    4.90    0.68 
   1   1 -17    6.36    0.64 
  -1  -1 -17    5.98    0.68 
  -1   1 -17    5.58    0.68 
   1  -1 -17    5.83    0.84 
  -1   1 -17    6.44    0.74 
   1  -1 -17    5.94    0.66 
  -2  -1 -17   13.68    1.05 
   2   1 -17   12.52    1.20 
   2  -1 -17   12.51    1.16 
   2  -1 -17   12.22    0.86 
  -2   1 -17   12.31    0.96 
   3   1 -17    3.33    0.78 
  -3  -1 -17    3.95    0.65 
   3  -1 -17    3.87    0.91 
  -3   1 -17    3.72    0.65 
  -4  -1 -17    3.74    0.66 
   4   1 -17    3.82    0.88 
  -4   1 -17    3.65    0.70 
   4  -1 -17    3.83    0.88 
  -5  -1 -17    1.26    0.67 
   5   1 -17    1.74    0.77 
   5  -1 -17    1.11    0.71 
  -5   1 -17    1.08    0.58 
   0  -2 -17    1.06    0.42 
   0   2 -17    1.12    0.46 
   0   2 -17    0.92    0.43 
   0  -2 -17    0.46    0.39 
   1   2 -17   17.64    0.99 
   1   2 -17   17.94    1.35 
  -1  -2 -17   17.77    1.14 
  -1   2 -17   20.90    1.19 
   1  -2 -17   17.29    1.31 
   1  -2 -17   18.34    1.08 
  -1   2 -17   18.76    1.21 
  -2  -2 -17   35.05    1.71 
   2   2 -17   34.78    2.09 
   2  -2 -17   37.41    1.57 
  -2   2 -17   37.32    1.75 
  -2   2 -17   35.74    1.80 
   2  -2 -17   34.21    2.07 
   3   2 -17    3.87    0.83 
  -3  -2 -17    2.59    0.55 
   3  -2 -17    2.86    0.84 
  -3   2 -17    2.86    0.59 
   4   2 -17   17.95    1.55 
  -4  -2 -17   16.71    1.23 
  -4   2 -17   15.82    1.19 
   4  -2 -17   19.95    1.74 
  -5  -2 -17    0.44    0.59 
  -5  -2 -17    0.51    0.57 
   5   2 -17    0.08    0.56 
   5  -2 -17   -0.04    0.62 
  -5   2 -17    0.70    0.50 
   0  -3 -17    5.84    0.70 
   0   3 -17    6.06    0.85 
   0  -3 -17    5.93    0.77 
   0   3 -17    7.15    0.72 
  -1  -3 -17   14.71    1.04 
   1   3 -17   13.56    0.88 
   1   3 -17   12.05    1.17 
   1  -3 -17   12.90    1.14 
  -1   3 -17   13.73    1.08 
  -1   3 -17   13.08    0.95 
   1  -3 -17   14.36    0.98 
   2   3 -17   25.37    1.67 
  -2  -3 -17   23.01    1.32 
   2  -3 -17   24.50    1.26 
   2  -3 -17   21.22    1.66 
  -2   3 -17   22.69    1.38 
  -2   3 -17   23.36    1.40 
  -3  -3 -17    5.62    0.75 
   3   3 -17    7.35    1.07 
  -3   3 -17    6.74    0.86 
   3  -3 -17    6.85    1.18 
  -4  -3 -17    5.87    0.87 
   4   3 -17    5.88    1.03 
   4  -3 -17    9.18    1.44 
  -4   3 -17    6.41    0.87 
   5   3 -17    7.21    1.22 
  -5  -3 -17    9.28    1.10 
  -5   3 -17    6.75    0.93 
   5  -3 -17    9.36    1.49 
   0  -4 -17   25.67    1.50 
   0   4 -17   24.45    1.25 
   0  -4 -17   21.76    1.30 
   0   4 -17   21.41    1.51 
  -1  -4 -17   43.90    2.00 
   1   4 -17   46.21    2.47 
  -1   4 -17   46.89    2.34 
   1  -4 -17   45.16    1.93 
   1  -4 -17   46.11    2.49 
  -1   4 -17   46.45    1.98 
   2   4 -17    1.17    0.56 
  -2  -4 -17    1.88    0.50 
  -2   4 -17    0.93    0.57 
   2  -4 -17    1.61    0.53 
   2  -4 -17    1.95    0.79 
  -2   4 -17    1.40    0.49 
   3   4 -17    9.25    1.21 
  -3  -4 -17   10.07    0.93 
  -3   4 -17    7.89    0.91 
   3  -4 -17    9.21    1.41 
   3  -4 -17    9.50    0.89 
   4   4 -17    0.27    0.61 
  -4  -4 -17   -0.06    0.51 
  -4   4 -17    1.53    0.56 
   4  -4 -17    0.85    1.10 
   5   4 -17    1.14    0.80 
  -5  -4 -17    2.27    0.75 
  -5   4 -17    0.95    0.57 
   5  -4 -17    0.66    1.10 
   0   5 -17    5.87    0.90 
   0  -5 -17    4.25    0.70 
   0  -5 -17    6.13    0.87 
   0   5 -17    5.51    0.68 
  -1  -5 -17    0.37    0.41 
   1   5 -17    1.41    0.59 
  -1   5 -17    1.61    0.56 
  -1   5 -17    1.22    0.53 
   1  -5 -17    0.65    0.49 
   1  -5 -17    0.89    0.74 
  -2  -5 -17    2.91    0.58 
   2   5 -17    4.06    0.81 
  -2   5 -17    3.63    0.66 
  -2   5 -17    3.52    0.68 
   2  -5 -17    3.19    0.63 
   2  -5 -17    2.42    0.93 
  -3  -5 -17    0.91    0.49 
   3   5 -17    0.82    0.57 
  -3   5 -17    0.79    0.49 
   3  -5 -17    1.20    1.01 
   3  -5 -17    1.42    0.58 
  -3   5 -17    0.55    0.45 
  -4  -5 -17   18.32    1.37 
   4   5 -17   20.50    1.69 
  -4   5 -17   17.06    1.28 
   4  -5 -17   17.68    2.18 
   5   5 -17    1.19    0.92 
  -5  -5 -17    2.34    0.72 
   5  -5 -17   -0.79    1.29 
  -5   5 -17    1.49    0.61 
   0   6 -17   12.47    1.23 
   0  -6 -17   10.15    0.92 
   0   6 -17   12.47    0.93 
  -1  -6 -17   10.82    0.95 
   1   6 -17   14.36    1.34 
   1  -6 -17   10.75    0.96 
  -1   6 -17   11.71    1.00 
  -1   6 -17   12.73    1.20 
   1  -6 -17   11.38    1.53 
   2   6 -17   18.43    1.53 
  -2  -6 -17   17.32    1.17 
  -2   6 -17   19.13    1.25 
   2  -6 -17   16.72    1.99 
  -2   6 -17   16.65    1.35 
   2  -6 -17   18.15    1.18 
   3   6 -17    0.79    0.59 
  -3  -6 -17    0.19    0.47 
  -3   6 -17    0.23    0.49 
   3  -6 -17    0.88    0.52 
  -3   6 -17    0.71    0.49 
   3  -6 -17    1.25    1.30 
  -4  -6 -17    8.15    1.04 
   4   6 -17    6.34    1.16 
  -4   6 -17    6.37    0.90 
   4  -6 -17    9.25    1.91 
   0   7 -17    4.80    0.97 
   0  -7 -17    6.61    0.85 
  -1  -7 -17   10.96    0.99 
   1   7 -17   13.45    1.33 
   1  -7 -17   15.13    1.10 
  -1   7 -17   13.32    1.02 
  -1   7 -17   15.10    1.36 
   1  -7 -17    9.34    1.56 
  -2  -7 -17    4.04    0.69 
   2   7 -17    4.23    0.92 
   2  -7 -17    5.36    1.49 
   2  -7 -17    5.25    0.79 
  -2   7 -17    4.74    0.76 
  -2   7 -17    5.35    0.94 
  -3  -7 -17    5.52    0.91 
   3   7 -17    4.59    0.95 
  -3   7 -17    5.52    0.98 
   3  -7 -17    6.12    0.85 
   3  -7 -17    2.37    1.33 
  -3   7 -17    4.43    0.77 
   4   7 -17    4.27    1.13 
  -4  -7 -17    4.60    0.87 
   4  -7 -17    4.48    1.86 
  -4   7 -17    2.09    0.82 
   0   8 -17    8.89    1.27 
   0  -8 -17    9.84    1.04 
   1   8 -17   16.83    1.53 
  -1  -8 -17   15.74    1.16 
  -1   8 -17   13.20    1.07 
  -1   8 -17   14.58    1.40 
   1  -8 -17   15.18    1.18 
   2   8 -17    1.77    0.69 
  -2  -8 -17    0.77    0.51 
   2  -8 -17    2.35    0.63 
  -2   8 -17    2.49    0.76 
  -2   8 -17    2.11    0.58 
   2  -8 -17    0.01    1.18 
   3   8 -17    1.26    0.79 
  -3  -8 -17    0.38    0.59 
   3  -8 -17    1.64    1.39 
   3  -8 -17    0.00    0.55 
  -3   8 -17    0.70    0.54 
  -3   8 -17    0.34    0.64 
   0  -9 -17    0.78    0.53 
   0   9 -17    0.43    0.73 
  -1  -9 -17    5.66    0.85 
   1   9 -17    6.71    1.14 
   1  -9 -17    4.95    0.86 
  -1   9 -17    6.64    1.16 
  -1   9 -17    6.33    0.82 
   2   9 -17   -0.09    0.58 
  -2  -9 -17   -0.10    0.55 
  -2   9 -17   -0.19    0.67 
   2  -9 -17   -0.06    0.49 
  -2   9 -17   -0.17    0.49 
   2  -9 -17   -1.10    1.17 
   0   0 -18   34.92    1.90 
   0   0 -18   37.76    1.64 
  -1   0 -18    0.85    0.38 
   1   0 -18    0.79    0.41 
   1   0 -18    0.48    0.45 
  -1   0 -18    1.45    0.52 
   2   0 -18    0.34    0.53 
  -2   0 -18    0.25    0.51 
   3   0 -18    3.49    0.85 
  -3   0 -18    3.16    0.64 
  -4   0 -18   14.04    1.14 
   4   0 -18   15.63    1.50 
   5   0 -18    7.86    1.34 
  -5   0 -18    6.98    1.00 
   0   1 -18    0.37    0.41 
   0  -1 -18    0.65    0.43 
   0  -1 -18   -0.19    0.34 
   0   1 -18    0.23    0.37 
  -1  -1 -18   11.82    0.93 
  -1  -1 -18   12.59    1.00 
   1   1 -18   12.44    1.14 
   1   1 -18   14.40    0.91 
  -1   1 -18   12.78    0.98 
   1  -1 -18   11.58    1.10 
   1  -1 -18   12.92    0.92 
  -1   1 -18   14.29    0.99 
   2   1 -18   47.38    2.55 
  -2  -1 -18   45.66    2.06 
   2  -1 -18   49.14    2.60 
   2  -1 -18   47.75    1.91 
  -2   1 -18   47.57    2.09 
   3   1 -18    8.60    1.23 
  -3  -1 -18    8.63    0.92 
   3  -1 -18    8.72    1.24 
  -3   1 -18    8.46    0.93 
  -4  -1 -18    0.70    0.45 
   4   1 -18    0.17    0.55 
  -4   1 -18    0.14    0.46 
   4  -1 -18    0.77    0.68 
  -5  -1 -18    1.87    0.75 
   5   1 -18    2.55    0.88 
  -5   1 -18    2.80    0.70 
   5  -1 -18    2.49    0.96 
   0   2 -18   10.84    0.88 
   0   2 -18   10.99    1.03 
   0  -2 -18   11.91    0.97 
   0  -2 -18   10.64    0.87 
   1   2 -18   60.02    2.95 
   1   2 -18   64.02    2.29 
  -1  -2 -18   57.37    2.38 
  -1   2 -18   60.75    2.40 
   1  -2 -18   61.49    2.35 
   1  -2 -18   60.78    2.91 
  -1   2 -18   61.17    2.78 
  -2  -2 -18    4.08    0.69 
   2   2 -18    4.54    0.83 
   2  -2 -18    4.88    0.67 
  -2   2 -18    4.63    0.68 
  -2   2 -18    4.66    0.72 
   2  -2 -18    3.88    0.84 
   3   2 -18    2.24    0.75 
  -3  -2 -18    2.33    0.55 
   3  -2 -18    2.79    0.86 
  -3   2 -18    1.68    0.55 
  -4  -2 -18    0.77    0.50 
   4   2 -18    0.85    0.63 
  -4   2 -18    0.77    0.48 
   4  -2 -18   -0.77    0.59 
  -5  -2 -18    1.27    0.65 
   5   2 -18    1.96    0.87 
  -5   2 -18    1.48    0.62 
   5  -2 -18    2.34    0.95 
   0   3 -18    0.37    0.43 
   0   3 -18    0.25    0.44 
   0  -3 -18    0.85    0.46 
   0  -3 -18    0.99    0.48 
  -1  -3 -18    9.12    0.94 
   1   3 -18    9.49    0.80 
   1   3 -18    9.00    1.06 
   1  -3 -18    9.78    0.83 
  -1   3 -18    9.04    0.93 
  -1   3 -18   10.83    0.89 
   1  -3 -18    9.95    1.05 
   2   3 -18   11.38    1.25 
  -2  -3 -18   12.23    1.01 
   2  -3 -18   13.07    1.00 
  -2   3 -18   12.49    1.07 
   2  -3 -18   11.94    1.26 
  -2   3 -18   13.27    1.04 
  -3  -3 -18    5.38    0.74 
   3   3 -18    4.47    0.88 
   3  -3 -18    6.77    1.14 
  -3   3 -18    6.00    0.82 
   4   3 -18   16.31    1.54 
  -4  -3 -18   14.51    1.17 
   4  -3 -18   15.59    1.70 
  -4   3 -18   16.02    1.24 
   5   3 -18    6.46    1.32 
  -5  -3 -18    5.50    0.94 
  -5   3 -18    6.60    0.93 
   5  -3 -18    5.49    1.32 
   0  -4 -18   11.16    0.92 
   0   4 -18   10.34    1.06 
   0  -4 -18   11.50    1.00 
   0   4 -18    9.81    0.86 
  -1  -4 -18    7.30    0.82 
   1   4 -18    6.80    1.01 
  -1   4 -18    6.19    0.76 
   1  -4 -18    6.45    0.79 
   1  -4 -18    5.64    0.91 
  -1   4 -18    7.58    0.95 
   2   4 -18   11.06    1.21 
  -2  -4 -18   12.00    1.00 
  -2   4 -18   11.70    1.04 
  -2   4 -18   11.60    0.97 
   2  -4 -18   13.30    1.37 
   2  -4 -18   11.90    0.97 
   3   4 -18   10.65    1.21 
  -3  -4 -18    8.84    0.97 
  -3   4 -18    8.39    0.96 
   3  -4 -18    9.59    0.91 
   3  -4 -18   10.00    1.43 
   4   4 -18   14.71    1.52 
  -4  -4 -18   15.01    1.26 
  -4   4 -18   16.53    1.28 
   4  -4 -18   16.91    1.83 
   5   4 -18    5.80    1.31 
  -5  -4 -18    5.85    0.99 
  -5   4 -18    6.09    0.94 
   5  -4 -18    4.60    1.41 
   0   5 -18    6.27    0.95 
   0  -5 -18    3.23    0.63 
   0   5 -18    4.53    0.65 
   1   5 -18    8.42    1.14 
  -1  -5 -18    7.44    0.86 
   1  -5 -18    9.79    1.20 
   1  -5 -18    9.32    0.88 
  -1   5 -18    7.92    0.87 
  -1   5 -18    8.26    0.94 
   2   5 -18    2.89    0.79 
  -2  -5 -18    1.44    0.49 
   2  -5 -18    2.56    0.93 
   2  -5 -18    2.85    0.61 
  -2   5 -18    2.69    0.63 
  -2   5 -18    2.80    0.62 
   3   5 -18    9.20    1.24 
  -3  -5 -18    8.50    0.93 
   3  -5 -18    9.18    0.92 
  -3   5 -18    7.43    0.92 
   3  -5 -18    9.15    1.54 
   4   5 -18    0.03    0.58 
  -4  -5 -18    1.69    0.71 
   4  -5 -18    1.41    1.22 
  -4   5 -18    0.46    0.51 
   0  -6 -18   25.27    1.45 
   0   6 -18   28.40    1.89 
   0   6 -18   27.44    1.40 
  -1  -6 -18   15.86    1.17 
   1   6 -18   16.10    1.48 
   1  -6 -18   15.43    1.58 
   1  -6 -18   14.77    1.12 
  -1   6 -18   14.14    1.09 
  -1   6 -18   15.66    1.32 
   2   6 -18    2.73    0.77 
  -2  -6 -18    3.40    0.66 
   2  -6 -18    2.64    1.15 
  -2   6 -18    1.85    0.60 
   2  -6 -18    1.93    0.58 
  -2   6 -18    3.39    0.75 
  -3  -6 -18   13.90    1.13 
   3   6 -18   13.74    1.43 
  -3   6 -18   13.23    1.28 
  -3   6 -18   13.16    1.17 
   3  -6 -18   13.27    1.07 
   3  -6 -18   15.22    2.04 
  -4  -6 -18    3.55    0.83 
   4   6 -18    2.14    0.91 
  -4   6 -18    1.91    0.77 
   4  -6 -18    3.96    1.65 
   0  -7 -18    5.76    0.80 
   0   7 -18    6.57    1.10 
   1   7 -18    5.33    1.01 
  -1  -7 -18    6.28    0.87 
   1  -7 -18    6.06    0.80 
  -1   7 -18    7.34    1.08 
   1  -7 -18    5.42    1.28 
  -1   7 -18    4.52    0.72 
   2   7 -18    4.21    0.93 
  -2  -7 -18    3.59    0.67 
  -2   7 -18    4.31    0.77 
   2  -7 -18    3.55    1.38 
  -2   7 -18    4.32    0.89 
   2  -7 -18    4.34    0.73 
  -3  -7 -18    3.29    0.74 
   3   7 -18    4.52    1.01 
   3  -7 -18    5.00    1.69 
  -3   7 -18    4.59    0.92 
   3  -7 -18    4.15    0.75 
  -3   7 -18    3.32    0.75 
   0  -8 -18   34.80    1.88 
   0   8 -18   37.50    2.36 
   1   8 -18    2.02    0.76 
  -1  -8 -18    1.31    0.58 
  -1   8 -18    1.07    0.53 
  -1   8 -18    1.20    0.75 
   1  -8 -18    2.11    0.63 
   2   8 -18    6.59    1.14 
  -2  -8 -18    7.30    0.94 
   2  -8 -18    7.09    0.95 
   2  -8 -18    3.49    1.56 
  -2   8 -18    8.80    1.26 
  -2   8 -18    6.66    0.87 
   0   9 -18    3.84    0.98 
   0  -9 -18    6.84    1.03 
   1   9 -18    1.05    0.74 
  -1  -9 -18    3.30    0.71 
  -1   9 -18    1.65    0.88 
   1  -9 -18    2.15    0.78 
   0   0 -19    0.14    0.37 
   0   0 -19    0.48    0.45 
  -1   0 -19   21.78    1.33 
   1   0 -19   22.59    1.56 
   1   0 -19   23.61    1.23 
  -1   0 -19   22.73    1.36 
  -2   0 -19   -0.72    0.40 
   2   0 -19    1.26    0.62 
   3   0 -19    2.64    0.85 
  -3   0 -19    3.21    0.66 
  -4   0 -19    1.25    0.54 
   4   0 -19    1.08    0.76 
   5   0 -19   10.50    1.53 
  -5   0 -19   10.56    1.15 
   0   1 -19   13.52    1.00 
   0  -1 -19   12.50    1.05 
   0  -1 -19   13.42    0.99 
   0   1 -19   11.84    1.06 
   1   1 -19    5.55    0.86 
   1   1 -19    6.42    0.71 
  -1  -1 -19    5.42    0.76 
  -1   1 -19    6.23    0.77 
   1  -1 -19    5.76    0.71 
  -1   1 -19    5.53    0.75 
   1  -1 -19    5.68    0.86 
   2   1 -19   35.12    2.12 
  -2  -1 -19   31.01    1.67 
   2  -1 -19   33.87    2.10 
  -2   1 -19   34.79    1.71 
   3   1 -19    7.09    1.13 
  -3  -1 -19    7.58    0.90 
  -3   1 -19    7.86    0.91 
   3  -1 -19    9.39    1.31 
   4   1 -19    0.66    0.63 
  -4  -1 -19    0.85    0.52 
  -4   1 -19    1.86    0.58 
   4  -1 -19    1.16    0.77 
  -5  -1 -19    5.82    0.97 
   5   1 -19    4.57    1.12 
   5  -1 -19    6.16    1.26 
  -5   1 -19    5.14    0.87 
   0  -2 -19   15.64    1.17 
   0  -2 -19   16.57    1.11 
   0   2 -19   16.20    1.08 
   0   2 -19   17.09    1.27 
   1   2 -19    2.61    0.55 
  -1  -2 -19    3.14    0.65 
   1   2 -19    3.11    0.69 
   1  -2 -19    2.37    0.57 
   1  -2 -19    3.72    0.73 
  -1   2 -19    2.83    0.60 
  -1   2 -19    2.39    0.62 
   2   2 -19    8.73    1.14 
  -2  -2 -19    8.42    0.89 
   2  -2 -19    9.05    0.83 
  -2   2 -19    8.58    0.92 
   2  -2 -19    7.81    1.10 
  -3  -2 -19    7.01    0.87 
   3   2 -19    6.76    1.11 
  -3   2 -19    7.10    0.87 
   3  -2 -19    7.50    1.18 
   4   2 -19    6.52    1.15 
  -4  -2 -19    6.69    0.92 
  -4   2 -19    7.11    0.93 
   4  -2 -19    8.58    1.35 
  -5  -2 -19   16.43    1.35 
   5   2 -19   17.79    1.82 
  -5   2 -19   16.79    1.34 
   5  -2 -19   14.87    1.88 
   0   3 -19    3.36    0.60 
   0  -3 -19    3.49    0.64 
   0  -3 -19    3.26    0.66 
   0   3 -19    3.25    0.70 
   1   3 -19    3.47    0.76 
  -1  -3 -19    3.33    0.64 
   1  -3 -19    4.50    0.77 
   1  -3 -19    4.06    0.64 
  -1   3 -19    3.11    0.63 
  -1   3 -19    3.07    0.65 
   2   3 -19   27.28    1.88 
  -2  -3 -19   26.67    1.53 
  -2   3 -19   27.83    1.63 
   2  -3 -19   29.36    1.47 
  -2   3 -19   28.58    1.57 
   2  -3 -19   30.18    1.94 
   3   3 -19    5.57    1.02 
  -3  -3 -19    4.45    0.74 
  -3   3 -19    5.57    0.83 
   3  -3 -19    5.60    1.09 
  -4  -3 -19    0.52    0.51 
   4   3 -19    0.20    0.55 
  -4   3 -19    0.63    0.51 
   4  -3 -19    0.54    0.86 
  -5  -3 -19   14.11    1.30 
   5   3 -19   12.43    1.66 
  -5   3 -19   14.34    1.27 
   5  -3 -19   13.19    1.86 
   0   4 -19    7.57    1.01 
   0   4 -19    6.84    0.80 
   0  -4 -19    7.36    0.84 
   1   4 -19    8.85    1.14 
  -1  -4 -19    8.97    0.93 
   1  -4 -19    8.50    0.91 
  -1   4 -19   10.15    1.03 
   1  -4 -19   10.05    1.05 
  -1   4 -19    8.55    0.91 
  -2  -4 -19    3.80    0.67 
   2   4 -19    3.43    0.88 
   2  -4 -19    3.62    0.68 
  -2   4 -19    2.87    0.63 
   2  -4 -19    3.63    0.87 
  -2   4 -19    3.95    0.72 
  -3  -4 -19    7.55    0.93 
   3   4 -19    8.57    1.19 
   3  -4 -19    5.94    1.20 
  -3   4 -19    7.96    0.98 
   4   4 -19    3.83    0.93 
  -4  -4 -19    4.05    0.79 
  -4   4 -19    3.58    0.78 
   4  -4 -19    3.80    1.20 
   0  -5 -19   -0.09    0.44 
   0   5 -19    0.05    0.48 
   0   5 -19   -0.49    0.45 
   1   5 -19    6.48    1.05 
  -1  -5 -19    4.74    0.77 
   1  -5 -19    6.05    0.97 
  -1   5 -19    4.94    0.74 
  -1   5 -19    4.49    0.82 
   1  -5 -19    7.60    0.84 
   2   5 -19   -0.33    0.59 
  -2  -5 -19   -0.15    0.40 
   2  -5 -19    0.03    0.75 
  -2   5 -19    0.16    0.41 
   2  -5 -19    0.10    0.45 
  -2   5 -19    0.18    0.46 
  -3  -5 -19   23.46    1.45 
   3   5 -19   22.56    1.81 
  -3   5 -19   25.10    1.54 
   3  -5 -19   23.08    1.38 
   3  -5 -19   26.46    2.15 
  -4  -5 -19    5.51    0.91 
   4   5 -19    4.50    1.01 
  -4   5 -19    5.43    0.95 
   4  -5 -19    5.32    1.44 
   0  -6 -19   11.89    1.05 
   0   6 -19   14.63    1.40 
  -1  -6 -19    3.60    0.71 
   1   6 -19    4.48    0.94 
   1  -6 -19    3.45    0.71 
   1  -6 -19    4.44    1.04 
  -1   6 -19    4.20    0.86 
  -1   6 -19    4.05    0.71 
  -2  -6 -19    8.77    1.00 
   2   6 -19    7.18    1.19 
  -2   6 -19    8.58    1.10 
   2  -6 -19    7.44    1.38 
   2  -6 -19    7.90    0.91 
  -2   6 -19    8.03    0.93 
  -3  -6 -19    4.49    0.77 
   3   6 -19    4.44    0.97 
  -3   6 -19    6.03    0.90 
   3  -6 -19    4.92    1.42 
   3  -6 -19    5.14    0.80 
   0   7 -19    0.39    0.67 
   0  -7 -19    0.37    0.50 
  -1  -7 -19    0.78    0.55 
   1   7 -19    0.05    0.63 
   1  -7 -19    1.01    0.51 
  -1   7 -19    1.10    0.70 
  -1   7 -19    1.09    0.56 
   2   7 -19    3.73    0.89 
  -2  -7 -19    3.55    0.72 
  -2   7 -19    3.54    0.72 
   2  -7 -19    3.28    0.71 
   2  -7 -19    2.74    1.28 
  -2   7 -19    2.83    0.82 
   3   7 -19    2.28    0.82 
  -3  -7 -19    1.67    0.66 
   3  -7 -19    1.97    0.63 
  -3   7 -19    1.78    0.73 
  -3   7 -19    2.39    0.72 
   3  -7 -19    2.32    1.52 
   0   8 -19   10.67    1.43 
   0  -8 -19   10.79    1.12 
  -1  -8 -19    2.62    0.72 
   1   8 -19    2.87    0.92 
  -1   8 -19    3.79    0.95 
   1  -8 -19    2.98    0.71 
  -1   8 -19    3.77    0.71 
  -2  -8 -19    3.68    0.76 
   2   8 -19    5.19    1.05 
  -2   8 -19    3.50    0.91 
   2  -8 -19    2.97    1.53 
  -2   8 -19    3.25    0.73 
   2  -8 -19    4.08    0.79 
   0   0 -20   24.58    1.38 
   0   0 -20   24.58    1.57 
   1   0 -20   53.44    2.14 
  -1   0 -20   51.03    2.21 
   1   0 -20   51.09    2.66 
  -2   0 -20   13.45    1.06 
   2   0 -20   13.25    1.28 
  -3   0 -20    4.89    0.78 
   3   0 -20    4.09    0.97 
  -4   0 -20    0.95    0.57 
   4   0 -20   -0.78    0.61 
   0  -1 -20   -0.09    0.46 
   0   1 -20    0.20    0.40 
   0   1 -20    0.82    0.49 
   0  -1 -20    0.03    0.38 
  -1  -1 -20   10.39    0.96 
   1   1 -20   11.51    0.95 
   1   1 -20   10.92    1.12 
  -1   1 -20   10.47    1.00 
  -1   1 -20   11.16    1.00 
   1  -1 -20   11.99    1.15 
   1  -1 -20    9.74    0.94 
  -2  -1 -20   21.79    1.32 
   2   1 -20   19.82    1.61 
   2  -1 -20   19.99    1.59 
  -2   1 -20   19.16    1.29 
   3   1 -20    3.61    0.94 
  -3  -1 -20    4.64    0.79 
   3  -1 -20    4.89    1.08 
  -3   1 -20    4.31    0.75 
   4   1 -20    3.31    0.98 
  -4  -1 -20    3.85    0.75 
  -4   1 -20    3.69    0.74 
   4  -1 -20    3.35    1.09 
   0   2 -20    0.05    0.45 
   0   2 -20    0.10    0.39 
   0  -2 -20    0.24    0.42 
   0  -2 -20    0.55    0.49 
   1   2 -20   10.10    1.11 
  -1  -2 -20   11.47    0.93 
   1  -2 -20   12.23    1.13 
   1  -2 -20   10.41    0.94 
  -1   2 -20    9.96    1.01 
  -1   2 -20   10.24    0.98 
   2   2 -20    1.40    0.67 
  -2  -2 -20    1.07    0.50 
   2  -2 -20    1.12    0.51 
   2  -2 -20    1.25    0.63 
  -2   2 -20    1.60    0.53 
   3   2 -20    0.66    0.71 
  -3  -2 -20    0.70    0.49 
   3  -2 -20    0.97    0.75 
  -3   2 -20    0.27    0.52 
   4   2 -20   16.10    1.57 
  -4  -2 -20   14.62    1.24 
  -4   2 -20   14.42    1.22 
   4  -2 -20   15.28    1.69 
   0  -3 -20    2.09    0.54 
   0   3 -20    2.97    0.68 
   0   3 -20    2.94    0.63 
  -1  -3 -20    2.50    0.57 
   1   3 -20    3.07    0.77 
  -1   3 -20    2.70    0.65 
  -1   3 -20    2.22    0.62 
   1  -3 -20    2.33    0.63 
   1  -3 -20    3.02    0.65 
  -2  -3 -20   23.44    1.39 
   2   3 -20   22.08    1.77 
   2  -3 -20   23.28    1.36 
  -2   3 -20   22.18    1.37 
   2  -3 -20   22.39    1.68 
   3   3 -20   14.84    1.51 
  -3  -3 -20   11.89    1.08 
  -3   3 -20   12.31    1.14 
   3  -3 -20   13.22    1.52 
   4   3 -20    2.97    0.93 
  -4  -3 -20    3.35    0.74 
  -4   3 -20    3.01    0.70 
   4  -3 -20    2.74    1.12 
   0   4 -20    3.43    0.75 
   0  -4 -20    3.08    0.62 
   0   4 -20    3.19    0.66 
   1   4 -20    3.62    0.85 
  -1  -4 -20    2.62    0.62 
  -1   4 -20    2.21    0.59 
  -1   4 -20    2.37    0.64 
   1  -4 -20    2.80    0.62 
   1  -4 -20    2.81    0.67 
  -2  -4 -20    4.40    0.76 
   2   4 -20    4.48    1.00 
  -2   4 -20    3.86    0.74 
   2  -4 -20    3.88    0.69 
  -2   4 -20    6.26    0.89 
   2  -4 -20    5.48    0.98 
  -3  -4 -20    9.37    1.04 
   3   4 -20   10.46    1.42 
  -3   4 -20   11.30    1.14 
   3  -4 -20   11.25    1.53 
  -4  -4 -20    7.48    1.02 
   4   4 -20    6.72    1.23 
   4  -4 -20    6.34    1.41 
  -4   4 -20    7.07    1.04 
   0   5 -20   21.72    1.66 
   0  -5 -20   21.29    1.31 
   1   5 -20    6.14    1.06 
  -1  -5 -20    6.27    0.85 
   1  -5 -20    5.27    0.91 
  -1   5 -20    5.21    0.75 
   1  -5 -20    4.87    0.74 
  -1   5 -20    4.94    0.87 
   2   5 -20   13.97    1.51 
  -2  -5 -20   14.81    1.14 
  -2   5 -20   13.70    1.13 
   2  -5 -20   13.54    1.49 
  -2   5 -20   13.24    1.22 
   2  -5 -20   14.03    1.08 
  -3  -5 -20    0.79    0.52 
   3   5 -20    0.44    0.59 
   3  -5 -20    2.38    1.01 
  -3   5 -20    1.31    0.63 
   0  -6 -20    0.79    0.50 
   0   6 -20    0.91    0.67 
  -1  -6 -20    3.30    0.72 
   1   6 -20    4.66    1.02 
  -1   6 -20    3.74    0.86 
   1  -6 -20    2.54    0.67 
  -1   6 -20    4.11    0.71 
  -2  -6 -20    0.18    0.45 
   2   6 -20   -0.23    0.61 
   2  -6 -20    0.41    0.51 
  -2   6 -20    0.84    0.60 
  -2   6 -20    0.40    0.52 
   2  -6 -20    0.23    0.84 
  -3  -6 -20    7.31    1.00 
   3   6 -20    6.85    1.15 
  -3   6 -20    6.10    0.96 
   3  -6 -20    7.35    1.51 
   3  -6 -20    7.79    0.96 
   0  -7 -20    1.57    0.58 
   0   7 -20    1.26    0.80 
  -1  -7 -20   18.06    1.32 
   1   7 -20   22.42    1.87 
  -1   7 -20   19.92    1.70 
  -1   7 -20   20.95    1.33 
   1  -7 -20   19.90    1.37 
  -2  -7 -20    7.57    0.99 
   2   7 -20    8.01    1.31 
   2  -7 -20    9.74    1.07 
  -2   7 -20    7.47    0.97 
   2  -7 -20    8.78    1.58 
  -2   7 -20    8.20    1.20 
   0  -8 -20    3.31    0.86 
   0   8 -20    4.11    1.04 
   1   8 -20    0.74    0.84 
  -1  -8 -20    1.51    0.74 
   1  -8 -20    1.63    0.70 
  -1   8 -20    1.85    0.77 
   0   0 -21    0.09    0.50 
   0   0 -21    0.41    0.46 
   1   0 -21    4.51    0.69 
  -1   0 -21    4.34    0.69 
   1   0 -21    4.75    0.82 
   2   0 -21    0.09    0.57 
  -2   0 -21   -0.03    0.47 
   3   0 -21    0.05    0.67 
  -3   0 -21   -0.07    0.47 
   4   0 -21   11.42    1.67 
  -4   0 -21    9.76    1.13 
   0  -1 -21   15.19    1.12 
   0  -1 -21   13.59    1.14 
   0   1 -21   14.83    1.23 
   0   1 -21   14.41    1.10 
   1   1 -21    9.13    1.14 
  -1  -1 -21    7.98    0.90 
  -1   1 -21    7.81    0.88 
   1  -1 -21    9.40    1.06 
   1  -1 -21    9.59    0.91 
   2   1 -21    7.18    1.10 
  -2  -1 -21    7.69    0.90 
   2  -1 -21    7.74    1.11 
  -2   1 -21    7.60    0.93 
  -3  -1 -21    7.84    0.97 
   3   1 -21    9.75    1.42 
  -3   1 -21    8.92    1.05 
   3  -1 -21   10.75    1.42 
  -4  -1 -21    2.04    0.66 
   4   1 -21    2.77    1.04 
   4  -1 -21    2.66    1.11 
  -4   1 -21    4.21    0.80 
   0   2 -21    4.07    0.79 
   0   2 -21    4.63    0.75 
   0  -2 -21    4.20    0.68 
   1   2 -21    3.31    0.79 
  -1  -2 -21    4.58    0.72 
   1  -2 -21    4.07    0.68 
  -1   2 -21    3.33    0.67 
   1  -2 -21    4.64    0.83 
  -1   2 -21    4.46    0.75 
   2   2 -21    2.34    0.80 
  -2  -2 -21    2.18    0.59 
  -2   2 -21    2.04    0.64 
   2  -2 -21    2.02    0.75 
   3   2 -21    9.74    1.37 
  -3  -2 -21   10.73    1.11 
  -3   2 -21    8.46    1.00 
   3  -2 -21   11.62    1.49 
   4   2 -21    2.83    0.94 
  -4  -2 -21    3.35    0.74 
   4  -2 -21    3.79    1.15 
  -4   2 -21    4.56    0.90 
   0   3 -21    8.84    0.91 
   0   3 -21    7.97    1.05 
   0  -3 -21    8.09    0.89 
   1   3 -21    6.64    1.07 
  -1  -3 -21    6.12    0.82 
   1  -3 -21    7.12    0.84 
  -1   3 -21    7.58    0.98 
   1  -3 -21    6.49    0.96 
  -1   3 -21    5.56    0.79 
  -2  -3 -21    6.86    0.87 
   2   3 -21    5.52    1.05 
   2  -3 -21    7.32    0.86 
   2  -3 -21    6.08    1.08 
  -2   3 -21    7.14    0.91 
  -3  -3 -21    3.47    0.69 
   3   3 -21    2.60    0.92 
  -3   3 -21    2.38    0.69 
   3  -3 -21    4.19    1.06 
   4   3 -21    5.47    1.11 
  -4  -3 -21    4.63    0.83 
   4  -3 -21    5.13    1.31 
  -4   3 -21    4.42    0.94 
   0   4 -21    0.72    0.55 
   0   4 -21    0.28    0.50 
   0  -4 -21    0.46    0.46 
   1   4 -21    4.70    0.98 
  -1  -4 -21    3.29    0.68 
  -1   4 -21    3.04    0.65 
  -1   4 -21    3.60    0.76 
   1  -4 -21    3.52    0.76 
   1  -4 -21    3.27    0.65 
   2   4 -21    3.35    0.94 
  -2  -4 -21    5.08    0.80 
   2  -4 -21    4.27    0.72 
  -2   4 -21    3.91    0.73 
   2  -4 -21    5.69    1.02 
   3   4 -21    2.21    0.91 
  -3  -4 -21    1.92    0.63 
   3  -4 -21    3.22    1.05 
  -3   4 -21    2.25    0.69 
   0  -5 -21    1.27    0.58 
   0   5 -21    1.82    0.75 
   1   5 -21   11.93    1.33 
  -1  -5 -21   14.01    1.14 
  -1   5 -21   12.94    1.30 
   1  -5 -21   11.22    1.03 
  -1   5 -21   12.89    1.06 
  -2  -5 -21    6.13    0.90 
   2   5 -21    5.48    1.16 
   2  -5 -21    7.06    0.88 
  -2   5 -21    6.24    0.89 
   2  -5 -21    7.08    1.13 
   3   5 -21   17.74    1.75 
  -3  -5 -21   16.57    1.27 
  -3   5 -21   17.17    1.37 
   3  -5 -21   16.13    1.75 
   0   6 -21    0.40    0.65 
   0  -6 -21    0.26    0.52 
  -1  -6 -21    2.15    0.62 
   1   6 -21    1.39    0.78 
   1  -6 -21    0.96    0.56 
  -1   6 -21    1.63    0.71 
  -1   6 -21    0.76    0.56 
  -2  -6 -21    3.68    0.76 
   2   6 -21    3.76    1.03 
  -2   6 -21    3.56    0.77 
   2  -6 -21    3.51    0.75 
  -2   6 -21    4.33    0.92 
   2  -6 -21    4.14    1.13 
   0  -7 -21    4.15    0.81 
   0   7 -21    2.34    0.92 
  -1  -7 -21    0.18    0.60 
   1   7 -21    0.75    0.74 
  -1   7 -21    0.12    0.68 
   1  -7 -21    0.06    0.51 
  -1   7 -21   -0.14    0.51 
   0   0 -22    0.03    0.48 
   0   0 -22    0.58    0.48 
   1   0 -22    6.30    0.99 
   1   0 -22    5.11    0.77 
  -1   0 -22    7.15    0.89 
   2   0 -22    0.11    0.66 
  -2   0 -22   -0.41    0.42 
   3   0 -22    6.67    1.28 
  -3   0 -22    8.14    1.01 
   4   0 -22    1.90    0.98 
  -4   0 -22    1.48    0.70 
   0   1 -22    0.81    0.54 
   0   1 -22    1.03    0.56 
   0  -1 -22    1.85    0.55 
   1   1 -22    1.52    0.64 
  -1  -1 -22    3.22    0.68 
   1  -1 -22    2.41    0.72 
  -1   1 -22    2.87    0.64 
   1  -1 -22    2.75    0.66 
   2   1 -22   23.40    1.85 
  -2  -1 -22   22.93    1.48 
   2  -1 -22   22.70    1.77 
  -2   1 -22   23.43    1.49 
   3   1 -22    8.95    1.35 
  -3  -1 -22    5.51    0.90 
  -3   1 -22    9.10    1.07 
   3  -1 -22    8.69    1.37 
   4   1 -22    0.86    0.87 
  -4  -1 -22    1.65    0.67 
   4  -1 -22    0.89    0.98 
  -4   1 -22    1.17    0.78 
   0  -2 -22   10.37    0.93 
   0   2 -22   10.59    1.03 
   0   2 -22   10.15    1.11 
  -1  -2 -22    6.30    0.86 
   1   2 -22    7.09    1.06 
   1  -2 -22    6.69    0.83 
   1  -2 -22    6.50    0.99 
  -1   2 -22    4.56    0.77 
  -2  -2 -22    6.24    0.86 
   2   2 -22    5.91    1.08 
   2  -2 -22    6.55    1.12 
  -2   2 -22    5.33    0.85 
   3   2 -22    6.00    1.20 
  -3  -2 -22    6.14    0.92 
   3  -2 -22    4.21    1.14 
  -3   2 -22    5.03    0.87 
   0   3 -22    3.09    0.69 
   0   3 -22    3.12    0.76 
   0  -3 -22    3.00    0.65 
  -1  -3 -22   11.19    1.05 
   1   3 -22   12.05    1.33 
  -1   3 -22   10.94    1.16 
   1  -3 -22   13.01    1.22 
  -1   3 -22   12.46    1.06 
   1  -3 -22   10.62    0.98 
   2   3 -22    9.30    1.33 
  -2  -3 -22    6.64    0.92 
  -2   3 -22    6.84    0.94 
   2  -3 -22    8.02    1.23 
   3   3 -22   16.11    1.72 
  -3  -3 -22   15.95    1.29 
   3  -3 -22   16.22    1.74 
  -3   3 -22   16.78    1.29 
   0   4 -22    1.80    0.72 
   0  -4 -22    0.84    0.52 
   1   4 -22    0.04    0.66 
  -1  -4 -22    0.33    0.48 
  -1   4 -22    0.33    0.55 
  -1   4 -22   -0.46    0.46 
   1  -4 -22    1.61    0.54 
  -2  -4 -22    2.10    0.67 
   2   4 -22    1.74    0.87 
   2  -4 -22    3.43    0.90 
   2  -4 -22    3.83    0.71 
  -2   4 -22    2.47    0.71 
   3   4 -22    2.19    0.94 
  -3  -4 -22    2.26    0.68 
   3  -4 -22    2.66    1.02 
  -3   4 -22    3.65    0.82 
   0   5 -22    3.72    0.94 
   0  -5 -22    4.53    0.78 
   1   5 -22   -0.32    0.57 
  -1  -5 -22    0.22    0.50 
   1  -5 -22    0.36    0.48 
  -1   5 -22    0.46    0.52 
  -1   5 -22    0.02    0.57 
  -2  -5 -22   13.04    1.19 
   2   5 -22   15.70    1.66 
   2  -5 -22   15.75    1.57 
   2  -5 -22   13.66    1.14 
  -2   5 -22   14.24    1.23 
   0   6 -22    5.10    1.04 
   0  -6 -22    3.08    0.70 
   1   6 -22    2.38    0.92 
  -1  -6 -22    2.34    0.73 
  -1   6 -22    1.63    0.78 
   1  -6 -22    1.33    0.60 
  -1   6 -22    1.57    0.62 
   2   6 -22    9.68    1.43 
   0   0 -23    0.63    0.51 
  -1   0 -23    2.90    0.70 
   1   0 -23    3.07    0.80 
  -2   0 -23   -0.17    0.52 
   2   0 -23    0.70    0.73 
  -3   0 -23   -0.42    0.52 
   3   0 -23    0.88    0.88 
   0  -1 -23    3.46    0.70 
   0   1 -23    4.16    0.71 
   0   1 -23    3.36    0.77 
  -1  -1 -23    7.33    0.91 
   1   1 -23    8.73    1.17 
  -1   1 -23    7.62    0.94 
   1  -1 -23    8.54    1.15 
   1  -1 -23    9.64    0.96 
  -2  -1 -23    0.73    0.59 
   2   1 -23    0.05    0.68 
   2  -1 -23    0.22    0.67 
  -2   1 -23    0.26    0.55 
  -3  -1 -23    8.53    1.07 
   3   1 -23   10.07    1.50 
   3  -1 -23    9.82    1.48 
  -3   1 -23    7.53    1.07 
   0   2 -23    0.20    0.53 
   0  -2 -23    1.45    0.58 
   0   2 -23    0.84    0.52 
  -1  -2 -23    0.88    0.54 
   1   2 -23    1.49    0.72 
   1  -2 -23    1.03    0.65 
   1  -2 -23    1.68    0.60 
  -1   2 -23    1.49    0.59 
  -2  -2 -23   12.85    1.16 
   2   2 -23   13.63    1.45 
   2  -2 -23   13.12    1.47 
  -2   2 -23   13.20    1.19 
  -3  -2 -23    2.24    0.78 
   3   2 -23    2.50    1.04 
   3  -2 -23    2.21    0.97 
  -3   2 -23    1.32    0.74 
   0   3 -23    1.50    0.67 
   0  -3 -23    1.63    0.60 
   1   3 -23    2.53    0.87 
  -1  -3 -23    1.96    0.61 
  -1   3 -23    2.38    0.67 
   1  -3 -23    2.23    0.62 
  -2  -3 -23   24.65    1.58 
   2   3 -23   23.24    1.97 
  -2   3 -23   25.42    1.59 
   2  -3 -23   22.77    1.90 
  -3  -3 -23   16.12    1.39 
   3   3 -23   15.52    1.76 
   3  -3 -23   14.29    1.70 
  -3   3 -23   16.09    1.42 
   0   4 -23    1.31    0.72 
   0  -4 -23    0.56    0.53 
   1   4 -23    9.85    1.35 
  -1  -4 -23   10.37    1.10 
  -1   4 -23    9.13    1.03 
  -1   4 -23   10.05    1.18 
   1  -4 -23   12.38    1.09 
   2   4 -23    7.87    1.32 
  -2  -4 -23    7.94    1.05 
   2  -4 -23    9.47    1.34 
  -2   4 -23    6.67    0.97 
   0  -5 -23    9.40    1.04 
   0   5 -23   10.15    1.39 
   1   5 -23    2.64    0.89 
  -1  -5 -23    1.88    0.73 
   1  -5 -23    1.66    0.64 
  -1   5 -23    2.05    0.67 
  -1   5 -23    1.03    0.71 
   0   0 -24   10.10    1.05 
  -1   0 -24   -0.03    0.52 
   1   0 -24    0.48    0.65 
  -2   0 -24    0.43    0.54 
   2   0 -24    1.03    0.77 
   0   1 -24    1.84    0.63 
   0  -1 -24    1.98    0.63 
  -1  -1 -24    0.68    0.57 
   1   1 -24   -0.03    0.61 
  -1   1 -24    1.73    0.65 
   1  -1 -24    1.59    0.74 
   2   1 -24    9.12    1.35 
  -2  -1 -24    8.84    1.06 
  -2   1 -24    8.75    1.06 
   2  -1 -24    7.06    1.27 
   0  -2 -24   -0.11    0.51 
   0   2 -24    0.51    0.61 
  -1  -2 -24    6.51    0.94 
   1   2 -24    7.41    1.19 
   1  -2 -24    7.42    0.94 
  -1   2 -24    8.20    0.99 
   2   2 -24    1.21    0.83 
  -2  -2 -24    0.48    0.60 
  -2   2 -24    0.41    0.59 
   2  -2 -24    0.33    0.73 
   0   3 -24   -0.01    0.60 
   0  -3 -24   -0.16    0.51 
  -1  -3 -24    6.15    0.93 
   1   3 -24    7.46    1.23 
  -1   3 -24    7.86    1.02 
   1  -3 -24    7.76    0.95 
  -2  -3 -24    1.70    0.72 
   2   3 -24    0.70    0.86 
  -2   3 -24    0.16    0.60 
   2  -3 -24    0.35    0.76 
   0   4 -24    4.41    0.99 
   0  -4 -24    3.88    0.75 
   1   4 -24    2.14    0.91 
  -1  -4 -24    2.64    0.73 
  -1   4 -24    2.23    0.70 
   1  -4 -24    2.24    0.68 
   0   0 -25    0.56    0.57 
   1   0 -25    1.87    0.78 
  -1   0 -25    3.08    0.76 
   2   0 -25    3.19    1.05 
  -2   0 -25    3.63    0.84 
   0  -1 -25    0.56    0.58 
  -1  -1 -25    9.44    1.10 
   1   1 -25    9.52    1.33 
  -1   1 -25    9.55    1.09 
   0  -2 -25    8.00    1.02 
  -1  -2 -25    4.38    0.82 
   1   2 -25    4.31    1.04 
  -1   2 -25    4.83    0.84 
   0  -3 -25    1.10    0.65 
   0   3 -25    0.92    0.75 
   0   0   0    0.00    0.00 
;
_shelx_hkl_checksum              92912
loop_
_space_group_symop_operation_xyz
'x, y, z'
'-x+1/2, -y, z+1/2'
'-x, y+1/2, -z+1/2'
'x+1/2, -y+1/2, -z'
loop_
_atom_site_label
_atom_site_type_symbol
_atom_site_fract_x
_atom_site_fract_y
_atom_site_fract_z
_atom_site_U_iso_or_equiv
_atom_site_adp_type
_atom_site_occupancy
_atom_site_site_symmetry_order
_atom_site_calc_flag
_atom_site_refinement_flags_posn
_atom_site_refinement_flags_adp
S1 S 0.53882(13) 0.88764(7) 0.19126(4) 0.0229(2) Uani 1 1 d . .
N1 N 0.6872(4) 0.8967(3) 0.25943(13) 0.0265(6) Uani 1 1 d . .
O1 O 0.5567(5) 1.0141(2) 0.15971(12) 0.0374(6) Uani 1 1 d . .
O2 O 0.3241(4) 0.8454(3) 0.21038(12) 0.0350(6) Uani 1 1 d . .
C1 C 0.6630(5) 0.7630(3) 0.14010(15) 0.0239(7) Uani 1 1 d . .
C2 C 0.7049(6) 0.6459(3) 0.18630(16) 0.0261(7) Uani 1 1 d . .
H2A H 0.5660 0.6177 0.2058 0.031 Uiso 1 1 calc R U
H2B H 0.7619 0.5717 0.1602 0.031 Uiso 1 1 calc R U
C3 C 0.8643(5) 0.6768(3) 0.24179(15) 0.0246(7) Uani 1 1 d . .
H3A H 0.8612 0.6038 0.2738 0.029 Uiso 1 1 calc R U
H3B H 1.0117 0.6808 0.2231 0.029 Uiso 1 1 calc R U
C4 C 0.8191(5) 0.8051(3) 0.27817(15) 0.0223(6) Uani 1 1 d . .
C5 C 0.9358(6) 0.8298(3) 0.34112(15) 0.0235(7) Uani 1 1 d . .
C6 C 0.8485(6) 0.9154(3) 0.38798(15) 0.0273(7) Uani 1 1 d . .
H6 H 0.7134 0.9563 0.3798 0.033 Uiso 1 1 calc R U
C7 C 0.9574(6) 0.9415(3) 0.44657(16) 0.0296(7) Uani 1 1 d . .
H7 H 0.8941 0.9986 0.4780 0.036 Uiso 1 1 calc R U
C8 C 1.1583(5) 0.8847(3) 0.45961(14) 0.0260(7) Uani 1 1 d . .
C9 C 1.2452(6) 0.7984(3) 0.41300(15) 0.0272(7) Uani 1 1 d . .
H9 H 1.3812 0.7586 0.4211 0.033 Uiso 1 1 calc R U
C10 C 1.1352(6) 0.7700(3) 0.35470(15) 0.0258(7) Uani 1 1 d . .
H10 H 1.1956 0.7099 0.3242 0.031 Uiso 1 1 calc R U
C11 C 0.8696(6) 0.8204(4) 0.10934(18) 0.0377(9) Uani 1 1 d . .
H11A H 0.9682 0.8484 0.1442 0.057 Uiso 1 1 calc R U
H11B H 0.8320 0.8959 0.0819 0.057 Uiso 1 1 calc R U
H11C H 0.9400 0.7534 0.0823 0.057 Uiso 1 1 calc R U
C12 C 0.4975(6) 0.7259(3) 0.08631(16) 0.0341(8) Uani 1 1 d . .
H12A H 0.4713 0.8019 0.0580 0.051 Uiso 1 1 calc R U
H12B H 0.3618 0.6988 0.1069 0.051 Uiso 1 1 calc R U
H12C H 0.5547 0.6535 0.0599 0.051 Uiso 1 1 calc R U
C13 C 1.2800(6) 0.9153(4) 0.52341(16) 0.0354(8) Uani 1 1 d . .
H13A H 1.3609 0.8376 0.5374 0.053 Uiso 1 1 calc R U
H13B H 1.1764 0.9397 0.5576 0.053 Uiso 1 1 calc R U
H13C H 1.3802 0.9881 0.5159 0.053 Uiso 1 1 calc R U
loop_
_atom_site_aniso_label
_atom_site_aniso_U_11
_atom_site_aniso_U_22
_atom_site_aniso_U_33
_atom_site_aniso_U_23
_atom_site_aniso_U_13
_atom_site_aniso_U_12
S1 0.0227(4) 0.0214(4) 0.0248(4) -0.0002(3) -0.0037(3) 0.0005(3)
N1 0.0288(15) 0.0258(13) 0.0251(12) -0.0026(11) -0.0038(11) 0.0045(12)
O1 0.0460(16) 0.0239(11) 0.0424(13) 0.0070(10) -0.0182(13) -0.0034(11)
O2 0.0215(13) 0.0481(16) 0.0354(13) -0.0018(11) -0.0009(10) -0.0008(11)
C1 0.0221(16) 0.0248(15) 0.0250(15) -0.0021(12) -0.0002(13) -0.0014(13)
C2 0.0285(17) 0.0212(14) 0.0287(15) -0.0036(12) -0.0011(14) -0.0004(12)
C3 0.0268(16) 0.0218(14) 0.0251(14) -0.0014(12) -0.0011(13) 0.0022(13)
C4 0.0213(16) 0.0223(15) 0.0233(14) 0.0004(12) 0.0038(12) 0.0002(13)
C5 0.0244(17) 0.0224(14) 0.0237(14) 0.0019(12) 0.0032(13) 0.0009(13)
C6 0.0256(18) 0.0282(17) 0.0282(16) -0.0020(12) -0.0005(13) 0.0049(14)
C7 0.0311(18) 0.0292(16) 0.0286(15) -0.0053(13) -0.0006(15) 0.0036(15)
C8 0.0286(17) 0.0265(15) 0.0230(14) 0.0040(13) -0.0010(12) -0.0046(14)
C9 0.0221(17) 0.0325(17) 0.0269(15) 0.0042(13) -0.0021(13) 0.0039(14)
C10 0.0256(17) 0.0296(16) 0.0222(14) 0.0021(12) 0.0020(14) 0.0062(13)
C11 0.0270(19) 0.054(2) 0.0322(17) 0.0068(17) 0.0068(16) -0.0031(17)
C12 0.038(2) 0.0358(18) 0.0284(15) -0.0066(14) -0.0110(15) -0.0013(15)
C13 0.042(2) 0.0354(18) 0.0286(16) -0.0002(14) -0.0103(16) -0.0002(16)
loop_
_atom_type_symbol
_atom_type_description
_atom_type_scat_dispersion_real
_atom_type_scat_dispersion_imag
_atom_type_scat_source
C C 0.0033 0.0016 'International Tables Vol C Tables 4.2.6.8 and 6.1.1.4'
H H 0.0000 0.0000 'International Tables Vol C Tables 4.2.6.8 and 6.1.1.4'
N N 0.0061 0.0033 'International Tables Vol C Tables 4.2.6.8 and 6.1.1.4'
O O 0.0106 0.0060 'International Tables Vol C Tables 4.2.6.8 and 6.1.1.4'
S S 0.1246 0.1234 'International Tables Vol C Tables 4.2.6.8 and 6.1.1.4'
loop_
_geom_angle_atom_site_label_1
_geom_angle_atom_site_label_2
_geom_angle_atom_site_label_3
_geom_angle
O1 S1 O2 117.03(16)
O1 S1 N1 106.19(14)
O2 S1 N1 107.31(14)
O1 S1 C1 109.67(15)
O2 S1 C1 109.58(15)
N1 S1 C1 106.48(14)
C4 N1 S1 123.5(2)
C11 C1 C2 113.7(3)
C11 C1 C12 110.8(3)
C2 C1 C12 110.8(3)
C11 C1 S1 108.6(2)
C2 C1 S1 105.2(2)
C12 C1 S1 107.3(2)
C3 C2 C1 113.5(2)
C4 C3 C2 114.5(3)
N1 C4 C5 115.8(3)
N1 C4 C3 126.0(3)
C5 C4 C3 118.2(3)
C6 C5 C10 118.4(3)
C6 C5 C4 120.3(3)
C10 C5 C4 121.4(3)
C7 C6 C5 121.0(3)
C6 C7 C8 120.9(3)
C7 C8 C9 118.2(3)
C7 C8 C13 120.9(3)
C9 C8 C13 120.9(3)
C10 C9 C8 121.2(3)
C9 C10 C5 120.3(3)
loop_
_geom_bond_atom_site_label_1
_geom_bond_atom_site_label_2
_geom_bond_distance
S1 O1 1.430(2)
S1 O2 1.437(3)
S1 N1 1.652(3)
S1 C1 1.797(3)
N1 C4 1.286(4)
C1 C11 1.526(5)
C1 C2 1.527(4)
C1 C12 1.533(4)
C2 C3 1.519(4)
C3 C4 1.514(4)
C4 C5 1.479(4)
C5 C6 1.388(4)
C5 C10 1.391(5)
C6 C7 1.383(5)
C7 C8 1.385(5)
C8 C9 1.388(4)
C8 C13 1.520(4)
C9 C10 1.387(5)
