#------------------------------------------------------------------------------
#$Date: 2017-10-05 10:23:55 +0300 (Thu, 05 Oct 2017) $
#$Revision: 201739 $
#$URL: file:///home/coder/svn-repositories/cod/cif/1/54/75/1547588.cif $
#------------------------------------------------------------------------------
#
# This file is available in the Crystallography Open Database (COD),
# http://www.crystallography.net/
#
# All data on this site have been placed in the public domain by the
# contributors.
#
data_1547588
loop_
_publ_author_name
'Mwenda, Edward T.'
'Nguyen, Hien M.'
_publ_section_title
;
 Enantioselective Synthesis of 1,2-Diamines Containing Tertiary and
 Quaternary Centers through Rhodium-Catalyzed DYKAT of Racemic Allylic
 Trichloroacetimidates.
;
_journal_issue                   18
_journal_name_full               'Organic letters'
_journal_page_first              4814
_journal_page_last               4817
_journal_paper_doi               10.1021/acs.orglett.7b02256
_journal_volume                  19
_journal_year                    2017
_chemical_absolute_configuration ad
_chemical_formula_sum            'C21 H26 N2 O3 S'
_chemical_formula_weight         386.50
_space_group_crystal_system      monoclinic
_space_group_IT_number           4
_space_group_name_Hall           'P 2yb'
_space_group_name_H-M_alt        'P 1 21 1'
_symmetry_space_group_name_Hall  'P 2yb'
_symmetry_space_group_name_H-M   'P 1 21 1'
_atom_sites_solution_hydrogens   geom
_audit_creation_method           SHELXL-2014/7
_cell_angle_alpha                90
_cell_angle_beta                 99.675(5)
_cell_angle_gamma                90
_cell_formula_units_Z            2
_cell_length_a                   6.3983(6)
_cell_length_b                   8.7684(9)
_cell_length_c                   17.9628(18)
_cell_measurement_reflns_used    6133
_cell_measurement_temperature    190(2)
_cell_measurement_theta_max      25.6
_cell_measurement_theta_min      2.3
_cell_volume                     993.43(17)
_computing_cell_refinement       'APEXII (Bruker-AXS,2015)'
_computing_data_collection       'APEXII (Bruker-AXS,2015)'
_computing_data_reduction        'APEXII (Bruker-AXS,2015)'
_computing_structure_refinement  'SHELXL-2014/7 (Sheldrick, 2014)'
_computing_structure_solution    'Shelxt, APEXII (Bruker-AXS,2015)'
_diffrn_ambient_temperature      190(2)
_diffrn_measured_fraction_theta_full 0.999
_diffrn_measured_fraction_theta_max 0.996
_diffrn_measurement_device_type  'Bruker Nonius KappaCCD-ApexII'
_diffrn_measurement_method       'CCD phi and omega scans'
_diffrn_radiation_type           MoK\a
_diffrn_radiation_wavelength     0.71073
_diffrn_reflns_av_R_equivalents  0.0296
_diffrn_reflns_av_unetI/netI     0.0339
_diffrn_reflns_Laue_measured_fraction_full 0.999
_diffrn_reflns_Laue_measured_fraction_max 0.996
_diffrn_reflns_limit_h_max       8
_diffrn_reflns_limit_h_min       -7
_diffrn_reflns_limit_k_max       11
_diffrn_reflns_limit_k_min       -11
_diffrn_reflns_limit_l_max       24
_diffrn_reflns_limit_l_min       -24
_diffrn_reflns_number            15946
_diffrn_reflns_point_group_measured_fraction_full 0.999
_diffrn_reflns_point_group_measured_fraction_max 0.994
_diffrn_reflns_theta_full        25.242
_diffrn_reflns_theta_max         28.995
_diffrn_reflns_theta_min         2.592
_exptl_absorpt_coefficient_mu    0.187
_exptl_absorpt_correction_type   multi-scans
_exptl_absorpt_process_details   'SADABS APEXII (Bruker-AXS, 2015)'
_exptl_crystal_colour            colorless
_exptl_crystal_density_diffrn    1.292
_exptl_crystal_description       plate
_exptl_crystal_F_000             412
_exptl_crystal_size_max          0.390
_exptl_crystal_size_mid          0.220
_exptl_crystal_size_min          0.080
_refine_diff_density_max         0.186
_refine_diff_density_min         -0.204
_refine_diff_density_rms         0.034
_refine_ls_abs_structure_details
;
 Flack x determined using 1832 quotients [(I+)-(I-)]/[(I+)+(I-)]
 (Parsons, Flack and Wagner, Acta Cryst. B69 (2013) 249-259).

 The conformation of the N1 to C5 ring is disordered and associated 
 with disorder in the C7-C8 double bond. The relative occupancy
 refined to 0.731(8) for part1 and 0.269(8) for part2 (the 
 primed labels). The N1, C2, C3, C4, C5 ring is a C3 envelope
 and the N1, C2', C3', C4', C5' ring is a C4' envelope. Associated
 with change in the 5-member ring conformation is an ~145 degree
 rotation about the C6-(double bond centroid) direction.
 
 The anisotropic displacement parameters for partial atoms in close
 proximity ( <0.3A) were constrained to be the same (C2' C2'; C5,C5', 
 C6, C6'). The anisotropic displacement parameters for N1 > N9 
 (this includes both disordered parts) were restrained with the
 rigid bond restraint. The bond distances of the two disordered
 parts were restrained to be the same (e.g. N1-C2 = N1-C2';
 C2-C3 = C2'-C3', etc.)


;
_refine_ls_abs_structure_Flack   0.02(2)
_refine_ls_extinction_method     none
_refine_ls_goodness_of_fit_ref   1.021
_refine_ls_hydrogen_treatment    constr
_refine_ls_matrix_type           full
_refine_ls_number_parameters     293
_refine_ls_number_reflns         5261
_refine_ls_number_restraints     130
_refine_ls_restrained_S_all      1.015
_refine_ls_R_factor_all          0.0454
_refine_ls_R_factor_gt           0.0355
_refine_ls_shift/su_max          0.001
_refine_ls_shift/su_mean         0.000
_refine_ls_structure_factor_coef Fsqd
_refine_ls_weighting_details
'w=1/[\s^2^(Fo^2^)+(0.0478P)^2^+0.0504P] where P=(Fo^2^+2Fc^2^)/3'
_refine_ls_weighting_scheme      calc
_refine_ls_wR_factor_gt          0.0818
_refine_ls_wR_factor_ref         0.0871
_reflns_Friedel_coverage         0.879
_reflns_Friedel_fraction_full    1.000
_reflns_Friedel_fraction_max     0.992
_reflns_number_gt                4552
_reflns_number_total             5261
_reflns_threshold_expression     'I > 2\s(I)'
_cod_data_source_file            ol7b02256_si_002.cif
_cod_data_source_block           ngu171
_cod_database_code               1547588
_shelx_shelxl_version_number     2014/7
_shelx_space_group_comment
;
The symmetry employed for this shelxl refinement is uniquely defined
by the following loop, which should always be used as a source of
symmetry information in preference to the above space-group names.
They are only intended as comments.
;
_shelx_estimated_absorpt_t_min   0.931
_shelx_estimated_absorpt_t_max   0.985
_shelx_res_file
;

    ngu171.res created by SHELXL-2014/7


TITL ngu171_a.res in P2(1)
REM Old TITL Ngu17_1 in P2(1)   sample #17068  edo-13-103

REM SHELXT solution in P2(1)
REM R1 0.111,  Rweak 0.035,  Alpha 0.003,  Orientation as input
REM Flack x =  0.049 ( 0.022 ) from Parsons' quotients
REM Formula found by SHELXT:  C21 N O4 S

CELL  0.71073   6.3983   8.7684  17.9628   90.000   99.675   90.000
ZERR    2.000   0.0006   0.0009   0.0018    0.000    0.005    0.000
LATT -1
SYMM -X, 1/2+Y, -Z
SFAC C H N O S
UNIT 42 52 4 6 2
TEMP -83
SIZE 0.08 0.22 0.39
L.S. 10
BOND $H
HTAB N9 O2
CONF
ACTA
LIST 6
FMAP 2
PLAN -20
omit  0 0 2
shel  9. 0.
sadi  0.01 c5 c6 c5' c6'
sadi  0.01 c6 c7 c6' c7'
sadi  0.01 c7 c8 c7' c8'
eadp  c6 c6'
eadp  c5 c5'
eadp  c2 c2'
sadi  0.01 n9 c6 n9 c6'
sadi  0.01 n1 c2 n1 c2'
sadi  0.01 n1 c5 n1 c5'
sadi  0.01 c5 c4 c5' c4'
sadi  0.01 c2 c3 c2' c3'
sadi  0.01 c3 c4 c3' c4'
rigu  n1 > n9
WGHT    0.047800    0.050400
FVAR       0.31285   0.73119   0.70262
S1    5    0.568877    0.410345    0.828334    11.00000    0.03442    0.03814 =
         0.03267    0.00061    0.00781    0.00334
O2    4    0.624445    0.347392    0.760526    11.00000    0.04639    0.04239 =
         0.04204    0.00082    0.01889    0.00681
O1    4    0.730499    0.437805    0.892259    11.00000    0.04085    0.06078 =
         0.04622    0.00087   -0.00211    0.00170
N1    3    0.456377    0.574357    0.804939    11.00000    0.03874    0.03623 =
         0.03393   -0.00021    0.00865    0.00255
PART   1
C2    1    0.379255    0.661075    0.865958    21.00000    0.05854    0.04151 =
         0.04386   -0.00720    0.01738    0.00303
AFIX  23
H2A   2    0.435852    0.766385    0.869327    21.00000   -1.20000
H2B   2    0.420688    0.610118    0.915418    21.00000   -1.20000
AFIX   0
C3    1    0.138280    0.660876    0.841789    21.00000    0.05279    0.05749 =
         0.05113    0.00091    0.02874    0.01016
AFIX  23
H3A   2    0.075344    0.562605    0.853772    21.00000   -1.20000
H3B   2    0.070992    0.745039    0.865894    21.00000   -1.20000
AFIX   0
C4    1    0.118184    0.684234    0.757707    21.00000    0.03267    0.05473 =
         0.06074   -0.00034    0.01419    0.00750
AFIX  23
H4A   2    0.123492    0.794260    0.745798    21.00000   -1.20000
H4B   2   -0.017923    0.642162    0.731345    21.00000   -1.20000
AFIX   0
C5    1    0.306300    0.599719    0.732747    21.00000    0.03212    0.03178 =
         0.03668    0.00198    0.00829    0.00234
AFIX  13
H5    2    0.256619    0.498866    0.710505    21.00000   -1.20000
PART   2
AFIX   0
C2'   1    0.357568    0.652474    0.863841   -21.00000    0.05854    0.04151 =
         0.04386   -0.00720    0.01738    0.00303
AFIX  23
H2'1  2    0.447509    0.737793    0.886707   -21.00000   -1.20000
H2'2  2    0.335485    0.580282    0.904179   -21.00000   -1.20000
AFIX   0
C3'   1    0.145582    0.711400    0.821524   -21.00000    0.07215    0.07534 =
         0.04888    0.00239    0.02704    0.02079
AFIX  23
H3A'  2    0.034234    0.700024    0.853304   -21.00000   -1.20000
H3B'  2    0.157444    0.820777    0.809213   -21.00000   -1.20000
AFIX   0
C4'   1    0.088539    0.619290    0.749776   -21.00000    0.04479    0.04834 =
         0.04166   -0.00009    0.01585    0.00550
AFIX  23
H4A'  2    0.010158    0.682388    0.708596   -21.00000   -1.20000
H4B'  2    0.000708    0.529877    0.757989   -21.00000   -1.20000
AFIX   0
C5'   1    0.305019    0.568738    0.731012   -21.00000    0.03212    0.03178 =
         0.03668    0.00198    0.00829    0.00234
AFIX  13
H5'   2    0.295264    0.462384    0.710624   -21.00000   -1.20000
AFIX   0
PART   0
PART   1
C6    1    0.407357    0.691200    0.674476    21.00000    0.04439    0.03295 =
         0.03468    0.00355    0.01248    0.00471
AFIX  13
H6    2    0.295547    0.725295    0.631993    21.00000   -1.20000
AFIX   0
C7    1    0.527942    0.828635    0.712058    21.00000    0.03544    0.03499 =
         0.03738   -0.00107    0.01276    0.00232
AFIX  43
H7    2    0.645624    0.810587    0.750914    21.00000   -1.20000
AFIX   0
C8    1    0.478525    0.968652    0.693846    21.00000    0.06013    0.03616 =
         0.06461    0.00033    0.02311    0.00427
AFIX  93
H8B   2    0.361584    0.990004    0.655186    21.00000   -1.20000
H8A   2    0.559242    1.049938    0.719156    21.00000   -1.20000
AFIX   0
PART   2
C6'   1    0.396379    0.676472    0.676399   -21.00000    0.04439    0.03295 =
         0.03468    0.00355    0.01248    0.00471
AFIX  13
H6'   2    0.279405    0.672621    0.631864   -21.00000   -1.20000
AFIX   0
C7'   1    0.394347    0.845883    0.694928   -21.00000    0.03917    0.03599 =
         0.04790    0.00913    0.01687    0.01064
AFIX  43
H7'   2    0.263686    0.899704    0.688489   -21.00000   -1.20000
AFIX   0
C8'   1    0.568153    0.916229    0.719178   -21.00000    0.05157    0.03062 =
         0.09457    0.00615    0.01328    0.00763
AFIX  93
H8B'  2    0.699015    0.862657    0.725663   -21.00000   -1.20000
H8A'  2    0.566065    1.021920    0.730660   -21.00000   -1.20000
AFIX   0
PART   0
N9    3    0.558755    0.595801    0.646431    11.00000    0.05354    0.04548 =
         0.04466    0.01441    0.02326    0.01337
AFIX  43
H9    2    0.595462    0.509673    0.670223    11.00000   -1.20000
AFIX   0
C10   1    0.650819    0.631424    0.583909    11.00000    0.03682    0.03396 =
         0.03036   -0.00068    0.00676   -0.00307
C11   1    0.819525    0.543983    0.568899    11.00000    0.04699    0.03730 =
         0.04114    0.00513    0.00868    0.00758
AFIX  43
H11   2    0.873057    0.465099    0.603103    11.00000   -1.20000
AFIX   0
C12   1    0.912190    0.568073    0.505699    11.00000    0.04157    0.04249 =
         0.04360   -0.00361    0.01201    0.00575
AFIX  43
H12   2    1.026780    0.505768    0.496649    11.00000   -1.20000
AFIX   0
C13   1    0.837447    0.683010    0.455851    11.00000    0.03471    0.04022 =
         0.03010   -0.00416    0.00677   -0.00527
C14   1    0.669891    0.772682    0.469657    11.00000    0.03875    0.04291 =
         0.03206    0.00494    0.00322    0.00021
AFIX  43
H14   2    0.617614    0.851695    0.435343    11.00000   -1.20000
AFIX   0
C15   1    0.578239    0.748009    0.532998    11.00000    0.03440    0.04018 =
         0.03641    0.00043    0.00671    0.00469
AFIX  43
H15   2    0.464436    0.811089    0.542064    11.00000   -1.20000
AFIX   0
O13   4    0.917839    0.715423    0.390672    11.00000    0.04539    0.05810 =
         0.03819    0.00147    0.01577   -0.00284
C16   1    1.102931    0.634724    0.379553    11.00000    0.04378    0.07229 =
         0.04902   -0.01009    0.01888   -0.00462
AFIX 137
H16A  2    1.151361    0.673118    0.334119    11.00000   -1.50000
H16B  2    1.070216    0.525793    0.373462    11.00000   -1.50000
H16C  2    1.214760    0.649652    0.423416    11.00000   -1.50000
AFIX   0
C17   1    0.378797    0.290259    0.858491    11.00000    0.03984    0.03370 =
         0.03195    0.00299    0.01008    0.00654
C18   1    0.373821    0.275579    0.935129    11.00000    0.05368    0.04639 =
         0.03155    0.00416    0.00755    0.00503
AFIX  43
H18   2    0.477085    0.325134    0.971263    11.00000   -1.20000
AFIX   0
C19   1    0.217058    0.188130    0.958211    11.00000    0.06422    0.04790 =
         0.03448    0.00997    0.02041    0.01009
AFIX  43
H19   2    0.214854    0.177230    1.010692    11.00000   -1.20000
AFIX   0
C20   1    0.063594    0.116182    0.907132    11.00000    0.05026    0.03702 =
         0.05107    0.00984    0.02333    0.01030
C21   1    0.072912    0.130427    0.830490    11.00000    0.04987    0.04083 =
         0.04594    0.00133    0.00955   -0.00356
AFIX  43
H21   2   -0.029910    0.080014    0.794536    11.00000   -1.20000
AFIX   0
C22   1    0.229093    0.216616    0.805714    11.00000    0.05058    0.03764 =
         0.03238    0.00066    0.01195   -0.00104
AFIX  43
H22   2    0.233761    0.225249    0.753300    11.00000   -1.20000
AFIX   0
C23   1   -0.112432    0.026153    0.933102    11.00000    0.06640    0.06052 =
         0.07879    0.01682    0.03838    0.00150
AFIX 137
H23A  2   -0.051352   -0.047220    0.971882    11.00000   -1.50000
H23B  2   -0.193107   -0.028601    0.890067    11.00000   -1.50000
H23C  2   -0.206937    0.095926    0.954191    11.00000   -1.50000

AFIX   0
HKLF 4

REM  ngu171_a.res in P2(1)
REM R1 =  0.0355 for    4552 Fo > 4sig(Fo)  and  0.0454 for all    5261 data
REM    293 parameters refined using    130 restraints

END

WGHT      0.0477      0.0505

REM Highest difference peak  0.186,  deepest hole -0.204,  1-sigma level  0.034
Q1    1   0.4842  0.3278  0.8427  11.00000  0.05    0.19
Q2    1   0.3715  0.6371  0.7099  11.00000  0.05    0.16
Q3    1   0.6600  0.7255  0.5707  11.00000  0.05    0.15
Q4    1   0.6316  0.5415  0.6809  11.00000  0.05    0.14
Q5    1   0.7359  0.4168  0.7570  11.00000  0.05    0.14
Q6    1   0.0973  0.1063  0.8721  11.00000  0.05    0.14
Q7    1   0.8893  0.7079  0.4342  11.00000  0.05    0.14
Q8    1   0.7875  0.7501  0.4728  11.00000  0.05    0.14
Q9    1   0.2588  0.2630  0.9414  11.00000  0.05    0.13
Q10   1   0.2183  0.6392  0.7373  11.00000  0.05    0.13
Q11   1   0.5741  0.6637  0.6691  11.00000  0.05    0.13
Q12   1   0.7552  0.7298  0.4604  11.00000  0.05    0.12
Q13   1  -0.2422  0.0587  0.9021  11.00000  0.05    0.12
Q14   1   0.6934  0.5582  0.5691  11.00000  0.05    0.12
Q15   1   0.5897  0.6628  0.5478  11.00000  0.05    0.12
Q16   1   0.5984  0.6232  0.6112  11.00000  0.05    0.12
Q17   1   0.7761  0.5189  0.8895  11.00000  0.05    0.12
Q18   1   0.8261  0.5876  0.4676  11.00000  0.05    0.12
Q19   1   0.3581  0.5820  0.7563  11.00000  0.05    0.12
Q20   1   0.7129  0.7051  0.4510  11.00000  0.05    0.12
;
_shelx_res_checksum              60795
_shelx_hkl_file
;
   1   0   0  221.35    5.27
   1   0   0  211.14    5.10
  -1   0   0  224.82    5.19
  -1   0   0  215.71    5.05
   2   0   0   75.25    1.84
  -2   0   0   74.93    1.84
   2   0   0   75.07    1.83
   2   0   0   75.13    1.83
  -2   0   0   73.46    1.84
   3   0   0    4.46    0.26
   3   0   0    4.50    0.26
   3   0   0    4.14    0.28
   3   0   0    4.50    0.28
  -3   0   0    4.38    0.29
  -3   0   0    3.46    0.26
  -4   0   0   82.24    2.10
   4   0   0   81.99    2.12
   4   0   0   81.50    2.06
   4   0   0   77.28    2.10
   4   0   0   81.09    2.06
  -4   0   0   81.89    2.12
   5   0   0    0.19    0.16
  -5   0   0    0.39    0.20
   5   0   0   -0.04    0.14
   5   0   0    0.41    0.19
  -5   0   0    0.14    0.17
   5   0   0    0.16    0.16
  -6   0   0   20.35    0.82
   6   0   0   20.62    0.86
   6   0   0   20.72    0.77
   6   0   0   20.65    0.75
  -6   0   0   21.89    0.88
   6   0   0   20.66    0.78
   7   0   0    0.71    0.25
   7   0   0    0.27    0.29
   8   0   0    1.77    0.42
   8   0   0    1.80    0.34
   0  -1   0   -0.75    0.06
   0   1   0   -0.64    0.06
  -1  -1   0  103.90    2.44
   1  -1   0  100.61    2.38
  -1  -1   0  101.61    2.41
   1   1   0  100.11    2.41
   1   1   0  105.21    2.44
  -1   1   0  100.58    2.38
   2  -1   0   18.26    0.54
   2  -1   0   18.70    0.55
  -2  -1   0   18.38    0.57
  -2  -1   0   17.95    0.56
   2  -1   0   17.55    0.53
   2   1   0   18.53    0.56
   2   1   0   18.16    0.58
  -2   1   0   17.92    0.53
   2   1   0   17.96    0.57
   3  -1   0    6.39    0.32
   3  -1   0    6.72    0.33
  -3  -1   0    6.10    0.35
  -3  -1   0    5.87    0.32
   3  -1   0    5.83    0.32
   3   1   0    6.44    0.34
  -3   1   0    6.44    0.33
  -3   1   0    5.92    0.29
   3   1   0    6.10    0.34
   3   1   0    5.99    0.30
   4  -1   0   14.85    0.58
   4  -1   0   15.68    0.57
   4  -1   0   14.90    0.57
  -4  -1   0   15.51    0.61
  -4  -1   0   15.37    0.60
   4   1   0   15.00    0.59
  -4   1   0   16.39    0.58
   4   1   0   14.51    0.59
   4   1   0   16.18    0.56
   4   1   0   15.47    0.59
  -4   1   0   14.90    0.58
   4   1   0   15.42    0.56
  -5  -1   0    9.85    0.53
   5  -1   0   11.64    0.49
   5  -1   0   10.83    0.55
  -5  -1   0   11.02    0.57
   5  -1   0   11.94    0.47
   5  -1   0   11.71    0.54
   5  -1   0   11.29    0.52
   5   1   0   11.94    0.55
   5   1   0   11.56    0.56
  -5   1   0   11.71    0.55
   5   1   0   11.49    0.46
   5   1   0   11.58    0.50
  -5   1   0   10.43    0.51
   5   1   0   11.52    0.52
   6  -1   0    7.84    0.53
  -6  -1   0    8.07    0.56
   6  -1   0    7.31    0.48
   6  -1   0    8.97    0.43
  -6  -1   0    6.89    0.50
   6  -1   0    8.41    0.46
  -6   1   0    7.51    0.47
   6   1   0    8.51    0.47
   6   1   0    8.43    0.49
  -6   1   0    9.18    0.55
   6   1   0    8.01    0.50
   6   1   0    7.48    0.42
   7  -1   0    1.34    0.36
   7  -1   0    1.41    0.33
   7  -1   0    1.64    0.31
   7   1   0    1.18    0.29
   7   1   0    1.27    0.35
   7   1   0    1.23    0.29
  -7   1   0    1.43    0.33
   8  -1   0    1.15    0.40
   8   1   0    1.45    0.42
   8   1   0    1.45    0.33
   0  -2   0  552.38   13.31
   0   2   0  551.82   13.28
   1  -2   0  433.72   10.11
  -1  -2   0  447.55   10.38
   1  -2   0  439.06   10.29
  -1  -2   0  415.40   10.28
   1  -2   0  432.47   10.06
   1   2   0  442.65   10.42
  -1   2   0  416.46   10.10
  -1   2   0  436.32   10.35
   2  -2   0   13.01    0.41
   2  -2   0   13.34    0.46
  -2  -2   0   14.09    0.49
  -2  -2   0   14.27    0.52
   2  -2   0   13.52    0.46
   2   2   0   14.22    0.52
   2   2   0   13.55    0.47
   2   2   0   13.31    0.47
  -2   2   0   13.26    0.41
   3  -2   0   17.22    0.59
   3  -2   0   17.04    0.56
  -3  -2   0   16.86    0.63
  -3  -2   0   16.64    0.64
   3  -2   0   17.73    0.59
  -3   2   0   18.30    0.57
   3   2   0   18.62    0.61
   3   2   0   18.13    0.61
   3   2   0   18.03    0.62
   3   2   0   18.12    0.65
   4  -2   0   34.42    1.00
  -4  -2   0   34.23    1.09
   4  -2   0   33.24    1.02
  -4  -2   0   33.19    1.05
   4  -2   0   34.69    1.03
  -4   2   0   33.04    0.99
   4   2   0   32.09    1.03
   4   2   0   34.15    1.02
   4   2   0   33.95    1.07
  -4   2   0   33.52    1.01
   4   2   0   33.81    1.00
   4   2   0   35.42    1.03
   5  -2   0   14.80    0.66
  -5  -2   0   16.36    0.73
  -5  -2   0   17.62    0.73
   5  -2   0   17.02    0.60
   5  -2   0   17.11    0.58
   5  -2   0   16.63    0.65
   5  -2   0   17.10    0.66
   5   2   0   16.53    0.64
   5   2   0   16.00    0.66
   5   2   0   16.63    0.70
  -5   2   0   16.36    0.65
  -5   2   0   16.97    0.66
   5   2   0   15.86    0.64
   5   2   0   16.93    0.71
   6  -2   0    0.58    0.25
   6  -2   0    0.44    0.26
   6  -2   0    0.54    0.21
  -6  -2   0    1.13    0.30
  -6  -2   0    0.46    0.26
   6   2   0    0.64    0.26
   6   2   0    0.38    0.20
   6   2   0    0.66    0.27
  -6   2   0    0.67    0.22
  -6   2   0    0.65    0.23
   6   2   0    0.81    0.29
   6   2   0    0.88    0.31
   7  -2   0    6.39    0.52
   7  -2   0    5.86    0.56
   7   2   0    6.08    0.49
  -7   2   0    4.95    0.48
   7   2   0    7.11    0.54
   7   2   0    6.43    0.48
   7   2   0    5.97    0.58
   8  -2   0    1.43    0.40
   8  -2   0    0.98    0.36
   8   2   0    1.31    0.41
   8   2   0    1.15    0.34
   0  -3   0    0.08    0.15
   0   3   0   -0.15    0.11
   1  -3   0  190.64    4.49
  -1  -3   0  189.32    4.47
   1  -3   0  188.56    4.44
  -1  -3   0  189.10    4.59
  -1   3   0  194.09    4.56
   1   3   0  192.52    4.59
   2  -3   0  118.68    2.85
   2  -3   0  120.47    2.96
  -2  -3   0  125.46    3.06
   2  -3   0  122.05    2.95
  -2  -3   0  118.39    2.96
   2   3   0  124.60    3.05
   2   3   0  122.84    3.05
  -2   3   0  120.06    2.86
   3  -3   0    7.67    0.37
  -3  -3   0    8.19    0.46
   3  -3   0    7.86    0.39
  -3  -3   0    7.35    0.40
   3  -3   0    7.71    0.33
   3   3   0    7.90    0.38
   3   3   0    8.12    0.39
   3   3   0    7.11    0.38
   3   3   0    7.82    0.44
  -3   3   0    7.28    0.32
   3   3   0    7.95    0.40
   4  -3   0    8.37    0.43
   4  -3   0    8.54    0.39
  -4  -3   0    8.15    0.47
  -4  -3   0    7.53    0.48
   4  -3   0    8.28    0.45
   4   3   0    7.70    0.42
   4   3   0    8.14    0.45
   4   3   0    8.49    0.44
   4   3   0    7.00    0.43
   4   3   0    8.35    0.48
  -4   3   0    7.91    0.37
   5  -3   0    7.44    0.38
   5  -3   0    8.78    0.39
   5  -3   0    8.97    0.51
  -5  -3   0    9.63    0.56
  -5  -3   0    8.43    0.54
   5  -3   0    8.46    0.49
  -5   3   0    8.38    0.43
   5   3   0    7.55    0.50
   5   3   0    8.37    0.46
   5   3   0    8.07    0.52
   5   3   0    8.74    0.49
   5   3   0    8.62    0.51
  -5   3   0    9.02    0.48
  -6  -3   0    5.84    0.54
   6  -3   0    5.79    0.48
   6  -3   0    5.05    0.42
  -6  -3   0    5.28    0.51
   6   3   0    5.73    0.46
   6   3   0    5.90    0.45
   6   3   0    5.76    0.45
  -6   3   0    6.72    0.45
  -6   3   0    4.64    0.40
   6   3   0    5.66    0.53
   7  -3   0    0.67    0.31
   7  -3   0    0.55    0.31
   7   3   0    0.21    0.25
   7   3   0    0.41    0.28
  -7   3   0    0.70    0.25
   7   3   0    0.89    0.31
   7   3   0    0.63    0.33
   8  -3   0    0.11    0.34
   8  -3   0    0.05    0.32
   8   3   0    0.54    0.32
   8   3   0    0.42    0.27
   8   3   0    0.11    0.28
   0  -4   0   69.35    1.86
   0  -4   0   68.74    1.67
   0  -4   0   69.74    1.72
   0   4   0   70.43    1.87
  -1  -4   0   20.44    0.76
  -1  -4   0   21.50    0.58
   1  -4   0   20.38    0.51
   1  -4   0   21.09    0.64
  -1  -4   0   21.89    0.62
  -1   4   0   19.72    0.72
   1   4   0   20.24    0.72
   1   4   0   19.71    0.73
   2  -4   0   33.88    0.84
  -2  -4   0   33.86    0.98
   2  -4   0   33.95    0.98
   2  -4   0   33.43    0.99
  -2  -4   0   33.62    1.10
  -2   4   0   33.78    0.84
   2   4   0   33.15    0.99
   2   4   0   34.77    1.11
   2   4   0   33.55    0.99
  -2   4   0   34.40    1.04
  -3  -4   0    6.53    0.46
  -3  -4   0    7.76    0.42
   3  -4   0    7.62    0.30
   3  -4   0    7.59    0.41
   3  -4   0    7.21    0.38
   3   4   0    7.06    0.46
  -3   4   0    6.90    0.39
   3   4   0    6.67    0.41
   3   4   0    6.90    0.39
   3   4   0    8.16    0.42
  -3   4   0    7.52    0.29
   4  -4   0    2.69    0.31
  -4  -4   0    3.40    0.40
   4  -4   0    2.92    0.24
  -4  -4   0    3.21    0.32
   4  -4   0    3.18    0.34
   4   4   0    3.24    0.39
   4   4   0    3.17    0.33
   4   4   0    3.45    0.37
  -4   4   0    2.85    0.24
   4   4   0    3.17    0.34
   5  -4   0    2.38    0.25
   5  -4   0    2.00    0.32
  -5  -4   0    1.97    0.36
   5  -4   0    2.29    0.31
  -5  -4   0    2.06    0.31
  -5   4   0    1.91    0.24
  -5   4   0    2.55    0.31
   5   4   0    2.26    0.32
   5   4   0    2.18    0.34
   5   4   0    2.77    0.38
   6  -4   0    7.77    0.56
  -6  -4   0    7.35    0.68
   6  -4   0    6.86    0.52
  -6  -4   0    5.98    0.56
   6   4   0    7.00    0.49
   6   4   0    6.81    0.51
  -6   4   0    7.16    0.45
   6   4   0    6.41    0.49
   6   4   0    6.92    0.53
   7  -4   0    4.54    0.52
   7  -4   0    2.91    0.46
   7   4   0    3.16    0.46
   7   4   0    3.27    0.48
   7   4   0    3.58    0.45
   8  -4   0    0.74    0.37
   8  -4   0    0.68    0.36
   8   4   0    0.89    0.32
   8   4   0    0.61    0.38
   8   4   0    0.15    0.27
   0  -5   0    0.00    0.08
   0  -5   0   -0.07    0.10
   0  -5   0    0.07    0.15
   0   5   0   -0.26    0.18
  -1  -5   0   14.98    0.47
  -1  -5   0   14.52    0.64
   1  -5   0   14.33    0.53
   1  -5   0   14.89    0.37
  -1  -5   0   13.73    0.49
   1   5   0   14.78    0.54
   1   5   0   13.56    0.65
  -1   5   0   14.04    0.63
   1   5   0   14.58    0.55
   2  -5   0   41.00    0.98
  -2  -5   0   40.62    1.16
  -2  -5   0   40.51    1.32
  -2  -5   0   40.52    1.05
   2  -5   0   41.48    1.18
   2  -5   0   40.23    1.18
   2   5   0   39.98    1.19
  -2   5   0   41.34    1.27
   2   5   0   41.33    1.19
   2   5   0   41.32    1.33
   3  -5   0   57.83    1.39
  -3  -5   0   57.84    1.74
  -3  -5   0   57.06    1.41
   3  -5   0   55.57    1.58
  -3  -5   0   57.86    1.59
   3  -5   0   55.57    1.57
  -3   5   0   54.75    1.39
   3   5   0   54.55    1.62
   3   5   0   57.57    1.74
   3   5   0   53.92    1.57
   3   5   0   55.47    1.60
  -3   5   0   56.31    1.64
  -4  -5   0    1.83    0.30
  -4  -5   0    2.02    0.37
   4  -5   0    1.54    0.27
   4  -5   0    2.34    0.23
   4  -5   0    2.66    0.31
  -4   5   0    1.81    0.19
  -4   5   0    2.11    0.31
   4   5   0    2.01    0.34
   4   5   0    1.68    0.30
   4   5   0    1.40    0.26
  -5  -5   0    7.20    0.61
   5  -5   0    7.74    0.51
   5  -5   0    7.72    0.54
  -5  -5   0    8.31    0.57
   5   5   0    8.97    0.53
  -5   5   0    7.11    0.40
   5   5   0    7.72    0.54
   5   5   0    9.06    0.56
  -5   5   0    7.95    0.50
   6  -5   0    2.25    0.38
  -6  -5   0    2.61    0.45
   6  -5   0    2.28    0.37
   6   5   0    3.12    0.44
   6   5   0    3.50    0.43
   6   5   0    2.76    0.46
   7  -5   0    2.05    0.42
   7  -5   0    1.73    0.41
   7   5   0    1.63    0.37
   7   5   0    1.58    0.38
   7   5   0    2.49    0.45
   0  -6   0   13.96    0.43
   0  -6   0   14.20    0.68
   0  -6   0   13.73    0.51
   0   6   0   14.36    0.69
   0   6   0   14.11    0.53
  -1  -6   0   23.42    0.92
   1  -6   0   23.87    0.58
  -1  -6   0   23.39    0.72
   1  -6   0   23.53    0.58
   1  -6   0   22.34    0.77
  -1  -6   0   24.25    0.71
  -1   6   0   23.90    0.93
   1   6   0   22.84    0.92
   1   6   0   24.37    0.80
   1   6   0   25.79    0.81
  -2  -6   0    5.91    0.51
   2  -6   0    5.85    0.39
  -2  -6   0    6.67    0.29
  -2  -6   0    7.38    0.38
   2  -6   0    6.24    0.40
   2   6   0    6.44    0.41
   2   6   0    6.81    0.41
  -2   6   0    6.54    0.47
  -3  -6   0   16.72    0.68
   3  -6   0   17.44    0.71
   3  -6   0   16.03    0.68
  -3  -6   0   16.62    0.84
   3   6   0   15.39    0.73
   3   6   0   16.62    0.70
  -3   6   0   16.24    0.75
   3   6   0   17.62    0.72
   4  -6   0    3.01    0.36
  -4  -6   0    2.94    0.45
   4  -6   0    3.61    0.40
  -4  -6   0    3.19    0.36
   4   6   0    3.60    0.41
  -4   6   0    3.23    0.23
  -4   6   0    2.82    0.39
   4   6   0    2.82    0.41
   4   6   0    3.49    0.41
   5  -6   0    1.51    0.32
  -5  -6   0    1.78    0.42
   5  -6   0    1.73    0.37
  -5  -6   0    1.89    0.35
   5   6   0    1.54    0.36
   5   6   0    0.97    0.34
   5   6   0    2.09    0.34
   6  -6   0    5.35    0.53
  -6  -6   0    4.09    0.58
   6  -6   0    4.43    0.49
   6   6   0    4.85    0.55
   6   6   0    4.77    0.52
   6   6   0    4.53    0.54
   7  -6   0    3.27    0.47
   7  -6   0    3.58    0.51
   7   6   0    3.79    0.52
   7   6   0    3.76    0.51
   7   6   0    3.42    0.53
   0  -7   0   -0.02    0.08
   0  -7   0   -0.35    0.14
   0  -7   0    0.06    0.16
   0   7   0    0.00    0.17
  -1  -7   0    1.36    0.18
  -1  -7   0    0.94    0.31
  -1  -7   0    1.67    0.21
   1  -7   0    1.19    0.24
   1   7   0    1.59    0.26
  -1   7   0    1.30    0.21
   1   7   0    1.63    0.27
   2  -7   0   14.55    0.65
  -2  -7   0   15.10    0.51
  -2  -7   0   14.09    0.80
  -2  -7   0   13.85    0.57
   2  -7   0   14.04    0.63
   2   7   0   14.40    0.64
   2   7   0   14.03    0.65
  -3  -7   0    4.22    0.52
   3  -7   0    3.40    0.39
   3  -7   0    3.59    0.40
  -3  -7   0    3.83    0.38
   3   7   0    4.03    0.43
   3   7   0    3.39    0.40
   3   7   0    3.99    0.47
  -4  -7   0    6.88    0.51
  -4  -7   0    6.88    0.66
   4  -7   0    6.80    0.49
   4  -7   0    6.68    0.52
   4   7   0    7.36    0.54
   4   7   0    6.82    0.57
   4   7   0    7.54    0.50
  -5  -7   0    4.83    0.70
   5  -7   0    6.47    0.59
   5  -7   0    5.18    0.52
   5   7   0    5.94    0.59
   5   7   0    4.82    0.55
   5   7   0    5.92    0.57
   6  -7   0    2.30    0.45
   6  -7   0    1.88    0.40
   6   7   0    2.13    0.47
   6   7   0    2.45    0.45
   6   7   0    2.65    0.49
   0  -8   0    7.29    0.29
   0  -8   0    7.13    0.42
   0  -8   0    7.24    0.61
   0   8   0    7.39    0.45
  -1  -8   0    1.98    0.41
   1  -8   0    2.09    0.30
  -1  -8   0    2.18    0.22
  -1  -8   0    2.19    0.26
   1   8   0    1.99    0.30
  -1   8   0    3.03    0.30
  -2  -8   0    0.34    0.17
   2  -8   0    0.36    0.24
   2  -8   0    0.19    0.23
  -2  -8   0    0.37    0.26
   2   8   0    0.04    0.23
   2   8   0    0.26    0.23
  -3  -8   0    4.39    0.57
   3  -8   0    4.60    0.47
   3  -8   0    5.17    0.46
  -3  -8   0    6.04    0.46
   3   8   0    5.25    0.51
   3   8   0    4.92    0.56
   3   8   0    5.22    0.51
   4  -8   0    6.12    0.54
   4  -8   0    6.67    0.59
  -4  -8   0    7.49    0.57
   4   8   0    5.83    0.58
   4   8   0    5.13    0.55
   4   8   0    4.70    0.59
   5  -8   0    1.76    0.36
   5  -8   0    2.30    0.41
   5   8   0    3.13    0.49
   5   8   0    2.51    0.46
   5   8   0    2.24    0.48
   6  -8   0    0.17    0.36
   6  -8   0    0.57    0.34
   6   8   0    0.47    0.37
   6   8   0    0.13    0.37
   6   8   0    0.49    0.39
   0  -9   0    0.19    0.23
   0   9   0   -0.02    0.21
  -1  -9   0    0.40    0.36
   1  -9   0    0.73    0.26
  -1  -9   0    1.01    0.24
  -1   9   0    0.61    0.20
   1   9   0    0.73    0.26
   2  -9   0    5.66    0.54
   2  -9   0    5.40    0.51
   2   9   0    6.52    0.51
   2   9   0    5.12    0.51
   3  -9   0    3.93    0.49
   3  -9   0    3.47    0.45
  -3  -9   0    3.87    0.41
   3   9   0    3.51    0.46
   3   9   0    3.10    0.50
   3   9   0    3.54    0.44
   4  -9   0    1.81    0.38
   4  -9   0    1.52    0.41
  -4  -9   0    1.24    0.33
   4   9   0    1.29    0.38
   4   9   0    1.09    0.41
   4   9   0    1.22    0.40
   5  -9   0    4.63    0.58
   5  -9   0    4.51    0.58
   5   9   0    3.58    0.58
   5   9   0    4.11    0.56
   5   9   0    3.82    0.56
   0 -10   0    1.58    0.31
   0  10   0    1.61    0.31
   1 -10   0    1.54    0.33
  -1  10   0    1.00    0.32
   1  10   0    1.11    0.31
   2 -10   0    0.71    0.33
   2 -10   0    0.77    0.34
   2  10   0    0.64    0.32
   3 -10   0   -0.06    0.29
   3 -10   0    0.29    0.33
   3  10   0    0.07    0.32
   3  10   0   -0.21    0.37
   3  10   0    0.22    0.33
   4 -10   0   -0.03    0.26
   4 -10   0   -0.09    0.30
   4  10   0    0.32    0.36
   4  10   0    0.61    0.40
   4  10   0    0.56    0.45
   0 -11   0    0.16    0.26
   0  11   0    0.24    0.27
   1 -11   0    2.13    0.39
   1  11   0    1.61    0.35
   2 -11   0    1.40    0.41
   2 -11   0    1.24    0.38
   2  11   0    0.66    0.36
   3 -11   0    0.14    0.37
   3 -11   0    0.71    0.36
   3  11   0    0.59    0.39
   3  11   0    0.12    0.44
   8   0  -1    1.55    0.36
   8   0  -1    1.59    0.41
   7   0  -1    0.52    0.28
   7   0  -1    0.84    0.32
  -7   0   1    0.75    0.35
   6   0  -1   11.71    0.51
   6   0  -1   11.33    0.54
  -6   0   1    9.38    0.51
  -6   0   1   11.49    0.63
   6   0  -1   10.84    0.61
   5   0  -1   13.42    0.54
  -5   0   1   12.07    0.53
   5   0  -1   13.08    0.54
   5   0  -1   12.59    0.49
   5   0  -1   11.54    0.57
  -5   0   1   12.84    0.60
  -4   0   1    5.90    0.33
   4   0  -1    6.51    0.38
   4   0  -1    6.21    0.33
  -4   0   1    5.70    0.37
   4   0  -1    6.14    0.36
   4   0  -1    6.18    0.33
   3   0  -1    3.81    0.26
  -3   0   1    3.21    0.22
   3   0  -1    4.25    0.28
  -3   0   1    3.64    0.27
   3   0  -1    3.79    0.23
   3   0  -1    4.08    0.24
  -2   0   1  127.08    3.07
   2   0  -1  126.08    3.03
   2   0  -1  133.79    3.05
   2   0  -1  128.02    3.06
  -2   0   1  130.66    3.04
   2   0  -1  127.57    3.07
  -1   0   1   95.13    2.24
   1   0  -1   89.02    2.16
  -1   0   1   91.06    2.16
   1   0  -1   91.65    2.23
   0   0  -1   -0.07    0.01
   0   0   1   -0.05    0.01
  -1   0  -1   31.42    0.81
   1   0   1   31.79    0.82
  -1   0  -1   31.67    0.80
   2   0   1   31.25    0.88
   2   0   1   32.03    0.85
  -2   0  -1   32.88    0.88
  -2   0  -1   31.58    0.87
   3   0   1    0.31    0.14
  -3   0  -1    0.30    0.12
   3   0   1    0.47    0.14
  -3   0  -1    0.13    0.13
   3   0   1    0.29    0.12
   4   0   1   63.93    1.75
   4   0   1   66.52    1.70
   4   0   1   68.36    1.73
   4   0   1   65.17    1.71
  -4   0  -1   66.16    1.78
  -4   0  -1   65.31    1.78
  -5   0  -1   -0.05    0.16
   5   0   1   -0.28    0.13
   5   0   1   -0.05    0.16
  -5   0  -1    0.07    0.18
   5   0   1    0.19    0.15
   5   0   1    0.19    0.17
   6   0   1    0.54    0.22
   6   0   1    0.49    0.21
  -6   0  -1    0.47    0.25
  -6   0  -1    0.56    0.22
   6   0   1    0.54    0.23
   6   0   1   -0.07    0.24
   7   0   1   -0.09    0.18
   7   0   1   -0.01    0.28
   7   0   1   -0.10    0.23
   8   0   1    0.56    0.33
   8  -1  -1    1.83    0.44
   8  -1  -1    2.44    0.38
   8   1  -1    2.31    0.38
   8   1  -1    2.36    0.47
   7  -1  -1   10.37    0.68
   7  -1  -1   12.25    0.61
  -7   1   1   12.91    0.71
   7   1  -1   12.23    0.71
   6  -1  -1    1.15    0.31
  -6  -1   1    0.56    0.22
   6  -1  -1    1.01    0.24
  -6  -1   1    1.00    0.28
   6  -1  -1    0.71    0.25
   6   1  -1    1.24    0.24
   6   1  -1    0.48    0.23
  -6   1   1    0.99    0.27
   6   1  -1    1.12    0.24
  -6   1   1    0.80    0.21
   6   1  -1    0.88    0.29
   5  -1  -1    4.11    0.34
  -5  -1   1    2.68    0.34
   5  -1  -1    2.97    0.32
   5  -1  -1    3.59    0.34
  -5  -1   1    2.68    0.30
   5  -1  -1    3.56    0.36
  -5   1   1    3.11    0.28
   5   1  -1    3.53    0.32
   5   1  -1    3.43    0.31
  -5   1   1    3.24    0.33
   5   1  -1    3.55    0.35
   5   1  -1    3.05    0.32
   5   1  -1    3.51    0.29
  -4  -1   1    6.10    0.36
   4  -1  -1    6.97    0.33
  -4  -1   1    7.24    0.41
   4  -1  -1    5.94    0.37
   4  -1  -1    6.84    0.37
   4  -1  -1    6.80    0.36
   4   1  -1    6.61    0.35
   4   1  -1    7.12    0.38
  -4   1   1    6.54    0.37
  -4   1   1    6.40    0.33
   4   1  -1    7.26    0.39
   4   1  -1    6.45    0.36
   3  -1  -1   39.78    1.11
   3  -1  -1   40.80    1.12
   3  -1  -1   40.65    1.11
  -3  -1   1   39.77    1.13
  -3  -1   1   42.85    1.13
   3   1  -1   38.41    1.12
  -3   1   1   41.02    1.11
  -3   1   1   40.34    1.07
   3   1  -1   42.80    1.13
   3   1  -1   40.29    1.14
   2  -1  -1    6.94    0.28
  -2  -1   1    6.28    0.31
  -2  -1   1    6.83    0.29
   2  -1  -1    6.61    0.29
   2  -1  -1    6.61    0.28
   2   1  -1    7.57    0.31
   2   1  -1    7.34    0.29
   2   1  -1    7.34    0.32
  -2   1   1    7.25    0.28
  -1  -1   1  169.75    4.05
   1  -1  -1  166.76    4.12
  -1  -1   1  175.98    4.06
   1   1  -1  185.96    4.17
   1   1  -1  171.53    4.05
  -1   1   1  172.73    4.08
   0  -1  -1  297.95    7.00
   0  -1   1  277.13    6.80
   0   1  -1  287.74    7.04
   0   1   1  308.61    7.10
  -1  -1  -1  518.46   12.08
   1   1   1  510.01   12.10
  -1   1  -1  480.91   11.79
   2  -1   1   43.65    1.11
  -2  -1  -1   43.33    1.16
   2  -1   1   41.74    1.09
  -2  -1  -1   41.69    1.13
   2  -1   1   43.57    1.10
   2   1   1   42.08    1.11
  -2   1  -1   43.12    1.09
   2   1   1   42.90    1.16
  -3  -1  -1   45.03    1.28
  -3  -1  -1   46.33    1.31
   3  -1   1   47.98    1.26
   3  -1   1   47.29    1.25
   3  -1   1   46.84    1.25
   3   1   1   47.15    1.20
   3   1   1   47.36    1.31
  -3   1  -1   46.79    1.25
   3   1   1   48.37    1.28
  -3   1  -1   46.36    1.27
   4  -1   1    2.52    0.26
  -4  -1  -1    2.37    0.27
   4  -1   1    2.66    0.27
  -4  -1  -1    2.19    0.27
   4   1   1    2.99    0.24
  -4   1  -1    2.75    0.28
   4   1   1    2.73    0.27
   4   1   1    2.18    0.26
   4   1   1    2.32    0.25
  -4   1  -1    2.64    0.25
   4   1   1    2.60    0.28
   4   1   1    2.70    0.30
   5  -1   1   24.11    0.79
   5  -1   1   24.02    0.80
   5  -1   1   25.74    0.85
  -5  -1  -1   24.49    0.91
  -5  -1  -1   22.71    0.90
   5  -1   1   25.26    0.88
   5   1   1   26.00    0.85
  -5   1  -1   25.21    0.88
   5   1   1   25.02    0.89
   5   1   1   25.54    0.84
   5   1   1   26.27    0.92
   5   1   1   25.15    0.79
  -5   1  -1   24.98    0.89
   6  -1   1   16.11    0.64
  -6  -1  -1   16.08    0.75
   6  -1   1   16.35    0.64
   6  -1   1   16.70    0.75
   6  -1   1   17.15    0.71
  -6  -1  -1   18.39    0.81
  -6   1  -1   17.05    0.75
   6   1   1   16.15    0.69
   6   1   1   17.54    0.65
   6   1   1   16.74    0.76
  -6   1  -1   16.31    0.73
   6   1   1   17.00    0.69
   7  -1   1    3.18    0.41
   7  -1   1    3.64    0.48
   7  -1   1    3.61    0.39
  -7   1  -1    3.15    0.42
   7   1   1    4.21    0.44
   7   1   1    4.04    0.42
   7   1   1    3.41    0.46
   8  -1   1   -0.17    0.31
   8   1   1   -0.02    0.31
   8   1   1    0.25    0.29
   8  -2  -1    0.03    0.33
   8   2  -1    0.40    0.29
   8   2  -1    0.25    0.34
   7  -2  -1    1.97    0.30
   7  -2  -1    1.47    0.36
   7  -2  -1    1.41    0.35
  -7   2   1    1.99    0.34
   7   2  -1    1.66    0.37
   7   2  -1    1.68    0.31
   7   2  -1    2.30    0.41
   7   2  -1    1.64    0.30
   6  -2  -1    7.04    0.47
  -6  -2   1    5.03    0.50
   6  -2  -1    5.07    0.38
  -6  -2   1    6.53    0.48
   6  -2  -1    5.05    0.48
   6   2  -1    5.87    0.43
   6   2  -1    5.71    0.42
   6   2  -1    5.29    0.43
  -6   2   1    5.69    0.40
   6   2  -1    6.04    0.47
   6   2  -1    5.37    0.40
  -6   2   1    6.25    0.48
  -5  -2   1   13.57    0.63
   5  -2  -1   13.41    0.54
  -5  -2   1   14.62    0.67
   5  -2  -1   14.86    0.60
   5  -2  -1   13.37    0.62
   5  -2  -1   14.51    0.62
   5   2  -1   13.89    0.61
  -5   2   1   13.66    0.55
   5   2  -1   12.97    0.62
   5   2  -1   13.28    0.61
   5   2  -1   13.52    0.57
   5   2  -1   14.38    0.58
  -5   2   1   13.63    0.59
   4  -2  -1   17.33    0.62
  -4  -2   1   18.00    0.69
   4  -2  -1   16.05    0.64
   4  -2  -1   17.54    0.64
   4  -2  -1   18.43    0.60
  -4  -2   1   17.27    0.66
  -4   2   1   18.01    0.62
   4   2  -1   17.46    0.68
   4   2  -1   18.20    0.63
   4   2  -1   16.37    0.63
  -4   2   1   17.12    0.59
   4   2  -1   17.49    0.66
   4   2  -1   18.12    0.63
   4   2  -1   17.89    0.66
  -3  -2   1   61.51    1.60
  -3  -2   1   58.70    1.58
   3  -2  -1   58.26    1.51
   3  -2  -1   59.79    1.55
   3  -2  -1   56.74    1.55
   3   2  -1   58.05    1.56
  -3   2   1   60.06    1.52
   3   2  -1   56.93    1.56
   3   2  -1   60.27    1.59
   3   2  -1   59.51    1.56
   2  -2  -1   35.93    0.91
   2  -2  -1   35.59    0.95
  -2  -2   1   33.04    0.96
   2  -2  -1   36.58    0.95
  -2  -2   1   35.10    1.00
   2   2  -1   35.40    0.96
   2   2  -1   34.80    0.96
  -2   2   1   35.27    0.91
   2   2  -1   33.17    0.99
   1  -2  -1  238.99    5.75
   1  -2  -1  260.80    5.69
   1  -2  -1  247.72    5.71
  -1  -2   1  233.99    5.66
  -1  -2   1  241.93    5.73
   1   2  -1  253.85    5.74
  -1   2   1  238.98    5.82
   1   2  -1  233.18    5.66
  -1   2   1  244.92    5.69
   0  -2   1   96.36    2.29
   0  -2  -1   99.66    2.41
   0  -2   1   97.46    2.41
   0   2  -1  102.15    2.42
   0   2   1   99.58    2.41
  -1  -2  -1  444.87   10.49
   1  -2   1  466.33   10.58
   1  -2   1  453.12   10.39
  -1   2  -1  429.14   10.36
   1   2   1  438.44   10.50
  -2  -2  -1   18.18    0.58
   2  -2   1   17.74    0.57
   2  -2   1   18.45    0.56
  -2  -2  -1   19.65    0.66
   2  -2   1   18.42    0.52
   2   2   1   17.61    0.57
   2   2   1   18.67    0.64
  -2   2  -1   17.73    0.52
   3  -2   1   52.28    1.38
  -3  -2  -1   51.35    1.46
  -3  -2  -1   51.48    1.42
   3  -2   1   51.15    1.38
   3  -2   1   50.98    1.34
  -3   2  -1   51.22    1.34
   3   2   1   50.10    1.39
   3   2   1   53.54    1.40
   3   2   1   53.27    1.47
   3   2   1   51.08    1.37
   4  -2   1    1.27    0.22
   4  -2   1    0.97    0.21
  -4  -2  -1    1.16    0.23
  -4  -2  -1    1.64    0.25
   4   2   1    1.80    0.23
   4   2   1    1.60    0.25
  -4   2  -1    1.14    0.19
  -4   2  -1    1.24    0.20
   4   2   1    1.37    0.23
   4   2   1    1.32    0.22
   4   2   1    1.08    0.22
   5  -2   1    9.87    0.48
  -5  -2  -1   10.06    0.56
   5  -2   1    9.45    0.44
   5  -2   1    9.62    0.51
   5  -2   1    9.95    0.44
  -5  -2  -1    7.82    0.52
  -5   2  -1    9.60    0.51
   5   2   1    9.81    0.50
   5   2   1    9.39    0.49
  -5   2  -1    9.93    0.50
   5   2   1    9.67    0.57
   5   2   1    9.68    0.53
   5   2   1    9.19    0.47
  -6  -2  -1    2.44    0.37
   6  -2   1    2.13    0.27
   6  -2   1    2.29    0.36
   6  -2   1    2.60    0.30
  -6  -2  -1    2.17    0.36
   6  -2   1    2.53    0.35
   6   2   1    2.45    0.38
   6   2   1    2.68    0.33
   6   2   1    2.40    0.33
  -6   2  -1    2.41    0.33
  -6   2  -1    2.81    0.33
   6   2   1    2.19    0.33
   7  -2   1    7.45    0.56
   7  -2   1    8.23    0.60
  -7   2  -1    8.80    0.59
   7   2   1    6.61    0.51
   7   2   1    7.71    0.50
   7   2   1    7.64    0.53
   7   2   1    7.82    0.60
   8  -2   1    1.64    0.43
   8  -2   1    2.02    0.40
   8   2   1    2.06    0.45
   8   2   1    1.22    0.33
   8  -3  -1    1.08    0.41
   8  -3  -1    2.14    0.43
   8   3  -1    2.22    0.48
   8   3  -1    3.06    0.49
   8   3  -1    2.14    0.37
   7  -3  -1    5.37    0.56
   7  -3  -1    4.90    0.52
   7   3  -1    4.38    0.54
   7   3  -1    4.72    0.47
   7   3  -1    4.72    0.49
  -7   3   1    4.89    0.47
   7   3  -1    4.69    0.45
  -6  -3   1    3.99    0.47
  -6  -3   1    4.82    0.49
   6  -3  -1    4.28    0.45
   6  -3  -1    4.85    0.36
   6  -3  -1    4.29    0.46
   6   3  -1    4.41    0.44
   6   3  -1    4.33    0.41
  -6   3   1    4.09    0.39
   6   3  -1    4.71    0.48
   6   3  -1    5.11    0.47
  -5  -3   1    0.27    0.20
   5  -3  -1   -0.29    0.12
   5  -3  -1    0.29    0.17
  -5  -3   1   -0.11    0.21
   5  -3  -1    0.18    0.21
   5  -3  -1   -0.11    0.18
   5   3  -1    0.00    0.19
  -5   3   1    0.15    0.14
   5   3  -1   -0.01    0.19
  -5   3   1    0.15    0.17
   5   3  -1   -0.29    0.16
   5   3  -1    0.26    0.22
   5   3  -1    0.04    0.19
   4  -3  -1   23.71    0.83
   4  -3  -1   24.45    0.75
  -4  -3   1   25.32    0.91
   4  -3  -1   24.29    0.83
  -4  -3   1   25.07    0.88
   4  -3  -1   24.15    0.78
   4   3  -1   24.42    0.81
   4   3  -1   25.83    0.90
  -4   3   1   24.95    0.78
   4   3  -1   23.96    0.83
   4   3  -1   25.41    0.84
   4   3  -1   24.93    0.85
   3  -3  -1   12.55    0.50
   3  -3  -1   12.40    0.49
  -3  -3   1   12.56    0.56
   3  -3  -1   12.17    0.44
  -3  -3   1   12.17    0.52
  -3   3   1   13.00    0.44
   3   3  -1   12.65    0.51
   3   3  -1   14.08    0.53
   3   3  -1   12.79    0.56
   3   3  -1   11.90    0.50
   3   3  -1   12.92    0.50
   3   3  -1   12.26    0.51
  -2  -3   1   64.26    1.65
  -2  -3   1   62.22    1.73
   2  -3  -1   63.58    1.57
   2  -3  -1   63.26    1.65
   2  -3  -1   64.51    1.66
  -2   3   1   65.62    1.57
   2   3  -1   66.47    1.66
   2   3  -1   65.16    1.74
  -2   3   1   64.11    1.66
  -1  -3   1  107.06    2.64
   1  -3  -1  104.66    2.47
   1  -3  -1  108.26    2.54
   1  -3  -1  105.55    2.60
  -1  -3   1  104.95    2.52
   1   3  -1  102.55    2.64
  -1   3   1  104.91    2.60
   0  -3   1   30.82    0.92
   0  -3   1   31.77    0.76
   0  -3   1   32.01    0.82
   0  -3  -1   30.52    0.91
   0   3  -1   30.04    0.92
   0   3   1   29.54    0.90
   1  -3   1  121.45    2.88
  -1  -3  -1  121.47    2.98
   1   3   1  118.33    2.98
  -1   3  -1  117.99    2.95
  -2  -3  -1   39.42    1.20
   2  -3   1   39.45    1.11
   2  -3   1   42.12    1.10
  -2  -3  -1   38.97    1.11
   2   3   1   41.33    1.12
   2   3   1   41.54    1.21
  -2   3  -1   39.76    1.00
   3  -3   1    6.65    0.34
  -3  -3  -1    7.16    0.44
  -3  -3  -1    6.28    0.38
   3  -3   1    6.64    0.34
   3   3   1    6.25    0.41
  -3   3  -1    5.90    0.28
   3   3   1    6.54    0.37
   3   3   1    6.76    0.36
   3   3   1    6.56    0.36
   4  -3   1   34.99    1.09
   4  -3   1   36.17    1.09
  -4  -3  -1   34.53    1.19
  -4  -3  -1   37.67    1.15
  -4   3  -1   35.51    1.03
   4   3   1   35.26    1.19
   4   3   1   36.21    1.08
   4   3   1   35.35    1.11
   4   3   1   36.87    1.12
   4   3   1   35.89    1.10
  -5  -3  -1   14.49    0.73
   5  -3   1   14.64    0.65
   5  -3   1   14.76    0.66
   5  -3   1   15.38    0.54
  -5  -3  -1   13.72    0.66
   5  -3   1   15.15    0.56
   5   3   1   14.34    0.67
   5   3   1   15.42    0.66
   5   3   1   14.15    0.62
   5   3   1   14.77    0.66
  -5   3  -1   14.18    0.64
  -5   3  -1   15.38    0.60
   5   3   1   13.93    0.70
   6  -3   1    7.18    0.51
  -6  -3  -1    7.32    0.56
  -6  -3  -1    5.16    0.54
   6  -3   1    6.16    0.53
   6   3   1    6.43    0.50
   6   3   1    6.05    0.47
  -6   3  -1    6.22    0.46
  -6   3  -1    5.48    0.42
   6   3   1    6.34    0.47
   6   3   1    6.08    0.54
   7  -3   1    1.88    0.37
   7  -3   1    1.47    0.36
   7   3   1    2.12    0.37
   7   3   1    1.55    0.33
  -7   3  -1    1.62    0.29
   7   3   1    1.36    0.38
   7   3   1    1.62    0.36
   8  -3   1    0.24    0.31
   8  -3   1    0.13    0.33
   8   3   1    0.25    0.35
   8   3   1    0.73    0.33
   8   3   1    0.13    0.28
   8   3   1   -0.05    0.24
   8  -4  -1    2.20    0.45
   8  -4  -1    2.11    0.45
   8   4  -1    2.31    0.45
   8   4  -1    2.07    0.40
   8   4  -1    1.37    0.37
   7  -4  -1    1.61    0.38
   7  -4  -1    1.42    0.37
   7   4  -1    1.68    0.39
   7   4  -1    1.34    0.32
   7   4  -1    0.94    0.35
   7   4  -1    1.75    0.41
  -6  -4   1    4.02    0.49
  -6  -4   1    4.73    0.50
   6  -4  -1    6.07    0.53
   6  -4  -1    4.29    0.45
   6   4  -1    4.72    0.45
   6   4  -1    4.91    0.51
   6   4  -1    5.47    0.52
  -6   4   1    4.70    0.41
   6   4  -1    4.61    0.49
   5  -4  -1    6.14    0.45
   5  -4  -1    5.51    0.34
  -5  -4   1    5.55    0.49
  -5  -4   1    5.84    0.50
   5  -4  -1    4.88    0.39
   5  -4  -1    6.32    0.38
  -5   4   1    5.98    0.37
   5   4  -1    5.85    0.46
   5   4  -1    5.33    0.42
  -5   4   1    5.24    0.37
   5   4  -1    6.14    0.51
   5   4  -1    5.98    0.45
   4  -4  -1    7.58    0.36
  -4  -4   1    8.15    0.45
   4  -4  -1    7.43    0.44
   4  -4  -1    8.34    0.37
  -4  -4   1    8.09    0.55
   4  -4  -1    8.65    0.47
   4   4  -1    7.19    0.44
   4   4  -1    7.19    0.45
   4   4  -1    7.71    0.46
  -4   4   1    7.73    0.37
  -4   4   1    7.40    0.41
   4   4  -1    7.69    0.51
   3  -4  -1    5.84    0.33
  -3  -4   1    5.79    0.43
   3  -4  -1    5.86    0.36
  -3  -4   1    5.66    0.34
   3  -4  -1    5.60    0.26
   3   4  -1    5.48    0.35
   3   4  -1    4.52    0.39
  -3   4   1    4.72    0.33
  -3   4   1    5.51    0.26
   3   4  -1    5.82    0.36
   3   4  -1    4.75    0.36
   2  -4  -1   73.52    1.94
   2  -4  -1   72.46    1.93
  -2  -4   1   76.04    2.06
   2  -4  -1   75.47    1.81
  -2  -4   1   78.74    1.85
  -2  -4   1   73.54    1.92
  -2   4   1   75.47    1.82
   2   4  -1   74.28    1.94
   2   4  -1   77.77    2.07
   2   4  -1   76.04    1.96
  -2   4   1   77.51    1.99
  -1  -4   1   22.44    0.65
  -1  -4   1   22.26    0.80
   1  -4  -1   21.84    0.76
   1  -4  -1   23.07    0.59
  -1  -4   1   23.27    0.65
   1  -4  -1   23.09    0.69
   1   4  -1   22.99    0.80
  -1   4   1   22.96    0.77
   0  -4   1   25.46    0.85
   0  -4   1   27.23    0.75
   0  -4   1   26.98    0.67
   0  -4  -1   26.83    0.72
   0  -4  -1   25.49    0.87
   0   4  -1   26.09    0.86
   0   4   1   25.43    0.85
  -1  -4  -1   10.67    0.39
   1  -4   1   10.83    0.42
  -1  -4  -1   10.73    0.50
  -1   4  -1    9.78    0.46
   1   4   1   10.85    0.43
   1   4   1   10.07    0.49
   2  -4   1   68.91    1.78
  -2  -4  -1   69.88    1.78
   2  -4   1   68.79    1.76
  -2  -4  -1   66.99    1.90
   2   4   1   69.48    1.82
  -2   4  -1   66.47    1.84
  -2   4  -1   66.81    1.60
   2   4   1   65.71    1.89
   2   4   1   68.32    1.78
   2   4   1   69.09    1.79
   3  -4   1    7.00    0.37
  -3  -4  -1    7.37    0.50
  -3  -4  -1    7.89    0.42
   3  -4   1    6.93    0.40
   3   4   1    8.03    0.50
   3   4   1    7.80    0.44
   3   4   1    8.08    0.42
   3   4   1    7.34    0.40
  -3   4  -1    7.23    0.29
  -4  -4  -1   19.54    0.76
   4  -4   1   18.79    0.72
  -4  -4  -1   17.91    0.82
   4  -4   1   18.69    0.63
   4  -4   1   17.14    0.68
   4   4   1   17.36    0.69
  -4   4  -1   17.92    0.61
   4   4   1   17.91    0.81
   4   4   1   18.30    0.74
   4   4   1   18.18    0.72
   5  -4   1    4.00    0.41
   5  -4   1    3.42    0.38
   5  -4   1    3.77    0.29
  -5  -4  -1    3.81    0.42
  -5  -4  -1    3.71    0.46
   5   4   1    3.85    0.40
   5   4   1    3.38    0.38
  -5   4  -1    3.92    0.38
   5   4   1    3.52    0.42
  -5   4  -1    3.27    0.30
   6  -4   1    0.67    0.29
  -6  -4  -1    1.01    0.32
   6  -4   1    0.79    0.28
  -6   4  -1    0.70    0.19
   6   4   1    0.62    0.29
   6   4   1    0.41    0.25
   6   4   1    0.81    0.32
   7  -4   1    1.05    0.34
   7  -4   1    0.68    0.33
   7   4   1    0.94    0.35
   7   4   1   -0.05    0.27
   7   4   1   -0.07    0.25
   8  -4   1    1.26    0.40
   8  -4   1    0.53    0.37
   8   4   1    1.87    0.43
   8   4   1    1.60    0.36
   8   4   1    1.50    0.41
   7  -5  -1    1.93    0.42
   7  -5  -1    1.93    0.37
   7   5  -1    2.42    0.44
   7   5  -1    1.60    0.40
   7   5  -1    1.77    0.39
   6  -5  -1    0.31    0.29
   6  -5  -1    0.80    0.30
  -6  -5   1    0.33    0.29
   6   5  -1    0.13    0.25
   6   5  -1   -0.18    0.25
   6   5  -1    0.79    0.31
   5  -5  -1    3.60    0.42
  -5  -5   1    4.07    0.43
  -5  -5   1    3.43    0.46
   5  -5  -1    3.62    0.40
   5  -5  -1    3.72    0.30
  -5   5   1    3.80    0.47
  -5   5   1    3.49    0.30
   5   5  -1    3.20    0.42
   5   5  -1    3.84    0.44
   5   5  -1    3.41    0.40
   4  -5  -1    8.06    0.35
  -4  -5   1    6.59    0.54
   4  -5  -1    7.92    0.49
   4  -5  -1    8.42    0.39
  -4  -5   1    7.37    0.49
   4  -5  -1    7.71    0.47
   4   5  -1    7.37    0.45
   4   5  -1    8.34    0.52
   4   5  -1    7.12    0.47
  -4   5   1    7.88    0.47
  -4   5   1    8.21    0.36
   3  -5  -1   34.45    1.08
   3  -5  -1   34.79    0.92
  -3  -5   1   35.89    0.95
   3  -5  -1   34.59    1.08
  -3  -5   1   35.52    1.23
  -3  -5   1   36.94    1.10
  -3   5   1   35.24    0.93
  -3   5   1   35.49    1.13
   3   5  -1   34.94    1.09
   3   5  -1   34.33    1.08
   3   5  -1   33.65    1.21
   2  -5  -1   20.72    0.73
  -2  -5   1   21.75    0.63
   2  -5  -1   21.20    0.72
  -2  -5   1   22.13    0.71
  -2  -5   1   22.71    0.87
   2  -5  -1   21.64    0.57
   2   5  -1   21.02    0.85
   2   5  -1   21.08    0.74
   2   5  -1   21.24    0.74
  -2   5   1   20.48    0.78
  -1  -5   1   71.05    1.73
   1  -5  -1   68.27    1.89
   1  -5  -1   68.74    1.77
   1  -5  -1   68.15    1.64
  -1  -5   1   65.07    1.91
  -1  -5   1   66.88    1.71
   1   5  -1   70.46    1.79
   1   5  -1   70.49    1.80
  -1   5   1   69.33    1.91
   1   5  -1   67.26    1.94
   0  -5  -1   43.22    1.33
   0  -5  -1   43.95    1.17
   0  -5   1   44.44    1.09
   0  -5   1   43.68    1.19
   0  -5   1   44.75    1.36
   0   5  -1   44.50    1.21
   0   5  -1   44.60    1.37
   0   5   1   45.45    1.37
   1  -5   1   21.11    0.70
  -1  -5  -1   22.68    0.86
  -1  -5  -1   22.74    0.63
  -1  -5  -1   22.04    0.68
   1   5   1   21.83    0.72
   1   5   1   21.14    0.84
  -1   5  -1   22.69    0.82
   1   5   1   22.55    0.73
   2  -5   1   10.01    0.44
   2  -5   1    8.89    0.43
  -2  -5  -1    9.82    0.57
  -2  -5  -1    9.56    0.44
   2   5   1    9.36    0.46
   2   5   1    9.36    0.45
  -2   5  -1    9.37    0.51
   2   5   1   10.01    0.54
  -3  -5  -1    8.99    0.48
  -3  -5  -1    8.85    0.59
   3  -5   1    8.58    0.45
   3  -5   1    8.00    0.44
   3   5   1    8.83    0.51
   3   5   1    8.60    0.48
  -3   5  -1   10.19    0.53
   3   5   1    9.70    0.56
  -3   5  -1    9.01    0.30
   3   5   1    9.26    0.48
   4  -5   1    3.82    0.36
  -4  -5  -1    3.99    0.38
   4  -5   1    3.89    0.40
  -4  -5  -1    3.78    0.46
   4   5   1    3.73    0.41
   4   5   1    3.63    0.39
  -4   5  -1    3.48    0.38
  -4   5  -1    3.31    0.24
   4   5   1    5.00    0.44
   5  -5   1    6.11    0.46
   5  -5   1    7.14    0.48
  -5  -5  -1    6.39    0.59
  -5  -5  -1    6.58    0.52
  -5   5  -1    6.24    0.36
   5   5   1    6.04    0.51
   5   5   1    6.69    0.50
  -5   5  -1    6.46    0.48
   5   5   1    6.27    0.48
   6  -5   1    3.38    0.46
   6  -5   1    3.26    0.43
  -6  -5  -1    3.57    0.52
   6   5   1    3.77    0.48
   6   5   1    3.37    0.45
   6   5   1    3.19    0.45
   7  -5   1    0.72    0.34
   7  -5   1    0.65    0.36
   7   5   1    0.60    0.31
   7   5   1    0.59    0.34
   7   5   1    0.32    0.32
   7  -6  -1    0.21    0.35
   7  -6  -1    0.32    0.33
   7   6  -1    0.45    0.37
   7   6  -1    0.24    0.33
   7   6  -1    0.63    0.37
   6  -6  -1    1.55    0.34
   6  -6  -1    1.56    0.36
  -6  -6   1    0.81    0.37
   6   6  -1    1.65    0.40
   6   6  -1    1.59    0.38
   6   6  -1    1.33    0.38
   5  -6  -1    4.22    0.47
  -5  -6   1    4.88    0.56
  -5  -6   1    3.78    0.45
   5  -6  -1    4.72    0.48
   5   6  -1    5.16    0.52
   5   6  -1    4.05    0.46
   5   6  -1    3.96    0.47
   4  -6  -1    7.01    0.47
  -4  -6   1    6.81    0.59
  -4  -6   1    6.63    0.49
   4  -6  -1    6.64    0.49
  -4   6   1    7.63    0.33
   4   6  -1    6.59    0.46
   4   6  -1    7.35    0.50
   4   6  -1    6.49    0.52
  -4   6   1    7.42    0.49
   3  -6  -1    8.43    0.49
  -3  -6   1    8.91    0.36
  -3  -6   1    9.44    0.49
   3  -6  -1    8.81    0.30
   3  -6  -1    8.26    0.49
  -3  -6   1    8.10    0.56
   3   6  -1    8.02    0.49
  -3   6   1    9.55    0.57
   3   6  -1    8.77    0.51
   2  -6  -1    4.08    0.16
   2  -6  -1    3.93    0.37
  -2  -6   1    4.53    0.30
  -2  -6   1    3.62    0.40
   2  -6  -1    4.34    0.34
  -2  -6   1    3.96    0.24
  -2   6   1    4.01    0.42
   2   6  -1    4.16    0.34
   2   6  -1    4.23    0.37
  -1  -6   1    6.68    0.47
   1  -6  -1    6.76    0.25
   1  -6  -1    6.58    0.47
  -1  -6   1    7.22    0.32
  -1  -6   1    7.47    0.34
   1  -6  -1    7.38    0.38
   1   6  -1    7.31    0.40
  -1   6   1    7.57    0.50
   1   6  -1    6.87    0.39
   1   6  -1    6.90    0.47
   0  -6   1    4.74    0.30
   0  -6   1    4.40    0.20
   0  -6  -1    5.05    0.28
   0  -6   1    4.32    0.42
   0  -6  -1    4.67    0.43
   0  -6  -1    5.09    0.24
   0   6   1    5.19    0.44
   0   6   1    5.05    0.31
   0   6  -1    4.58    0.32
   0   6  -1    5.68    0.42
   1  -6   1   10.83    0.47
  -1  -6  -1   11.38    0.44
  -1  -6  -1   10.46    0.58
  -1  -6  -1   11.38    0.40
   1   6   1   10.49    0.62
   1   6   1   11.02    0.49
  -1   6  -1   10.03    0.59
   1   6   1   10.49    0.49
   2  -6   1    2.78    0.29
  -2  -6  -1    2.81    0.39
  -2  -6  -1    3.05    0.29
  -2  -6  -1    3.16    0.20
   2  -6   1    3.32    0.33
  -2   6  -1    3.03    0.38
   2   6   1    3.09    0.32
   2   6   1    2.99    0.33
   3  -6   1   10.17    0.52
  -3  -6  -1   11.08    0.54
  -3  -6  -1    9.86    0.63
   3  -6   1   10.08    0.52
  -3   6  -1   10.22    0.60
   3   6   1   11.57    0.59
   3   6   1   10.45    0.53
   3   6   1   10.58    0.55
   4  -6   1   12.27    0.59
  -4  -6  -1   11.07    0.70
   4  -6   1   11.27    0.59
  -4  -6  -1   13.61    0.65
   4   6   1   11.25    0.62
  -4   6  -1   12.16    0.76
   4   6   1   11.50    0.62
   4   6   1   12.32    0.64
   5  -6   1    0.02    0.27
  -5  -6  -1    1.12    0.30
  -5  -6  -1    0.35    0.33
   5  -6   1    0.34    0.25
   5   6   1    0.06    0.28
   5   6   1    0.22    0.28
   5   6   1    0.29    0.27
   6  -6   1    0.14    0.27
   6  -6   1    0.35    0.26
   6   6   1   -0.11    0.27
   6   6   1    0.01    0.32
   6   6   1    0.29    0.32
   7  -6   1    1.81    0.41
   7  -6   1    1.19    0.42
   7   6   1    1.48    0.39
   7   6   1    1.58    0.43
   7   6   1    1.61    0.42
   7  -7  -1    1.84    0.44
   7   7  -1    1.24    0.43
   7   7  -1    0.64    0.38
   6  -7  -1    0.52    0.36
   6  -7  -1    0.37    0.32
   6   7  -1    1.27    0.38
   6   7  -1    0.95    0.36
   6   7  -1    0.81    0.38
  -5  -7   1    0.93    0.38
  -5  -7   1    0.30    0.27
   5  -7  -1    0.59    0.28
   5  -7  -1    0.63    0.26
   5   7  -1    0.97    0.36
   5   7  -1    0.56    0.32
   5   7  -1    1.01    0.34
  -4  -7   1    0.83    0.38
  -4  -7   1    1.62    0.31
   4  -7  -1    1.47    0.34
   4  -7  -1    1.73    0.34
   4   7  -1    1.12    0.32
   4   7  -1    1.07    0.32
   4   7  -1    2.03    0.39
  -3  -7   1    6.79    0.43
   3  -7  -1    4.79    0.45
  -3  -7   1    6.10    0.52
   3  -7  -1    5.43    0.40
   3   7  -1    5.83    0.46
   3   7  -1    5.50    0.41
   2  -7  -1   63.10    1.85
   2  -7  -1   65.77    1.82
  -2  -7   1   64.67    2.04
  -2  -7   1   66.73    1.76
  -2  -7   1   67.19    1.70
   2   7  -1   66.18    1.86
   2   7  -1   65.13    1.84
   1  -7  -1   11.02    0.51
  -1  -7   1   11.02    0.47
  -1  -7   1   10.86    0.63
   1  -7  -1   11.44    0.34
  -1  -7   1   11.18    0.43
   1  -7  -1   11.05    0.34
  -1   7   1   11.45    0.47
   1   7  -1   10.86    0.54
   1   7  -1   11.04    0.52
   0  -7  -1   18.15    0.86
   0  -7  -1   19.17    0.58
   0  -7   1   19.69    0.88
   0  -7   1   18.91    0.67
   0  -7   1   19.01    0.54
   0  -7  -1   19.26    0.66
   0   7   1   19.74    0.69
   0   7  -1   18.59    0.69
   1  -7   1    4.46    0.36
  -1  -7  -1    5.12    0.29
  -1  -7  -1    4.87    0.45
  -1  -7  -1    4.89    0.30
  -1   7  -1    4.97    0.31
   1   7   1    5.45    0.38
   1   7   1    4.89    0.36
  -2  -7  -1    2.26    0.38
  -2  -7  -1    2.42    0.27
  -2  -7  -1    2.30    0.25
   2  -7   1    2.68    0.34
   2  -7   1    2.40    0.32
   2   7   1    2.54    0.33
   2   7   1    2.77    0.34
  -3  -7  -1    8.43    0.67
   3  -7   1    8.44    0.51
   3  -7   1    8.90    0.50
  -3  -7  -1    8.80    0.51
   3   7   1    7.99    0.58
   3   7   1    8.87    0.55
   3   7   1    8.09    0.52
  -4  -7  -1    3.18    0.51
   4  -7   1    3.74    0.45
   4  -7   1    3.37    0.39
  -4  -7  -1    3.88    0.42
   4   7   1    2.90    0.41
   4   7   1    2.91    0.42
   4   7   1    2.48    0.42
   5  -7   1    2.78    0.44
   5  -7   1    3.05    0.41
   5   7   1    3.11    0.49
   5   7   1    2.10    0.40
   5   7   1    2.20    0.41
   6  -7   1    1.51    0.43
   6  -7   1    1.42    0.35
   6   7   1    1.46    0.43
   6   7   1    1.67    0.43
   6   7   1    1.63    0.41
   6  -8  -1    4.76    0.57
   6  -8  -1    5.51    0.62
   6   8  -1    4.43    0.60
   6   8  -1    5.05    0.64
   6   8  -1    4.71    0.59
   5  -8  -1    6.55    0.63
   5  -8  -1    6.10    0.59
   5   8  -1    5.65    0.64
   5   8  -1    6.13    0.61
   5   8  -1    6.01    0.62
  -4  -8   1    5.81    0.49
   4  -8  -1    5.33    0.52
   4  -8  -1    4.83    0.51
   4   8  -1    4.87    0.55
   4   8  -1    4.32    0.51
   4   8  -1    5.54    0.57
  -3  -8   1    0.49    0.23
   3  -8  -1    0.23    0.24
   3  -8  -1    0.67    0.28
  -3  -8   1    0.47    0.34
   3   8  -1    0.61    0.29
   3   8  -1    0.40    0.26
   2  -8  -1    5.09    0.46
   2  -8  -1    4.42    0.45
  -2  -8   1    4.58    0.53
  -2  -8   1    5.05    0.35
  -2  -8   1    5.32    0.34
   2   8  -1    4.81    0.46
   2   8  -1    4.15    0.43
  -1  -8   1    7.73    0.65
   1  -8  -1    8.13    0.46
  -1  -8   1    8.52    0.38
  -1  -8   1    8.20    0.42
  -1   8   1    8.03    0.43
   1   8  -1    8.13    0.49
   1   8  -1    8.38    0.49
   0  -8  -1    4.95    0.26
   0  -8  -1    5.29    0.37
   0  -8   1    5.66    0.31
   0  -8   1    4.69    0.36
   0  -8  -1    4.97    0.54
   0   8   1    4.65    0.36
   0   8  -1    4.91    0.41
  -1  -8  -1   10.67    0.47
  -1  -8  -1   11.41    0.47
   1  -8   1   10.51    0.55
  -1  -8  -1   11.34    0.75
  -1   8  -1   10.52    0.48
   1   8   1   11.10    0.58
   2  -8   1    6.09    0.50
  -2  -8  -1    5.59    0.39
   2  -8   1    5.74    0.46
  -2  -8  -1    5.76    0.55
   2   8   1    5.86    0.47
   2   8   1    6.38    0.48
  -3  -8  -1    2.88    0.46
  -3  -8  -1    2.95    0.34
   3  -8   1    2.38    0.36
   3  -8   1    2.47    0.38
   3   8   1    2.13    0.43
   3   8   1    1.60    0.35
   3   8   1    1.85    0.32
   4  -8   1    0.04    0.24
   4  -8   1   -0.07    0.21
  -4  -8  -1   -0.02    0.24
   4   8   1   -0.16    0.29
   4   8   1    0.03    0.28
   4   8   1   -0.22    0.30
   5  -8   1    2.73    0.42
   5  -8   1    2.97    0.43
   5   8   1    2.85    0.47
   5   8   1    2.52    0.49
   5   8   1    2.84    0.49
   6  -8   1    0.23    0.35
   6  -8   1    0.49    0.32
   6   8   1    0.26    0.37
   6   8   1   -0.02    0.36
   6   8   1   -0.63    0.33
   5  -9  -1   -0.07    0.29
   5  -9  -1    0.34    0.29
   5   9  -1    0.32    0.35
   5   9  -1    0.09    0.35
   5   9  -1    0.15    0.39
   4  -9  -1   -0.05    0.25
   4  -9  -1    0.04    0.32
  -4  -9   1   -0.18    0.22
   4   9  -1    0.30    0.34
   4   9  -1    0.18    0.31
   4   9  -1    0.13    0.36
   3  -9  -1    2.50    0.41
   3  -9  -1    1.58    0.37
   3   9  -1    1.51    0.38
   3   9  -1    2.10    0.39
   2  -9  -1    0.60    0.24
   2  -9  -1    0.73    0.28
   2   9  -1    0.64    0.29
   2   9  -1    0.34    0.28
  -1  -9   1    5.41    0.62
   1  -9  -1    5.75    0.44
  -1  -9   1    5.07    0.38
   1   9  -1    5.13    0.47
  -1   9   1    4.90    0.37
   0  -9   1    0.82    0.26
   0  -9  -1    0.35    0.21
   0  -9  -1    0.07    0.31
   0   9   1    0.71    0.26
   0   9  -1    0.42    0.21
   1  -9   1    3.99    0.43
  -1  -9  -1    3.69    0.51
   1   9   1    3.86    0.42
  -1   9  -1    4.11    0.37
   2  -9   1    4.02    0.47
   2  -9   1    4.73    0.48
   2   9   1    3.02    0.41
  -3  -9  -1    0.89    0.26
   3  -9   1    0.48    0.28
   3  -9   1    0.57    0.32
   3   9   1    0.36    0.36
   3   9   1    0.48    0.25
   3   9   1    0.65    0.32
  -4  -9  -1    0.07    0.25
   4  -9   1   -0.22    0.30
   4  -9   1   -0.24    0.24
   4   9   1    0.34    0.32
   4   9   1   -0.66    0.31
   4   9   1    0.06    0.33
   5  -9   1    3.81    0.50
   5  -9   1    2.64    0.49
   5   9   1    4.54    0.66
   5   9   1    3.71    0.54
   5   9   1    3.71    0.55
   4 -10  -1    3.30    0.51
   4 -10  -1    2.79    0.50
   4  10  -1    3.57    0.54
   4  10  -1    3.61    0.54
   4  10  -1    3.47    0.59
   3 -10  -1    1.20    0.38
   3 -10  -1    1.55    0.40
   3  10  -1    2.03    0.41
   3  10  -1    1.42    0.47
   3  10  -1    0.59    0.35
   2 -10  -1    3.51    0.48
   2 -10  -1    3.11    0.44
   2  10  -1    2.67    0.44
  -1 -10   1    5.64    0.53
   1 -10  -1    6.32    0.55
   1  10  -1    4.98    0.48
  -1  10   1    5.62    0.41
   0 -10   1    2.84    0.40
   0 -10  -1    2.39    0.37
   0  10   1    2.57    0.37
   0  10  -1    1.99    0.35
   1 -10   1    0.75    0.32
   1  10   1    1.12    0.31
   2 -10   1    7.13    0.58
   2 -10   1    7.41    0.59
   2  10   1    6.31    0.68
   2  10   1    6.44    0.58
   3 -10   1    4.09    0.52
   3 -10   1    4.21    0.51
   3  10   1    3.60    0.52
   3  10   1    4.30    0.54
   3  10   1    2.90    0.55
   4 -10   1    2.61    0.46
   4 -10   1    2.82    0.49
   4  10   1    2.58    0.50
   4  10   1    1.04    0.46
   4  10   1    3.36    0.55
   3 -11  -1    1.52    0.42
   3 -11  -1    1.52    0.42
   3  11  -1    1.06    0.49
   3  11  -1    1.60    0.44
   2 -11  -1    3.67    0.49
   2 -11  -1    2.47    0.48
   2  11  -1    2.96    0.47
   1 -11  -1    3.47    0.47
   1  11  -1    2.56    0.41
   0 -11   1    3.91    0.47
   0  11  -1    3.38    0.43
   0  11   1    2.59    0.39
   1 -11   1    0.68    0.34
   1  11   1    0.37    0.28
   2 -11   1    1.15    0.38
   2 -11   1    0.62    0.34
   2  11   1   -0.07    0.31
   2  11   1    1.22    0.47
   3 -11   1    1.01    0.40
   3 -11   1   -0.04    0.30
   3  11   1    0.87    0.38
   3  11   1    0.58    0.44
   8   0  -2    1.60    0.36
   8   0  -2    1.67    0.42
   7   0  -2    2.97    0.38
  -7   0   2    2.89    0.49
   7   0  -2    3.15    0.44
  -6   0   2    0.76    0.28
  -6   0   2    0.52    0.18
   6   0  -2    0.82    0.26
   6   0  -2    0.79    0.29
  -5   0   2    3.41    0.28
  -5   0   2    3.88    0.37
   5   0  -2    4.52    0.33
   5   0  -2    4.12    0.39
   4   0  -2    0.66    0.17
  -4   0   2    0.37    0.13
   4   0  -2    0.60    0.19
  -4   0   2    0.36    0.14
   4   0  -2    0.84    0.18
   4   0  -2    0.85    0.19
  -3   0   2   16.58    0.57
  -3   0   2   17.21    0.52
   3   0  -2   16.78    0.58
   3   0  -2   17.65    0.56
   3   0  -2   16.60    0.56
   3   0  -2   16.99    0.51
  -2   0   2  110.98    2.61
   2   0  -2  109.59    2.68
  -2   0   2  111.58    2.68
   2   0  -2  112.66    2.67
   2   0  -2  111.56    2.61
   1   0  -2   90.53    2.09
  -1   0   2   87.59    2.10
   1   0  -2   86.86    2.10
   0   0  -2   39.90    1.02
   0   0   2   45.54    1.03
   1   0   2  489.91   11.57
  -1   0  -2  469.49   11.46
   2   0   2   32.91    0.93
  -2   0  -2   33.21    0.93
  -2   0  -2   32.44    0.90
   2   0   2   33.74    0.88
   3   0   2   19.98    0.64
  -3   0  -2   19.99    0.69
  -3   0  -2   19.62    0.65
   3   0   2   20.18    0.61
  -4   0  -2    0.54    0.17
   4   0   2    0.65    0.18
   4   0   2    0.70    0.18
   4   0   2    0.94    0.20
   4   0   2    0.98    0.17
  -4   0  -2    0.99    0.20
   5   0   2    8.09    0.42
   5   0   2    8.39    0.39
  -5   0  -2    7.84    0.48
   5   0   2    8.21    0.41
   5   0   2    7.62    0.46
  -5   0  -2    7.72    0.47
   5   0   2    8.37    0.40
   6   0   2   16.02    0.73
   6   0   2   15.60    0.64
   6   0   2   14.81    0.65
   6   0   2   15.74    0.65
  -6   0  -2   13.29    0.70
  -6   0  -2   15.45    0.73
   7   0   2    1.87    0.32
   7   0   2    1.40    0.36
   7   0   2    1.31    0.28
   8   0   2    0.51    0.33
   8  -1  -2    0.08    0.33
   8  -1  -2    0.30    0.24
   8   1  -2    0.62    0.35
   8   1  -2    0.20    0.26
   7  -1  -2    1.46    0.37
   7  -1  -2    1.53    0.31
  -7   1   2    1.26    0.33
   7   1  -2    1.63    0.33
   7   1  -2    1.21    0.35
   6  -1  -2    5.51    0.43
  -6  -1   2    5.02    0.46
  -6  -1   2    5.23    0.38
   6  -1  -2    6.10    0.42
   6  -1  -2    5.90    0.47
  -6   1   2    5.13    0.35
   6   1  -2    5.95    0.43
   6   1  -2    5.49    0.37
  -6   1   2    5.75    0.50
   6   1  -2    5.34    0.41
   6   1  -2    4.77    0.36
   5  -1  -2    3.91    0.36
   5  -1  -2    3.18    0.32
  -5  -1   2    3.35    0.36
   5  -1  -2    3.81    0.35
   5  -1  -2    3.47    0.32
  -5  -1   2    3.10    0.29
  -5   1   2    3.94    0.28
   5   1  -2    3.99    0.33
   5   1  -2    3.51    0.34
   5   1  -2    3.62    0.27
   5   1  -2    3.60    0.30
  -5   1   2    3.37    0.34
   5   1  -2    2.99    0.34
   4  -1  -2    2.15    0.24
  -4  -1   2    1.53    0.24
   4  -1  -2    1.20    0.19
   4  -1  -2    1.44    0.21
   4  -1  -2    1.98    0.23
  -4  -1   2    1.53    0.20
   4   1  -2    1.62    0.22
  -4   1   2    1.83    0.19
  -4   1   2    1.88    0.23
   4   1  -2    1.95    0.22
   4   1  -2    1.42    0.22
   4   1  -2    2.11    0.25
   3  -1  -2  135.12    3.36
   3  -1  -2  137.78    3.34
  -3  -1   2  143.66    3.34
  -3  -1   2  138.79    3.38
   3  -1  -2  137.78    3.35
   3   1  -2  141.92    3.34
   3   1  -2  136.04    3.36
   3   1  -2  135.17    3.37
  -3   1   2  136.02    3.35
  -3   1   2  143.05    3.28
  -2  -1   2   30.58    0.80
  -2  -1   2   28.65    0.83
   2  -1  -2   29.06    0.80
   2  -1  -2   28.98    0.81
   2  -1  -2   29.20    0.80
   2   1  -2   29.23    0.82
   2   1  -2   29.44    0.81
   2   1  -2   30.53    0.80
  -2   1   2   30.27    0.81
   1  -1  -2  256.01    6.14
  -1  -1   2  248.19    6.18
  -1  -1   2  255.12    6.05
   1  -1  -2  256.75    6.05
  -1   1   2  252.98    6.09
   1   1  -2  250.47    6.04
  -1   1   2  259.62    6.06
   1   1  -2  259.71    6.07
   0  -1   2  218.38    5.16
   0  -1  -2  217.71    5.26
   0   1   2  224.60    5.17
   0   1  -2  206.23    5.15
  -1  -1  -2 1000.00   23.53
   1   1   2  977.85   23.42
   2  -1   2   81.05    1.99
   2  -1   2   82.65    2.00
  -2  -1  -2   84.42    2.08
  -2  -1  -2   79.74    2.02
   2   1   2   80.75    2.00
  -2   1  -2   80.53    1.99
   2   1   2   82.82    2.07
  -3  -1  -2   35.18    1.06
   3  -1   2   36.51    0.98
   3  -1   2   34.96    0.97
  -3  -1  -2   33.38    1.01
   3   1   2   34.66    0.98
   3   1   2   35.91    0.92
  -3   1  -2   34.45    0.97
   3   1   2   33.81    1.04
  -3   1  -2   33.93    1.02
   4  -1   2   10.72    0.47
   4  -1   2   10.70    0.44
  -4  -1  -2   10.91    0.51
   4  -1   2   11.20    0.47
  -4  -1  -2   11.13    0.53
   4   1   2   10.91    0.41
  -4   1  -2   10.77    0.47
   4   1   2   10.67    0.48
  -4   1  -2   10.53    0.51
   4   1   2   10.88    0.52
   4   1   2   11.51    0.45
   4   1   2   10.74    0.47
   4   1   2   10.26    0.42
  -5  -1  -2   24.50    0.91
   5  -1   2   23.99    0.86
   5  -1   2   25.18    0.84
  -5  -1  -2   23.04    0.91
   5  -1   2   24.30    0.78
   5  -1   2   23.98    0.80
  -5   1  -2   25.00    0.90
   5   1   2   23.88    0.84
   5   1   2   25.52    0.89
   5   1   2   24.63    0.80
   5   1   2   25.09    0.92
  -5   1  -2   25.26    0.88
   5   1   2   23.84    0.82
   5   1   2   24.93    0.78
  -6  -1  -2    7.19    0.50
   6  -1   2    7.97    0.48
   6  -1   2    8.50    0.47
  -6  -1  -2    7.65    0.56
   6  -1   2    8.66    0.44
   6  -1   2    7.61    0.52
  -6   1  -2    7.67    0.51
   6   1   2    8.54    0.52
   6   1   2    7.15    0.41
   6   1   2    7.57    0.45
   6   1   2    7.47    0.53
  -6   1  -2    8.51    0.53
   7  -1   2    5.59    0.55
   7  -1   2    6.07    0.49
   7   1   2    5.43    0.45
   7   1   2    6.17    0.48
  -7   1  -2    5.50    0.52
   7   1   2    5.55    0.55
   8  -1   2    0.83    0.37
   8   1   2    0.51    0.36
   8   1   2    0.85    0.28
   8  -2  -2    2.11    0.45
   8   2  -2    1.20    0.41
   8   2  -2    2.31    0.42
   7  -2  -2    4.29    0.47
   7  -2  -2    3.86    0.41
   7  -2  -2    3.82    0.49
   7   2  -2    4.00    0.48
   7   2  -2    3.78    0.41
  -7   2   2    4.77    0.48
   7   2  -2    3.46    0.46
   7   2  -2    4.42    0.42
  -6  -2   2    0.99    0.26
   6  -2  -2    0.30    0.25
  -6  -2   2    0.47    0.26
   6  -2  -2    0.50    0.25
   6  -2  -2    1.03    0.22
   6   2  -2    0.76    0.28
  -6   2   2    0.69    0.24
   6   2  -2    0.72    0.23
   6   2  -2    0.60    0.23
   6   2  -2    0.91    0.28
   6   2  -2    0.38    0.19
  -5  -2   2    0.38    0.23
   5  -2  -2    0.32    0.18
  -5  -2   2    0.57    0.20
   5  -2  -2    0.50    0.19
   5  -2  -2    0.68    0.23
   5  -2  -2    0.27    0.21
   5   2  -2    0.30    0.21
  -5   2   2    0.81    0.21
   5   2  -2    0.28    0.18
   5   2  -2    0.83    0.23
   5   2  -2    0.55    0.20
   5   2  -2    0.64    0.20
  -5   2   2    0.58    0.16
   4  -2  -2    5.91    0.37
   4  -2  -2    6.34    0.38
   4  -2  -2    6.32    0.35
   4  -2  -2    6.41    0.33
  -4  -2   2    5.29    0.36
  -4  -2   2    5.46    0.36
   4   2  -2    6.44    0.39
   4   2  -2    6.13    0.35
   4   2  -2    6.63    0.36
   4   2  -2    6.50    0.37
  -4   2   2    6.50    0.30
   4   2  -2    5.94    0.35
   4   2  -2    6.28    0.38
  -4   2   2    6.67    0.37
  -3  -2   2   81.52    2.10
   3  -2  -2   80.94    2.08
   3  -2  -2   82.24    2.08
  -3  -2   2   84.19    2.11
   3  -2  -2   79.98    2.04
   3   2  -2   80.80    2.08
   3   2  -2   81.97    2.10
   3   2  -2   81.60    2.08
   3   2  -2   82.07    2.10
  -3   2   2   83.36    2.05
   2  -2  -2   70.44    1.75
  -2  -2   2   71.36    1.83
  -2  -2   2   66.21    1.79
   2  -2  -2   72.22    1.79
   2  -2  -2   72.08    1.80
   2   2  -2   73.90    1.79
   2   2  -2   72.43    1.83
   2   2  -2   72.27    1.80
  -2   2   2   73.34    1.75
  -2   2   2   71.92    1.75
   1  -2  -2  590.08   14.27
  -1  -2   2  581.50   14.37
  -1  -2   2  623.24   14.70
   1  -2  -2  614.70   14.46
   1  -2  -2  610.49   14.31
   1  -2  -2  595.61   14.24
   1   2  -2  587.92   14.54
  -1   2   2  622.91   14.53
   1   2  -2  613.04   14.26
  -1   2   2  622.55   14.31
   0  -2  -2   51.53    1.31
   0  -2   2   49.01    1.19
   0   2  -2   49.23    1.19
   0   2  -2   51.02    1.32
   0   2   2   52.54    1.31
   1  -2   2  135.54    3.17
  -1  -2  -2  135.53    3.25
   1   2   2  133.17    3.24
  -1   2  -2  129.13    3.08
  -2  -2  -2   13.72    0.52
  -2  -2  -2   11.74    0.47
   2  -2   2   12.75    0.43
   2  -2   2   12.74    0.45
  -2   2  -2   12.92    0.40
   2   2   2   12.81    0.52
  -3  -2  -2   21.37    0.78
  -3  -2  -2   20.46    0.72
   3  -2   2   21.65    0.67
   3  -2   2   20.66    0.68
   3   2   2   20.68    0.68
  -3   2  -2   20.54    0.64
   3   2   2   21.72    0.77
   3   2   2   21.41    0.71
   3   2   2   21.73    0.69
   3   2   2   21.60    0.68
   4  -2   2   14.78    0.59
   4  -2   2   15.55    0.56
  -4  -2  -2   15.88    0.65
  -4  -2  -2   15.70    0.68
   4  -2   2   15.64    0.59
   4   2   2   15.83    0.60
   4   2   2   15.18    0.66
   4   2   2   15.99    0.61
  -4   2  -2   15.31    0.63
  -4   2  -2   15.82    0.57
   4   2   2   14.56    0.57
   4   2   2   16.05    0.60
   5  -2   2   27.82    0.96
   5  -2   2   28.63    0.90
  -5  -2  -2   27.56    1.06
  -5  -2  -2   30.23    1.04
   5  -2   2   28.40    0.84
   5  -2   2   27.44    0.93
   5   2   2   28.31    0.96
   5   2   2   27.28    1.02
   5   2   2   28.99    0.92
   5   2   2   27.65    0.98
  -5   2  -2   26.55    0.97
   5   2   2   28.24    0.95
  -5   2  -2   29.24    0.95
   6  -2   2    2.76    0.36
  -6  -2  -2    2.85    0.40
   6  -2   2    2.78    0.39
  -6  -2  -2    2.92    0.38
   6  -2   2    2.94    0.33
   6   2   2    3.19    0.34
   6   2   2    2.51    0.38
   6   2   2    2.68    0.35
  -6   2  -2    2.83    0.34
   6   2   2    2.96    0.38
   7  -2   2    0.27    0.27
   7  -2   2   -0.18    0.27
  -7   2  -2    0.47    0.24
   7   2   2    0.23    0.31
   7   2   2    0.16    0.23
   7   2   2    0.51    0.28
   7   2   2    0.36    0.25
   8  -2   2    0.61    0.36
   8  -2   2    0.57    0.31
   8   2   2    1.27    0.42
   8   2   2    0.42    0.30
   8   2   2    0.61    0.32
   8  -3  -2    4.75    0.57
   8   3  -2    4.63    0.55
   8   3  -2    4.23    0.57
   8   3  -2    5.03    0.52
   7  -3  -2    4.81    0.54
   7  -3  -2    3.94    0.49
   7  -3  -2    4.73    0.43
   7   3  -2    3.59    0.44
   7   3  -2    4.50    0.45
  -7   3   2    4.61    0.47
   7   3  -2    4.20    0.49
   7   3  -2    5.18    0.55
   6  -3  -2    8.42    0.52
   6  -3  -2    9.48    0.59
   6  -3  -2    9.83    0.51
  -6  -3   2   10.05    0.63
  -6  -3   2    8.51    0.55
   6   3  -2    9.04    0.59
   6   3  -2    9.98    0.54
  -6   3   2   10.35    0.57
   6   3  -2    9.04    0.52
   6   3  -2   10.23    0.59
   6   3  -2   10.74    0.60
  -5  -3   2    1.03    0.26
   5  -3  -2    1.23    0.27
   5  -3  -2    1.66    0.24
   5  -3  -2    1.24    0.28
  -5  -3   2    1.37    0.27
   5  -3  -2    1.39    0.24
  -5   3   2    1.45    0.20
   5   3  -2    1.42    0.26
  -5   3   2    1.55    0.25
   5   3  -2    1.36    0.26
   5   3  -2    1.59    0.27
   5   3  -2    1.26    0.27
   5   3  -2    1.26    0.29
   4  -3  -2   11.36    0.45
   4  -3  -2   10.56    0.48
   4  -3  -2   10.81    0.45
  -4  -3   2   10.89    0.53
  -4  -3   2   11.53    0.55
   4  -3  -2   10.54    0.48
   4   3  -2   10.59    0.48
   4   3  -2   10.38    0.49
   4   3  -2   10.80    0.50
   4   3  -2    9.55    0.47
   4   3  -2   10.63    0.52
  -4   3   2   11.03    0.46
   4   3  -2   10.16    0.50
  -3  -3   2   16.56    0.64
   3  -3  -2   15.00    0.58
   3  -3  -2   16.36    0.53
   3  -3  -2   15.59    0.57
  -3  -3   2   16.82    0.61
   3   3  -2   15.79    0.63
   3   3  -2   16.04    0.59
   3   3  -2   16.12    0.59
  -3   3   2   16.06    0.54
  -3   3   2   16.20    0.53
   3   3  -2   15.92    0.58
   3   3  -2   16.56    0.60
  -2  -3   2   23.05    0.71
   2  -3  -2   22.41    0.64
   2  -3  -2   24.06    0.72
   2  -3  -2   23.45    0.70
  -2  -3   2   22.91    0.78
   2   3  -2   22.76    0.77
  -2   3   2   23.43    0.70
   2   3  -2   23.31    0.71
  -2   3   2   22.47    0.64
  -1  -3   2    8.00    0.30
  -1  -3   2    8.47    0.41
   1  -3  -2    8.36    0.36
  -1  -3   2    7.79    0.31
   1  -3  -2    7.73    0.32
   1  -3  -2    8.26    0.28
   1   3  -2    8.66    0.39
  -1   3   2    8.64    0.37
   1   3  -2    7.37    0.30
   0  -3   2  180.32    4.30
   0  -3   2  189.27    4.36
   0  -3  -2  189.28    4.45
   0   3  -2  188.65    4.46
   0   3   2  187.83    4.45
   0   3  -2  177.14    4.36
   1  -3   2   16.06    0.52
   1  -3   2   15.60    0.50
  -1  -3  -2   16.56    0.63
   1   3   2   17.77    0.61
  -2  -3  -2   47.43    1.37
   2  -3   2   46.82    1.26
   2  -3   2   48.29    1.24
  -2  -3  -2   46.56    1.27
   2   3   2   47.48    1.34
  -2   3  -2   44.97    1.15
   2   3   2   46.13    1.36
   2   3   2   45.58    1.26
   2   3   2   47.57    1.29
  -3  -3  -2    7.86    0.48
   3  -3   2    7.49    0.36
   3  -3   2    6.65    0.35
  -3  -3  -2    7.64    0.39
   3   3   2    7.65    0.41
  -3   3  -2    7.49    0.32
   3   3   2    7.47    0.36
   3   3   2    7.43    0.45
   3   3   2    7.24    0.36
   4  -3   2   17.08    0.64
  -4  -3  -2   17.44    0.71
   4  -3   2   16.92    0.59
   4  -3   2   16.01    0.64
  -4  -3  -2   15.85    0.75
   4   3   2   17.84    0.67
  -4   3  -2   17.38    0.60
   4   3   2   17.36    0.76
   4   3   2   18.04    0.69
   4   3   2   18.32    0.66
   4   3   2   16.61    0.68
  -5  -3  -2    5.95    0.48
   5  -3   2    6.77    0.44
   5  -3   2    6.59    0.42
   5  -3   2    6.77    0.38
  -5  -3  -2    6.32    0.52
   5   3   2    6.64    0.47
   5   3   2    6.14    0.45
   5   3   2    6.02    0.42
   5   3   2    5.91    0.43
  -5   3  -2    6.68    0.44
  -5   3  -2    6.47    0.39
  -6  -3  -2    0.91    0.31
  -6  -3  -2    1.45    0.33
   6  -3   2    1.53    0.32
   6  -3   2    1.09    0.28
   6  -3   2    1.61    0.33
   6   3   2    1.76    0.31
  -6   3  -2    1.07    0.28
   6   3   2    0.85    0.29
  -6   3  -2    1.34    0.24
   6   3   2    1.61    0.30
   6   3   2    1.22    0.30
  -7  -3  -2    1.07    0.43
   7  -3   2    0.53    0.31
   7  -3   2    0.75    0.33
   7   3   2    0.85    0.28
  -7   3  -2    0.68    0.25
   7   3   2    1.04    0.33
   7   3   2    0.11    0.32
   7   3   2    0.57    0.30
   8  -3   2    1.45    0.39
   8  -3   2    2.07    0.44
   8   3   2    1.57    0.44
   8   3   2    1.13    0.34
   8   3   2    1.04    0.34
   8   3   2    1.25    0.35
   8  -4  -2    2.50    0.48
   8  -4  -2    3.37    0.53
   8   4  -2    3.49    0.55
   8   4  -2    3.48    0.47
   8   4  -2    3.59    0.48
   8   4  -2    3.26    0.54
   7  -4  -2    0.65    0.27
   7  -4  -2    0.62    0.32
   7   4  -2    0.54    0.34
   7   4  -2    0.91    0.34
   7   4  -2    1.00    0.33
   7   4  -2    0.82    0.28
   6  -4  -2    2.03    0.29
   6  -4  -2    1.70    0.36
  -6  -4   2    1.59    0.36
   6  -4  -2    2.21    0.37
  -6  -4   2    1.60    0.37
   6   4  -2    2.13    0.39
   6   4  -2    1.64    0.34
   6   4  -2    1.73    0.33
   6   4  -2    1.19    0.29
  -6   4   2    1.62    0.26
   5  -4  -2    9.73    0.46
  -5  -4   2    9.03    0.58
   5  -4  -2   10.55    0.56
  -5  -4   2   10.17    0.59
   5  -4  -2   10.83    0.49
   5  -4  -2    9.97    0.56
   5   4  -2    8.72    0.52
  -5   4   2   10.74    0.48
   5   4  -2    9.73    0.55
   5   4  -2    9.90    0.54
   5   4  -2    9.85    0.57
   5   4  -2    9.59    0.58
  -5   4   2    9.02    0.45
  -5   4   2   10.08    0.49
   4  -4  -2    4.77    0.30
   4  -4  -2    5.17    0.34
   4  -4  -2    4.97    0.30
   4  -4  -2    4.70    0.38
  -4  -4   2    5.14    0.43
  -4  -4   2    4.76    0.40
   4   4  -2    4.77    0.38
   4   4  -2    4.78    0.38
   4   4  -2    4.70    0.41
  -4   4   2    5.64    0.32
   4   4  -2    4.96    0.38
  -4   4   2    4.82    0.33
  -3  -4   2   49.73    1.41
   3  -4  -2   50.38    1.29
  -3  -4   2   48.35    1.49
   3  -4  -2   48.09    1.40
   3  -4  -2   47.36    1.39
   3   4  -2   50.57    1.41
   3   4  -2   50.96    1.40
  -3   4   2   50.16    1.30
  -3   4   2   50.44    1.39
   3   4  -2   51.90    1.51
   3   4  -2   51.55    1.41
   2  -4  -2   96.66    2.44
  -2  -4   2   97.89    2.44
  -2  -4   2   99.64    2.38
   2  -4  -2   96.56    2.34
   2  -4  -2   96.30    2.46
  -2  -4   2  101.41    2.58
   2   4  -2   97.35    2.56
  -2   4   2   98.33    2.35
  -2   4   2   98.19    2.49
   2   4  -2   97.03    2.46
   2   4  -2   98.07    2.44
  -1  -4   2   12.60    0.42
  -1  -4   2   11.88    0.53
   1  -4  -2   11.97    0.43
   1  -4  -2   11.69    0.51
   1  -4  -2   12.33    0.38
  -1  -4   2   12.38    0.41
  -1   4   2   12.23    0.51
   1   4  -2   11.93    0.55
   0  -4   2   92.79    2.23
   0  -4  -2   95.68    2.29
   0  -4  -2   97.16    2.47
   0  -4   2   94.91    2.34
   0   4   2   96.15    2.46
   0   4  -2   95.74    2.47
  -1  -4  -2   92.25    2.37
   1  -4   2   88.28    2.23
   1   4   2   86.82    2.24
   1   4   2   90.41    2.36
  -1   4  -2   89.55    2.34
   2  -4   2   14.29    0.50
  -2  -4  -2   12.94    0.63
  -2  -4  -2   13.22    0.52
   2  -4   2   13.34    0.52
   2   4   2   13.82    0.52
   2   4   2   12.80    0.62
  -2   4  -2   13.05    0.35
   2   4   2   13.81    0.52
   2   4   2   13.47    0.55
   3  -4   2   16.48    0.57
   3  -4   2   15.58    0.63
   3  -4   2   15.57    0.58
  -3  -4  -2   15.65    0.74
  -3  -4  -2   17.14    0.66
   3   4   2   17.11    0.74
   3   4   2   16.71    0.64
   3   4   2   17.89    0.64
  -3   4  -2   16.03    0.50
   3   4   2   16.65    0.66
   4  -4   2   60.20    1.59
  -4  -4  -2   58.52    1.81
   4  -4   2   57.98    1.63
   4  -4   2   58.08    1.67
  -4  -4  -2   58.86    1.70
   4   4   2   57.47    1.69
   4   4   2   58.20    1.65
   4   4   2   61.58    1.84
  -4   4  -2   58.63    1.53
   4   4   2   57.07    1.66
   5  -4   2    9.09    0.46
  -5  -4  -2   10.03    0.66
  -5  -4  -2    9.53    0.59
   5  -4   2    9.40    0.52
   5  -4   2    8.92    0.51
   5   4   2    8.83    0.53
  -5   4  -2    9.24    0.53
   5   4   2    9.24    0.56
   5   4   2    8.85    0.53
  -5   4  -2    8.46    0.44
   6  -4   2    6.61    0.53
  -6  -4  -2    6.25    0.60
   6  -4   2    6.54    0.50
   6   4   2    7.18    0.54
  -6   4  -2    6.17    0.42
   6   4   2    6.59    0.51
  -6   4  -2    6.93    0.57
   6   4   2    6.57    0.49
  -7  -4  -2    0.78    0.41
   7  -4   2    0.70    0.33
   7  -4   2    1.25    0.35
   7   4   2    1.56    0.40
   7   4   2    0.49    0.28
   7   4   2    0.89    0.32
   7  -5  -2    6.42    0.60
   7  -5  -2    7.75    0.63
   7   5  -2    5.86    0.59
   7   5  -2    7.28    0.56
   7   5  -2    6.23    0.62
   6  -5  -2    5.47    0.54
   6  -5  -2    6.88    0.59
  -6  -5   2    5.89    0.56
   6   5  -2    6.70    0.59
   6   5  -2    6.38    0.51
   6   5  -2    5.52    0.56
   5  -5  -2   10.29    0.47
   5  -5  -2    9.22    0.54
  -5  -5   2    9.78    0.68
   5  -5  -2    9.63    0.53
  -5  -5   2   10.83    0.62
   5   5  -2   10.21    0.58
   5   5  -2    9.63    0.59
   5   5  -2    9.26    0.57
  -5   5   2   10.00    0.47
  -4  -5   2    5.25    0.49
   4  -5  -2    6.94    0.45
   4  -5  -2    6.32    0.32
  -4  -5   2    6.70    0.46
   4  -5  -2    6.00    0.44
   4   5  -2    6.48    0.45
   4   5  -2    6.10    0.41
  -4   5   2    6.18    0.33
   4   5  -2    5.88    0.44
  -4   5   2    6.79    0.42
   3  -5  -2    0.04    0.16
  -3  -5   2   -0.01    0.16
   3  -5  -2   -0.17    0.09
  -3  -5   2    0.01    0.11
   3  -5  -2   -0.28    0.11
  -3  -5   2   -0.26    0.20
   3   5  -2   -0.15    0.20
   3   5  -2   -0.15    0.16
   3   5  -2   -0.46    0.16
  -3   5   2   -0.08    0.18
  -3   5   2    0.07    0.10
  -2  -5   2   10.76    0.44
   2  -5  -2   11.03    0.35
  -2  -5   2    9.42    0.53
   2  -5  -2    9.86    0.45
   2  -5  -2   10.99    0.49
  -2  -5   2   10.91    0.40
   2   5  -2    9.50    0.53
  -2   5   2   10.16    0.51
   2   5  -2   10.44    0.47
   2   5  -2   10.61    0.48
  -1  -5   2   16.25    0.68
   1  -5  -2   16.60    0.67
  -1  -5   2   16.57    0.55
   1  -5  -2   15.54    0.55
  -1  -5   2   16.53    0.53
   1  -5  -2   16.34    0.48
   1   5  -2   17.36    0.59
   1   5  -2   16.07    0.71
  -1   5   2   16.39    0.68
   1   5  -2   16.81    0.59
   0  -5  -2   17.67    0.54
   0  -5   2   16.83    0.46
   0  -5   2   16.67    0.57
   0  -5  -2   15.57    0.69
   0   5   2   17.13    0.71
   0   5  -2   18.14    0.73
  -1  -5  -2   15.32    0.45
  -1  -5  -2   14.69    0.65
   1  -5   2   14.44    0.55
   1   5   2   14.38    0.56
  -1   5  -2   15.63    0.67
   1   5   2   14.20    0.54
   1   5   2   14.41    0.67
  -2  -5  -2    4.46    0.43
   2  -5   2    5.26    0.34
   2  -5   2    5.16    0.32
  -2  -5  -2    5.45    0.33
   2   5   2    5.39    0.35
   2   5   2    4.32    0.44
   2   5   2    5.41    0.33
   2   5   2    4.32    0.36
  -2   5  -2    5.14    0.40
  -3  -5  -2   19.46    0.72
  -3  -5  -2   16.39    0.79
   3  -5   2   17.44    0.71
   3  -5   2   18.51    0.67
   3   5   2   16.96    0.73
  -3   5  -2   19.02    0.78
   3   5   2   18.00    0.70
  -3   5  -2   18.46    0.50
   3   5   2   19.32    0.96
   3   5   2   18.89    0.70
  -4  -5  -2   24.18    0.92
   4  -5   2   24.41    0.85
   4  -5   2   24.32    0.90
  -4  -5  -2   24.19    1.05
   4   5   2   23.41    0.88
   4   5   2   23.69    0.90
  -4   5  -2   24.46    0.72
   4   5   2   24.90    0.94
  -5  -5  -2    1.00    0.31
   5  -5   2    1.68    0.30
   5  -5   2    1.51    0.33
  -5  -5  -2    0.56    0.33
   5   5   2    1.44    0.33
   5   5   2    1.01    0.30
   5   5   2    2.03    0.36
  -5   5  -2    0.98    0.21
   6  -5   2    1.53    0.38
   6  -5   2    1.47    0.33
  -6  -5  -2    1.52    0.41
   6   5   2    1.16    0.33
   6   5   2    1.16    0.34
   6   5   2    1.37    0.35
   7  -5   2    3.75    0.51
   7  -5   2    3.62    0.52
   7   5   2    2.86    0.47
   7   5   2    3.28    0.50
   7   5   2    2.94    0.46
   7  -6  -2    2.21    0.44
   7  -6  -2    2.59    0.48
   7   6  -2    1.81    0.44
   7   6  -2    2.10    0.43
   7   6  -2    2.02    0.43
  -6  -6   2    1.17    0.41
   6  -6  -2    0.69    0.33
   6  -6  -2    0.65    0.34
   6   6  -2    1.07    0.35
   6   6  -2    0.62    0.27
   6   6  -2    0.68    0.33
  -5  -6   2    0.72    0.30
   5  -6  -2    1.07    0.28
  -5  -6   2    0.71    0.36
   5  -6  -2    0.92    0.22
   5  -6  -2    0.92    0.30
   5   6  -2    0.84    0.32
   5   6  -2    1.08    0.32
   5   6  -2    1.33    0.34
  -4  -6   2    5.93    0.59
  -4  -6   2    6.73    0.41
   4  -6  -2    6.95    0.50
  -4  -6   2    7.35    0.49
   4  -6  -2    6.10    0.42
   4   6  -2    7.04    0.52
  -4   6   2    7.27    0.34
  -4   6   2    6.78    0.49
   4   6  -2    7.44    0.50
   4   6  -2    6.95    0.50
  -3  -6   2   19.72    0.64
   3  -6  -2   18.72    0.75
   3  -6  -2   20.68    0.78
  -3  -6   2   20.35    0.76
  -3  -6   2   19.79    0.90
   3  -6  -2   20.49    0.58
   3   6  -2   19.22    0.78
  -3   6   2   19.72    0.82
   3   6  -2   19.39    0.77
   2  -6  -2    0.23    0.18
  -2  -6   2    0.33    0.13
  -2  -6   2    0.36    0.16
   2  -6  -2    0.19    0.15
  -2  -6   2    0.01    0.23
   2  -6  -2    0.30    0.08
   2   6  -2    0.28    0.19
   2   6  -2    0.31    0.19
  -2   6   2    0.40    0.21
   1  -6  -2   32.35    1.09
  -1  -6   2   32.61    0.94
  -1  -6   2   32.52    1.15
   1  -6  -2   33.28    0.96
  -1  -6   2   30.78    0.89
   1  -6  -2   33.67    0.86
  -1   6   2   31.86    1.12
   1   6  -2   30.40    1.13
   1   6  -2   31.21    0.98
   1   6  -2   32.16    0.99
   0  -6  -2    0.39    0.23
   0  -6   2    0.61    0.17
   0  -6   2    0.64    0.09
   0  -6  -2    0.59    0.16
   0   6   2    0.80    0.20
   0   6  -2    0.59    0.16
   0   6   2    0.51    0.25
   0   6  -2    0.54    0.24
   0   6  -2    0.65    0.17
   1  -6   2    2.50    0.27
  -1  -6  -2    2.41    0.18
  -1  -6  -2    1.76    0.30
  -1  -6  -2    2.13    0.22
   1   6   2    2.53    0.28
   1   6   2    1.98    0.26
  -1   6  -2    2.18    0.34
   1   6   2    2.36    0.36
   2  -6   2    1.86    0.28
  -2  -6  -2    2.28    0.36
  -2  -6  -2    2.29    0.27
   2  -6   2    2.49    0.28
   2   6   2    2.23    0.33
   2   6   2    2.57    0.30
  -2   6  -2    2.60    0.36
   2   6   2    2.74    0.31
  -3  -6  -2   57.08    1.85
  -3  -6  -2   61.23    1.67
   3  -6   2   55.49    1.65
   3  -6   2   57.73    1.62
  -3   6  -2   58.74    1.79
   3   6   2   54.75    1.70
   3   6   2   56.36    1.65
   3   6   2   56.72    1.66
  -4  -6  -2    2.04    0.38
   4  -6   2    1.98    0.34
   4  -6   2    2.69    0.35
  -4  -6  -2    2.35    0.34
   4   6   2    2.54    0.37
   4   6   2    1.97    0.35
   4   6   2    3.51    0.43
  -5  -6  -2    1.29    0.33
   5  -6   2    1.78    0.33
   5  -6   2    1.43    0.35
  -5  -6  -2    2.23    0.45
   5   6   2    1.69    0.36
   5   6   2    1.70    0.36
   5   6   2    1.38    0.36
   6  -6   2    0.22    0.31
   6  -6   2    0.31    0.25
   6   6   2    0.91    0.41
   6   6   2    0.18    0.30
   6   6   2    0.75    0.33
   7  -6   2    1.11    0.40
   7  -6   2    0.83    0.34
   7   6   2    0.82    0.38
   7   6   2    0.77    0.39
   7   6   2    1.03    0.38
   7  -7  -2    0.76    0.34
   7  -7  -2    1.56    0.45
   7   7  -2    1.02    0.40
   7   7  -2    2.04    0.47
   7   7  -2    0.87    0.40
   6  -7  -2    3.35    0.48
   6  -7  -2    2.59    0.47
   6   7  -2    3.40    0.54
   6   7  -2    3.10    0.50
   6   7  -2    2.85    0.50
   5  -7  -2    3.14    0.43
   5  -7  -2    2.78    0.44
  -5  -7   2    3.11    0.51
  -5  -7   2    3.33    0.43
   5   7  -2    3.14    0.48
   5   7  -2    3.25    0.46
   5   7  -2    3.31    0.46
   4  -7  -2    1.74    0.34
   4  -7  -2    2.33    0.37
  -4  -7   2    1.42    0.38
  -4  -7   2    1.72    0.34
   4   7  -2    2.18    0.40
   4   7  -2    1.99    0.36
   4   7  -2    1.84    0.36
   3  -7  -2    2.26    0.34
   3  -7  -2    1.25    0.29
  -3  -7   2    1.59    0.29
  -3  -7   2    2.10    0.23
  -3  -7   2    1.95    0.41
   3   7  -2    2.05    0.33
   3   7  -2    2.12    0.34
   2  -7  -2    0.88    0.10
   2  -7  -2    0.98    0.25
  -2  -7   2    0.75    0.19
  -2  -7   2    0.79    0.19
   2  -7  -2    0.93    0.26
  -2  -7   2    0.49    0.31
   2   7  -2    0.78    0.24
   2   7  -2    0.72    0.25
  -1  -7   2    5.56    0.52
  -1  -7   2    5.32    0.32
   1  -7  -2    5.03    0.24
  -1  -7   2    5.18    0.28
   1  -7  -2    4.84    0.35
   1  -7  -2    5.14    0.47
   1   7  -2    5.32    0.38
   1   7  -2    5.08    0.36
  -1   7   2    4.40    0.31
   0  -7   2   17.59    0.49
   0  -7   2   17.83    0.66
   0  -7  -2   18.68    0.58
   0  -7  -2   16.13    0.79
   0  -7  -2   17.77    0.62
   0   7   2   17.55    0.65
   0   7  -2   18.49    0.66
   1  -7   2    0.64    0.17
  -1  -7  -2    0.50    0.30
  -1  -7  -2    0.73    0.16
  -1  -7  -2    0.56    0.15
  -1   7  -2    0.87    0.19
   1   7   2    0.58    0.21
   2  -7   2   23.46    0.86
  -2  -7  -2   26.33    0.85
  -2  -7  -2   24.44    1.07
   2  -7   2   23.99    0.89
   2   7   2   24.13    0.90
   2   7   2   22.59    0.94
   2   7   2   24.54    0.89
   3  -7   2    3.22    0.38
   3  -7   2    2.65    0.37
  -3  -7  -2    2.83    0.48
  -3  -7  -2    3.09    0.36
   3   7   2    3.34    0.40
   3   7   2    2.95    0.43
   3   7   2    2.62    0.37
  -4  -7  -2    2.02    0.41
  -4  -7  -2    1.90    0.34
   4  -7   2    2.21    0.35
   4  -7   2    1.97    0.37
   4   7   2    1.60    0.35
   4   7   2    1.96    0.34
   4   7   2    2.08    0.41
   5  -7   2    0.52    0.27
   5  -7   2    0.51    0.32
   5   7   2    0.13    0.30
   5   7   2   -0.22    0.30
   5   7   2    0.43    0.33
   6  -7   2    1.35    0.38
   6  -7   2    1.57    0.43
   6   7   2    1.13    0.40
   6   7   2    1.45    0.48
   6   7   2    0.99    0.38
   6  -8  -2    0.49    0.38
   6  -8  -2    0.57    0.35
   6   8  -2    0.47    0.38
   6   8  -2    0.36    0.42
   6   8  -2    0.34    0.38
   5  -8  -2    2.95    0.45
   5  -8  -2    2.33    0.43
   5   8  -2    2.83    0.47
   5   8  -2    3.21    0.52
   5   8  -2    3.62    0.52
   4  -8  -2    6.17    0.48
  -4  -8   2    5.74    0.52
   4  -8  -2    5.08    0.53
   4   8  -2    5.01    0.58
   4   8  -2    6.26    0.59
   4   8  -2    6.70    0.51
  -3  -8   2    1.29    0.40
  -3  -8   2    1.76    0.27
   3  -8  -2    1.20    0.31
   3  -8  -2    1.08    0.31
   3   8  -2    1.25    0.32
   3   8  -2    1.20    0.32
   2  -8  -2    7.19    0.48
  -2  -8   2    7.98    0.42
   2  -8  -2    7.67    0.49
  -2  -8   2    8.09    0.42
  -2  -8   2    7.71    0.60
   2   8  -2    7.91    0.51
   2   8  -2    8.12    0.51
  -1  -8   2   17.67    0.69
  -1  -8   2   18.44    0.60
   1  -8  -2   17.25    0.88
  -1  -8   2   18.54    0.94
   1  -8  -2   17.35    0.69
  -1   8   2   19.06    0.67
   1   8  -2   19.86    0.76
   1   8  -2   18.55    0.74
   0  -8  -2    6.13    0.43
   0  -8   2    6.01    0.40
   0  -8  -2    6.23    0.31
   0  -8  -2    5.43    0.57
   0  -8  -2    5.84    0.35
   0   8   2    5.70    0.39
   0   8  -2    5.35    0.38
  -1  -8  -2    1.27    0.36
  -1  -8  -2    1.52    0.21
  -1  -8  -2    1.58    0.22
   1  -8   2    1.84    0.29
   1   8   2    1.32    0.28
  -1   8  -2    1.70    0.25
  -2  -8  -2    1.35    0.24
   2  -8   2    0.96    0.26
  -2  -8  -2    0.99    0.39
   2  -8   2    1.62    0.32
   2   8   2    1.00    0.34
   2   8   2    0.97    0.30
   2   8   2    1.11    0.30
  -3  -8  -2    3.04    0.38
  -3  -8  -2    2.97    0.52
   3  -8   2    2.95    0.41
   3  -8   2    2.80    0.38
   3   8   2    3.52    0.44
   3   8   2    3.42    0.44
   3   8   2    2.27    0.43
  -4  -8  -2    2.94    0.40
   4  -8   2    3.88    0.45
   4  -8   2    3.25    0.45
   4   8   2    3.23    0.47
   4   8   2    3.47    0.47
   4   8   2    3.32    0.51
   5  -8   2    5.99    0.59
   5  -8   2    6.67    0.54
   5   8   2    4.26    0.59
   5   8   2    5.90    0.63
   5   8   2    5.45    0.61
   6  -8   2    5.54    0.61
   6  -8   2    5.31    0.59
   6   8   2    5.23    0.64
   6   8   2    5.29    0.62
   6   8   2    4.95    0.65
   5  -9  -2    2.91    0.51
   5  -9  -2    3.23    0.49
   5   9  -2    2.03    0.51
   5   9  -2    2.27    0.48
   5   9  -2    2.99    0.51
   4  -9  -2    2.42    0.43
   4  -9  -2    2.30    0.46
   4   9  -2    1.84    0.46
   4   9  -2    2.06    0.45
   4   9  -2    2.48    0.46
   3  -9  -2    0.66    0.31
   3  -9  -2    0.43    0.30
   3   9  -2   -0.10    0.27
   3   9  -2    0.68    0.31
   2  -9  -2    3.33    0.41
   2  -9  -2    2.10    0.39
  -2  -9   2    2.85    0.37
   2   9  -2    2.08    0.37
   2   9  -2    2.24    0.37
  -1  -9   2    3.88    0.37
   1  -9  -2    3.39    0.38
  -1   9   2    3.68    0.34
   1   9  -2    3.48    0.40
   0  -9   2    2.43    0.32
   0  -9  -2    2.40    0.31
   0  -9  -2    1.60    0.41
   0   9  -2    1.96    0.31
   0   9   2    2.10    0.31
  -1  -9  -2    9.41    0.76
   1  -9   2    9.79    0.57
   1   9   2   10.48    0.61
  -1   9  -2    9.38    0.49
   2  -9   2    0.23    0.25
   2  -9   2    0.12    0.27
  -2  -9  -2    0.23    0.19
   2   9   2    0.49    0.31
   2   9   2   -0.23    0.31
   3  -9   2    1.23    0.35
   3  -9   2    1.06    0.31
  -3  -9  -2    0.58    0.24
   3   9   2    1.84    0.40
   3   9   2    0.03    0.35
   3   9   2    0.83    0.29
   4  -9   2    0.46    0.33
   4  -9   2    0.17    0.27
   4   9   2   -0.04    0.34
   4   9   2    0.40    0.34
   4   9   2    1.05    0.37
   5  -9   2    0.27    0.36
   5  -9   2    0.19    0.29
   5   9   2    0.33    0.37
   5   9   2    0.00    0.33
   5   9   2    0.09    0.39
   4 -10  -2    1.12    0.41
   4 -10  -2    0.83    0.36
   4  10  -2    0.48    0.37
   4  10  -2    1.40    0.51
   4  10  -2    1.12    0.40
   3 -10  -2    2.85    0.46
   3 -10  -2    2.59    0.46
   3  10  -2    3.06    0.48
   3  10  -2    2.83    0.47
   2 -10  -2    0.86    0.33
   2 -10  -2    1.06    0.36
   2  10  -2    0.80    0.32
   2  10  -2    1.10    0.32
  -1 -10   2    2.31    0.33
   1 -10  -2    2.41    0.36
   1  10  -2    1.60    0.32
  -1  10   2    2.41    0.33
   0 -10  -2    2.05    0.34
   0 -10   2    3.25    0.40
   0  10  -2    2.06    0.34
   0  10   2    2.21    0.35
   1 -10   2   -0.17    0.26
   1  10   2   -0.24    0.23
   2 -10   2    1.02    0.33
   2 -10   2    0.81    0.34
   2  10   2    0.78    0.34
   2  10   2    1.53    0.44
   3 -10   2    1.13    0.36
   3 -10   2    1.56    0.43
   3  10   2    0.07    0.38
   3  10   2    1.63    0.43
   4 -10   2    2.00    0.46
   4 -10   2    1.90    0.42
   4  10   2    1.46    0.48
   4  10   2    1.38    0.44
   4  10   2    1.06    0.42
   3 -11  -2    0.47    0.36
   3 -11  -2    0.71    0.39
   3  11  -2    0.09    0.33
   3  11  -2    0.70    0.44
   3  11  -2    0.69    0.39
   2 -11  -2    0.57    0.34
   2 -11  -2    0.63    0.37
   2  11  -2    0.86    0.35
   1 -11  -2    2.52    0.41
   1  11  -2    2.09    0.41
   0 -11   2    3.45    0.46
   0  11  -2    2.49    0.39
   0  11   2    2.25    0.38
   1 -11   2    0.22    0.31
   1 -11   2    0.28    0.32
   1  11   2    0.04    0.29
   1  11   2   -0.30    0.43
   2 -11   2   -0.40    0.27
   2 -11   2    0.39    0.35
   2  11   2    0.50    0.42
   2  11   2   -0.10    0.30
   3 -11   2    1.14    0.42
   3 -11   2    1.16    0.38
   3  11   2    0.57    0.44
   3  11   2    0.90    0.42
   8   0  -3    1.89    0.39
   8   0  -3    2.02    0.40
   7   0  -3    2.48    0.37
   7   0  -3    3.38    0.43
  -6   0   3    2.95    0.37
   6   0  -3    1.26    0.32
  -6   0   3    1.83    0.23
   6   0  -3    2.72    0.33
   6   0  -3    2.12    0.32
  -5   0   3    1.16    0.17
   5   0  -3    1.42    0.23
   5   0  -3    1.44    0.24
  -5   0   3    1.84    0.28
   4   0  -3    5.93    0.36
   4   0  -3    5.14    0.34
  -4   0   3    5.76    0.27
  -4   0   3    5.51    0.34
   4   0  -3    6.14    0.34
  -3   0   3   39.60    1.05
  -3   0   3   41.99    1.17
   3   0  -3   42.42    1.05
   3   0  -3   42.86    1.17
   3   0  -3   43.53    1.16
   2   0  -3   39.47    0.93
  -2   0   3   37.45    1.03
   2   0  -3   37.39    1.02
   2   0  -3   37.99    1.01
  -2   0   3   39.51    0.93
   1   0  -3   48.95    1.20
  -1   0   3   47.99    1.20
   0   0  -3  354.11    8.57
   0   0  -3  357.94    8.48
   1   0   3    8.88    0.36
  -1   0  -3    8.80    0.36
   2   0   3   46.49    1.28
   2   0   3   48.53    1.22
  -2   0  -3   45.88    1.28
   2   0   3   47.64    1.20
   3   0   3   25.10    0.79
  -3   0  -3   27.07    0.87
  -3   0  -3   27.48    0.83
   3   0   3   27.60    0.76
   4   0   3    6.93    0.38
  -4   0  -3    6.84    0.40
  -4   0  -3    5.90    0.41
   4   0   3    7.10    0.35
   4   0   3    6.57    0.36
   5   0   3    7.80    0.40
  -5   0  -3    7.91    0.48
   5   0   3    8.11    0.41
   5   0   3    7.00    0.44
   5   0   3    7.15    0.45
  -5   0  -3    7.74    0.51
   5   0   3    7.92    0.38
  -6   0  -3   18.93    0.88
   6   0   3   21.15    0.85
   6   0   3   19.96    0.80
  -6   0  -3   19.98    0.86
   6   0   3   20.22    0.77
   6   0   3   20.99    0.75
   7   0   3    1.43    0.36
   7   0   3    1.75    0.32
   7   0   3    1.36    0.29
   8   0   3    1.35    0.40
   8  -1  -3    1.18    0.30
   8  -1  -3    0.73    0.37
   8   1  -3    1.22    0.33
   8   1  -3    0.74    0.32
   7  -1  -3    0.43    0.31
   7  -1  -3    0.48    0.27
   7   1  -3    0.17    0.24
  -7   1   3    0.10    0.27
   7   1  -3    0.43    0.31
   6  -1  -3    4.53    0.45
  -6  -1   3    3.74    0.43
   6  -1  -3    4.41    0.37
  -6  -1   3    4.69    0.36
   6   1  -3    5.30    0.36
   6   1  -3    4.23    0.34
   6   1  -3    5.11    0.49
  -6   1   3    4.52    0.34
   6   1  -3    4.24    0.41
  -6   1   3    4.48    0.44
  -5  -1   3   14.29    0.57
  -5  -1   3   15.69    0.68
   5  -1  -3   14.30    0.58
   5  -1  -3   14.58    0.62
   5  -1  -3   14.86    0.63
   5  -1  -3   14.96    0.64
  -5   1   3   14.36    0.51
  -5   1   3   15.59    0.65
   5   1  -3   15.97    0.56
   5   1  -3   14.42    0.55
   5   1  -3   15.47    0.62
   5   1  -3   15.61    0.57
   5   1  -3   15.04    0.63
   4  -1  -3   27.29    0.83
   4  -1  -3   25.62    0.83
  -4  -1   3   26.17    0.78
   4  -1  -3   25.35    0.84
   4  -1  -3   25.80    0.80
  -4  -1   3   25.50    0.86
   4   1  -3   24.42    0.83
  -4   1   3   24.83    0.70
   4   1  -3   24.68    0.77
   4   1  -3   25.02    0.82
  -4   1   3   26.01    0.84
   4   1  -3   25.54    0.84
  -3  -1   3   11.54    0.41
   3  -1  -3   11.20    0.44
   3  -1  -3   10.46    0.43
   3  -1  -3   10.31    0.44
  -3  -1   3   10.60    0.46
   3   1  -3   11.71    0.42
   3   1  -3   11.85    0.47
  -3   1   3   11.63    0.33
   3   1  -3   10.51    0.42
   3   1  -3   11.00    0.44
  -3   1   3   11.72    0.45
   2  -1  -3    0.72    0.13
  -2  -1   3    0.79    0.12
  -2  -1   3    0.65    0.15
   2  -1  -3    0.67    0.14
   2  -1  -3    0.94    0.13
   2   1  -3    0.46    0.14
  -2   1   3    0.46    0.04
   2   1  -3    0.67    0.12
   2   1  -3    0.46    0.13
  -2   1   3    0.74    0.05
  -2   1   3    0.70    0.14
   1  -1  -3   48.75    1.16
   1  -1  -3   50.04    1.20
  -1  -1   3   48.25    1.20
   1  -1  -3   48.07    1.20
   1   1  -3   46.53    1.19
   1   1  -3   48.76    1.21
  -1   1   3   47.38    1.16
  -1   1   3   47.10    1.20
   0  -1   3  210.34    5.14
   0  -1  -3  224.96    5.20
   0   1   3  211.58    4.97
   0   1  -3  204.36    5.00
  -1  -1  -3  307.17    7.16
   1   1   3  304.75    7.15
  -2  -1  -3   36.42    1.01
   2  -1   3   33.35    0.90
   2  -1   3   33.98    0.88
  -2   1  -3   32.37    0.96
  -2   1  -3   31.84    0.88
   2   1   3   33.07    0.97
   2   1   3   31.63    0.89
  -3  -1  -3   16.14    0.60
  -3  -1  -3   16.59    0.65
   3  -1   3   16.41    0.56
   3  -1   3   16.48    0.56
  -3   1  -3   16.83    0.62
  -3   1  -3   16.53    0.56
   3   1   3   17.10    0.59
   3   1   3   17.42    0.65
   3   1   3   17.42    0.51
   3   1   3   16.65    0.57
   4  -1   3   10.89    0.45
   4  -1   3   10.63    0.45
  -4  -1  -3    9.84    0.49
  -4  -1  -3   10.71    0.54
   4  -1   3   10.43    0.46
   4   1   3   10.39    0.47
   4   1   3    9.59    0.46
   4   1   3   10.07    0.42
  -4   1  -3    9.81    0.45
   4   1   3   10.46    0.45
  -4   1  -3    8.98    0.48
   4   1   3   10.26    0.40
   4   1   3    9.37    0.51
  -5  -1  -3   22.88    0.92
   5  -1   3   23.18    0.80
  -5  -1  -3   24.41    0.90
   5  -1   3   22.41    0.79
   5  -1   3   23.51    0.84
   5  -1   3   23.37    0.74
   5   1   3   21.99    0.81
   5   1   3   22.79    0.84
   5   1   3   22.27    0.78
   5   1   3   23.00    0.92
   5   1   3   23.06    0.76
  -5   1  -3   23.17    0.84
  -5   1  -3   22.70    0.90
   5   1   3   24.39    0.76
   6  -1   3    4.01    0.39
  -6  -1  -3    4.04    0.45
  -6  -1  -3    3.32    0.42
   6  -1   3    3.56    0.38
   6  -1   3    2.74    0.38
  -6   1  -3    3.36    0.38
  -6   1  -3    3.59    0.41
   6   1   3    3.57    0.35
   6   1   3    3.68    0.39
   6   1   3    3.45    0.38
   6   1   3    4.20    0.44
   7  -1   3    0.28    0.24
   7  -1   3    0.87    0.33
   7  -1   3    0.54    0.29
   7   1   3    0.31    0.26
   7   1   3    0.40    0.25
   7   1   3    0.39    0.30
   8  -1   3   -0.30    0.28
   8  -1   3    0.18    0.31
   8   1   3   -0.13    0.32
   8   1   3    0.06    0.28
   8  -2  -3    4.02    0.46
   8  -2  -3    4.22    0.55
   8   2  -3    4.36    0.53
   8   2  -3    3.87    0.50
   7  -2  -3    4.38    0.43
   7  -2  -3    5.27    0.54
   7   2  -3    4.67    0.43
  -7   2   3    4.28    0.49
   7   2  -3    5.27    0.52
   7   2  -3    5.00    0.55
  -6  -2   3   12.59    0.71
   6  -2  -3   12.89    0.66
  -6  -2   3   13.11    0.62
   6  -2  -3   14.18    0.69
   6  -2  -3   13.85    0.62
   6   2  -3   14.10    0.61
   6   2  -3   14.52    0.68
   6   2  -3   14.42    0.70
  -6   2   3   13.98    0.67
   6   2  -3   13.90    0.60
   5  -2  -3    1.09    0.21
  -5  -2   3    0.97    0.22
   5  -2  -3    1.01    0.25
   5  -2  -3    1.36    0.24
  -5  -2   3    0.83    0.25
   5  -2  -3    0.85    0.25
   5   2  -3    0.92    0.24
   5   2  -3    1.00    0.22
   5   2  -3    1.16    0.23
   5   2  -3    1.48    0.24
  -5   2   3    1.19    0.24
  -5   2   3    1.34    0.17
   5   2  -3    1.19    0.24
  -4  -2   3    2.17    0.27
  -4  -2   3    2.23    0.24
   4  -2  -3    2.50    0.28
   4  -2  -3    2.26    0.24
   4  -2  -3    2.27    0.27
   4  -2  -3    2.05    0.23
  -4   2   3    2.18    0.17
   4   2  -3    2.14    0.24
  -4   2   3    2.12    0.23
   4   2  -3    1.79    0.24
   4   2  -3    2.24    0.27
   4   2  -3    1.82    0.26
   4   2  -3    2.29    0.24
  -3  -2   3   47.25    1.33
   3  -2  -3   46.09    1.30
   3  -2  -3   46.67    1.30
   3  -2  -3   48.82    1.28
  -3  -2   3   49.93    1.32
  -3   2   3   47.58    1.28
  -3   2   3   48.93    1.20
   3   2  -3   46.98    1.30
   3   2  -3   49.60    1.32
   3   2  -3   48.71    1.31
   3   2  -3   47.21    1.32
   2  -2  -3   70.68    1.80
  -2  -2   3   71.20    1.82
  -2  -2   3   70.23    1.79
   2  -2  -3   71.15    1.76
   2  -2  -3   71.01    1.79
   2   2  -3   73.18    1.82
   2   2  -3   72.48    1.78
   2   2  -3   68.81    1.79
  -2   2   3   72.75    1.77
  -2   2   3   72.85    1.73
   1  -2  -3  122.48    2.96
   1  -2  -3  125.56    2.95
   1  -2  -3  126.03    2.97
  -1  -2   3  121.33    2.94
  -1  -2   3  123.44    3.01
   1  -2  -3  123.12    2.94
  -1   2   3  125.44    2.94
   1   2  -3  124.44    2.94
  -1   2   3  125.07    2.96
   1   2  -3  126.49    3.01
   0  -2  -3   16.93    0.55
   0  -2   3   16.40    0.43
   0  -2   3   16.96    0.49
   0   2   3   15.81    0.53
   0   2  -3   15.11    0.43
  -1  -2  -3  443.73   10.86
   1  -2   3  467.06   10.64
   1   2   3  439.11   10.47
   2  -2   3   50.59    1.27
   2  -2   3   49.75    1.31
  -2  -2  -3   49.88    1.40
  -2   2  -3   48.95    1.24
   2   2   3   49.29    1.39
  -3  -2  -3    8.04    0.47
   3  -2   3    7.74    0.36
  -3  -2  -3    8.62    0.42
   3  -2   3    7.84    0.35
   3   2   3    8.14    0.38
   3   2   3    8.50    0.41
   3   2   3    7.55    0.36
   3   2   3    7.19    0.44
  -3   2  -3    7.81    0.34
   3   2   3    7.20    0.36
  -4  -2  -3    4.75    0.38
  -4  -2  -3    5.12    0.43
   4  -2   3    5.08    0.31
   4  -2   3    5.16    0.33
   4  -2   3    4.74    0.34
   4   2   3    4.39    0.34
   4   2   3    4.21    0.39
  -4   2  -3    4.71    0.31
   4   2   3    4.83    0.36
  -4   2  -3    5.50    0.39
   4   2   3    5.38    0.36
   4   2   3    5.03    0.33
   5  -2   3   13.16    0.60
   5  -2   3   13.32    0.61
  -5  -2  -3   14.31    0.69
  -5  -2  -3   14.15    0.74
   5  -2   3   13.68    0.57
   5   2   3   14.10    0.60
   5   2   3   14.17    0.60
  -5   2  -3   14.22    0.60
   5   2   3   13.55    0.62
   5   2   3   14.33    0.65
   5   2   3   14.64    0.71
  -5   2  -3   14.06    0.68
  -6  -2  -3    4.74    0.47
   6  -2   3    4.45    0.43
   6  -2   3    4.76    0.46
   6  -2   3    4.48    0.38
  -6  -2  -3    6.19    0.54
   6   2   3    5.43    0.50
   6   2   3    4.42    0.44
   6   2   3    4.74    0.38
   6   2   3    5.36    0.40
  -6   2  -3    5.05    0.43
  -6   2  -3    4.82    0.47
   7  -2   3    3.40    0.43
  -7  -2  -3    3.95    0.52
   7  -2   3    4.02    0.49
   7   2   3    3.23    0.47
   7   2   3    3.50    0.40
   7   2   3    3.36    0.40
  -7   2  -3    3.58    0.41
   7   2   3    2.98    0.41
   8  -2   3    0.13    0.34
   8  -2   3    0.44    0.39
   8   2   3    0.72    0.28
   8   2   3   -0.21    0.31
   8   2   3    0.82    0.33
   8  -3  -3    0.06    0.31
   8   3  -3    0.07    0.35
   8   3  -3   -0.09    0.25
   8   3  -3   -0.05    0.33
   7  -3  -3    2.71    0.41
   7  -3  -3    2.54    0.43
   7  -3  -3    3.09    0.36
   7   3  -3    3.02    0.40
   7   3  -3    2.44    0.41
  -7   3   3    2.60    0.40
   7   3  -3    3.94    0.51
   7   3  -3    3.79    0.42
   6  -3  -3    7.83    0.55
  -6  -3   3    7.52    0.50
  -6  -3   3    8.37    0.59
   6  -3  -3    7.56    0.54
   6  -3  -3    7.65    0.46
   6   3  -3    7.80    0.48
  -6   3   3    8.14    0.50
   6   3  -3    7.74    0.54
   6   3  -3    8.06    0.51
   6   3  -3    7.53    0.50
   5  -3  -3    6.20    0.41
  -5  -3   3    5.84    0.44
   5  -3  -3    5.98    0.44
  -5  -3   3    6.63    0.44
   5  -3  -3    6.28    0.44
   5  -3  -3    6.70    0.39
  -5   3   3    6.46    0.42
  -5   3   3    5.91    0.31
  -5   3   3    5.86    0.31
   5   3  -3    5.93    0.40
   5   3  -3    5.67    0.43
   5   3  -3    6.01    0.43
   5   3  -3    6.34    0.44
   5   3  -3    6.19    0.44
  -4  -3   3   14.43    0.61
   4  -3  -3   13.72    0.53
  -4  -3   3   13.21    0.61
   4  -3  -3   12.93    0.56
   4  -3  -3   14.48    0.55
   4  -3  -3   15.29    0.60
  -4   3   3   14.73    0.56
   4   3  -3   13.51    0.56
   4   3  -3   12.81    0.57
   4   3  -3   14.38    0.61
  -4   3   3   13.83    0.48
   4   3  -3   14.43    0.57
   4   3  -3   13.95    0.59
   4   3  -3   14.91    0.63
   3  -3  -3   28.21    0.90
   3  -3  -3   30.44    0.85
  -3  -3   3   30.60    0.95
   3  -3  -3   29.49    0.90
  -3  -3   3   29.67    0.92
   3   3  -3   29.32    0.90
   3   3  -3   28.49    0.90
  -3   3   3   29.52    0.83
   3   3  -3   29.04    0.94
  -3   3   3   29.20    0.85
   3   3  -3   29.20    0.91
  -2  -3   3  219.74    5.19
  -2  -3   3  209.44    5.11
   2  -3  -3  213.35    5.11
   2  -3  -3  214.46    5.13
   2  -3  -3  213.83    5.06
  -2   3   3  216.75    5.06
   2   3  -3  223.39    5.15
   2   3  -3  211.14    5.11
  -2   3   3  217.19    5.10
   2   3  -3  221.16    5.20
  -1  -3   3  110.42    2.59
   1  -3  -3  106.33    2.63
   1  -3  -3  106.50    2.58
   1  -3  -3  106.40    2.56
  -1  -3   3  103.75    2.56
  -1  -3   3  106.00    2.69
  -1   3   3  109.92    2.64
   1   3  -3  110.25    2.70
   1   3  -3  105.89    2.56
   0  -3   3   29.14    0.79
   0  -3   3   27.56    0.69
   0  -3  -3   28.01    0.86
   0   3   3   28.78    0.86
   0   3  -3   26.64    0.69
   0   3  -3   27.65    0.87
   1  -3   3   42.27    1.13
  -1  -3  -3   42.53    1.24
   1  -3   3   44.26    1.10
  -1   3  -3   41.61    1.00
  -1   3  -3   42.13    1.00
   1   3   3   42.53    1.23
   2  -3   3  130.73    3.35
  -2  -3  -3  141.76    3.49
   2  -3   3  138.23    3.31
   2   3   3  137.30    3.36
   2   3   3  142.40    3.36
   2   3   3  140.88    3.39
   2   3   3  138.30    3.47
  -2   3  -3  135.65    3.24
   3  -3   3   17.84    0.60
  -3  -3  -3   18.37    0.76
  -3  -3  -3   17.09    0.65
   3  -3   3   17.50    0.60
   3  -3   3   16.86    0.63
  -3   3  -3   17.07    0.54
   3   3   3   17.82    0.74
   3   3   3   17.63    0.63
   3   3   3   17.80    0.63
   3   3   3   16.49    0.64
   4  -3   3  105.28    2.60
   4  -3   3  100.08    2.62
  -4  -3  -3   99.30    2.77
  -4  -3  -3   99.63    2.67
   4  -3   3  103.52    2.58
   4   3   3  100.50    2.66
  -4   3  -3  102.08    2.55
   4   3   3  102.00    2.62
   4   3   3  102.47    2.61
   4   3   3  102.81    2.77
  -5  -3  -3   20.75    0.83
  -5  -3  -3   20.03    0.92
   5  -3   3   19.71    0.77
   5  -3   3   20.67    0.80
   5  -3   3   20.72    0.74
  -5   3  -3   19.99    0.73
   5   3   3   20.37    0.77
   5   3   3   20.30    0.82
   5   3   3   19.59    0.81
  -5   3  -3   19.60    0.82
   5   3   3   20.09    0.78
   6  -3   3    1.12    0.32
  -6  -3  -3    1.42    0.35
   6  -3   3    0.90    0.24
   6  -3   3    1.13    0.30
  -6  -3  -3    1.92    0.40
  -6   3  -3    0.84    0.26
   6   3   3    0.93    0.31
   6   3   3    0.85    0.27
  -6   3  -3    1.02    0.23
   6   3   3    1.08    0.29
   6   3   3    1.30    0.31
  -7  -3  -3    0.56    0.33
   7  -3   3    0.67    0.32
   7  -3   3    0.89    0.32
   7   3   3    0.61    0.29
   7   3   3    0.41    0.26
   7   3   3    0.64    0.29
   7   3   3    0.97    0.37
   8  -3   3    0.75    0.41
   8  -3   3    1.00    0.36
   8   3   3    0.84    0.37
   8   3   3    0.56    0.34
   8   3   3    0.74    0.35
   8  -4  -3   -0.12    0.32
   8  -4  -3    0.65    0.37
   8   4  -3   -0.10    0.35
   8   4  -3   -0.18    0.31
   8   4  -3    0.04    0.30
   7  -4  -3    9.75    0.68
   7  -4  -3    8.62    0.60
   7   4  -3   11.84    0.73
   7   4  -3   11.09    0.65
   7   4  -3   10.12    0.63
   7   4  -3    9.78    0.67
   6  -4  -3    1.90    0.33
  -6  -4   3    1.32    0.34
   6  -4  -3    1.81    0.36
  -6  -4   3    1.42    0.32
   6  -4  -3    1.22    0.27
   6   4  -3    1.61    0.36
  -6   4   3    1.86    0.30
   6   4  -3    1.70    0.36
   6   4  -3    1.82    0.36
   6   4  -3    1.08    0.28
   5  -4  -3    1.66    0.25
  -5  -4   3    1.24    0.29
  -5  -4   3    2.15    0.34
   5  -4  -3    2.22    0.34
   5  -4  -3    1.43    0.27
   5  -4  -3    1.70    0.24
   5   4  -3    2.02    0.34
   5   4  -3    1.48    0.28
  -5   4   3    1.77    0.22
   5   4  -3    2.33    0.34
   5   4  -3    1.73    0.30
   5   4  -3    1.63    0.32
  -5   4   3    1.70    0.22
  -5   4   3    1.78    0.26
   4  -4  -3    9.92    0.51
   4  -4  -3   10.76    0.46
   4  -4  -3   10.41    0.44
   4  -4  -3   10.93    0.52
  -4  -4   3    9.74    0.55
  -4  -4   3   10.04    0.54
   4   4  -3   10.22    0.52
  -4   4   3   10.06    0.45
   4   4  -3    9.71    0.51
  -4   4   3    9.60    0.44
   4   4  -3   10.58    0.52
   4   4  -3    9.77    0.57
   4   4  -3    9.89    0.50
   3  -4  -3    1.37    0.23
  -3  -4   3    1.71    0.28
  -3  -4   3    1.98    0.25
   3  -4  -3    1.94    0.19
   3  -4  -3    1.86    0.23
   3   4  -3    2.10    0.30
  -3   4   3    1.88    0.19
   3   4  -3    2.37    0.26
   3   4  -3    1.60    0.23
  -3   4   3    1.52    0.22
   2  -4  -3   42.62    1.11
  -2  -4   3   44.22    1.19
   2  -4  -3   41.66    1.21
   2  -4  -3   43.38    1.20
  -2  -4   3   42.82    1.30
  -2   4   3   43.86    1.12
   2   4  -3   43.52    1.20
   2   4  -3   43.82    1.18
  -2   4   3   42.90    1.22
   2   4  -3   41.93    1.30
   1  -4  -3    9.43    0.37
  -1  -4   3    9.53    0.35
   1  -4  -3    9.49    0.46
  -1  -4   3    9.43    0.37
   1  -4  -3    9.58    0.34
  -1  -4   3    9.59    0.49
  -1   4   3   10.18    0.46
   1   4  -3    9.02    0.48
   1   4  -3    9.61    0.35
   0  -4   3    7.11    0.31
   0  -4  -3    5.71    0.39
   0  -4  -3    7.46    0.27
   0  -4   3    6.90    0.22
   0   4  -3    6.78    0.42
   0   4   3    6.26    0.40
   1  -4   3    6.63    0.35
  -1  -4  -3    7.86    0.47
   1   4   3    8.90    0.45
  -1   4  -3    7.99    0.45
   1   4   3    8.69    0.41
   1   4   3    7.04    0.34
   1   4   3    7.37    0.36
   2  -4   3   27.97    0.83
  -2  -4  -3   26.60    0.97
   2  -4   3   27.92    0.81
   2  -4   3   28.90    0.86
   2   4   3   26.52    0.85
   2   4   3   25.72    0.96
   2   4   3   25.71    0.85
  -2   4  -3   27.20    0.67
   2   4   3   27.12    0.88
  -3  -4  -3    5.19    0.46
   3  -4   3    5.52    0.38
   3  -4   3    5.60    0.32
   3  -4   3    6.43    0.34
  -3  -4  -3    5.38    0.38
   3   4   3    5.11    0.44
   3   4   3    5.33    0.39
   3   4   3    5.84    0.37
   3   4   3    5.91    0.37
  -3   4  -3    5.78    0.25
  -4  -4  -3    6.23    0.46
   4  -4   3    5.61    0.42
  -4  -4  -3    5.58    0.52
   4  -4   3    5.98    0.38
   4  -4   3    5.88    0.40
   4   4   3    5.63    0.38
   4   4   3    5.85    0.41
   4   4   3    5.85    0.45
  -4   4  -3    5.89    0.31
   5  -4   3    3.14    0.33
  -5  -4  -3    2.92    0.44
   5  -4   3    2.63    0.37
   5  -4   3    3.01    0.35
  -5  -4  -3    2.74    0.35
  -5   4  -3    3.51    0.41
   5   4   3    2.34    0.34
  -5   4  -3    2.39    0.27
   5   4   3    2.77    0.38
   5   4   3    2.58    0.35
   6  -4   3    1.43    0.28
  -6  -4  -3    1.70    0.41
   6  -4   3    1.94    0.34
   6  -4   3    2.08    0.38
   6   4   3    1.96    0.37
   6   4   3    1.86    0.37
  -6   4  -3    1.98    0.35
   6   4   3    1.86    0.36
   7  -4   3    0.92    0.34
   7  -4   3    0.59    0.33
   7   4   3    0.60    0.33
   7   4   3    0.67    0.36
   7   4   3    0.75    0.31
   7  -5  -3   -0.26    0.29
   7  -5  -3    1.01    0.37
   7   5  -3    0.84    0.32
   7   5  -3    0.54    0.34
   7   5  -3    0.17    0.33
  -6  -5   3    0.48    0.33
   6  -5  -3    0.09    0.19
   6  -5  -3    0.40    0.23
   6  -5  -3    0.46    0.25
   6   5  -3    1.06    0.31
   6   5  -3    0.54    0.30
   6   5  -3    0.34    0.28
  -5  -5   3    2.50    0.41
   5  -5  -3    1.91    0.33
   5  -5  -3    2.14    0.29
   5  -5  -3    1.78    0.34
   5  -5  -3    2.27    0.26
  -5  -5   3    1.89    0.34
  -5   5   3    1.92    0.26
   5   5  -3    1.97    0.34
   5   5  -3    2.00    0.34
   5   5  -3    2.06    0.34
   4  -5  -3    3.02    0.25
  -4  -5   3    2.66    0.38
   4  -5  -3    2.86    0.35
   4  -5  -3    2.76    0.35
  -4  -5   3    2.09    0.31
  -4   5   3    2.54    0.25
   4   5  -3    2.78    0.37
   4   5  -3    2.96    0.36
   4   5  -3    2.49    0.35
   4   5  -3    2.59    0.34
  -4   5   3    2.76    0.30
   3  -5  -3   31.96    1.03
  -3  -5   3   32.11    1.01
   3  -5  -3   29.65    0.99
   3  -5  -3   30.72    0.89
  -3  -5   3   33.00    1.14
  -3   5   3   32.79    0.90
  -3   5   3   33.93    1.04
   3   5  -3   33.47    1.15
   3   5  -3   32.54    1.01
   3   5  -3   31.28    1.02
   3   5  -3   29.96    1.01
   2  -5  -3    3.12    0.29
  -2  -5   3    2.85    0.33
  -2  -5   3    3.13    0.25
   2  -5  -3    2.75    0.19
  -2  -5   3    2.68    0.24
   2  -5  -3    2.85    0.30
  -2   5   3    2.84    0.31
   2   5  -3    2.53    0.28
   2   5  -3    2.95    0.35
   2   5  -3    2.90    0.24
   1  -5  -3   60.45    1.71
  -1  -5   3   61.11    1.59
  -1  -5   3   60.98    1.76
   1  -5  -3   62.30    1.53
  -1  -5   3   61.26    1.54
   1  -5  -3   60.68    1.58
   1   5  -3   58.27    1.75
  -1   5   3   61.08    1.73
   1   5  -3   61.91    1.61
   0  -5   3    7.68    0.37
   0  -5  -3    8.00    0.48
   0  -5  -3    8.25    0.32
   0  -5   3    7.54    0.24
   0   5   3    7.99    0.36
   0   5   3    7.36    0.46
   0   5  -3    7.37    0.48
  -1  -5  -3    6.58    0.47
   1  -5   3    5.83    0.35
   1   5   3    6.32    0.36
   1   5   3    7.11    0.41
  -1   5  -3    7.52    0.44
   1   5   3    7.19    0.37
   1   5   3    6.82    0.44
  -2  -5  -3    1.73    0.32
   2  -5   3    1.69    0.25
   2  -5   3    1.93    0.23
  -2  -5  -3    1.81    0.23
   2   5   3    1.86    0.26
   2   5   3    1.40    0.30
   2   5   3    1.77    0.28
   2   5   3    1.86    0.26
  -2   5  -3    1.68    0.29
  -3  -5  -3   28.38    1.12
  -3  -5  -3   29.93    0.98
   3  -5   3   28.94    0.97
   3  -5   3   28.67    0.90
   3   5   3   28.39    0.96
   3   5   3   29.29    0.96
   3   5   3   26.60    0.98
  -3   5  -3   27.75    0.73
   4  -5   3    1.42    0.30
  -4  -5  -3    1.50    0.38
  -4  -5  -3    1.86    0.31
   4  -5   3    2.37    0.30
   4  -5   3    1.73    0.27
   4   5   3    1.43    0.30
   4   5   3    1.39    0.33
  -4   5  -3    1.68    0.18
   4   5   3    1.55    0.32
  -5  -5  -3    3.58    0.52
   5  -5   3    2.89    0.41
   5  -5   3    3.09    0.36
  -5  -5  -3    3.26    0.42
   5  -5   3    3.67    0.37
   5   5   3    3.43    0.45
   5   5   3    4.25    0.44
   5   5   3    3.01    0.40
   6  -5   3    0.42    0.31
  -6  -5  -3    0.01    0.32
   6  -5   3   -0.29    0.21
   6   5   3    0.30    0.30
   6   5   3    0.48    0.28
   6   5   3    0.18    0.26
   7  -5   3    0.04    0.29
   7  -5   3    0.36    0.34
   7   5   3    0.19    0.33
   7   5   3    0.72    0.35
   7   5   3    0.06    0.33
   7  -6  -3    0.23    0.34
   7  -6  -3    0.29    0.35
   7   6  -3    0.15    0.35
   7   6  -3    0.54    0.35
   7   6  -3    0.29    0.31
   6  -6  -3    3.30    0.48
  -6  -6   3    3.57    0.51
   6  -6  -3    3.71    0.48
   6   6  -3    2.94    0.45
   6   6  -3    3.10    0.46
   6   6  -3    3.50    0.49
  -5  -6   3    0.40    0.31
   5  -6  -3    0.52    0.22
   5  -6  -3    0.70    0.30
   5  -6  -3    0.44    0.27
  -5  -6   3    0.48    0.30
   5   6  -3    1.25    0.34
   5   6  -3    0.21    0.27
   5   6  -3    0.28    0.26
   4  -6  -3    6.47    0.43
  -4  -6   3    6.94    0.37
  -4  -6   3    7.73    0.50
   4  -6  -3    7.09    0.50
  -4  -6   3    6.77    0.57
   4   6  -3    7.07    0.50
   4   6  -3    6.94    0.50
  -4   6   3    7.42    0.36
  -4   6   3    6.40    0.46
  -3  -6   3   10.66    0.53
   3  -6  -3   10.55    0.54
  -3  -6   3    9.71    0.63
   3  -6  -3    9.76    0.37
   3  -6  -3    9.60    0.49
  -3  -6   3    9.75    0.43
  -3   6   3    9.07    0.52
   3   6  -3    9.60    0.53
   3   6  -3    9.43    0.52
   2  -6  -3   25.55    0.71
  -2  -6   3   25.27    0.79
  -2  -6   3   24.85    0.78
   2  -6  -3   25.36    0.89
   2  -6  -3   24.63    0.83
  -2  -6   3   24.39    0.99
   2   6  -3   26.09    0.87
   2   6  -3   24.50    0.84
  -2   6   3   24.77    0.93
   1  -6  -3   46.74    1.19
  -1  -6   3   44.95    1.26
  -1  -6   3   44.96    1.47
  -1  -6   3   47.21    1.20
   1  -6  -3   45.42    1.42
   1  -6  -3   44.82    1.26
   1   6  -3   45.06    1.29
   1   6  -3   44.60    1.46
  -1   6   3   45.80    1.24
  -1   6   3   45.75    1.44
   0  -6   3   37.12    1.10
   0  -6  -3   37.15    1.03
   0  -6   3   36.95    0.92
   0  -6  -3   36.07    1.25
   0   6  -3   37.50    1.27
   0   6   3   38.72    1.09
   0   6   3   38.63    1.28
   0   6  -3   38.28    1.08
   1  -6   3    6.81    0.40
  -1  -6  -3    7.27    0.53
  -1  -6  -3    7.72    0.29
   1   6   3    6.53    0.37
  -1   6  -3    7.06    0.47
   1   6   3    6.99    0.48
  -2  -6  -3    2.23    0.37
   2  -6   3    2.24    0.28
   2  -6   3    1.69    0.27
  -2  -6  -3    1.95    0.25
   2   6   3    2.08    0.29
  -2   6  -3    1.46    0.31
   2   6   3    1.79    0.31
   2   6   3    2.26    0.30
   3  -6   3    6.37    0.46
  -3  -6  -3    6.43    0.59
   3  -6   3    6.00    0.39
  -3  -6  -3    6.20    0.45
   3   6   3    6.45    0.42
   3   6   3    6.14    0.45
   3   6   3    6.45    0.45
   4  -6   3    0.62    0.25
   4  -6   3    1.08    0.26
  -4  -6  -3    0.51    0.25
  -4  -6  -3    0.56    0.33
   4   6   3    0.58    0.27
   4   6   3    0.69    0.29
   4   6   3    1.17    0.33
   5  -6   3    2.35    0.39
  -5  -6  -3    1.71    0.36
  -5  -6  -3    2.04    0.45
   5  -6   3    2.08    0.33
   5   6   3    1.75    0.38
   5   6   3    1.87    0.38
   5   6   3    1.98    0.37
   6  -6   3    6.03    0.57
   6  -6   3    5.12    0.56
   6   6   3    5.62    0.60
   6   6   3    5.05    0.56
   6   6   3    5.58    0.60
   7  -6   3    1.84    0.40
   7  -6   3    1.57    0.38
   7   6   3    2.26    0.46
   7   6   3    1.04    0.41
   7   6   3    1.73    0.43
   7  -7  -3    0.22    0.34
   7  -7  -3    0.16    0.29
   7   7  -3    0.14    0.35
   7   7  -3    0.98    0.43
   7   7  -3    0.13    0.35
   6  -7  -3    0.45    0.32
   6  -7  -3    0.44    0.27
   6   7  -3    0.70    0.35
   6   7  -3    0.95    0.38
   6   7  -3    1.02    0.38
  -5  -7   3    2.36    0.38
   5  -7  -3    2.26    0.32
   5  -7  -3    3.13    0.44
   5  -7  -3    2.20    0.36
  -5  -7   3    2.13    0.46
   5   7  -3    1.71    0.38
   5   7  -3    2.14    0.42
   5   7  -3    2.18    0.41
  -4  -7   3   13.62    0.68
  -4  -7   3   12.41    0.79
   4  -7  -3   11.47    0.65
   4  -7  -3   13.02    0.67
   4   7  -3   11.07    0.66
   4   7  -3   10.76    0.61
   3  -7  -3   14.78    0.72
  -3  -7   3   16.07    0.87
  -3  -7   3   16.27    0.60
  -3  -7   3   17.00    0.69
   3  -7  -3   17.28    0.73
  -3   7   3   16.48    0.80
   3   7  -3   17.45    0.75
   3   7  -3   16.47    0.73
   2  -7  -3    9.01    0.54
  -2  -7   3   10.38    0.68
   2  -7  -3    8.96    0.49
   2  -7  -3    9.66    0.34
  -2  -7   3    9.72    0.44
  -2  -7   3   10.24    0.45
   2   7  -3    8.70    0.50
   2   7  -3    9.66    0.53
  -2   7   3    8.17    0.57
   1  -7  -3    2.53    0.20
   1  -7  -3    2.56    0.27
  -1  -7   3    2.57    0.28
  -1  -7   3    2.41    0.20
   1  -7  -3    3.26    0.41
   1   7  -3    2.63    0.31
  -1   7   3    2.81    0.29
   1   7  -3    3.08    0.32
   0  -7  -3    2.78    0.41
   0  -7  -3    3.23    0.25
   0  -7   3    2.92    0.13
   0  -7   3    2.67    0.30
   0   7   3    3.46    0.34
   0   7  -3    3.88    0.33
   0   7  -3    3.52    0.31
   1  -7   3    0.98    0.24
  -1  -7  -3    1.54    0.18
  -1  -7  -3    1.24    0.33
  -1  -7  -3    1.29    0.20
  -1   7  -3    1.62    0.22
   1   7   3    1.46    0.27
   2  -7   3    1.68    0.27
  -2  -7  -3    1.48    0.24
   2  -7   3    1.13    0.28
  -2  -7  -3    2.01    0.36
   2   7   3    1.33    0.29
   2   7   3    1.55    0.30
   2   7   3    1.40    0.30
  -3  -7  -3    0.22    0.21
   3  -7   3    0.37    0.26
  -3  -7  -3    0.46    0.27
   3  -7   3    0.56    0.22
   3   7   3    0.43    0.25
   3   7   3    0.58    0.27
   3   7   3    0.47    0.30
   4  -7   3    5.68    0.49
  -4  -7  -3    6.81    0.70
   4  -7   3    6.74    0.54
  -4  -7  -3    6.83    0.51
   4   7   3    5.09    0.52
   4   7   3    5.64    0.58
   4   7   3    5.36    0.54
   5  -7   3    0.34    0.32
   5  -7   3    1.18    0.30
   5   7   3    0.84    0.37
   5   7   3    0.66    0.34
   5   7   3    0.77    0.34
   6  -7   3    0.54    0.34
   6  -7   3    0.55    0.29
   6   7   3    1.42    0.44
   6   7   3    0.71    0.38
   6   7   3    0.59    0.37
   6  -8  -3    0.75    0.38
   6  -8  -3    0.80    0.37
   6   8  -3    0.73    0.43
   6   8  -3    0.86    0.41
   6   8  -3    0.76    0.38
   5  -8  -3    0.58    0.28
   5  -8  -3    0.78    0.34
   5   8  -3    0.65    0.36
   5   8  -3    0.74    0.38
   5   8  -3    0.84    0.37
  -4  -8   3    3.78    0.43
   4  -8  -3    3.54    0.46
   4  -8  -3    3.02    0.44
   4   8  -3    3.44    0.44
   4   8  -3    2.48    0.43
   3  -8  -3    0.36    0.26
   3  -8  -3    0.82    0.30
  -3  -8   3    0.70    0.23
  -3  -8   3    0.59    0.22
  -3  -8   3    0.78    0.35
   3   8  -3    1.37    0.33
   3   8  -3    0.93    0.29
   2  -8  -3    0.88    0.29
   2  -8  -3    0.49    0.24
  -2  -8   3    0.50    0.17
  -2  -8   3    0.39    0.33
  -2  -8   3    0.45    0.18
   2   8  -3    0.31    0.22
   2   8  -3    0.74    0.27
   1  -8  -3    9.91    0.49
   1  -8  -3    9.79    0.66
  -1  -8   3    9.31    0.38
  -1  -8   3    9.96    0.49
   1   8  -3    8.79    0.50
   1   8  -3   10.14    0.56
  -1   8   3    9.57    0.48
   0  -8  -3   19.66    0.64
   0  -8  -3   19.91    0.96
   0  -8   3   20.10    0.75
   0  -8  -3   19.17    0.66
   0  -8  -3   20.32    0.69
   0   8   3   17.73    0.72
   0   8  -3   18.03    0.71
  -1  -8  -3   15.25    0.58
   1  -8   3   12.43    0.62
  -1  -8  -3   13.76    0.83
   1   8   3   12.23    0.62
  -1   8  -3   13.49    0.56
  -2  -8  -3   13.89    0.88
   2  -8   3   15.55    0.72
  -2  -8  -3   16.05    0.65
   2  -8   3   14.51    0.67
   2   8   3   13.30    0.75
   2   8   3   15.81    0.73
  -3  -8  -3    0.67    0.38
   3  -8   3    1.79    0.36
  -3  -8  -3    0.84    0.26
   3  -8   3    0.72    0.29
   3   8   3    0.86    0.32
   3   8   3    0.98    0.32
   3   8   3    0.78    0.35
   4  -8   3    0.32    0.24
   4  -8   3    0.62    0.32
  -4  -8  -3    0.55    0.27
   4   8   3    0.58    0.27
   4   8   3    0.62    0.33
   4   8   3   -0.03    0.34
   5  -8   3   -0.08    0.24
   5  -8   3    0.34    0.27
   5   8   3   -0.16    0.33
   5   8   3    0.74    0.38
   5   8   3    0.18    0.33
   6  -8   3    0.11    0.28
   6  -8   3   -0.02    0.37
   6   8   3    0.07    0.39
   6   8   3   -0.03    0.35
   6   8   3    0.22    0.38
   5  -9  -3    9.19    0.68
   5  -9  -3    9.75    0.73
   5   9  -3    6.71    0.74
   5   9  -3    9.83    0.73
   5   9  -3    8.43    0.75
   4  -9  -3    8.77    0.65
   4  -9  -3    6.56    0.63
   4   9  -3    5.97    0.67
   4   9  -3    9.04    0.66
   4   9  -3    7.18    0.66
   3  -9  -3    7.20    0.56
   3  -9  -3    6.41    0.61
   3   9  -3    6.31    0.59
   3   9  -3    6.10    0.58
  -2  -9   3    4.56    0.39
   2  -9  -3    5.05    0.53
   2  -9  -3    4.95    0.47
   2   9  -3    4.33    0.47
   2   9  -3    4.13    0.44
   1  -9  -3    1.77    0.42
   1  -9  -3    1.76    0.30
  -1  -9   3    1.19    0.28
   1   9  -3    2.09    0.33
   1   9  -3    1.84    0.33
  -1   9   3    1.68    0.27
   0  -9  -3    5.39    0.61
   0  -9   3    4.41    0.43
   0  -9  -3    4.81    0.38
   0   9  -3    4.60    0.42
   0   9   3    4.33    0.41
   1  -9   3    3.78    0.42
  -1  -9  -3    4.31    0.55
  -1   9  -3    4.93    0.39
   1   9   3    3.99    0.43
   1   9   3    3.55    0.49
   2  -9   3    0.09    0.24
  -2  -9  -3    0.30    0.20
   2  -9   3    0.32    0.28
   2   9   3    0.14    0.27
   2   9   3    0.07    0.31
   3  -9   3    2.15    0.42
  -3  -9  -3    2.28    0.36
   3  -9   3    2.48    0.38
   3   9   3    2.59    0.49
   3   9   3    2.47    0.43
   4  -9   3    1.51    0.34
   4  -9   3    1.67    0.42
   4   9   3    1.48    0.41
   4   9   3    1.13    0.43
   4   9   3    1.04    0.39
   5  -9   3    1.03    0.39
   5  -9   3    1.58    0.38
   5   9   3    1.19    0.44
   5   9   3    1.24    0.43
   5   9   3    1.06    0.45
   4 -10  -3    0.53    0.34
   4 -10  -3    0.51    0.37
   4  10  -3    0.36    0.34
   4  10  -3    0.25    0.36
   4  10  -3    0.62    0.45
   3 -10  -3    0.19    0.33
   3 -10  -3   -0.18    0.31
   3  10  -3    0.45    0.33
   3  10  -3    0.87    0.37
   2 -10  -3    1.85    0.42
   2 -10  -3    2.51    0.41
   2  10  -3    1.44    0.40
   2  10  -3    1.62    0.36
  -1 -10   3    3.69    0.43
   1 -10  -3    3.12    0.40
   1  10  -3    2.72    0.38
  -1  10   3    3.81    0.38
   0 -10   3    0.19    0.25
   0  10  -3    0.00    0.21
   0  10   3   -0.06    0.20
   1 -10   3    1.22    0.35
   1  10   3    1.32    0.33
   1  10   3    0.80    0.36
   2 -10   3   -0.28    0.24
   2 -10   3    0.44    0.25
   2  10   3    0.09    0.36
   2  10   3   -0.23    0.28
   3 -10   3    1.11    0.38
   3 -10   3    0.73    0.31
   3  10   3    1.73    0.48
   3  10   3    1.08    0.39
   4 -10   3    1.03    0.34
   4 -10   3    0.52    0.37
   4  10   3    0.69    0.44
   4  10   3    0.26    0.38
   3 -11  -3    0.19    0.36
   3 -11  -3    0.95    0.39
   3  11  -3    0.71    0.37
   3  11  -3    0.75    0.38
   2 -11  -3    1.25    0.43
   2 -11  -3    1.44    0.39
   2  11  -3    1.30    0.38
   1 -11  -3    0.73    0.35
   1  11  -3    0.98    0.32
   0 -11   3    3.48    0.49
   0  11   3    1.52    0.45
   0  11  -3    2.74    0.40
   0  11   3    3.06    0.42
   1 -11   3    0.25    0.32
   1 -11   3    0.77    0.36
   1  11   3    0.13    0.38
   1  11   3    0.50    0.33
   2 -11   3    5.33    0.58
   2 -11   3    6.32    0.62
   2  11   3    5.27    0.58
   2  11   3    3.63    0.61
   3 -11   3    2.25    0.45
   8   0  -4    0.30    0.28
   8   0  -4    0.83    0.31
   7   0  -4   -0.14    0.21
   7   0  -4   -0.12    0.21
   6   0  -4    0.89    0.21
   6   0  -4    0.71    0.27
   6   0  -4    0.89    0.26
  -6   0   4    1.03    0.20
  -6   0   4    0.99    0.29
  -5   0   4    1.05    0.25
   5   0  -4    1.54    0.25
  -5   0   4    1.30    0.16
   5   0  -4    1.55    0.21
   5   0  -4    0.82    0.23
   4   0  -4   29.51    0.93
  -4   0   4   29.69    0.93
  -4   0   4   29.20    0.79
   4   0  -4   29.33    0.90
   4   0  -4   29.12    0.92
  -3   0   4   11.52    0.34
   3   0  -4   11.55    0.47
   3   0  -4   11.87    0.44
  -3   0   4   11.81    0.46
   3   0  -4   12.70    0.45
   3   0  -4   11.55    0.34
   2   0  -4   98.29    2.41
   2   0  -4  104.68    2.34
  -2   0   4   96.41    2.42
   2   0  -4   98.20    2.43
   1   0  -4    5.56    0.25
  -1   0   4    5.46    0.26
   0   0  -4   54.88    1.36
   0   0  -4   53.48    1.34
  -1   0  -4    1.50    0.20
   2   0   4  206.86    4.79
   2   0   4  205.59    4.78
  -2   0  -4  201.05    4.91
   3   0   4    8.03    0.36
  -3   0  -4    8.77    0.45
   3   0   4    9.16    0.35
   3   0   4    7.98    0.38
  -3   0  -4    8.11    0.40
   4   0   4    5.20    0.32
   4   0   4    5.69    0.35
   4   0   4    5.96    0.35
  -4   0  -4    6.22    0.42
  -4   0  -4    5.46    0.37
   5   0   4    0.04    0.15
   5   0   4    0.18    0.19
  -5   0  -4    0.30    0.21
   5   0   4    0.13    0.16
   5   0   4    0.13    0.16
  -5   0  -4    0.10    0.19
   5   0   4    0.47    0.20
  -6   0  -4   12.48    0.66
   6   0   4   10.90    0.59
   6   0   4   10.23    0.51
   6   0   4   11.34    0.56
   6   0   4   10.16    0.60
  -6   0  -4   10.07    0.63
   7   0   4    0.27    0.23
   7   0   4    0.01    0.21
   7   0   4    0.28    0.30
   8   0   4    1.29    0.40
   8  -1  -4    3.00    0.42
   8  -1  -4    2.66    0.48
   8   1  -4    2.41    0.43
   8   1  -4    2.55    0.45
   7  -1  -4    0.82    0.29
   7  -1  -4    0.37    0.31
   7   1  -4    0.14    0.29
   7   1  -4    0.31    0.25
  -7   1   4   -0.04    0.25
   6  -1  -4    1.16    0.30
  -6  -1   4    1.17    0.21
   6  -1  -4    1.09    0.26
  -6  -1   4    1.05    0.30
   6   1  -4    1.14    0.28
   6   1  -4    1.11    0.24
  -6   1   4    1.80    0.32
   6   1  -4    1.34    0.31
   5  -1  -4    5.16    0.35
   5  -1  -4    4.76    0.35
   5  -1  -4    5.51    0.45
  -5  -1   4    4.51    0.29
  -5  -1   4    5.40    0.43
   5   1  -4    5.77    0.40
  -5   1   4    3.95    0.21
   5   1  -4    5.09    0.37
  -5   1   4    4.88    0.40
   5   1  -4    5.52    0.34
   5   1  -4    4.99    0.29
   4  -1  -4   15.78    0.60
  -4  -1   4   15.29    0.53
   4  -1  -4   15.55    0.61
  -4  -1   4   16.72    0.64
   4  -1  -4   15.32    0.57
   4   1  -4   16.35    0.59
   4   1  -4   15.77    0.62
   4   1  -4   15.32    0.53
  -4   1   4   15.93    0.61
   4   1  -4   15.72    0.59
  -4   1   4   14.85    0.42
   3  -1  -4   35.03    1.01
   3  -1  -4   35.70    1.01
   3  -1  -4   34.25    1.00
  -3  -1   4   36.60    0.96
  -3  -1   4   35.77    1.04
   3   1  -4   35.02    1.03
   3   1  -4   35.64    1.01
  -3   1   4   36.05    1.02
   3   1  -4   34.12    1.00
   3   1  -4   36.58    0.95
   2  -1  -4  124.25    2.96
  -2  -1   4  113.83    2.96
   2  -1  -4  124.02    2.96
  -2  -1   4  121.80    2.92
   2   1  -4  123.69    2.97
   2   1  -4  127.01    2.95
  -2   1   4  124.11    2.96
   2   1  -4  124.96    2.93
   1  -1  -4  151.60    3.58
  -1  -1   4  148.54    3.58
   1  -1  -4  157.36    3.57
   1  -1  -4  156.73    3.62
  -1   1   4  152.88    3.58
  -1   1   4  150.50    3.54
   1   1  -4  144.99    3.57
   0  -1   4  287.77    6.67
   0  -1  -4  273.12    6.76
   0   1  -4  283.83    6.76
   0   1   4  271.60    6.62
  -1  -1  -4   10.09    0.41
   1  -1   4    9.95    0.35
   1   1   4   10.01    0.40
   2  -1   4    8.38    0.33
  -2  -1  -4    7.99    0.43
   2  -1   4    8.05    0.31
   2   1   4    8.43    0.33
  -2   1  -4    7.72    0.40
   2   1   4    7.84    0.39
   3  -1   4   33.46    0.96
   3  -1   4   34.06    0.95
  -3  -1  -4   33.55    1.09
   3  -1   4   33.66    0.98
  -3  -1  -4   34.22    1.01
  -3   1  -4   33.24    1.05
  -3   1  -4   31.14    0.95
   3   1   4   33.97    1.07
   3   1   4   34.42    0.89
   3   1   4   34.33    1.00
   3   1   4   34.85    0.97
   4  -1   4    9.64    0.44
  -4  -1  -4    9.89    0.55
   4  -1   4    9.85    0.45
  -4  -1  -4    9.73    0.50
   4  -1   4    9.77    0.44
  -4   1  -4    9.72    0.45
   4   1   4    9.79    0.39
   4   1   4    8.71    0.52
   4   1   4    9.73    0.42
   4   1   4    9.86    0.43
  -4   1  -4    9.55    0.52
   4   1   4   10.58    0.48
   4   1   4   10.26    0.47
   5  -1   4   17.21    0.59
   5  -1   4   16.41    0.67
  -5  -1  -4   17.31    0.80
  -5  -1  -4   17.19    0.74
   5  -1   4   16.29    0.65
   5  -1   4   16.57    0.69
   5   1   4   16.97    0.70
   5   1   4   16.67    0.63
   5   1   4   16.81    0.70
   5   1   4   17.89    0.61
   5   1   4   16.76    0.62
  -5   1  -4   16.85    0.69
  -5   1  -4   16.40    0.75
   6  -1   4    8.13    0.53
   6  -1   4    9.08    0.53
  -6  -1  -4    8.79    0.60
   6  -1   4    7.64    0.49
  -6  -1  -4    7.77    0.57
   6   1   4    7.71    0.42
   6   1   4    7.31    0.53
   6   1   4    7.97    0.47
   6   1   4    7.85    0.51
  -6   1  -4    9.05    0.54
   6   1   4    7.50    0.45
  -6   1  -4    7.97    0.58
   7  -1   4    3.07    0.45
  -7  -1  -4    2.87    0.46
   7  -1   4    3.40    0.42
   7  -1   4    3.12    0.40
   7   1   4    3.58    0.47
   7   1   4    2.70    0.37
   7   1   4    3.70    0.45
   8  -1   4    0.53    0.35
   8  -1   4    0.98    0.33
   8   1   4    0.67    0.36
   8   1   4    0.51    0.27
   8  -2  -4   -0.07    0.31
   8  -2  -4    0.28    0.28
   8   2  -4    0.16    0.30
   8   2  -4   -0.44    0.28
   7  -2  -4    9.00    0.63
   7  -2  -4    8.00    0.51
   7   2  -4    8.56    0.63
   7   2  -4    8.41    0.59
  -7   2   4    8.80    0.64
   7   2  -4    8.70    0.53
  -6  -2   4    6.15    0.42
   6  -2  -4    5.45    0.51
  -6  -2   4    6.94    0.54
   6  -2  -4    5.98    0.47
   6  -2  -4    6.18    0.43
   6   2  -4    5.53    0.39
   6   2  -4    6.27    0.42
   6   2  -4    6.05    0.49
   6   2  -4    5.56    0.46
  -6   2   4    5.54    0.46
  -5  -2   4    4.81    0.34
   5  -2  -4    5.39    0.40
   5  -2  -4    5.20    0.35
   5  -2  -4    4.82    0.40
   5  -2  -4    4.10    0.39
  -5  -2   4    4.62    0.42
   5   2  -4    5.26    0.35
   5   2  -4    4.87    0.38
  -5   2   4    4.75    0.22
  -5   2   4    4.41    0.37
   5   2  -4    5.15    0.35
   5   2  -4    4.89    0.32
   5   2  -4    4.95    0.40
   4  -2  -4    3.53    0.33
   4  -2  -4    3.30    0.31
  -4  -2   4    4.02    0.35
   4  -2  -4    3.36    0.27
  -4  -2   4    3.96    0.29
   4  -2  -4    4.17    0.32
  -4   2   4    3.14    0.29
   4   2  -4    3.25    0.28
   4   2  -4    3.38    0.32
   4   2  -4    4.25    0.37
  -4   2   4    3.36    0.16
   4   2  -4    3.19    0.26
  -4   2   4    3.31    0.16
   4   2  -4    3.14    0.26
   3  -2  -4   41.98    1.19
  -3  -2   4   45.02    1.23
   3  -2  -4   45.04    1.18
  -3  -2   4   44.65    1.20
   3  -2  -4   42.95    1.20
   3  -2  -4   43.24    1.18
   3   2  -4   42.20    1.19
   3   2  -4   42.43    1.20
   3   2  -4   42.47    1.19
  -3   2   4   41.25    1.05
   3   2  -4   43.13    1.22
  -3   2   4   42.68    1.18
  -2  -2   4   33.90    0.95
   2  -2  -4   33.88    0.93
   2  -2  -4   34.42    0.95
  -2  -2   4   32.99    0.95
   2  -2  -4   34.00    0.92
   2   2  -4   33.76    0.91
  -2   2   4   33.73    0.92
   2   2  -4   33.58    0.96
   2   2  -4   32.33    0.94
  -2   2   4   33.48    0.86
   1  -2  -4   18.61    0.55
  -1  -2   4   17.74    0.54
   1  -2  -4   18.17    0.55
   1  -2  -4   19.06    0.55
   1  -2  -4   18.33    0.54
   1   2  -4   17.74    0.59
   1   2  -4   18.08    0.54
  -1   2   4   18.89    0.56
  -1   2   4   18.32    0.55
   0  -2   4   42.58    1.07
   0  -2   4   44.32    1.13
   0  -2  -4   43.72    1.17
   0   2  -4   42.97    1.07
   0   2   4   43.13    1.17
   1  -2   4   54.23    1.35
  -1  -2  -4   47.93    1.42
   1   2   4   54.82    1.43
  -2  -2  -4   69.47    1.87
   2  -2   4   69.37    1.75
   2  -2   4   68.89    1.69
   2   2   4   66.78    1.85
   2   2   4   69.01    1.80
  -3  -2  -4   57.12    1.65
   3  -2   4   57.42    1.51
   3  -2   4   54.76    1.46
  -3  -2  -4   56.25    1.55
   3  -2   4   56.78    1.51
   3   2   4   55.56    1.49
  -3   2  -4   54.87    1.46
   3   2   4   55.96    1.54
   3   2   4   56.47    1.62
   3   2   4   56.21    1.49
   3   2   4   55.53    1.50
   4  -2   4   53.71    1.49
  -4  -2  -4   54.89    1.66
   4  -2   4   51.42    1.46
  -4  -2  -4   53.47    1.56
   4  -2   4   52.25    1.49
   4   2   4   54.75    1.48
   4   2   4   56.29    1.37
   4   2   4   51.11    1.50
  -4   2  -4   53.24    1.58
  -4   2  -4   55.31    1.48
   4   2   4   51.48    1.52
   4   2   4   54.03    1.63
   4   2   4   55.55    1.49
   5  -2   4    7.34    0.46
   5  -2   4    7.88    0.44
  -5  -2  -4    7.86    0.52
   5  -2   4    8.05    0.47
  -5  -2  -4    8.50    0.60
   5   2   4    7.41    0.43
   5   2   4    7.89    0.50
  -5   2  -4    8.06    0.51
  -5   2  -4    7.84    0.44
   5   2   4    6.98    0.45
   5   2   4    7.49    0.48
  -6  -2  -4    1.28    0.34
   6  -2   4    1.33    0.31
   6  -2   4    0.91    0.27
   6  -2   4    1.41    0.32
  -6  -2  -4    1.29    0.32
  -6   2  -4    1.21    0.31
   6   2   4    1.37    0.33
   6   2   4    0.81    0.27
   6   2   4    1.37    0.28
   6   2   4    1.42    0.28
  -6   2  -4    1.20    0.25
   7  -2   4    1.92    0.33
   7  -2   4    1.33    0.37
  -7  -2  -4    2.50    0.44
   7  -2   4    1.41    0.33
  -7   2  -4    2.16    0.34
   7   2   4    2.25    0.42
   7   2   4    1.67    0.31
   7   2   4    1.44    0.37
   7   2   4    1.97    0.32
   8  -2   4    0.24    0.31
   8  -2   4    0.88    0.40
   8   2   4    0.14    0.28
   8   2   4    0.18    0.34
   8   2   4    0.65    0.36
   8  -3  -4    1.65    0.43
   8  -3  -4    2.45    0.38
   8   3  -4    2.24    0.46
   8   3  -4    2.22    0.46
   8   3  -4    3.02    0.41
   7  -3  -4   17.79    0.85
   7  -3  -4   16.73    0.84
   7  -3  -4   16.86    0.73
   7   3  -4   16.37    0.78
   7   3  -4   17.37    0.86
   7   3  -4   16.17    0.73
   7   3  -4   15.80    0.82
  -7   3   4   15.63    0.78
   6  -3  -4    7.25    0.53
  -6  -3   4    6.50    0.48
  -6  -3   4    7.02    0.56
   6  -3  -4    5.61    0.53
   6  -3  -4    6.50    0.46
   6   3  -4    6.32    0.50
   6   3  -4    6.81    0.48
  -6   3   4    7.28    0.49
   6   3  -4    6.85    0.47
   6   3  -4    6.36    0.45
  -5  -3   4    5.71    0.43
   5  -3  -4    5.84    0.43
   5  -3  -4    5.85    0.39
   5  -3  -4    4.68    0.36
   5  -3  -4    5.61    0.43
  -5  -3   4    5.66    0.47
   5   3  -4    6.26    0.44
   5   3  -4    5.16    0.39
   5   3  -4    5.08    0.38
   5   3  -4    5.35    0.42
   5   3  -4    5.51    0.40
  -5   3   4    4.99    0.25
  -5   3   4    5.41    0.26
  -5   3   4    5.19    0.41
   4  -3  -4    7.44    0.43
   4  -3  -4    7.85    0.44
  -4  -3   4    8.15    0.44
   4  -3  -4    7.77    0.39
   4  -3  -4    6.76    0.37
  -4  -3   4    8.57    0.46
   4   3  -4    7.94    0.45
   4   3  -4    8.57    0.44
  -4   3   4    7.37    0.31
  -4   3   4    7.77    0.41
   4   3  -4    8.04    0.44
   4   3  -4    8.32    0.44
   4   3  -4    8.18    0.44
  -3  -3   4    7.79    0.42
  -3  -3   4    8.09    0.42
   3  -3  -4    8.39    0.41
   3  -3  -4    7.85    0.37
   3  -3  -4    8.12    0.39
  -3   3   4    8.30    0.38
   3   3  -4    8.82    0.42
   3   3  -4    8.50    0.43
  -3   3   4    8.71    0.33
   3   3  -4    8.97    0.42
   3   3  -4    9.38    0.41
   2  -3  -4   39.34    1.06
  -2  -3   4   38.13    1.15
   2  -3  -4   39.36    1.06
   2  -3  -4   36.99    1.08
   2  -3  -4   38.21    1.10
  -2  -3   4   37.51    1.08
  -2   3   4   42.77    1.08
   2   3  -4   38.27    1.09
  -2   3   4   42.37    1.07
   2   3  -4   43.13    1.18
   2   3  -4   39.08    1.09
   1  -3  -4   56.33    1.43
  -1  -3   4   58.60    1.46
   1  -3  -4   57.60    1.44
  -1  -3   4   55.87    1.42
   1  -3  -4   56.18    1.49
   1   3  -4   58.14    1.55
  -1   3   4   56.90    1.49
   1   3  -4   55.27    1.42
   0  -3   4    9.15    0.37
   0  -3   4    9.13    0.29
   0  -3  -4    7.34    0.41
   0   3   4    9.50    0.43
   0   3  -4    9.30    0.28
   1  -3   4  107.95    2.73
   1  -3   4  115.01    2.66
  -1  -3  -4  113.47    2.84
  -1   3  -4  108.03    2.60
   1   3   4  113.24    2.84
   2  -3   4   78.13    2.01
   2  -3   4   79.84    2.00
  -2  -3  -4   78.79    2.15
   2  -3   4   78.95    1.94
   2   3   4   79.55    2.01
   2   3   4   79.28    2.01
   2   3   4   79.65    2.05
   2   3   4   78.56    2.13
  -2   3  -4   76.11    1.89
   3  -3   4   12.12    0.51
  -3  -3  -4   11.97    0.53
  -3  -3  -4   11.64    0.62
   3  -3   4   11.59    0.47
   3  -3   4   11.07    0.44
  -3   3  -4   11.25    0.41
   3   3   4   11.40    0.52
   3   3   4   11.22    0.48
   3   3   4   11.27    0.56
   3   3   4   11.43    0.49
  -4  -3  -4    4.59    0.41
   4  -3   4    4.51    0.36
   4  -3   4    4.90    0.35
  -4  -3  -4    4.37    0.42
   4  -3   4    4.51    0.33
   4   3   4    4.88    0.36
   4   3   4    4.93    0.45
   4   3   4    4.75    0.39
   4   3   4    5.12    0.37
  -4   3  -4    4.30    0.31
  -4   3  -4    4.83    0.38
   5  -3   4    8.16    0.46
  -5  -3  -4    6.66    0.58
  -5  -3  -4    8.03    0.54
   5  -3   4    7.11    0.46
   5  -3   4    7.48    0.48
   5   3   4    7.09    0.50
   5   3   4    7.61    0.46
  -5   3  -4    7.61    0.43
   5   3   4    8.05    0.49
  -5   3  -4    8.26    0.52
   6  -3   4    7.36    0.51
   6  -3   4    6.14    0.42
   6  -3   4    5.97    0.52
  -6  -3  -4    6.48    0.60
  -6   3  -4    6.57    0.54
   6   3   4    6.10    0.46
   6   3   4    6.19    0.46
  -6   3  -4    6.82    0.45
   6   3   4    6.40    0.50
   7  -3   4    0.37    0.29
   7  -3   4   -0.04    0.27
  -7  -3  -4    0.53    0.36
   7   3   4    0.46    0.30
   7   3   4    1.41    0.31
   7   3   4   -0.04    0.26
   8  -4  -4    1.98    0.46
   8   4  -4    1.38    0.38
   8   4  -4    1.44    0.43
   8   4  -4    2.24    0.46
   7  -4  -4    0.63    0.34
   7  -4  -4    0.37    0.24
   7  -4  -4    0.07    0.31
  -7   4   4    0.58    0.27
   7   4  -4    0.56    0.28
   7   4  -4    0.26    0.27
   7   4  -4    0.58    0.32
   7   4  -4    0.75    0.33
  -6  -4   4    7.65    0.60
   6  -4  -4    7.67    0.48
   6  -4  -4    8.38    0.58
   6  -4  -4    7.34    0.57
  -6  -4   4    8.57    0.59
   6   4  -4    8.79    0.58
   6   4  -4    8.41    0.52
   6   4  -4    7.73    0.52
  -6   4   4    8.14    0.52
   6   4  -4    8.34    0.58
   5  -4  -4    3.66    0.41
   5  -4  -4    3.55    0.38
  -5  -4   4    3.53    0.40
   5  -4  -4    4.10    0.36
   5  -4  -4    3.40    0.32
  -5  -4   4    3.41    0.37
   5   4  -4    4.19    0.42
   5   4  -4    4.14    0.39
   5   4  -4    4.65    0.42
  -5   4   4    4.15    0.43
   5   4  -4    4.31    0.44
  -5   4   4    3.82    0.27
  -5   4   4    3.89    0.33
   5   4  -4    3.42    0.38
   4  -4  -4   23.04    0.84
  -4  -4   4   24.49    0.87
  -4  -4   4   22.07    0.87
   4  -4  -4   24.09    0.77
   4  -4  -4   22.49    0.84
  -4   4   4   23.65    0.74
  -4   4   4   23.88    0.78
   4   4  -4   23.29    0.88
   4   4  -4   24.69    0.85
   4   4  -4   22.08    0.84
   3  -4  -4   55.31    1.58
   3  -4  -4   56.23    1.57
  -3  -4   4   56.90    1.65
   3  -4  -4   57.52    1.49
  -3  -4   4   59.20    1.58
  -3   4   4   57.63    1.52
   3   4  -4   55.98    1.57
   3   4  -4   57.04    1.65
  -3   4   4   59.05    1.50
   3   4  -4   56.04    1.57
   2  -4  -4   45.49    1.18
   2  -4  -4   44.50    1.24
  -2  -4   4   46.02    1.23
   2  -4  -4   38.91    1.23
   2  -4  -4   44.19    1.26
  -2  -4   4   46.41    1.35
   2   4  -4   45.65    1.36
  -2   4   4   46.42    1.19
  -2   4   4   46.04    1.26
   2   4  -4   46.33    1.23
   2   4  -4   46.23    1.26
  -1  -4   4   10.74    0.41
  -1  -4   4   10.34    0.37
   1  -4  -4   10.24    0.46
   1  -4  -4    9.99    0.38
   1  -4  -4   10.32    0.38
   1   4  -4    9.72    0.36
  -1   4   4    9.94    0.46
   1   4  -4   10.74    0.52
   0  -4  -4   74.64    1.82
   0  -4   4   75.39    1.78
   0  -4  -4   74.77    2.00
   0  -4   4   75.60    1.91
   0   4  -4   73.90    1.78
   0   4   4   76.33    2.02
   0   4  -4   74.28    2.02
   1  -4   4   16.25    0.50
   1  -4   4   14.48    0.53
  -1  -4  -4   14.70    0.63
   1   4   4   14.82    0.55
   1   4   4   15.49    0.66
   1   4   4   15.13    0.58
   2  -4   4   54.89    1.41
   2  -4   4   51.23    1.46
   2  -4   4   52.91    1.45
  -2  -4  -4   56.04    1.63
  -2   4  -4   53.02    1.28
   2   4   4   52.38    1.59
   2   4   4   56.57    1.48
   2   4   4   52.64    1.46
   2   4   4   52.10    1.50
   3  -4   4    6.01    0.35
   3  -4   4    5.87    0.34
   3  -4   4    5.70    0.39
  -3  -4  -4    5.74    0.40
  -3  -4  -4    5.74    0.50
   3   4   4    5.88    0.35
  -3   4  -4    6.14    0.26
   3   4   4    6.83    0.43
   3   4   4    5.37    0.37
   3   4   4    6.21    0.44
  -4  -4  -4    7.00    0.59
   4  -4   4    6.93    0.46
   4  -4   4    7.02    0.40
  -4  -4  -4    7.46    0.50
   4  -4   4    6.47    0.39
  -4   4  -4    7.65    0.35
   4   4   4    7.10    0.45
   4   4   4    6.75    0.44
   4   4   4    7.28    0.50
   5  -4   4   15.81    0.67
  -5  -4  -4   15.85    0.88
  -5  -4  -4   17.50    0.80
   5  -4   4   15.43    0.68
   5  -4   4   16.45    0.74
   5   4   4   15.82    0.75
  -5   4  -4   16.69    0.77
   5   4   4   16.47    0.72
   5   4   4   15.91    0.71
  -5   4  -4   15.73    0.62
   6  -4   4    0.60    0.30
  -6  -4  -4    0.54    0.35
   6  -4   4    0.52    0.24
   6  -4   4    0.40    0.26
   6   4   4    0.60    0.31
   6   4   4   -0.02    0.25
  -6   4  -4    0.24    0.24
   6   4   4    0.58    0.28
   7  -4   4    0.08    0.29
   7  -4   4    0.33    0.31
   7   4   4    0.54    0.30
   7   4   4    0.03    0.26
   7   4   4    0.11    0.34
   7  -5  -4    0.88    0.36
   7  -5  -4    0.19    0.34
   7   5  -4    0.58    0.35
   7   5  -4    0.18    0.31
   7   5  -4    0.77    0.32
   6  -5  -4    4.38    0.47
  -6  -5   4    4.12    0.49
   6  -5  -4    4.11    0.40
   6  -5  -4    4.03    0.49
  -6   5   4    3.67    0.42
   6   5  -4    4.27    0.46
   6   5  -4    4.29    0.47
   6   5  -4    4.30    0.50
   5  -5  -4    2.47    0.28
   5  -5  -4    3.33    0.34
  -5  -5   4    2.56    0.40
   5  -5  -4    2.10    0.36
  -5  -5   4    3.46    0.41
   5  -5  -4    3.00    0.39
   5   5  -4    2.95    0.39
  -5   5   4    2.66    0.30
   5   5  -4    2.49    0.37
   5   5  -4    2.49    0.40
   4  -5  -4    3.73    0.28
  -4  -5   4    3.44    0.42
   4  -5  -4    3.33    0.37
   4  -5  -4    3.32    0.37
  -4  -5   4    3.81    0.38
   4   5  -4    3.12    0.36
   4   5  -4    3.21    0.37
  -4   5   4    2.76    0.29
   4   5  -4    3.30    0.41
  -4   5   4    3.84    0.30
   3  -5  -4    2.11    0.21
   3  -5  -4    2.40    0.31
   3  -5  -4    2.05    0.26
  -3  -5   4    2.31    0.34
  -3  -5   4    1.96    0.26
  -3   5   4    2.45    0.28
   3   5  -4    2.08    0.27
   3   5  -4    1.73    0.25
   3   5  -4    1.96    0.33
  -3   5   4    2.46    0.22
  -2  -5   4   53.03    1.60
   2  -5  -4   52.98    1.51
   2  -5  -4   53.94    1.47
   2  -5  -4   53.81    1.38
  -2  -5   4   53.20    1.43
   2  -5  -4   53.82    1.52
  -2  -5   4   53.82    1.44
   2   5  -4   52.30    1.43
   2   5  -4   55.27    1.63
  -2   5   4   53.17    1.53
   2   5  -4   53.80    1.49
   1  -5  -4   65.94    1.66
   1  -5  -4   65.12    1.82
  -1  -5   4   65.34    1.71
  -1  -5   4   65.24    1.64
   1  -5  -4   66.54    1.69
   1   5  -4   66.01    1.89
  -1   5   4   65.48    1.83
   1   5  -4   65.16    1.64
   1   5  -4   66.16    1.72
   0  -5  -4   25.88    0.74
   0  -5   4   25.46    0.80
   0  -5  -4   27.20    0.94
   0  -5   4   26.75    0.67
   0   5  -4   26.96    0.97
   0   5   4   25.68    0.92
   0   5   4   26.26    0.81
  -1  -5  -4    5.12    0.44
   1  -5   4    5.12    0.33
   1   5   4    4.55    0.32
   1   5   4    4.69    0.38
  -1   5  -4    4.96    0.41
   1   5   4    5.46    0.34
   2  -5   4    9.19    0.40
   2  -5   4    8.72    0.46
  -2  -5  -4    9.59    0.60
   2   5   4    9.08    0.54
   2   5   4    9.72    0.48
   2   5   4    9.05    0.46
   2   5   4    9.15    0.44
  -2   5  -4    9.16    0.51
  -3  -5  -4    3.03    0.33
   3  -5   4    2.79    0.31
   3  -5   4    2.92    0.28
  -3  -5  -4    2.81    0.42
  -3   5  -4    2.56    0.15
   3   5   4    3.01    0.32
   3   5   4    3.07    0.35
   3   5   4    3.01    0.34
   4  -5   4    9.42    0.50
  -4  -5  -4   10.44    0.59
  -4  -5  -4    8.99    0.63
   4  -5   4    9.36    0.56
   4  -5   4    9.84    0.51
   4   5   4    8.71    0.53
  -4   5  -4    9.27    0.38
   4   5   4    9.87    0.56
   4   5   4    9.30    0.58
   5  -5   4    8.82    0.59
   5  -5   4    8.98    0.52
  -5  -5  -4    9.67    0.62
   5  -5   4    9.03    0.51
  -5  -5  -4    8.04    0.71
   5   5   4    8.25    0.60
   5   5   4    8.99    0.57
   5   5   4    8.39    0.56
   6  -5   4    2.13    0.33
   6  -5   4    2.47    0.39
   6  -5   4    2.19    0.39
   6   5   4    2.23    0.44
   6   5   4    2.27    0.40
   6   5   4    2.27    0.40
   7  -5   4    2.32    0.42
   7  -5   4    2.00    0.43
   7   5   4    2.23    0.45
   7   5   4    1.91    0.43
   7   5   4    2.29    0.47
   7  -6  -4    0.73    0.36
   7  -6  -4    0.65    0.38
   7   6  -4    0.27    0.35
   7   6  -4    0.92    0.39
   7   6  -4    0.54    0.35
   6  -6  -4    3.10    0.46
   6  -6  -4    3.10    0.36
   6  -6  -4    2.54    0.40
  -6  -6   4    2.94    0.50
   6   6  -4    2.47    0.45
   6   6  -4    1.93    0.42
   6   6  -4    2.42    0.43
  -5  -6   4    1.95    0.35
   5  -6  -4    2.19    0.30
  -5  -6   4    2.30    0.41
   5  -6  -4    2.18    0.37
   5  -6  -4    1.79    0.37
   5   6  -4    2.78    0.41
   5   6  -4    1.83    0.36
   5   6  -4    2.38    0.39
  -4  -6   4    0.55    0.28
   4  -6  -4    0.37    0.24
   4  -6  -4    1.23    0.26
   4  -6  -4    0.46    0.17
  -4  -6   4    0.44    0.19
  -4  -6   4    0.21    0.21
   4   6  -4    0.45    0.21
  -4   6   4    0.55    0.22
   4   6  -4    0.52    0.26
  -4   6   4    0.69    0.17
   3  -6  -4    3.89    0.25
  -3  -6   4    3.14    0.40
   3  -6  -4    2.88    0.34
   3  -6  -4    3.77    0.38
  -3  -6   4    4.05    0.33
  -3  -6   4    3.44    0.33
   3   6  -4    4.04    0.41
   3   6  -4    3.59    0.37
  -3   6   4    3.52    0.38
  -2  -6   4    1.06    0.31
   2  -6  -4    1.15    0.29
   2  -6  -4    0.76    0.21
   2  -6  -4    1.16    0.16
  -2  -6   4    1.39    0.21
  -2  -6   4    1.58    0.22
   2  -6  -4    0.65    0.22
  -2   6   4    0.71    0.26
   2   6  -4    1.28    0.25
   1  -6  -4    0.03    0.14
   1  -6  -4    0.23    0.13
  -1  -6   4    0.25    0.11
   1  -6  -4    0.11    0.20
  -1  -6   4    0.29    0.18
  -1   6   4    0.16    0.15
  -1   6   4    0.11    0.20
   1   6  -4    0.12    0.24
   1   6  -4    0.49    0.19
   0  -6   4   16.30    0.62
   0  -6   4   16.33    0.44
   0  -6  -4   16.25    0.76
   0  -6  -4   16.31    0.54
   0   6   4   16.13    0.73
   0   6   4   17.43    0.61
   0   6  -4   17.18    0.79
   0   6  -4   17.30    0.59
  -1  -6  -4    5.41    0.44
  -1  -6  -4    5.47    0.24
   1  -6   4    4.84    0.36
   1   6   4    5.43    0.37
   1   6   4    5.47    0.41
  -1   6  -4    5.71    0.48
   2  -6   4    4.39    0.33
  -2  -6  -4    3.99    0.35
  -2  -6  -4    4.28    0.49
   2  -6   4    4.14    0.38
   2   6   4    4.17    0.42
   2   6   4    3.64    0.37
   2   6   4    4.04    0.39
  -3  -6  -4   18.06    0.74
  -3  -6  -4   16.14    0.85
   3  -6   4   16.89    0.67
   3  -6   4   16.65    0.71
   3   6   4   17.98    0.74
   3   6   4   17.77    0.72
   3   6   4   16.57    0.77
   4  -6   4    9.44    0.58
   4  -6   4    9.05    0.49
  -4  -6  -4    8.02    0.69
  -4  -6  -4    9.25    0.58
   4   6   4    8.30    0.52
   4   6   4    8.53    0.55
   4   6   4    7.78    0.58
   5  -6   4    0.97    0.30
  -5  -6  -4    0.37    0.35
   5  -6   4    0.71    0.32
   5   6   4    0.77    0.32
   5   6   4    0.57    0.31
   5   6   4    0.60    0.33
   6  -6   4    0.79    0.37
   6  -6   4    0.03    0.25
   6   6   4    0.78    0.34
   6   6   4    0.74    0.34
   6   6   4    0.23    0.34
   7  -6   4    0.47    0.31
   7  -6   4    0.07    0.34
   7   6   4    0.35    0.34
   7   6   4   -0.29    0.33
   7   6   4    0.15    0.33
   7  -7  -4    2.03    0.45
   7  -7  -4    2.32    0.43
   7   7  -4    2.39    0.50
   7   7  -4    1.55    0.42
   7   7  -4    1.86    0.49
   6  -7  -4    0.93    0.35
   6  -7  -4    0.36    0.34
   6   7  -4    0.30    0.33
   6   7  -4    0.90    0.37
   6   7  -4    0.78    0.36
  -5  -7   4    0.03    0.25
   5  -7  -4    0.39    0.31
   5  -7  -4    0.40    0.29
  -5  -7   4    0.22    0.31
   5   7  -4    0.29    0.30
   5   7  -4   -0.03    0.28
   5   7  -4    0.16    0.27
  -4  -7   4    0.77    0.21
  -4  -7   4    1.26    0.37
   4  -7  -4    1.90    0.35
  -4  -7   4    1.59    0.32
   4  -7  -4    1.71    0.30
   4   7  -4    1.27    0.28
   4   7  -4    1.29    0.33
  -3  -7   4    5.52    0.42
  -3  -7   4    5.05    0.56
   3  -7  -4    6.38    0.48
  -3  -7   4    5.99    0.38
   3  -7  -4    5.80    0.45
  -3   7   4    6.72    0.52
   3   7  -4    6.92    0.49
   3   7  -4    6.24    0.46
   2  -7  -4   13.48    0.46
   2  -7  -4   13.15    0.65
   2  -7  -4   13.39    0.59
  -2  -7   4   12.83    0.55
  -2  -7   4   13.33    0.53
  -2  -7   4   12.18    0.75
  -2   7   4   13.16    0.50
  -2   7   4   14.38    0.71
   2   7  -4   11.91    0.59
   2   7  -4   12.70    0.62
   1  -7  -4   13.34    0.55
   1  -7  -4   12.83    0.69
  -1  -7   4   12.51    0.55
  -1  -7   4   13.29    0.45
   1  -7  -4   12.75    0.48
  -1   7   4   13.75    0.53
   1   7  -4   12.95    0.58
   1   7  -4   12.97    0.58
   0  -7  -4    2.75    0.25
   0  -7  -4    2.17    0.38
   0  -7   4    2.72    0.31
   0  -7  -4    2.38    0.25
   0  -7   4    2.35    0.10
   0   7   4    2.27    0.28
   0   7  -4    2.54    0.27
   1  -7   4    0.69    0.20
  -1  -7  -4    0.57    0.29
  -1  -7  -4    1.08    0.18
  -1   7  -4    1.16    0.21
   1   7   4    0.67    0.26
   1   7   4    0.56    0.22
  -2  -7  -4    2.24    0.42
   2  -7   4    2.11    0.33
   2  -7   4    2.59    0.32
  -2  -7  -4    2.41    0.30
   2   7   4    1.96    0.36
   2   7   4    2.47    0.34
  -3  -7  -4    0.23    0.21
   3  -7   4    0.14    0.21
   3  -7   4   -0.05    0.24
  -3  -7  -4    0.54    0.34
   3   7   4    0.22    0.24
   3   7   4    0.46    0.27
   3   7   4    0.23    0.23
  -4  -7  -4    0.70    0.27
   4  -7   4    0.81    0.28
   4  -7   4    0.83    0.32
  -4  -7  -4    0.74    0.39
   4   7   4    1.02    0.33
   4   7   4    0.89    0.35
   4   7   4    0.87    0.32
   5  -7   4   -0.09    0.23
   5  -7   4    0.37    0.32
   5   7   4    0.39    0.32
   5   7   4    0.81    0.34
   5   7   4    0.08    0.32
   6  -7   4    2.74    0.46
   6  -7   4    1.63    0.43
   6   7   4    1.84    0.43
   6   7   4    2.02    0.45
   6   7   4    1.72    0.47
   6  -8  -4    0.29    0.32
   6  -8  -4    0.42    0.30
   6   8  -4    0.40    0.37
   6   8  -4    0.33    0.37
   6   8  -4   -0.30    0.38
   5  -8  -4    8.50    0.66
   5  -8  -4    7.89    0.62
   5   8  -4    6.49    0.63
   5   8  -4    8.04    0.65
   5   8  -4    6.61    0.68
   4  -8  -4   13.96    0.75
  -4  -8   4   14.77    0.74
   4  -8  -4   14.44    0.77
   4   8  -4   13.44    0.76
   4   8  -4   14.90    0.78
  -3  -8   4    4.12    0.55
   3  -8  -4    3.14    0.43
  -3  -8   4    3.49    0.35
  -3  -8   4    3.37    0.33
   3  -8  -4    3.21    0.41
   3   8  -4    3.02    0.41
   3   8  -4    2.88    0.41
  -2  -8   4    3.23    0.33
   2  -8  -4    3.43    0.38
  -2  -8   4    2.84    0.27
   2  -8  -4    1.73    0.35
   2   8  -4    2.60    0.37
   2   8  -4    2.08    0.33
   1  -8  -4    5.73    0.39
  -1  -8   4    5.84    0.32
  -1  -8   4    6.03    0.40
   1  -8  -4    5.24    0.54
  -1   8   4    5.74    0.38
   1   8  -4    6.05    0.41
   1   8  -4    5.32    0.42
   0  -8  -4    6.99    0.39
   0  -8  -4    6.39    0.60
   0  -8   4    7.03    0.46
   0  -8  -4    7.31    0.39
   0   8  -4    7.06    0.43
   1  -8   4   11.82    0.61
  -1  -8  -4   12.89    0.55
  -1  -8  -4   12.21    0.80
   1   8   4   11.37    0.59
  -1   8  -4   12.07    0.53
   1   8   4   11.77    0.67
  -2  -8  -4    1.97    0.29
  -2  -8  -4    2.17    0.47
   2  -8   4    2.95    0.39
   2  -8   4    2.22    0.34
   2   8   4    2.61    0.37
   2   8   4    1.74    0.39
   3  -8   4    1.07    0.28
  -3  -8  -4    1.53    0.31
   3  -8   4    1.27    0.32
   3   8   4    1.10    0.37
   3   8   4    0.80    0.33
   3   8   4    1.21    0.34
   4  -8   4    2.68    0.44
   4  -8   4    2.58    0.37
   4   8   4    2.39    0.43
   4   8   4    2.41    0.47
   4   8   4    2.59    0.45
   5  -8   4    0.94    0.34
   5  -8   4    1.32    0.40
   5   8   4    1.15    0.46
   5   8   4    0.90    0.38
   5   8   4    1.01    0.39
   5  -9  -4    0.47    0.37
   5  -9  -4    1.19    0.38
   5   9  -4    0.99    0.41
   5   9  -4   -0.09    0.34
   5   9  -4    0.54    0.39
   4  -9  -4    0.93    0.37
   4  -9  -4    1.45    0.38
   4   9  -4    1.35    0.34
   4   9  -4    1.27    0.39
   3  -9  -4    0.50    0.26
   3  -9  -4    0.75    0.31
   3   9  -4    0.70    0.32
   3   9  -4    0.97    0.33
  -2  -9   4    0.47    0.23
   2  -9  -4    0.35    0.24
   2  -9  -4    0.51    0.26
   2   9  -4    0.53    0.29
   2   9  -4    0.32    0.27
  -1  -9   4    5.00    0.41
   1  -9  -4    6.13    0.49
   1  -9  -4    5.65    0.61
   1   9  -4    5.57    0.43
   1   9  -4    5.52    0.50
  -1   9   4    5.29    0.40
   0  -9  -4    7.94    0.69
   0  -9  -4    8.06    0.45
   0  -9   4    8.23    0.53
   0   9  -4    7.96    0.48
   0   9   4    7.61    0.48
   0   9   4    7.34    0.57
   1  -9   4    1.70    0.33
  -1  -9  -4    1.87    0.52
   1   9   4    2.52    0.36
   1   9   4    3.17    0.46
  -1   9  -4    2.54    0.31
   2  -9   4    0.02    0.24
   2  -9   4   -0.35    0.18
  -2  -9  -4    0.15    0.21
   2   9   4   -0.06    0.26
   2   9   4   -0.33    0.29
   3  -9   4    4.68    0.49
  -3  -9  -4    5.63    0.51
   3  -9   4    4.38    0.53
   3   9   4    4.08    0.51
   3   9   4    4.01    0.55
   4  -9   4    1.97    0.44
   4  -9   4    2.43    0.41
   4   9   4    2.09    0.46
   4   9   4    1.78    0.48
   4   9   4    2.15    0.45
   5  -9   4    2.32    0.49
   5  -9   4    2.71    0.41
   5   9   4    2.14    0.50
   5   9   4    1.76    0.47
   5   9   4    1.56    0.49
   4 -10  -4    0.89    0.39
   4 -10  -4    1.78    0.42
   4  10  -4    0.69    0.38
   4  10  -4    1.50    0.42
   3 -10  -4    1.02    0.37
   3 -10  -4    0.98    0.37
   3  10  -4    1.37    0.39
   3  10  -4    1.86    0.42
  -2 -10   4    1.05    0.31
   2 -10  -4    0.81    0.31
   2 -10  -4    2.00    0.43
   2  10  -4    1.22    0.35
   2  10  -4    1.33    0.33
   1 -10  -4    3.44    0.41
  -1 -10   4    3.15    0.42
  -1  10   4    2.69    0.35
   1  10  -4    2.63    0.38
   0 -10   4    2.41    0.41
   0  10  -4    2.33    0.35
   0  10   4    1.56    0.40
   0  10   4    3.03    0.39
   1 -10   4    1.43    0.35
   1 -10   4    1.96    0.39
   1  10   4    0.56    0.37
   1  10   4    2.40    0.38
   2 -10   4    3.82    0.50
   2 -10   4    3.21    0.43
   2  10   4    3.13    0.46
   2  10   4    3.90    0.57
   3 -10   4    0.49    0.36
   3 -10   4   -0.17    0.28
   3  10   4    0.99    0.39
   3  10   4    0.77    0.42
   4 -10   4    0.05    0.26
   4 -10   4   -0.06    0.34
   4  10   4   -0.04    0.40
   4  10   4    0.12    0.38
   3 -11  -4    1.43    0.43
   3 -11  -4    1.18    0.41
   3  11  -4    1.53    0.41
   3  11  -4    1.69    0.44
   2 -11  -4    3.47    0.47
   2 -11  -4    2.01    0.45
   2  11  -4    3.05    0.46
  -1 -11   4    0.76    0.34
  -1  11   4    0.13    0.33
   1  11  -4    0.58    0.30
   0 -11   4    1.07    0.36
   0  11  -4    0.29    0.29
   0  11   4    0.95    0.32
   0  11   4    1.24    0.41
   1 -11   4    2.07    0.48
   1 -11   4    0.75    0.35
   1  11   4    2.54    0.42
   1  11   4    0.96    0.44
   2 -11   4   -0.11    0.32
   2 -11   4    0.03    0.29
   2  11   4    0.27    0.39
   2  11   4    0.41    0.33
   8   0  -5    1.22    0.32
   8   0  -5    0.37    0.34
   7   0  -5    2.18    0.38
   7   0  -5    2.14    0.37
   6   0  -5    5.10    0.34
   6   0  -5    4.35    0.46
  -6   0   5    4.14    0.44
   6   0  -5    4.71    0.44
   5   0  -5    1.50    0.26
   5   0  -5    1.01    0.24
  -5   0   5    1.62    0.29
  -5   0   5    1.76    0.15
   4   0  -5    0.92    0.20
  -4   0   5    0.85    0.09
   4   0  -5    0.95    0.21
  -4   0   5    0.71    0.20
   4   0  -5    0.65    0.20
  -3   0   5    2.82    0.24
   3   0  -5    2.67    0.12
   3   0  -5    3.42    0.27
   3   0  -5    2.25    0.23
   3   0  -5    2.66    0.25
   2   0  -5    1.45    0.17
   2   0  -5    1.25    0.18
  -2   0   5    1.06    0.18
   2   0  -5    0.94    0.10
  -1   0   5   19.89    0.59
   1   0  -5   19.79    0.59
   0   0  -5   -0.01    0.12
   0   0  -5    0.06    0.10
  -1   0  -5   16.61    0.57
   2   0   5    4.83    0.24
  -2   0  -5    4.53    0.35
   2   0   5    4.50    0.24
   3   0   5   43.61    1.24
  -3   0  -5   44.98    1.25
   3   0   5   45.43    1.18
  -3   0  -5   44.31    1.35
   3   0   5   43.87    1.20
  -4   0  -5    8.49    0.51
  -4   0  -5    8.53    0.46
   4   0   5    8.23    0.42
   4   0   5    8.49    0.38
   4   0   5    8.54    0.39
   4   0   5    8.39    0.44
   5   0   5   10.31    0.46
   5   0   5   11.21    0.48
   5   0   5   11.07    0.46
   5   0   5   10.18    0.56
  -5   0  -5   10.85    0.64
  -5   0  -5   10.30    0.56
   5   0   5   10.08    0.52
  -6   0  -5   11.00    0.70
   6   0   5   10.62    0.58
  -6   0  -5   11.89    0.66
   6   0   5   11.26    0.54
   6   0   5   10.65    0.60
  -7   0  -5    0.56    0.39
   7   0   5    1.35    0.31
   7   0   5    1.13    0.34
   7   0   5    0.86    0.28
   8   0   5   -0.44    0.25
   8   0   5    0.49    0.35
   8  -1  -5    0.48    0.32
   8  -1  -5    0.25    0.34
   8   1  -5    0.59    0.34
   8   1  -5    0.57    0.32
   7  -1  -5    9.21    0.64
   7  -1  -5    9.47    0.57
   7   1  -5    8.58    0.58
  -7   1   5    8.33    0.62
   7   1  -5    9.10    0.64
   7   1  -5    8.71    0.52
   6  -1  -5   17.90    0.78
   6  -1  -5   16.20    0.70
  -6  -1   5   17.67    0.81
   6   1  -5   16.69    0.77
   6   1  -5   15.68    0.72
  -6   1   5   16.36    0.76
   6   1  -5   16.16    0.64
  -5  -1   5    4.86    0.29
   5  -1  -5    4.30    0.34
   5  -1  -5    4.06    0.33
  -5  -1   5    4.61    0.42
   5   1  -5    4.18    0.39
   5   1  -5    4.60    0.27
  -5   1   5    4.66    0.40
   5   1  -5    5.10    0.38
   4  -1  -5    7.07    0.38
   4  -1  -5    7.15    0.40
  -4  -1   5    7.36    0.32
   4  -1  -5    6.15    0.39
  -4  -1   5    7.26    0.40
   4   1  -5    7.31    0.40
  -4   1   5    6.76    0.40
   4   1  -5    7.60    0.32
   4   1  -5    7.09    0.39
   4   1  -5    6.93    0.39
   3  -1  -5   21.43    0.69
  -3  -1   5   21.41    0.72
   3  -1  -5   21.10    0.69
  -3  -1   5   21.88    0.62
   3  -1  -5   22.25    0.69
   3   1  -5   20.51    0.62
   3   1  -5   20.83    0.70
  -3   1   5   19.50    0.69
   3   1  -5   21.03    0.68
   3   1  -5   21.94    0.70
   2  -1  -5   10.47    0.40
   2  -1  -5    9.86    0.38
   2  -1  -5   10.30    0.27
  -2  -1   5   10.28    0.42
   2   1  -5   10.38    0.40
  -2   1   5   10.70    0.41
   2   1  -5   10.92    0.37
   2   1  -5   10.62    0.38
   1  -1  -5   20.50    0.57
   1  -1  -5   20.92    0.58
  -1  -1   5   20.06    0.60
   1  -1  -5   20.34    0.61
   1   1  -5   20.43    0.60
  -1   1   5   20.41    0.61
  -1   1   5   20.26    0.57
   0  -1  -5   37.68    1.02
   0  -1   5   36.97    0.99
   0  -1  -5   39.33    1.06
   0   1   5   39.66    1.05
   0   1  -5   39.68    1.00
   1  -1   5  103.39    2.49
  -1  -1  -5  105.77    2.60
   1   1   5  100.83    2.58
  -2  -1  -5  110.08    2.82
   2  -1   5  111.19    2.68
   2  -1   5  111.16    2.63
   2   1   5  110.67    2.80
  -2   1  -5  108.82    2.79
  -3  -1  -5   47.09    1.41
   3  -1   5   45.70    1.25
   3  -1   5   47.30    1.29
   3  -1   5   46.43    1.23
   3   1   5   45.21    1.38
   3   1   5   46.99    1.19
   3   1   5   45.09    1.29
  -3   1  -5   46.29    1.38
  -3   1  -5   46.96    1.27
   3   1   5   45.29    1.26
   3   1   5   46.37    1.25
   4  -1   5   15.47    0.61
  -4  -1  -5   16.49    0.66
   4  -1   5   15.64    0.59
   4  -1   5   14.92    0.57
  -4  -1  -5   15.85    0.73
   4   1   5   16.08    0.72
   4   1   5   15.07    0.52
   4   1   5   14.82    0.55
  -4   1  -5   15.52    0.69
  -4   1  -5   15.08    0.60
   4   1   5   15.89    0.63
   4   1   5   15.82    0.57
   4   1   5   15.58    0.60
  -5  -1  -5   10.07    0.54
   5  -1   5   10.12    0.51
  -5  -1  -5   10.36    0.64
   5  -1   5   10.07    0.54
   5  -1   5    9.44    0.49
  -5   1  -5    9.72    0.59
  -5   1  -5    9.76    0.52
   5   1   5   10.90    0.45
   5   1   5    9.64    0.48
   5   1   5   10.01    0.48
   5   1   5   10.72    0.55
   5   1   5   10.56    0.54
  -6  -1  -5    5.15    0.51
  -6  -1  -5    5.68    0.54
   6  -1   5    5.15    0.42
   6  -1   5    4.69    0.46
   6  -1   5    5.07    0.44
   6   1   5    5.05    0.49
   6   1   5    5.33    0.38
   6   1   5    5.07    0.48
  -6   1  -5    5.69    0.53
   6   1   5    5.03    0.39
   6   1   5    4.93    0.40
  -6   1  -5    5.42    0.45
   7  -1   5    0.85    0.32
   7  -1   5    1.67    0.34
  -7  -1  -5    1.36    0.39
   7  -1   5    1.19    0.30
   7   1   5    1.72    0.36
   7   1   5    1.42    0.37
   8  -1   5    1.07    0.39
   8  -1   5    0.90    0.33
   8   1   5    0.98    0.33
   8   1   5    1.24    0.45
   8  -2  -5    4.34    0.48
   8  -2  -5    4.10    0.56
   8   2  -5    3.90    0.55
   8   2  -5    3.54    0.50
   7  -2  -5    5.41    0.55
   7  -2  -5    4.70    0.48
   7   2  -5    5.43    0.47
   7   2  -5    4.86    0.52
   7   2  -5    4.97    0.55
  -7   2   5    4.83    0.50
  -6  -2   5    1.24    0.28
   6  -2  -5    1.74    0.29
   6  -2  -5    1.63    0.33
  -6  -2   5    2.53    0.30
   6   2  -5    2.12    0.31
   6   2  -5    1.83    0.33
   6   2  -5    2.54    0.38
   6   2  -5    2.30    0.29
  -6   2   5    2.29    0.34
   5  -2  -5    0.90    0.22
   5  -2  -5    0.38    0.21
  -5  -2   5    0.94    0.23
   5  -2  -5    1.00    0.24
  -5  -2   5    1.05    0.20
   5  -2  -5    0.51    0.19
   5   2  -5    0.71    0.20
   5   2  -5    0.72    0.18
   5   2  -5    0.87    0.25
  -5   2   5    0.65    0.22
   5   2  -5    0.72    0.24
  -4  -2   5    0.46    0.15
   4  -2  -5    0.74    0.18
  -4  -2   5    0.49    0.21
   4  -2  -5    0.31    0.18
   4  -2  -5    0.34    0.19
   4  -2  -5    0.64    0.18
   4   2  -5    0.81    0.18
   4   2  -5    0.54    0.17
  -4   2   5    0.44    0.17
   4   2  -5    0.39    0.15
   4   2  -5    0.49    0.19
   3  -2  -5   14.94    0.56
   3  -2  -5   16.11    0.56
   3  -2  -5   15.37    0.55
   3  -2  -5   14.34    0.56
  -3  -2   5   15.06    0.54
  -3  -2   5   15.34    0.59
  -3   2   5   15.06    0.38
   3   2  -5   16.13    0.57
   3   2  -5   14.52    0.54
  -3   2   5   15.85    0.56
   3   2  -5   16.00    0.58
   3   2  -5   16.45    0.56
   2  -2  -5  183.66    4.47
   2  -2  -5  184.06    4.48
  -2  -2   5  186.92    4.50
   2  -2  -5  192.33    4.50
   2  -2  -5  189.53    4.49
  -2   2   5  195.08    4.50
   2   2  -5  189.61    4.46
  -2   2   5  190.78    4.41
   2   2  -5  190.63    4.52
   2   2  -5  188.93    4.50
   1  -2  -5   88.64    2.12
   1  -2  -5   85.68    2.12
   1  -2  -5   89.46    2.12
  -1  -2   5   82.79    2.10
  -1   2   5   86.70    2.11
   1   2  -5   85.23    2.10
   1   2  -5   85.18    2.06
   1   2  -5   88.32    2.17
  -1   2   5   84.68    2.12
   0  -2  -5   36.92    1.05
   0  -2   5   35.95    0.94
   0  -2   5   38.53    1.00
   0   2   5   36.43    1.04
   0   2  -5   37.41    0.95
  -1  -2  -5   91.86    2.35
   1  -2   5   91.32    2.24
   1   2   5   89.89    2.33
   2  -2   5   13.27    0.48
   2  -2   5   12.53    0.40
  -2  -2  -5   11.68    0.57
   2  -2   5   11.98    0.46
   2   2   5   12.12    0.50
   2   2   5   14.22    0.55
   2   2   5   11.70    0.53
   3  -2   5   25.47    0.76
  -3  -2  -5   23.99    0.93
   3  -2   5   26.80    0.82
   3  -2   5   24.85    0.80
   3   2   5   24.81    0.80
  -3   2  -5   25.88    0.90
   3   2   5   24.72    0.83
  -3   2  -5   25.69    0.77
   3   2   5   25.84    0.93
   3   2   5   26.79    0.80
  -4  -2  -5   15.69    0.77
   4  -2   5   15.34    0.62
   4  -2   5   15.62    0.62
  -4  -2  -5   15.92    0.68
   4  -2   5   16.85    0.61
   4   2   5   16.75    0.50
   4   2   5   16.72    0.75
   4   2   5   16.22    0.64
  -4   2  -5   15.67    0.70
   4   2   5   14.92    0.65
  -4   2  -5   16.68    0.61
   4   2   5   15.68    0.61
   4   2   5   15.85    0.61
   5  -2   5   27.37    0.97
  -5  -2  -5   28.44    1.16
  -5  -2  -5   30.57    1.07
   5  -2   5   29.89    1.00
   5  -2   5   29.57    0.99
  -5   2  -5   30.43    0.99
  -5   2  -5   30.34    1.13
   5   2   5   29.58    1.04
   5   2   5   31.58    1.04
   5   2   5   30.18    0.98
   5   2   5   29.16    0.98
  -6  -2  -5    1.49    0.34
   6  -2   5    2.10    0.33
  -6  -2  -5    1.82    0.39
   6  -2   5    1.26    0.29
   6  -2   5    2.21    0.34
  -6   2  -5    1.84    0.29
   6   2   5    1.57    0.34
   6   2   5    1.51    0.29
   6   2   5    1.66    0.31
   6   2   5    1.28    0.33
  -6   2  -5    1.58    0.35
   7  -2   5    1.35    0.33
   7  -2   5    1.16    0.31
  -7  -2  -5    1.77    0.41
   7  -2   5    0.88    0.33
   7   2   5    1.08    0.30
   7   2   5    1.13    0.37
   7   2   5    0.70    0.30
   7   2   5    1.22    0.29
   8  -3  -5    5.85    0.54
   8  -3  -5    4.96    0.59
   8   3  -5    5.44    0.62
   8   3  -5    5.68    0.65
   8   3  -5    4.33    0.49
   7  -3  -5    1.32    0.33
   7  -3  -5    1.15    0.31
  -7   3   5    0.89    0.30
   7   3  -5    1.24    0.32
   7   3  -5    0.90    0.36
   7   3  -5    1.84    0.40
   6  -3  -5    2.37    0.32
  -6  -3   5    2.38    0.33
   6  -3  -5    2.32    0.37
   6  -3  -5    2.83    0.40
  -6  -3   5    3.34    0.43
   6   3  -5    2.86    0.39
   6   3  -5    3.12    0.38
  -6   3   5    2.81    0.35
   6   3  -5    1.90    0.36
   6   3  -5    3.39    0.42
   5  -3  -5   28.83    1.02
  -5  -3   5   31.58    1.08
  -5  -3   5   31.06    1.00
   5  -3  -5   29.35    0.96
   5  -3  -5   30.05    0.99
   5  -3  -5   29.28    1.00
   5   3  -5   29.83    0.96
   5   3  -5   28.05    1.01
   5   3  -5   30.18    1.01
  -5   3   5   30.43    1.00
  -5   3   5   27.51    0.73
   5   3  -5   28.25    1.01
  -5   3   5   29.10    0.74
  -4  -3   5    7.46    0.46
   4  -3  -5    7.63    0.39
   4  -3  -5    6.55    0.41
   4  -3  -5    6.70    0.42
  -4  -3   5    6.97    0.42
   4  -3  -5    6.94    0.38
  -4   3   5    7.79    0.40
   4   3  -5    6.95    0.41
   4   3  -5    7.75    0.44
   4   3  -5    7.42    0.42
   4   3  -5    7.18    0.42
  -4   3   5    7.25    0.27
   3  -3  -5   66.05    1.79
  -3  -3   5   69.43    1.83
  -3  -3   5   69.21    1.82
   3  -3  -5   69.11    1.76
   3  -3  -5   66.45    1.80
  -3   3   5   68.49    1.77
  -3   3   5   68.65    1.68
   3   3  -5   68.20    1.81
   3   3  -5   66.49    1.78
   3   3  -5   68.75    1.81
   3   3  -5   68.02    1.84
   2  -3  -5   69.69    1.76
   2  -3  -5   69.54    1.81
   2  -3  -5   70.14    1.79
  -2  -3   5   69.47    1.79
   2  -3  -5   69.24    1.77
  -2   3   5   68.51    1.76
   2   3  -5   68.79    1.79
  -2   3   5   71.74    1.78
   2   3  -5   68.92    1.80
   2   3  -5   73.66    1.78
   2   3  -5   71.02    1.87
   1  -3  -5    4.66    0.31
   1  -3  -5    5.75    0.26
  -1  -3   5    5.34    0.27
   1  -3  -5    5.09    0.27
   1   3  -5    5.76    0.33
   1   3  -5    5.79    0.26
  -1   3   5    4.76    0.29
   0  -3  -5   42.71    1.21
   0  -3   5   42.42    1.14
   0  -3   5   41.85    1.06
   0   3  -5   41.75    1.05
   0   3   5   42.43    1.21
   1  -3   5   48.35    1.31
   1  -3   5   46.85    1.13
  -1  -3  -5   45.51    1.34
   1  -3   5   44.11    1.22
   1   3   5   43.95    1.31
   1   3   5   42.08    1.30
  -1   3  -5   43.66    1.11
   2  -3   5   41.80    1.08
   2  -3   5   42.05    1.17
   2  -3   5   41.86    1.16
  -2  -3  -5   38.62    1.27
   2   3   5   40.92    1.28
   2   3   5   40.35    1.18
   2   3   5   40.63    1.16
   2   3   5   40.93    1.15
   3  -3   5   42.43    1.21
  -3  -3  -5   42.50    1.38
   3  -3   5   42.81    1.15
   3  -3   5   42.47    1.22
   3   3   5   40.84    1.25
   3   3   5   40.74    1.21
  -3   3  -5   41.29    1.12
   3   3   5   41.36    1.20
   3   3   5   42.31    1.36
   4  -3   5    4.56    0.34
  -4  -3  -5    4.67    0.49
   4  -3   5    5.50    0.39
  -4  -3  -5    4.57    0.37
   4  -3   5    4.84    0.33
   4   3   5    5.14    0.45
   4   3   5    5.43    0.39
  -4   3  -5    4.94    0.32
   4   3   5    5.10    0.36
  -4   3  -5    4.64    0.40
  -5  -3  -5   10.00    0.69
   5  -3   5    9.83    0.55
   5  -3   5    9.25    0.52
  -5  -3  -5    9.52    0.60
   5  -3   5    9.08    0.52
   5   3   5    9.14    0.56
   5   3   5    9.86    0.52
  -5   3  -5    9.14    0.47
   5   3   5    9.37    0.52
  -5   3  -5   10.70    0.60
   6  -3   5    0.34    0.25
   6  -3   5   -0.06    0.25
   6  -3   5    0.10    0.24
  -6  -3  -5    0.17    0.29
  -6   3  -5    0.19    0.17
   6   3   5    0.14    0.25
   6   3   5   -0.12    0.20
  -6   3  -5    0.36    0.24
   6   3   5    0.06    0.29
   7  -3   5    0.97    0.36
   7  -3   5    0.94    0.32
   7  -3   5    1.05    0.31
   7   3   5    1.09    0.32
   7   3   5    0.78    0.29
   7   3   5    1.05    0.35
   8  -4  -5    0.42    0.36
   8   4  -5    0.51    0.34
   8   4  -5    0.44    0.37
   8   4  -5    0.34    0.36
   7  -4  -5    0.36    0.32
   7  -4  -5    0.38    0.26
   7  -4  -5    0.47    0.33
   7   4  -5    0.17    0.31
   7   4  -5   -0.05    0.30
   7   4  -5    0.40    0.27
  -7   4   5    0.61    0.30
   7   4  -5    0.59    0.29
   6  -4  -5    5.08    0.48
  -6  -4   5    5.28    0.49
  -6  -4   5    4.58    0.50
   6  -4  -5    5.67    0.45
   6  -4  -5    4.89    0.43
   6   4  -5    4.28    0.48
   6   4  -5    5.04    0.48
  -6   4   5    4.07    0.42
   6   4  -5    4.22    0.45
   6   4  -5    4.61    0.46
   5  -4  -5    7.18    0.44
  -5  -4   5    6.87    0.51
   5  -4  -5    7.29    0.43
  -5  -4   5    6.66    0.51
   5  -4  -5    5.75    0.42
   5  -4  -5    7.01    0.49
   5   4  -5    6.63    0.46
   5   4  -5    6.82    0.46
   5   4  -5    6.86    0.48
  -5   4   5    7.01    0.32
   5   4  -5    6.95    0.49
  -5   4   5    6.77    0.45
   5   4  -5    7.36    0.49
  -4  -4   5    4.02    0.41
   4  -4  -5    3.20    0.33
   4  -4  -5    4.17    0.33
   4  -4  -5    4.49    0.33
  -4  -4   5    4.15    0.38
   4   4  -5    3.29    0.36
   4   4  -5    3.79    0.36
  -4   4   5    3.91    0.32
  -4   4   5    3.91    0.26
   4   4  -5    4.06    0.40
  -3  -4   5    7.77    0.42
   3  -4  -5    7.20    0.39
   3  -4  -5    7.73    0.37
  -3  -4   5    7.69    0.46
   3  -4  -5    7.87    0.39
  -3   4   5    7.27    0.35
   3   4  -5    7.86    0.41
  -3   4   5    7.41    0.37
   3   4  -5    7.35    0.41
   3   4  -5    7.72    0.46
   2  -4  -5    2.06    0.25
   2  -4  -5    1.35    0.19
   2  -4  -5    2.02    0.23
   2  -4  -5    2.05    0.20
  -2  -4   5    2.09    0.23
  -2  -4   5    1.83    0.27
   2   4  -5    1.79    0.23
  -2   4   5    1.91    0.20
   2   4  -5    2.11    0.26
  -2   4   5    1.43    0.21
   2   4  -5    1.71    0.20
   1  -4  -5   37.94    1.12
  -1  -4   5   38.43    1.06
   1  -4  -5   38.74    1.04
  -1  -4   5   37.95    1.00
   1  -4  -5   37.28    1.02
   1   4  -5   36.43    0.99
   1   4  -5   37.40    1.17
  -1   4   5   36.63    1.11
   0  -4   5   29.53    0.76
   0  -4  -5   30.42    0.98
   0  -4  -5   29.25    0.78
   0  -4   5   29.22    0.88
   0   4   5   29.25    0.95
   0   4  -5   29.54    0.76
   0   4  -5   28.60    0.97
  -1  -4  -5   63.68    1.80
   1  -4   5   63.67    1.58
   1  -4   5   60.22    1.66
   1   4   5   64.86    1.67
  -1   4  -5   61.88    1.49
   1   4   5   64.28    1.69
   1   4   5   62.11    1.79
   2  -4   5   13.86    0.56
   2  -4   5   14.62    0.57
   2  -4   5   14.69    0.50
  -2  -4  -5   14.45    0.70
  -2   4  -5   14.43    0.42
   2   4   5   15.08    0.61
   2   4   5   15.38    0.70
   2   4   5   15.59    0.58
   2   4   5   14.79    0.57
  -3  -4  -5    8.64    0.54
   3  -4   5    8.78    0.43
   3  -4   5    8.70    0.38
  -3  -4  -5    7.38    0.46
   3  -4   5    7.40    0.44
   3   4   5    7.26    0.42
   3   4   5    7.24    0.54
   3   4   5    7.69    0.44
  -3   4  -5    7.94    0.32
   3   4   5    8.63    0.49
   4  -4   5   37.12    1.11
   4  -4   5   35.80    1.13
   4  -4   5   37.32    1.18
  -4  -4  -5   34.61    1.31
  -4  -4  -5   39.30    1.24
   4   4   5   34.98    1.20
   4   4   5   36.04    1.16
  -4   4  -5   35.50    1.03
   4   4   5   35.97    1.16
  -5  -4  -5    6.98    0.54
  -5  -4  -5    5.70    0.62
   5  -4   5    6.28    0.46
   5  -4   5    6.85    0.44
   5  -4   5    5.86    0.48
   5   4   5    7.10    0.49
  -5   4  -5    5.85    0.49
   5   4   5    6.54    0.47
  -5   4  -5    6.42    0.39
   5   4   5    5.96    0.54
  -6  -4  -5    3.68    0.56
   6  -4   5    3.34    0.40
   6  -4   5    3.94    0.47
   6  -4   5    3.98    0.44
  -6   4  -5    3.51    0.46
   6   4   5    3.94    0.49
   6   4   5    3.24    0.42
   6   4   5    4.04    0.44
   7  -4   5    0.79    0.36
   7  -4   5    1.02    0.35
   7   4   5    1.13    0.34
   7   4   5    0.22    0.36
   7   4   5    0.79    0.31
   7  -5  -5    4.59    0.45
   7  -5  -5    4.50    0.55
   7  -5  -5    4.53    0.56
   7   5  -5    5.50    0.60
   7   5  -5    3.82    0.48
   7   5  -5    5.11    0.54
  -6  -5   5    5.68    0.52
   6  -5  -5    6.96    0.55
   6  -5  -5    5.54    0.52
   6  -5  -5    7.13    0.46
  -6   5   5    5.94    0.44
   6   5  -5    6.95    0.57
   6   5  -5    6.83    0.52
   6   5  -5    6.50    0.57
   5  -5  -5    5.27    0.39
   5  -5  -5    5.22    0.48
  -5  -5   5    5.34    0.49
   5  -5  -5    5.27    0.49
   5  -5  -5    5.52    0.39
  -5  -5   5    6.25    0.55
   5   5  -5    4.55    0.48
   5   5  -5    5.99    0.51
  -5   5   5    6.54    0.40
   5   5  -5    6.25    0.54
   4  -5  -5    6.80    0.38
   4  -5  -5    7.62    0.48
   4  -5  -5    5.92    0.45
  -4  -5   5    5.97    0.45
  -4  -5   5    6.88    0.54
   4   5  -5    7.57    0.52
   4   5  -5    6.69    0.46
  -4   5   5    6.88    0.39
  -4   5   5    6.70    0.39
   3  -5  -5    6.43    0.34
   3  -5  -5    6.43    0.40
   3  -5  -5    6.38    0.41
  -3  -5   5    6.99    0.43
  -3  -5   5    6.97    0.49
   3   5  -5    6.46    0.41
   3   5  -5    6.86    0.49
   3   5  -5    6.76    0.40
  -3   5   5    6.95    0.36
  -3   5   5    7.35    0.41
   2  -5  -5   26.47    0.79
   2  -5  -5   25.86    0.84
  -2  -5   5   27.50    0.82
  -2  -5   5   25.80    0.82
  -2  -5   5   25.40    0.95
   2  -5  -5   26.39    0.89
   2  -5  -5   26.95    0.88
   2   5  -5   27.21    0.82
   2   5  -5   26.92    0.99
   2   5  -5   25.69    0.85
  -2   5   5   26.93    0.90
   1  -5  -5   51.94    1.37
   1  -5  -5   49.33    1.49
  -1  -5   5   51.68    1.33
   1  -5  -5   52.23    1.37
  -1  -5   5   51.89    1.41
   1   5  -5   52.04    1.33
  -1   5   5   53.78    1.42
   1   5  -5   52.22    1.39
   1   5  -5   51.07    1.56
  -1   5   5   49.27    1.50
   0  -5   5   13.78    0.54
   0  -5  -5   13.86    0.45
   0  -5   5   13.58    0.40
   0  -5  -5   14.00    0.63
   0   5  -5   14.01    0.40
   0   5  -5   14.03    0.67
   0   5   5   13.94    0.53
   0   5   5   14.83    0.66
   0   5   5   14.80    0.57
   1  -5   5    5.24    0.28
   1  -5   5    4.90    0.34
  -1  -5  -5    6.49    0.48
  -1   5  -5    5.42    0.40
   1   5   5    6.46    0.46
   1   5   5    5.81    0.36
   1   5   5    5.68    0.35
   2  -5   5   40.67    1.25
  -2  -5  -5   43.38    1.44
   2  -5   5   42.83    1.18
   2   5   5   41.51    1.42
   2   5   5   42.97    1.26
   2   5   5   42.32    1.26
   2   5   5   44.12    1.31
   3  -5   5    9.50    0.52
   3  -5   5    8.75    0.46
  -3  -5  -5    9.27    0.61
   3  -5   5    9.17    0.43
  -3  -5  -5    8.37    0.51
   3   5   5   10.65    0.57
  -3   5  -5    9.41    0.31
   3   5   5    9.89    0.51
   3   5   5    9.87    0.52
   4  -5   5    5.84    0.42
  -4  -5  -5    4.58    0.45
   4  -5   5    4.97    0.38
   4  -5   5    5.29    0.47
  -4  -5  -5    5.00    0.57
   4   5   5    5.15    0.46
  -4   5  -5    4.69    0.27
   4   5   5    4.01    0.46
   4   5   5    4.34    0.43
   5  -5   5    8.02    0.58
   5  -5   5    8.89    0.50
  -5  -5  -5    8.04    0.71
   5  -5   5    8.45    0.53
  -5  -5  -5    8.45    0.56
   5   5   5    7.86    0.55
   5   5   5    8.16    0.56
   5   5   5    8.24    0.60
   6  -5   5    1.25    0.30
   6  -5   5    1.31    0.35
   6  -5   5    1.45    0.32
   6   5   5    0.70    0.32
   6   5   5    0.72    0.36
  -6   5  -5    1.54    0.35
   6   5   5    1.28    0.35
   7  -5   5    0.86    0.37
   7  -5   5    0.49    0.34
   7   5   5    1.05    0.39
   7   5   5    0.66    0.38
   7   5   5    0.44    0.34
   7  -6  -5    0.10    0.33
   7  -6  -5    0.57    0.30
   7   6  -5    0.63    0.40
   7   6  -5    0.13    0.33
   7   6  -5    0.13    0.36
   6  -6  -5    0.01    0.27
   6  -6  -5   -0.20    0.29
  -6  -6   5    0.44    0.35
   6  -6  -5    0.49    0.25
   6   6  -5   -0.07    0.30
   6   6  -5    0.11    0.30
   6   6  -5   -0.15    0.26
  -5  -6   5    0.64    0.31
   5  -6  -5    0.02    0.20
   5  -6  -5    0.01    0.25
  -5  -6   5    0.30    0.29
   5  -6  -5   -0.28    0.22
   5   6  -5    0.39    0.27
   5   6  -5    0.35    0.27
   5   6  -5    0.30    0.23
   4  -6  -5    6.66    0.49
  -4  -6   5    6.65    0.38
  -4  -6   5    5.75    0.53
   4  -6  -5    6.23    0.37
  -4  -6   5    7.27    0.51
   4  -6  -5    5.84    0.47
  -4   6   5    6.47    0.37
   4   6  -5    5.40    0.48
   4   6  -5    6.25    0.48
  -4   6   5    5.35    0.40
  -3  -6   5   32.48    1.00
   3  -6  -5   31.55    1.06
  -3  -6   5   33.91    1.23
   3  -6  -5   32.10    1.10
   3  -6  -5   33.64    0.95
  -3  -6   5   32.99    1.04
   3   6  -5   32.64    1.04
  -3   6   5   32.63    1.09
   3   6  -5   30.11    1.06
  -2  -6   5   80.25    2.02
   2  -6  -5   80.13    1.98
  -2  -6   5   77.77    2.04
   2  -6  -5   75.49    2.12
   2  -6  -5   77.49    2.05
   2  -6  -5   79.41    2.16
   2   6  -5   80.38    2.02
   2   6  -5   74.44    2.07
  -2   6   5   75.15    2.15
  -1  -6   5   43.68    1.25
   1  -6  -5   42.83    1.19
  -1  -6   5   44.81    1.15
   1  -6  -5   42.66    1.37
   1  -6  -5   43.63    1.21
  -1   6   5   43.58    1.21
  -1   6   5   43.07    1.39
   1   6  -5   42.69    1.24
   0  -6  -5   20.64    0.86
   0  -6   5   20.02    0.53
   0  -6   5   20.43    0.73
   0  -6  -5   19.99    0.62
   0   6   5   20.03    0.75
   0   6   5   19.81    0.85
   0   6   5   20.27    0.71
   0   6  -5   20.00    0.66
  -1  -6  -5    3.72    0.42
   1  -6   5    3.60    0.29
   1   6   5    4.33    0.40
   1   6   5    3.39    0.34
   2  -6   5    5.18    0.33
  -2  -6  -5    5.30    0.54
   2  -6   5    4.79    0.36
   2   6   5    5.12    0.40
   2   6   5    5.24    0.43
  -3  -6  -5    0.68    0.24
  -3  -6  -5    1.02    0.36
   3  -6   5    0.60    0.19
   3  -6   5    0.07    0.23
   3   6   5    0.97    0.24
   3   6   5    0.82    0.30
   3   6   5    0.50    0.21
  -4  -6  -5    0.79    0.36
   4  -6   5    0.43    0.27
  -4  -6  -5    0.20    0.25
   4  -6   5    0.97    0.25
   4   6   5    0.93    0.25
   4   6   5    0.98    0.31
   4   6   5    1.03    0.34
   5  -6   5    3.18    0.45
   5  -6   5    3.27    0.38
   5   6   5    2.89    0.48
   5   6   5    2.54    0.41
   5   6   5    2.97    0.45
   6  -6   5    0.25    0.31
   6  -6   5    0.77    0.30
   6   6   5    0.63    0.41
   6   6   5    0.40    0.32
   6   6   5   -0.02    0.30
   7  -7  -5    1.02    0.41
   7  -7  -5    1.08    0.39
   7   7  -5    0.82    0.40
   7   7  -5    0.57    0.41
   7   7  -5    0.19    0.32
   6  -7  -5    1.69    0.32
   6  -7  -5    1.48    0.42
   6  -7  -5    1.86    0.42
   6   7  -5    2.03    0.42
   6   7  -5    1.49    0.42
   6   7  -5    1.54    0.40
  -5  -7   5    7.98    0.63
   5  -7  -5    7.52    0.59
  -5  -7   5    8.06    0.67
   5  -7  -5    8.66    0.62
   5   7  -5    7.62    0.61
   5   7  -5    7.31    0.60
   5   7  -5    8.21    0.61
   4  -7  -5    8.91    0.58
  -4  -7   5    8.15    0.45
  -4  -7   5    8.71    0.54
  -4  -7   5   10.45    0.71
   4  -7  -5    8.39    0.58
   4   7  -5    8.83    0.58
   4   7  -5    8.70    0.54
  -3  -7   5    2.63    0.29
   3  -7  -5    2.59    0.38
  -3  -7   5    2.79    0.45
  -3  -7   5    2.37    0.31
   3  -7  -5    2.45    0.31
   3   7  -5    2.21    0.34
   3   7  -5    2.43    0.36
  -3   7   5    2.31    0.35
   2  -7  -5    2.65    0.23
   2  -7  -5    2.11    0.35
   2  -7  -5    3.12    0.33
  -2  -7   5    2.74    0.26
   2  -7  -5    2.30    0.36
  -2  -7   5    3.03    0.32
  -2   7   5    3.56    0.28
   2   7  -5    3.21    0.35
  -2   7   5    2.41    0.37
  -1  -7   5    1.88    0.18
  -1  -7   5    1.67    0.26
   1  -7  -5    2.27    0.26
   1  -7  -5    2.02    0.23
   1  -7  -5    1.68    0.33
  -1   7   5    2.34    0.28
   1   7  -5    2.25    0.28
   0  -7  -5   21.67    0.73
   0  -7  -5   21.84    0.96
   0  -7   5   22.13    0.80
   0  -7  -5   22.25    0.69
   0   7   5   20.62    0.76
   0   7   5   21.61    0.85
   0   7  -5   21.32    0.73
  -1  -7  -5   17.92    0.88
   1  -7   5   16.51    0.70
   1   7   5   16.46    0.74
   1   7   5   15.42    0.67
   2  -7   5    5.41    0.39
  -2  -7  -5    5.03    0.57
   2  -7   5    4.87    0.45
  -2  -7  -5    5.30    0.41
   2   7   5    5.05    0.46
   2   7   5    4.23    0.46
  -3  -7  -5    3.94    0.41
   3  -7   5    4.16    0.39
  -3  -7  -5    3.36    0.52
   3  -7   5    4.51    0.48
   3   7   5    3.84    0.48
   3   7   5    4.05    0.44
   3   7   5    3.81    0.44
   4  -7   5    0.24    0.21
   4  -7   5    0.45    0.30
  -4  -7  -5    0.41    0.28
   4   7   5   -0.05    0.22
   4   7   5    0.52    0.34
   4   7   5    0.33    0.29
   5  -7   5    0.75    0.34
   5  -7   5    0.67    0.29
   5   7   5    0.36    0.36
   5   7   5    0.85    0.35
   5   7   5    0.48    0.34
   6  -7   5    2.85    0.42
   6  -7   5    1.67    0.43
   6   7   5    1.21    0.44
   6   7   5    2.09    0.45
   6   7   5    1.27    0.46
   6  -8  -5    0.40    0.35
   6  -8  -5   -0.20    0.33
   6   8  -5   -0.27    0.34
   6   8  -5    0.16    0.39
   6   8  -5   -0.30    0.33
   5  -8  -5    0.81    0.36
   5  -8  -5    1.30    0.38
   5   8  -5    0.81    0.37
   5   8  -5    1.06    0.38
   5   8  -5    0.88    0.40
  -4  -8   5    2.67    0.39
   4  -8  -5    2.15    0.40
   4  -8  -5    2.61    0.43
   4   8  -5    2.57    0.44
   4   8  -5    2.80    0.42
  -3  -8   5    4.27    0.39
  -3  -8   5    4.82    0.40
   3  -8  -5    5.24    0.48
   3  -8  -5    4.46    0.48
   3   8  -5    4.53    0.47
   3   8  -5    5.15    0.51
  -2  -8   5    8.69    0.48
   2  -8  -5    8.38    0.50
  -2  -8   5    9.06    0.43
   2  -8  -5    8.05    0.57
   2   8  -5    8.58    0.54
   2   8  -5    8.93    0.55
   1  -8  -5    2.81    0.30
   1  -8  -5    2.49    0.42
  -1  -8   5    2.58    0.33
  -1   8   5    3.50    0.34
   1   8  -5    2.24    0.31
   1   8  -5    2.56    0.36
   0  -8  -5    0.17    0.16
   0  -8  -5    0.16    0.22
   0  -8  -5    0.13    0.16
   0  -8   5    0.03    0.21
   0   8   5    0.36    0.21
   0   8  -5    0.42    0.24
   0   8   5    0.04    0.24
   1  -8   5    1.34    0.27
  -1  -8  -5    0.94    0.21
  -1  -8  -5    0.87    0.36
   1   8   5    0.89    0.27
   1   8   5    1.58    0.35
  -1   8  -5    1.26    0.25
  -2  -8  -5    1.33    0.26
   2  -8   5    1.28    0.28
  -2  -8  -5    0.99    0.39
   2  -8   5    1.14    0.31
   2   8   5    1.33    0.32
   2   8   5    1.37    0.37
   3  -8   5    0.93    0.27
   3  -8   5    1.25    0.30
  -3  -8  -5    1.28    0.30
   3   8   5    0.60    0.34
   3   8   5    0.99    0.33
   4  -8   5    0.12    0.25
   4  -8   5    0.53    0.28
   4   8   5    0.71    0.35
   4   8   5    0.20    0.32
   4   8   5    0.41    0.33
   5  -8   5    0.38    0.35
   5  -8   5    1.22    0.32
   5   8   5    0.57    0.39
   5   8   5    1.05    0.38
   5   8   5    1.52    0.42
   5  -9  -5    0.57    0.38
   5  -9  -5    0.83    0.37
   5   9  -5    0.47    0.44
   5   9  -5    1.14    0.41
   5   9  -5    0.71    0.39
   4  -9  -5    2.71    0.47
   4  -9  -5    3.37    0.49
   4   9  -5    3.18    0.48
   4   9  -5    3.28    0.50
   3  -9  -5    5.29    0.57
  -3  -9   5    6.85    0.47
   3  -9  -5    5.96    0.54
   3   9  -5    6.52    0.60
   3   9  -5    6.21    0.58
   2  -9  -5    0.34    0.28
   2  -9  -5    0.58    0.28
  -2  -9   5   -0.08    0.22
   2   9  -5    0.18    0.28
   2   9  -5    0.38    0.24
   1  -9  -5    1.88    0.29
   1  -9  -5    2.05    0.41
  -1  -9   5    1.91    0.33
  -1   9   5    1.41    0.33
   1   9  -5    2.22    0.32
   1   9  -5    1.32    0.30
  -1   9   5    2.00    0.30
   0  -9  -5    1.04    0.38
   0  -9   5    0.80    0.27
   0   9   5    0.60    0.30
   0   9   5    0.76    0.26
   0   9  -5    0.75    0.25
   1  -9   5    5.40    0.45
   1  -9   5    6.75    0.52
  -1  -9  -5    7.15    0.53
   1   9   5    5.70    0.59
  -1   9  -5    7.13    0.45
   1   9   5    6.75    0.57
  -2  -9  -5    3.00    0.37
   2  -9   5    3.28    0.44
   2  -9   5    3.09    0.40
   2   9   5    2.38    0.40
   2   9   5    2.68    0.47
   3  -9   5    0.61    0.35
   3  -9   5    0.93    0.32
  -3  -9  -5    0.57    0.28
   3   9   5    0.92    0.35
   3   9   5    0.78    0.40
   4  -9   5    0.04    0.27
   4  -9   5    0.30    0.35
   4   9   5    0.14    0.34
   4   9   5   -0.94    0.30
   5  -9   5    0.56    0.29
   5  -9   5    0.09    0.34
   5   9   5    0.50    0.39
   5   9   5   -0.09    0.39
   5   9   5    0.04    0.35
   4 -10  -5    2.01    0.45
   4 -10  -5    1.81    0.44
   4  10  -5    2.19    0.48
   4  10  -5    3.36    0.54
   3 -10  -5    2.55    0.43
   3 -10  -5    3.43    0.48
   3  10  -5    2.11    0.43
   3  10  -5    2.69    0.48
   2 -10  -5    1.90    0.37
  -2 -10   5    2.11    0.34
   2 -10  -5    1.90    0.43
   2  10  -5    1.35    0.33
   2  10  -5    1.49    0.37
   1 -10  -5    6.77    0.51
  -1 -10   5    7.02    0.52
  -1  10   5    6.26    0.47
  -1  10   5    5.27    0.56
   1  10  -5    6.30    0.51
   0 -10   5    3.72    0.44
   0  10  -5    2.49    0.35
   0  10   5    3.27    0.41
   0  10   5    2.90    0.49
   1 -10   5    1.54    0.37
   1 -10   5    0.43    0.31
   1  10   5    1.31    0.33
   1  10   5    0.67    0.37
   2 -10   5    0.87    0.38
   2 -10   5    1.55    0.35
   2  10   5    1.66    0.46
   2  10   5    1.14    0.40
   3 -10   5    1.98    0.47
   3 -10   5    1.27    0.34
   3  10   5    1.61    0.44
   3  10   5    1.18    0.51
   4 -10   5    1.85    0.37
   4 -10   5    2.38    0.50
   4  10   5    1.44    0.50
   4  10   5    1.76    0.46
   3 -11  -5   -0.04    0.33
   3 -11  -5    0.33    0.34
   3  11  -5    0.09    0.36
   3  11  -5   -0.46    0.29
   2 -11  -5   -0.20    0.28
   2 -11  -5    0.04    0.34
   2  11  -5   -0.06    0.31
  -2  11   5   -0.06    0.29
   2  11  -5    0.16    0.26
  -1 -11   5    2.66    0.42
   1  11  -5    2.28    0.41
  -1  11   5    2.64    0.49
   0 -11   5    8.25    0.67
   0  11   5    5.57    0.65
   0  11   5    7.15    0.56
   0  11  -5    7.17    0.52
   1 -11   5    0.65    0.36
   1 -11   5    0.63    0.36
   1  11   5    0.53    0.40
   1  11   5    0.54    0.32
   2 -11   5    0.94    0.41
   2 -11   5    1.17    0.35
   2  11   5    1.33    0.46
   2  11   5    1.31    0.49
   8   0  -6    1.52    0.39
   8   0  -6    0.97    0.41
   7   0  -6    7.38    0.60
   7   0  -6    7.52    0.54
   6   0  -6    9.60    0.55
   6   0  -6    9.66    0.55
  -6   0   6    9.91    0.57
  -5   0   6    1.26    0.27
   5   0  -6    1.33    0.26
   5   0  -6    1.30    0.26
   4   0  -6   10.24    0.49
   4   0  -6    9.78    0.45
   4   0  -6    9.99    0.47
  -4   0   6   10.25    0.50
   3   0  -6    0.58    0.06
  -3   0   6    0.54    0.18
   3   0  -6    0.33    0.16
   3   0  -6    0.23    0.15
   3   0  -6    0.46    0.17
   2   0  -6   43.89    1.14
  -2   0   6   43.47    1.19
   2   0  -6   43.26    1.18
   1   0  -6   87.41    2.12
  -1   0   6   84.94    2.12
   0   0  -6    7.07    0.31
   0   0  -6    6.26    0.33
   1   0   6  109.73    2.54
  -1   0  -6  102.08    2.65
   2   0   6  146.12    3.38
  -2   0  -6  139.26    3.55
   2   0   6  142.23    3.47
   2   0   6  142.25    3.39
   3   0   6   62.83    1.74
   3   0   6   66.06    1.68
  -3   0  -6   65.85    1.86
   3   0   6   66.64    1.67
   4   0   6    0.56    0.17
   4   0   6    0.37    0.16
  -4   0  -6    0.20    0.22
   4   0   6    0.69    0.21
   4   0   6    0.46    0.17
  -4   0  -6    0.50    0.19
   5   0   6   30.38    0.97
   5   0   6   32.49    0.96
  -5   0  -6   31.28    1.20
  -5   0  -6   32.16    1.12
   5   0   6   33.11    1.00
   5   0   6   33.32    1.09
   5   0   6   32.33    1.06
  -6   0  -6    7.48    0.56
   6   0   6    9.01    0.55
  -6   0  -6    8.63    0.63
   6   0   6    8.76    0.50
   6   0   6    8.53    0.54
  -7   0  -6    1.95    0.39
   7   0   6    2.06    0.36
   7   0   6    2.18    0.44
   8  -1  -6    0.14    0.35
   8  -1  -6    0.15    0.27
   8   1  -6    0.25    0.36
   8   1  -6    0.67    0.34
   7  -1  -6    2.68    0.39
   7  -1  -6    2.11    0.41
   7   1  -6    2.24    0.39
   7   1  -6    2.83    0.34
   7   1  -6    2.20    0.42
  -6  -1   6   15.11    0.77
   6  -1  -6   14.93    0.68
   6  -1  -6   14.62    0.72
   6   1  -6   15.40    0.71
   6   1  -6   16.11    0.75
  -6   1   6   15.51    0.75
   5  -1  -6    4.50    0.35
  -5  -1   6    5.05    0.44
   5  -1  -6    5.66    0.39
  -5  -1   6    5.00    0.27
   5   1  -6    4.70    0.39
   5   1  -6    4.95    0.26
  -5   1   6    4.53    0.41
   5   1  -6    5.13    0.39
   4  -1  -6   15.03    0.58
   4  -1  -6   13.99    0.59
   4  -1  -6   16.28    0.61
  -4  -1   6   14.82    0.62
   4   1  -6   15.80    0.61
   4   1  -6   14.68    0.59
   4   1  -6   15.18    0.60
   4   1  -6   14.22    0.48
  -4   1   6   14.35    0.60
   3  -1  -6  115.56    2.84
   3  -1  -6  111.53    2.82
   3  -1  -6  116.10    2.83
  -3  -1   6  115.29    2.86
  -3   1   6  112.01    2.84
   3   1  -6  114.57    2.83
   3   1  -6  113.47    2.81
   3   1  -6  114.05    2.85
   3   1  -6  114.29    2.74
  -2  -1   6  100.86    2.51
   2  -1  -6  102.60    2.51
   2  -1  -6  101.96    2.48
   2  -1  -6  104.30    2.38
   2   1  -6  100.30    2.50
   2   1  -6  101.26    2.45
   2   1  -6  100.63    2.45
  -2   1   6   99.12    2.50
   1  -1  -6   96.58    2.42
  -1  -1   6   98.23    2.41
   1  -1  -6  100.48    2.40
   1  -1  -6  101.17    2.38
  -1   1   6   98.95    2.40
  -1   1   6   99.42    2.43
   1   1  -6   99.49    2.41
   0  -1   6  137.03    3.26
   0  -1  -6  134.36    3.28
   0  -1  -6  141.96    3.32
   0   1  -6  135.44    3.25
   0   1   6  134.76    3.31
  -1  -1  -6   66.11    1.77
   1  -1   6   66.98    1.66
   1   1   6   65.25    1.76
  -2  -1  -6   39.35    1.20
   2  -1   6   38.95    1.01
   2  -1   6   38.93    1.11
   2  -1   6   38.87    1.06
  -2   1  -6   38.08    1.19
   2   1   6   40.03    1.12
   2   1   6   39.77    1.20
   3  -1   6    8.86    0.37
   3  -1   6    9.29    0.39
   3  -1   6    8.91    0.43
  -3  -1  -6    8.75    0.53
   3   1   6    9.19    0.44
   3   1   6    8.53    0.41
  -3   1  -6    8.40    0.49
   3   1   6    7.92    0.38
   3   1   6    8.97    0.52
   3   1   6    8.91    0.34
  -4  -1  -6    9.49    0.51
   4  -1   6    9.93    0.44
   4  -1   6   10.02    0.49
  -4  -1  -6    9.70    0.59
   4  -1   6    9.27    0.43
   4   1   6    9.59    0.50
   4   1   6    8.73    0.45
   4   1   6    8.61    0.56
   4   1   6    9.71    0.39
   4   1   6    9.55    0.42
   4   1   6    9.50    0.44
  -4   1  -6    8.94    0.45
  -4   1  -6    9.34    0.55
  -5  -1  -6   12.99    0.67
  -5  -1  -6   14.22    0.77
   5  -1   6   12.75    0.61
   5  -1   6   12.99    0.62
   5  -1   6   13.32    0.58
   5   1   6   13.38    0.57
  -5   1  -6   13.53    0.62
   5   1   6   12.99    0.55
   5   1   6   14.29    0.54
   5   1   6   13.89    0.65
  -5   1  -6   14.67    0.73
   5   1   6   14.19    0.63
  -6  -1  -6    5.58    0.59
   6  -1   6    5.68    0.51
   6  -1   6    5.80    0.46
   6  -1   6    4.49    0.42
  -6  -1  -6    5.69    0.53
   6   1   6    4.71    0.39
   6   1   6    6.02    0.49
   6   1   6    5.89    0.41
  -6   1  -6    5.22    0.50
   6   1   6    5.05    0.49
  -6   1  -6    6.39    0.48
   7  -1   6    0.07    0.32
   7  -1   6    0.05    0.23
   7  -1   6   -0.08    0.21
  -7  -1  -6    0.46    0.32
   7   1   6   -0.42    0.29
   7   1   6   -0.14    0.27
   8  -2  -6    5.05    0.58
   8  -2  -6    4.94    0.54
   8   2  -6    4.42    0.56
   8   2  -6    4.62    0.59
   7  -2  -6    1.30    0.30
   7  -2  -6    1.82    0.40
  -7   2   6    1.30    0.33
   7   2  -6    1.30    0.30
   7   2  -6    1.59    0.37
   7   2  -6    1.41    0.35
  -6  -2   6    3.97    0.46
   6  -2  -6    3.14    0.42
   6  -2  -6    4.02    0.41
   6   2  -6    3.56    0.38
   6   2  -6    4.22    0.46
  -6   2   6    4.16    0.44
   6   2  -6    4.79    0.46
  -5  -2   6    5.33    0.41
   5  -2  -6    4.77    0.37
   5  -2  -6    5.10    0.41
  -5  -2   6    5.42    0.34
   5   2  -6    5.06    0.41
   5   2  -6    5.83    0.34
   5   2  -6    4.78    0.37
   5   2  -6    6.21    0.36
  -5   2   6    6.43    0.44
  -4  -2   6    2.45    0.24
   4  -2  -6    2.64    0.27
   4  -2  -6    2.87    0.30
  -4  -2   6    2.04    0.27
   4  -2  -6    2.05    0.28
   4   2  -6    2.65    0.30
   4   2  -6    2.17    0.23
   4   2  -6    2.47    0.28
   4   2  -6    2.18    0.28
  -4   2   6    2.82    0.29
   3  -2  -6    2.33    0.25
   3  -2  -6    1.97    0.22
  -3  -2   6    2.17    0.25
  -3   2   6    2.51    0.25
   3   2  -6    2.35    0.24
   3   2  -6    2.15    0.25
   3   2  -6    2.35    0.23
   3   2  -6    2.52    0.24
   2  -2  -6  105.40    2.60
   2  -2  -6  102.38    2.51
  -2  -2   6  103.50    2.60
   2  -2  -6  105.01    2.60
   2   2  -6  105.12    2.61
   2   2  -6  107.03    2.55
  -2   2   6  105.47    2.60
   2   2  -6  108.23    2.61
  -2   2   6  105.99    2.51
   1  -2  -6   10.24    0.38
   1  -2  -6    8.76    0.38
  -1  -2   6    9.32    0.37
   1  -2  -6    9.76    0.39
  -1   2   6    9.96    0.40
   1   2  -6    9.88    0.37
  -1   2   6    9.71    0.38
   1   2  -6   10.45    0.35
   0  -2   6    1.91    0.20
   0  -2  -6    1.44    0.18
   0  -2   6    1.37    0.14
   0  -2  -6    1.69    0.22
   0   2   6    1.40    0.20
   0   2  -6    1.30    0.15
  -1  -2  -6    3.81    0.34
   1  -2   6    4.19    0.27
   1   2   6    4.46    0.33
  -1   2  -6    3.99    0.21
  -2  -2  -6   11.42    0.55
   2  -2   6   11.80    0.48
   2  -2   6   11.69    0.38
   2  -2   6   11.28    0.45
   2   2   6   11.98    0.47
   2   2   6   11.01    0.49
   2   2   6   11.85    0.56
  -3  -2  -6    2.99    0.38
   3  -2   6    2.82    0.23
   3  -2   6    3.38    0.30
   3  -2   6    3.64    0.32
   3   2   6    3.78    0.31
  -3   2  -6    3.14    0.23
   3   2   6    2.87    0.35
   3   2   6    3.30    0.28
  -3   2  -6    2.86    0.35
   3   2   6    3.68    0.34
   4  -2   6    1.11    0.19
  -4  -2  -6    0.95    0.22
   4  -2   6    1.08    0.23
   4  -2   6    1.19    0.24
  -4  -2  -6    1.37    0.33
  -4   2  -6    1.14    0.26
   4   2   6    1.10    0.23
   4   2   6    1.25    0.22
  -4   2  -6    1.08    0.20
   4   2   6    1.04    0.14
   4   2   6    1.22    0.25
   5  -2   6    5.01    0.42
  -5  -2  -6    5.06    0.54
   5  -2   6    4.49    0.38
   5  -2   6    4.14    0.39
  -5  -2  -6    5.30    0.48
  -5   2  -6    4.29    0.47
   5   2   6    5.07    0.46
  -5   2  -6    4.36    0.39
   5   2   6    4.12    0.42
   5   2   6    5.00    0.36
   5   2   6    5.13    0.43
   6  -2   6    0.78    0.26
   6  -2   6    1.14    0.32
  -6  -2  -6    1.21    0.37
   6  -2   6    1.33    0.32
   6   2   6    1.85    0.32
  -6   2  -6    0.91    0.28
   6   2   6    1.18    0.32
  -6   2  -6    1.26    0.26
   6   2   6    1.66    0.29
   6   2   6    1.62    0.35
   7  -2   6    1.01    0.31
   7  -2   6    1.24    0.34
   7  -2   6    1.34    0.33
   7   2   6    1.12    0.30
   7   2   6    1.42    0.38
   7   2   6    0.51    0.29
   7   2   6    0.96    0.27
   8  -3  -6   -0.03    0.23
   8  -3  -6    0.67    0.35
   8   3  -6    0.41    0.35
   8   3  -6   -0.13    0.28
   8   3  -6   -0.01    0.33
   7  -3  -6    1.56    0.37
   7  -3  -6    0.75    0.28
   7   3  -6    1.12    0.30
  -7   3   6    0.82    0.30
   7   3  -6    1.73    0.39
   7   3  -6    1.34    0.37
  -6  -3   6    9.66    0.64
  -6  -3   6    9.78    0.62
   6  -3  -6    9.54    0.60
   6  -3  -6    8.76    0.51
   6   3  -6    8.41    0.57
  -6   3   6    7.88    0.57
   6   3  -6    8.64    0.51
   6   3  -6    9.10    0.59
   6   3  -6    7.94    0.49
   5  -3  -6   11.09    0.54
  -5  -3   6   10.18    0.53
   5  -3  -6    8.72    0.53
  -5  -3   6   10.94    0.61
   5  -3  -6    9.31    0.51
  -5   3   6   10.75    0.54
   5   3  -6    9.60    0.51
   5   3  -6    9.41    0.51
   5   3  -6    9.63    0.55
   5   3  -6    9.79    0.51
   4  -3  -6    8.63    0.46
   4  -3  -6    8.81    0.47
  -4  -3   6    7.89    0.48
  -4  -3   6    8.45    0.44
   4  -3  -6    8.21    0.44
   4  -3  -6    8.92    0.44
   4   3  -6    7.88    0.44
   4   3  -6    8.57    0.48
   4   3  -6    7.99    0.43
  -4   3   6    8.57    0.23
  -4   3   6    7.47    0.23
  -4   3   6    8.60    0.44
   4   3  -6    9.03    0.45
   3  -3  -6    4.85    0.32
   3  -3  -6    4.63    0.33
   3  -3  -6    4.71    0.34
  -3  -3   6    5.05    0.35
   3   3  -6    5.27    0.34
  -3   3   6    4.94    0.32
  -3   3   6    5.24    0.23
   3   3  -6    5.58    0.35
   3   3  -6    5.70    0.32
   3   3  -6    5.52    0.34
   2  -3  -6   14.20    0.54
   2  -3  -6   13.52    0.51
   2  -3  -6   14.82    0.50
  -2  -3   6   14.29    0.53
   2  -3  -6   13.03    0.51
  -2   3   6   14.60    0.53
   2   3  -6   14.82    0.52
  -2   3   6   15.64    0.50
   2   3  -6   14.56    0.49
   2   3  -6   14.15    0.52
   2   3  -6   15.31    0.59
   1  -3  -6   15.91    0.53
   1  -3  -6   14.39    0.54
  -1  -3   6   15.07    0.49
   1   3  -6   15.19    0.49
   1   3  -6   15.49    0.60
  -1   3   6   15.12    0.55
   0  -3   6   10.99    0.37
   0  -3   6   11.58    0.44
   0  -3   6   11.26    0.43
   0  -3  -6   10.84    0.50
   0   3  -6   10.87    0.36
   0   3   6   10.57    0.47
  -1  -3  -6   10.48    0.53
   1  -3   6    9.08    0.41
   1  -3   6   10.27    0.32
   1  -3   6    9.03    0.42
  -1   3  -6   10.06    0.34
   1   3   6    9.91    0.44
   1   3   6    9.59    0.50
   1   3   6    9.96    0.42
   2  -3   6   33.87    1.02
   2  -3   6   34.22    0.92
   2  -3   6   35.13    1.03
  -2  -3  -6   34.70    1.17
   2   3   6   35.05    1.03
   2   3   6   35.44    1.16
   2   3   6   34.10    1.01
   2   3   6   35.33    1.06
  -3  -3  -6   24.82    1.00
   3  -3   6   23.58    0.82
   3  -3   6   25.36    0.84
   3  -3   6   25.21    0.76
   3   3   6   26.03    0.83
   3   3   6   25.96    0.89
   3   3   6   27.31    0.99
  -3   3  -6   24.52    0.75
   3   3   6   24.48    0.83
  -4  -3  -6   45.50    1.55
   4  -3   6   45.86    1.28
   4  -3   6   45.14    1.34
  -4  -3  -6   45.31    1.41
   4  -3   6   44.30    1.35
   4   3   6   43.55    1.32
   4   3   6   44.74    1.39
  -4   3  -6   44.23    1.45
  -4   3  -6   44.73    1.26
   4   3   6   46.16    1.34
  -5  -3  -6    3.40    0.48
   5  -3   6    2.51    0.35
   5  -3   6    2.82    0.35
   5  -3   6    3.50    0.35
  -5  -3  -6    3.34    0.42
   5   3   6    2.66    0.38
  -5   3  -6    2.66    0.30
   5   3   6    2.45    0.32
   5   3   6    2.90    0.34
  -5   3  -6    2.63    0.38
   6  -3   6    1.92    0.33
   6  -3   6    1.32    0.32
  -6  -3  -6    1.47    0.41
   6  -3   6    1.49    0.30
  -6   3  -6    1.06    0.23
   6   3   6    1.08    0.31
  -6   3  -6    1.56    0.33
   6   3   6    2.14    0.36
   6   3   6    1.22    0.33
   7  -3   6    1.66    0.37
   7  -3   6    1.92    0.37
   7  -3   6    1.22    0.33
   7   3   6    2.05    0.38
   7   3   6    1.07    0.36
   7   3   6    1.48    0.34
   8  -4  -6    0.21    0.25
   8  -4  -6    0.76    0.39
   8   4  -6    0.09    0.36
   8   4  -6    0.09    0.35
   8   4  -6    0.54    0.33
   7  -4  -6    8.07    0.56
   7  -4  -6    6.68    0.63
   7   4  -6    6.32    0.62
  -7   4   6    7.25    0.56
   7   4  -6    7.72    0.68
   7   4  -6    7.57    0.60
   7   4  -6    5.82    0.54
  -6  -4   6    4.03    0.45
   6  -4  -6    3.14    0.44
   6  -4  -6    3.51    0.39
   6  -4  -6    3.58    0.45
  -6  -4   6    4.59    0.44
   6   4  -6    4.01    0.46
   6   4  -6    4.17    0.45
   6   4  -6    2.86    0.43
   6   4  -6    3.69    0.41
  -6   4   6    3.67    0.42
  -5  -4   6    8.32    0.56
   5  -4  -6    8.14    0.52
  -5  -4   6    8.09    0.50
   5  -4  -6    7.30    0.45
   5  -4  -6    7.93    0.48
   5  -4  -6    9.06    0.48
   5   4  -6    7.86    0.50
  -5   4   6    8.07    0.47
   5   4  -6    7.70    0.52
   5   4  -6    7.62    0.50
   5   4  -6    7.35    0.52
  -4  -4   6   20.41    0.79
   4  -4  -6   19.03    0.74
   4  -4  -6   20.32    0.72
  -4  -4   6   19.73    0.80
   4  -4  -6   19.64    0.77
   4   4  -6   20.05    0.77
   4   4  -6   18.04    0.73
   4   4  -6   20.60    0.80
  -4   4   6   21.04    0.74
  -4   4   6   19.74    0.61
   3  -4  -6    5.85    0.39
   3  -4  -6    5.89    0.33
  -3  -4   6    5.76    0.38
   3  -4  -6    6.00    0.37
  -3  -4   6    5.82    0.41
  -3   4   6    5.76    0.32
   3   4  -6    5.50    0.36
   3   4  -6    5.80    0.41
  -3   4   6    5.98    0.36
   3   4  -6    6.25    0.38
   2  -4  -6    7.27    0.40
   2  -4  -6    7.02    0.34
   2  -4  -6    6.19    0.35
  -2  -4   6    8.01    0.39
   2  -4  -6    7.77    0.38
  -2   4   6    7.22    0.37
   2   4  -6    6.98    0.37
   2   4  -6    7.09    0.35
   2   4  -6    6.81    0.44
  -2   4   6    7.17    0.35
   1  -4  -6   80.65    2.13
  -1  -4   6   78.48    2.00
   1  -4  -6   79.13    2.01
  -1  -4   6   82.24    2.08
   1  -4  -6   81.65    2.06
   1   4  -6   85.71    2.21
   1   4  -6   80.50    2.01
  -1   4   6   81.59    2.13
   0  -4  -6   23.50    0.82
   0  -4   6   21.73    0.62
   0  -4   6   21.99    0.74
   0   4  -6   23.41    0.85
   0   4  -6   21.56    0.62
   0   4   6   24.56    0.74
   0   4   6   24.24    0.82
   0   4   6   22.76    0.72
   1  -4   6   14.52    0.46
  -1  -4  -6   14.16    0.66
   1  -4   6   14.03    0.55
   1  -4   6   13.58    0.54
   1   4   6   14.45    0.57
  -1   4  -6   14.18    0.41
   1   4   6   15.00    0.66
   1   4   6   13.93    0.54
   2  -4   6   10.96    0.49
   2  -4   6   10.06    0.47
  -2  -4  -6   10.46    0.61
   2  -4   6   10.85    0.40
  -2   4  -6   10.16    0.34
  -2   4  -6   10.32    0.34
   2   4   6    9.99    0.48
   2   4   6   10.36    0.51
   2   4   6   10.12    0.58
   3  -4   6   32.92    0.95
   3  -4   6   32.82    1.05
  -3  -4  -6   32.59    1.22
   3  -4   6   32.58    1.03
   3   4   6   30.70    1.07
  -3   4  -6   32.90    0.90
   3   4   6   32.79    1.05
   3   4   6   32.17    1.03
  -4  -4  -6    2.18    0.33
   4  -4   6    1.99    0.30
   4  -4   6    2.28    0.33
   4  -4   6    2.71    0.28
  -4  -4  -6    2.39    0.39
   4   4   6    2.03    0.32
   4   4   6    2.25    0.33
   4   4   6    2.14    0.35
  -4   4  -6    2.48    0.24
   5  -4   6    8.42    0.51
   5  -4   6    8.54    0.56
   5  -4   6    8.97    0.51
  -5  -4  -6    9.17    0.73
  -5  -4  -6    9.30    0.58
   5   4   6    8.00    0.56
   5   4   6    8.29    0.59
   5   4   6    9.39    0.54
  -5   4  -6    8.11    0.58
  -5   4  -6    8.91    0.46
   6  -4   6    3.35    0.40
   6  -4   6    2.70    0.39
   6  -4   6    2.31    0.40
  -6   4  -6    2.98    0.45
   6   4   6    2.94    0.40
   6   4   6    2.78    0.41
   6   4   6    2.11    0.42
   7  -4   6    2.95    0.46
   7  -4   6    3.13    0.45
   7   4   6    2.55    0.43
   7   4   6    2.60    0.50
   7   4   6    2.86    0.45
   7  -5  -6    0.00    0.32
   7  -5  -6    0.50    0.26
   7  -5  -6    0.44    0.34
   7   5  -6    0.21    0.27
   7   5  -6    0.24    0.31
   7   5  -6   -0.09    0.28
  -6  -5   6    1.36    0.34
   6  -5  -6    0.54    0.30
   6  -5  -6    1.24    0.29
   6  -5  -6    0.58    0.33
   6   5  -6    1.26    0.35
   6   5  -6    0.99    0.30
   6   5  -6    1.37    0.36
  -6   5   6    1.26    0.30
   5  -5  -6    0.69    0.29
  -5  -5   6    0.42    0.24
   5  -5  -6    0.27    0.20
  -5  -5   6   -0.18    0.23
   5  -5  -6    0.34    0.25
   5  -5  -6    0.42    0.26
   5   5  -6    0.43    0.24
   5   5  -6    0.99    0.30
  -5   5   6    0.54    0.22
   5   5  -6    0.50    0.28
  -4  -5   6   10.24    0.55
   4  -5  -6    9.07    0.45
  -4  -5   6    8.45    0.56
   4  -5  -6    9.27    0.53
   4  -5  -6    9.30    0.53
   4   5  -6    8.68    0.52
   4   5  -6   10.43    0.62
  -4   5   6    8.77    0.43
  -4   5   6    8.71    0.46
  -3  -5   6   30.70    1.10
   3  -5  -6   29.36    0.91
   3  -5  -6   28.31    1.00
   3  -5  -6   28.86    0.97
  -3  -5   6   30.90    0.98
   3   5  -6   31.54    1.11
  -3   5   6   30.93    0.93
  -3   5   6   30.34    0.96
   3   5  -6   29.47    0.99
   3   5  -6   31.08    0.97
  -2  -5   6   18.96    0.67
   2  -5  -6   18.27    0.70
   2  -5  -6   19.14    0.72
  -2  -5   6   19.52    0.65
   2  -5  -6   17.73    0.65
   2  -5  -6   18.46    0.63
  -2   5   6   19.60    0.73
   2   5  -6   19.71    0.81
   2   5  -6   17.07    0.66
   2   5  -6   18.33    0.63
   1  -5  -6   28.10    0.85
  -1  -5   6   27.67    0.88
   1  -5  -6   26.90    0.82
   1  -5  -6   28.15    0.96
  -1  -5   6   28.80    0.80
   1   5  -6   26.24    0.79
  -1   5   6   28.76    0.97
   1   5  -6   27.62    0.85
  -1   5   6   28.41    0.84
  -1   5   6   28.88    0.87
   1   5  -6   28.34    1.03
   0  -5  -6   18.52    0.56
   0  -5   6   17.57    0.65
   0  -5   6   18.68    0.52
   0  -5  -6   19.42    0.78
   0   5   6   17.66    0.63
   0   5  -6   17.84    0.51
   0   5  -6   18.67    0.79
   0   5   6   18.99    0.77
   0   5   6   18.78    0.67
  -1  -5  -6    4.81    0.40
   1  -5   6    4.40    0.31
   1  -5   6    5.16    0.28
   1   5   6    5.30    0.35
   1   5   6    4.34    0.35
   1   5   6    5.40    0.45
  -1   5  -6    5.51    0.45
  -1   5  -6    5.01    0.15
   2  -5   6    3.79    0.26
  -2  -5  -6    2.82    0.41
   2  -5   6    3.89    0.37
   2   5   6    3.15    0.36
   2   5   6    4.13    0.36
  -2   5  -6    3.39    0.13
  -2   5  -6    3.71    0.13
   3  -5   6   17.32    0.72
   3  -5   6   17.33    0.69
   3  -5   6   17.73    0.62
  -3  -5  -6   17.23    0.74
  -3  -5  -6   16.77    0.88
   3   5   6   15.56    0.73
  -3   5  -6   17.55    0.50
   3   5   6   16.35    0.70
   3   5   6   16.76    0.71
  -4  -5  -6    8.04    0.69
  -4  -5  -6    9.43    0.58
   4  -5   6    7.86    0.48
   4  -5   6    7.24    0.44
   4  -5   6    8.24    0.55
  -4   5  -6    8.82    0.40
   4   5   6    7.77    0.52
   4   5   6    8.24    0.54
   4   5   6    8.88    0.53
   5  -5   6    8.36    0.54
   5  -5   6    9.06    0.61
   5  -5   6    8.25    0.52
  -5  -5  -6    9.05    0.77
   5   5   6    8.17    0.56
   5   5   6    8.84    0.62
   5   5   6    9.26    0.60
   6  -5   6    3.45    0.42
   6  -5   6    2.35    0.42
   6  -5   6    4.09    0.46
  -6   5  -6    3.97    0.49
   6   5   6    3.24    0.49
   6   5   6    2.93    0.46
   6   5   6    3.34    0.45
   7  -5   6    0.32    0.34
   7  -5   6    0.42    0.30
   7   5   6    0.45    0.32
   7   5   6    0.18    0.34
   7   5   6   -0.34    0.31
   7  -6  -6    3.07    0.51
   7  -6  -6    2.66    0.38
   7  -6  -6    2.75    0.48
   7   6  -6    3.54    0.49
   7   6  -6    1.85    0.43
   7   6  -6    2.82    0.52
   6  -6  -6    4.83    0.55
  -6  -6   6    5.09    0.68
   6  -6  -6    5.43    0.48
   6  -6  -6    4.00    0.48
   6   6  -6    4.37    0.55
   6   6  -6    5.23    0.55
   6   6  -6    5.38    0.55
   5  -6  -6    2.82    0.38
   5  -6  -6    2.71    0.34
  -5  -6   6    2.90    0.40
  -5  -6   6    3.07    0.44
   5  -6  -6    1.40    0.34
   5   6  -6    1.81    0.35
  -5   6   6    1.99    0.31
   5   6  -6    2.81    0.39
   5   6  -6    1.96    0.37
  -4  -6   6    0.59    0.24
   4  -6  -6    0.36    0.17
  -4  -6   6    0.44    0.28
   4  -6  -6    0.02    0.23
   4  -6  -6    0.11    0.24
  -4   6   6    0.47    0.18
   4   6  -6   -0.02    0.22
   3  -6  -6    9.72    0.52
   3  -6  -6    9.12    0.54
   3  -6  -6    9.90    0.44
  -3  -6   6    9.14    0.49
  -3  -6   6    9.83    0.50
  -3   6   6    8.72    0.51
   3   6  -6    9.90    0.49
   3   6  -6    8.82    0.52
  -2  -6   6   12.12    0.52
   2  -6  -6   11.17    0.58
   2  -6  -6   11.38    0.52
   2  -6  -6   11.48    0.47
   2  -6  -6   11.31    0.59
  -2  -6   6   10.83    0.48
  -2   6   6    9.95    0.56
  -2   6   6   11.58    0.45
   2   6  -6   12.43    0.54
  -2   6   6   11.77    0.50
   2   6  -6   11.69    0.48
   1  -6  -6   41.11    1.14
  -1  -6   6   40.02    1.20
  -1  -6   6   39.71    1.08
   1  -6  -6   39.83    1.15
   1  -6  -6   38.39    1.30
  -1   6   6   41.80    1.16
  -1   6   6   37.90    1.30
   1   6  -6   41.46    1.17
  -1   6   6   41.20    1.20
   1   6  -6   40.71    1.08
   0  -6  -6   14.37    0.48
   0  -6   6   13.66    0.57
   0  -6  -6   13.90    0.56
   0  -6  -6   14.22    0.71
   0  -6   6   14.13    0.40
   0   6  -6   14.82    0.53
   0   6   6   13.38    0.60
   0   6   6   13.55    0.70
   0   6   6   13.86    0.56
   1  -6   6    3.60    0.26
   1  -6   6    3.74    0.37
  -1  -6  -6    3.08    0.40
   1   6   6    3.88    0.38
   1   6   6    3.33    0.34
   2  -6   6    6.69    0.43
   2  -6   6    7.24    0.37
  -2  -6  -6    6.06    0.57
   2   6   6    6.92    0.49
   2   6   6    7.75    0.47
   3  -6   6    2.55    0.36
  -3  -6  -6    2.30    0.34
  -3  -6  -6    1.94    0.42
   3  -6   6    2.85    0.30
   3   6   6    2.36    0.37
   3   6   6    1.94    0.34
   3   6   6    2.59    0.36
  -4  -6  -6    1.84    0.35
   4  -6   6    2.33    0.32
   4  -6   6    2.47    0.39
  -4  -6  -6    2.55    0.49
   4   6   6    2.36    0.35
   4   6   6    2.39    0.39
   4   6   6    2.61    0.42
   5  -6   6    0.03    0.21
   5  -6   6    0.55    0.32
   5   6   6    0.41    0.30
   5   6   6    0.32    0.31
   5   6   6    0.95    0.35
   6  -6   6    1.39    0.35
   6  -6   6    0.43    0.34
   6   6   6    0.95    0.37
   6   6   6    0.90    0.36
   6   6   6    0.55    0.37
   6  -7  -6    0.14    0.25
   6  -7  -6    0.21    0.26
   6  -7  -6    0.31    0.26
   6   7  -6   -0.09    0.30
   6   7  -6    0.52    0.35
   6   7  -6   -0.09    0.33
   5  -7  -6    1.03    0.35
  -5  -7   6    0.71    0.26
  -5  -7   6    0.17    0.28
   5  -7  -6    0.72    0.27
  -5  -7   6    0.53    0.34
   5   7  -6    0.94    0.35
   5   7  -6    0.24    0.30
  -4  -7   6    0.71    0.33
   4  -7  -6    0.22    0.26
  -4  -7   6    0.51    0.25
   4  -7  -6    0.45    0.28
  -4  -7   6    0.65    0.24
   4   7  -6    0.61    0.28
   4   7  -6    0.92    0.32
   3  -7  -6    8.53    0.57
   3  -7  -6    9.52    0.55
  -3  -7   6    9.99    0.50
  -3  -7   6   10.17    0.53
   3   7  -6    9.71    0.55
  -3   7   6    9.95    0.60
   2  -7  -6   20.39    0.86
   2  -7  -6   19.86    0.75
  -2  -7   6   19.77    0.69
  -2  -7   6   21.42    0.76
   2  -7  -6   19.09    0.83
   2  -7  -6   21.09    0.69
  -2   7   6   20.78    0.76
  -2   7   6   20.26    0.88
   2   7  -6   19.10    0.78
  -2   7   6   19.50    0.67
   1  -7  -6    5.90    0.51
  -1  -7   6    6.29    0.41
   1  -7  -6    5.63    0.36
   1  -7  -6    5.99    0.36
  -1  -7   6    6.15    0.30
  -1   7   6    7.06    0.46
  -1   7   6    6.42    0.39
   1   7  -6    5.13    0.36
   0  -7   6    2.57    0.31
   0  -7  -6    2.48    0.29
   0  -7  -6    3.11    0.26
   0  -7  -6    2.68    0.42
   0   7   6    2.35    0.34
   0   7   6    2.76    0.31
   0   7  -6    3.02    0.29
  -1  -7  -6    0.69    0.26
   1  -7   6    0.60    0.24
   1  -7   6    0.72    0.21
   1   7   6    0.57    0.24
   1   7   6    0.34    0.25
  -2  -7  -6    1.28    0.38
   2  -7   6    2.10    0.27
   2  -7   6    1.89    0.34
   2   7   6    1.28    0.33
   2   7   6    2.20    0.34
   3  -7   6    3.05    0.42
  -3  -7  -6    3.03    0.39
  -3  -7  -6    2.01    0.42
   3  -7   6    3.60    0.35
   3   7   6    2.23    0.41
   3   7   6    2.64    0.41
  -4  -7  -6    2.52    0.45
   4  -7   6    2.41    0.33
   4  -7   6    2.75    0.39
   4   7   6    1.74    0.41
   4   7   6    2.53    0.42
   4   7   6    1.62    0.39
   5  -7   6    0.64    0.28
   5  -7   6    1.08    0.37
   5   7   6    0.76    0.36
   5   7   6    0.91    0.40
   5   7   6    1.07    0.38
   6  -7   6    0.55    0.31
   6  -7   6    0.54    0.37
   6   7   6    0.31    0.35
   6   7   6    0.08    0.36
   6   7   6    0.08    0.33
   6  -8  -6    0.60    0.39
   6  -8  -6    0.90    0.37
   6   8  -6    1.33    0.43
   6   8  -6    0.50    0.38
   6   8  -6    0.66    0.43
   5  -8  -6    0.23    0.32
   5  -8  -6    0.25    0.34
   5   8  -6    0.98    0.38
   5   8  -6    0.70    0.35
   5   8  -6    0.92    0.38
   4  -8  -6    3.54    0.47
   4  -8  -6    3.67    0.48
  -4  -8   6    3.65    0.43
   4   8  -6    3.73    0.48
   4   8  -6    3.53    0.49
   3  -8  -6    5.62    0.50
  -3  -8   6    4.85    0.39
  -3  -8   6    5.21    0.40
   3  -8  -6    4.68    0.50
   3   8  -6    5.75    0.53
   3   8  -6    4.03    0.45
   2  -8  -6    2.48    0.34
   2  -8  -6    2.00    0.38
  -2  -8   6    1.96    0.30
  -2  -8   6    1.92    0.23
   2  -8  -6    1.70    0.35
  -2   8   6    2.49    0.35
   2   8  -6    2.02    0.35
   2   8  -6    2.22    0.32
  -2   8   6    2.63    0.29
  -1  -8   6    3.58    0.38
   1  -8  -6    3.11    0.46
   1  -8  -6    4.25    0.37
  -1   8   6    3.62    0.34
  -1   8   6    3.45    0.42
   1   8  -6    3.52    0.36
   0  -8  -6    7.76    0.65
   0  -8  -6    8.73    0.45
   0  -8   6    7.81    0.51
   0  -8  -6    8.14    0.45
   0   8   6    7.63    0.53
   0   8  -6    8.06    0.44
   0   8   6    7.18    0.46
   1  -8   6    6.21    0.49
  -1  -8  -6    7.56    0.68
   1  -8   6    8.44    0.48
   1   8   6    6.61    0.48
   1   8   6    7.39    0.55
  -2  -8  -6    2.36    0.48
   2  -8   6    2.86    0.40
  -2  -8  -6    2.46    0.34
   2  -8   6    2.42    0.32
   2   8   6    2.57    0.45
   2   8   6    2.73    0.40
   3  -8   6    0.13    0.28
   3  -8   6    0.51    0.22
  -3  -8  -6    0.10    0.27
   3   8   6   -0.34    0.26
   3   8   6   -0.47    0.28
   4  -8   6    1.15    0.28
   4  -8   6    0.16    0.32
   4   8   6    1.05    0.38
   4   8   6    0.53    0.38
   5  -8   6    1.10    0.33
   5  -8   6    0.25    0.36
   5   8   6    1.09    0.41
   5   8   6    0.82    0.43
   5   8   6    1.23    0.41
   5  -9  -6    1.57    0.37
   5  -9  -6    1.27    0.40
   5   9  -6    1.77    0.45
   5   9  -6    1.45    0.43
   5   9  -6    0.97    0.50
   4  -9  -6    5.99    0.62
   4  -9  -6    6.93    0.62
   4   9  -6    7.37    0.67
   4   9  -6    7.96    0.63
  -3  -9   6    2.03    0.34
   3  -9  -6    1.73    0.38
   3  -9  -6    2.07    0.39
   3   9  -6    2.13    0.39
   3   9  -6    1.75    0.39
   2  -9  -6    1.22    0.30
   2  -9  -6    1.78    0.36
  -2  -9   6    1.48    0.31
  -2   9   6    1.09    0.32
   2   9  -6    0.97    0.31
   2   9  -6    1.10    0.29
   1  -9  -6    0.94    0.25
   1  -9  -6    0.69    0.35
  -1  -9   6    0.54    0.25
  -1   9   6    1.00    0.26
   1   9  -6    0.45    0.29
   1   9  -6    0.59    0.23
  -1   9   6    0.73    0.31
   0  -9  -6    3.25    0.48
   0  -9   6    2.96    0.39
   0   9  -6    2.78    0.37
   0   9   6    2.97    0.36
   0   9   6    2.52    0.42
   1  -9   6    2.53    0.37
   1  -9   6    2.86    0.40
  -1  -9  -6    2.73    0.33
   1   9   6    2.38    0.44
   1   9   6    1.72    0.34
  -1   9  -6    2.17    0.31
   2  -9   6    4.67    0.47
  -2  -9  -6    4.66    0.44
   2  -9   6    4.60    0.49
   2   9   6    4.42    0.56
   2   9   6    5.14    0.55
  -3  -9  -6    6.64    0.63
   3  -9   6    7.74    0.68
   3  -9   6    7.29    0.53
   3   9   6    6.15    0.62
   3   9   6    5.66    0.65
   4  -9   6    3.23    0.47
   4  -9   6    2.72    0.40
   4   9   6    2.17    0.50
   4   9   6    2.83    0.50
   4 -10  -6    1.16    0.40
   4 -10  -6    1.24    0.39
   4  10  -6    0.39    0.39
   4  10  -6    1.13    0.39
   3 -10  -6    0.20    0.34
   3 -10  -6   -0.10    0.34
   3  10  -6   -0.21    0.27
   3  10  -6   -0.05    0.31
  -2 -10   6   -0.50    0.25
   2 -10  -6   -0.42    0.28
   2 -10  -6   -0.55    0.23
   2  10  -6    0.04    0.27
   2  10  -6    0.07    0.28
  -2  10   6    0.45    0.30
  -1 -10   6    3.91    0.48
   1  10  -6    5.36    0.48
  -1  10   6    4.70    0.45
   1  10  -6    3.14    0.42
  -1  10   6    3.82    0.52
   0 -10   6    3.30    0.44
   0  10  -6    2.62    0.37
   0  10   6    2.84    0.47
   0  10   6    2.22    0.38
   1 -10   6    6.26    0.59
   1 -10   6    5.29    0.51
   1  10   6    4.01    0.55
   1  10   6    4.58    0.49
   2 -10   6    0.41    0.32
   2 -10   6    0.57    0.30
   2  10   6    1.22    0.42
   2  10   6    1.01    0.36
   3 -10   6    0.60    0.30
   3 -10   6    0.72    0.32
   3  10   6    0.38    0.37
   3  10   6    0.64    0.42
   3 -11  -6    2.18    0.49
   2 -11  -6    1.71    0.41
   2 -11  -6    1.79    0.41
   2  11  -6    1.45    0.41
  -2  11   6    0.92    0.38
   2  11  -6    1.49    0.38
  -1 -11   6    0.79    0.36
   1  11  -6    1.25    0.34
  -1  11   6    1.06    0.39
   0 -11   6    1.70    0.39
   0  11   6    1.17    0.41
   0  11   6    1.70    0.35
   0  11  -6    2.05    0.37
   1 -11   6    0.98    0.33
   1 -11   6    1.39    0.40
   1  11   6   -0.32    0.33
   1  11   6    0.69    0.33
   2 -11   6   -0.30    0.33
   2 -11   6    0.42    0.33
   2  11   6    0.39    0.44
   2  11   6    0.75    0.38
   8   0  -7   -0.03    0.28
   8   0  -7    0.14    0.33
   7   0  -7    0.36    0.28
   7   0  -7    0.72    0.33
   6   0  -7    0.12    0.25
  -6   0   7    0.51    0.27
   6   0  -7   -0.16    0.21
  -5   0   7   28.88    1.03
   5   0  -7   28.93    0.98
   5   0  -7   28.13    0.97
   4   0  -7   -0.14    0.15
   4   0  -7    0.05    0.16
  -4   0   7    0.19    0.18
   4   0  -7    0.08    0.12
   3   0  -7   57.59    1.55
   3   0  -7   59.83    1.36
  -3   0   7   57.42    1.56
   3   0  -7   54.13    1.52
   3   0  -7   55.07    1.50
   2   0  -7    2.59    0.24
   2   0  -7    2.32    0.20
  -2   0   7    2.30    0.22
  -1   0   7  197.85    4.71
   1   0  -7  195.07    4.69
   1   0  -7  203.36    4.63
   1   0  -7  198.40    4.71
   0   0  -7    0.30    0.11
   0   0  -7    0.29    0.16
   1   0   7    8.00    0.31
  -1   0  -7    7.28    0.39
   2   0   7    9.36    0.35
   2   0   7    8.85    0.42
   2   0   7    8.27    0.33
  -2   0  -7    9.90    0.48
   3   0   7   29.79    0.97
  -3   0  -7   31.64    1.09
   3   0   7   30.25    0.90
   3   0   7   31.03    0.89
   3   0   7   31.78    0.89
   4   0   7    1.15    0.26
   4   0   7    1.33    0.21
   4   0   7    1.69    0.22
  -4   0  -7    1.57    0.25
   4   0   7    1.39    0.22
  -4   0  -7    1.89    0.34
   5   0   7    2.37    0.31
   5   0   7    2.94    0.31
  -5   0  -7    2.22    0.39
   5   0   7    2.73    0.38
   5   0   7    3.25    0.32
  -5   0  -7    2.45    0.34
   6   0   7    8.57    0.56
  -6   0  -7    9.48    0.61
  -6   0  -7    8.94    0.66
   6   0   7    8.61    0.55
   6   0   7    8.53    0.50
   7   0   7    0.29    0.29
   7   0   7    0.52    0.29
   8  -1  -7    2.79    0.49
   8  -1  -7    2.80    0.44
   8   1  -7    3.78    0.51
   8   1  -7    2.13    0.47
   7  -1  -7    1.94    0.35
   7  -1  -7    1.54    0.34
   7   1  -7    2.15    0.30
   7   1  -7    1.81    0.37
   7   1  -7    1.74    0.39
  -6  -1   7    5.98    0.53
   6  -1  -7    5.52    0.45
   6  -1  -7    6.70    0.51
   6   1  -7    7.16    0.52
  -6   1   7    6.16    0.53
   6   1  -7    5.96    0.48
   5  -1  -7    4.98    0.38
  -5  -1   7    5.74    0.46
   5  -1  -7    5.44    0.42
   5   1  -7    5.31    0.41
  -5   1   7    5.91    0.44
   5   1  -7    5.80    0.26
   5   1  -7    5.85    0.42
   4  -1  -7    3.77    0.33
   4  -1  -7    3.01    0.31
  -4  -1   7    3.35    0.33
   4  -1  -7    3.75    0.32
   4   1  -7    3.26    0.32
   4   1  -7    2.99    0.31
   4   1  -7    3.15    0.20
   4   1  -7    3.30    0.31
  -4   1   7    2.74    0.30
  -3  -1   7   11.84    0.51
   3  -1  -7   11.10    0.46
   3  -1  -7   11.01    0.48
   3  -1  -7   12.19    0.48
   3   1  -7   11.80    0.50
   3   1  -7   11.15    0.40
   3   1  -7   10.98    0.45
   3   1  -7   11.73    0.48
  -3   1   7   11.51    0.50
  -2  -1   7   54.84    1.50
   2  -1  -7   55.14    1.50
   2  -1  -7   56.96    1.46
   2  -1  -7   55.60    1.39
  -2   1   7   58.04    1.51
   2   1  -7   58.29    1.43
   2   1  -7   57.72    1.50
  -1  -1   7   16.43    0.55
   1  -1  -7   16.58    0.50
   1  -1  -7   16.66    0.56
   1  -1  -7   16.47    0.54
   1   1  -7   16.75    0.55
  -1   1   7   16.76    0.57
   0  -1  -7    0.40    0.12
   0  -1  -7    0.49    0.17
   0   1  -7    0.18    0.11
   0   1   7    0.35    0.15
  -1  -1  -7   10.81    0.51
   1  -1   7   10.61    0.41
   1   1   7   10.46    0.47
   1   1   7   11.29    0.39
   2  -1   7   95.07    2.36
  -2  -1  -7   93.92    2.52
   2  -1   7   95.45    2.42
   2  -1   7   96.58    2.29
   2   1   7   98.11    2.38
  -2   1  -7   93.87    2.51
   2   1   7   93.42    2.51
   2   1   7   96.65    2.29
   2   1   7   93.97    2.42
   3  -1   7    5.87    0.32
  -3  -1  -7    6.20    0.47
   3  -1   7    5.07    0.27
   3  -1   7    5.80    0.36
   3   1   7    4.71    0.42
   3   1   7    4.99    0.31
   3   1   7    5.08    0.26
   3   1   7    4.89    0.35
  -3   1  -7    5.96    0.44
  -4  -1  -7    6.41    0.42
   4  -1   7    6.86    0.35
  -4  -1  -7    6.62    0.53
   4  -1   7    6.93    0.38
   4  -1   7    6.68    0.36
   4  -1   7    6.50    0.42
  -4   1  -7    6.31    0.39
   4   1   7    7.42    0.40
  -4   1  -7    6.51    0.51
   4   1   7    7.24    0.45
   4   1   7    7.04    0.36
   4   1   7    7.44    0.39
   4   1   7    7.51    0.34
   5  -1   7    3.37    0.33
  -5  -1  -7    3.42    0.47
   5  -1   7    3.63    0.38
  -5  -1  -7    2.84    0.38
   5  -1   7    3.05    0.32
   5  -1   7    3.25    0.38
  -5   1  -7    2.98    0.34
   5   1   7    3.19    0.32
   5   1   7    2.91    0.37
   5   1   7    2.58    0.33
   5   1   7    3.46    0.29
   5   1   7    3.50    0.32
  -5   1  -7    3.10    0.42
   6  -1   7    4.00    0.42
   6  -1   7    4.56    0.48
  -6  -1  -7    3.68    0.51
   6  -1   7    3.95    0.43
   6   1   7    4.60    0.48
   6   1   7    4.86    0.37
  -6   1  -7    3.84    0.50
   6   1   7    5.63    0.52
  -6   1  -7    4.87    0.46
   7  -1   7    2.19    0.38
   7  -1   7    1.52    0.37
   7  -1   7    1.95    0.40
   7   1   7    1.68    0.39
   7   1   7    1.63    0.37
   8  -2  -7    0.73    0.37
   8  -2  -7    0.33    0.33
   8   2  -7   -0.37    0.31
   8   2  -7    0.42    0.34
   7  -2  -7    1.61    0.33
   7  -2  -7    1.50    0.33
   7   2  -7    1.86    0.38
   7   2  -7    1.98    0.39
   7   2  -7    2.72    0.36
  -6  -2   7   18.72    0.87
   6  -2  -7   18.07    0.82
   6  -2  -7   19.56    0.79
   6   2  -7   18.72    0.83
   6   2  -7   18.22    0.82
  -6   2   7   18.75    0.85
   5  -2  -7    1.85    0.29
   5  -2  -7    1.85    0.32
  -5  -2   7    2.00    0.33
   5   2  -7    1.79    0.25
   5   2  -7    1.83    0.22
   5   2  -7    1.50    0.26
  -5   2   7    1.29    0.27
   5   2  -7    1.66    0.30
   4  -2  -7   19.83    0.73
   4  -2  -7   19.04    0.71
   4  -2  -7   20.01    0.72
  -4  -2   7   20.37    0.77
   4   2  -7   19.82    0.75
   4   2  -7   18.91    0.71
   4   2  -7   20.76    0.68
  -4   2   7   19.86    0.74
   4   2  -7   18.54    0.72
   3  -2  -7    1.77    0.23
  -3  -2   7    1.24    0.20
   3  -2  -7    1.24    0.20
   3   2  -7    1.36    0.20
   3   2  -7    1.81    0.24
   3   2  -7    1.84    0.23
  -3   2   7    1.15    0.20
   3   2  -7    1.92    0.22
   2  -2  -7  116.54    2.85
  -2  -2   7  113.82    2.84
   2  -2  -7  115.43    2.76
   2  -2  -7  114.84    2.83
   2   2  -7  114.51    2.83
  -2   2   7  114.18    2.84
   2   2  -7  115.22    2.84
   2   2  -7  117.54    2.86
   2   2  -7  115.58    2.78
  -2   2   7  114.66    2.75
   1  -2  -7   12.78    0.48
  -1  -2   7   13.14    0.47
   1  -2  -7   12.51    0.48
   1  -2  -7   12.66    0.45
  -1   2   7   12.52    0.47
  -1   2   7   13.00    0.49
   1   2  -7   12.41    0.45
   0  -2  -7   18.94    0.68
   0  -2   7   19.28    0.62
   0  -2   7   18.98    0.58
   0  -2  -7   18.58    0.63
   0   2  -7   18.90    0.58
   0   2   7   18.70    0.65
   1  -2   7   19.93    0.66
   1  -2   7   19.98    0.64
  -1  -2  -7   19.90    0.73
   1   2   7   19.96    0.66
  -1   2  -7   19.87    0.60
   1   2   7   18.42    0.63
   1   2   7   20.13    0.72
   2  -2   7   35.93    1.03
   2  -2   7   34.87    0.91
  -2  -2  -7   35.34    1.16
   2  -2   7   35.46    1.05
   2   2   7   36.35    1.16
   2   2   7   35.82    1.06
   2   2   7   33.64    1.02
   3  -2   7   42.39    1.20
   3  -2   7   43.09    1.24
  -3  -2  -7   41.54    1.38
   3  -2   7   42.67    1.12
   3   2   7   40.69    1.20
   3   2   7   40.13    1.33
   3   2   7   40.30    1.24
  -3   2  -7   41.52    1.34
   3   2   7   41.42    1.17
  -4  -2  -7   43.80    1.49
   4  -2   7   42.48    1.30
  -4  -2  -7   41.27    1.34
   4  -2   7   42.41    1.21
   4  -2   7   41.22    1.26
   4   2   7   43.12    1.23
  -4   2  -7   42.53    1.25
   4   2   7   41.83    1.32
  -4   2  -7   42.68    1.42
   4   2   7   43.45    1.27
  -5  -2  -7    5.44    0.59
   5  -2   7    5.66    0.43
   5  -2   7    6.33    0.41
  -5  -2  -7    5.25    0.50
   5  -2   7    6.43    0.44
   5   2   7    5.78    0.47
  -5   2  -7    6.10    0.42
   5   2   7    5.70    0.47
  -5   2  -7    5.70    0.49
   5   2   7    5.80    0.41
  -6  -2  -7    2.31    0.46
   6  -2   7    2.00    0.35
   6  -2   7    1.94    0.34
   6  -2   7    1.78    0.32
   6   2   7    1.79    0.37
  -6   2  -7    1.76    0.38
   6   2   7    2.12    0.32
   6   2   7    2.25    0.33
  -6   2  -7    1.74    0.30
   7  -2   7    0.39    0.30
   7  -2   7    0.30    0.27
   7  -2   7    0.12    0.30
   7   2   7   -0.40    0.19
   7   2   7    0.06    0.29
   8  -3  -7    4.98    0.53
   8  -3  -7    4.59    0.60
   8   3  -7    4.44    0.58
   8   3  -7    4.58    0.50
   8   3  -7    4.49    0.59
   7  -3  -7    4.30    0.47
   7  -3  -7    4.85    0.55
   7   3  -7    4.11    0.50
  -7   3   7    4.05    0.51
   7   3  -7    4.01    0.44
   7   3  -7    4.05    0.52
  -6  -3   7    2.31    0.40
   6  -3  -7    2.12    0.34
   6  -3  -7    3.08    0.38
  -6   3   7    3.09    0.41
   6   3  -7    2.37    0.38
   6   3  -7    2.53    0.34
   6   3  -7    2.54    0.39
   5  -3  -7    2.82    0.34
  -5  -3   7    2.30    0.36
   5  -3  -7    2.40    0.34
  -5  -3   7    2.14    0.28
   5   3  -7    2.09    0.30
   5   3  -7    2.57    0.35
  -5   3   7    2.54    0.33
   5   3  -7    2.51    0.30
   5   3  -7    2.87    0.35
   4  -3  -7    6.97    0.41
   4  -3  -7    6.19    0.41
  -4  -3   7    7.60    0.47
   4  -3  -7    7.08    0.43
   4   3  -7    6.54    0.43
   4   3  -7    7.44    0.42
   4   3  -7    6.63    0.40
  -4   3   7    7.57    0.42
  -3  -3   7    6.06    0.39
   3  -3  -7    5.83    0.36
   3  -3  -7    6.12    0.35
  -3   3   7    6.47    0.26
   3   3  -7    5.68    0.38
   3   3  -7    6.23    0.37
   3   3  -7    6.26    0.35
  -3   3   7    6.84    0.37
   3   3  -7    6.22    0.34
   2  -3  -7   50.46    1.34
   2  -3  -7   49.02    1.35
  -2  -3   7   49.59    1.34
   2  -3  -7   49.65    1.30
   2   3  -7   49.41    1.29
   2   3  -7   48.08    1.33
  -2   3   7   49.55    1.34
   2   3  -7   48.80    1.40
  -2   3   7   48.40    1.29
   2   3  -7   47.37    1.32
  -1  -3   7   14.47    0.49
   1  -3  -7   13.74    0.52
   1  -3  -7   14.22    0.55
   1   3  -7   14.67    0.50
   1   3  -7   14.82    0.58
  -1   3   7   13.86    0.54
   0  -3  -7    3.53    0.32
   0  -3   7    3.31    0.21
   0  -3  -7    2.98    0.26
   0  -3   7    2.66    0.26
   0  -3   7    2.63    0.22
   0   3   7    3.38    0.27
   0   3   7    2.82    0.26
   0   3  -7    3.04    0.20
  -1  -3  -7   18.45    0.73
   1  -3   7   19.07    0.65
   1  -3   7   18.96    0.65
   1   3   7   18.40    0.72
   1   3   7   17.90    0.63
  -1   3  -7   17.98    0.56
   1   3   7   18.86    0.65
   2  -3   7   24.80    0.82
  -2  -3  -7   26.42    0.97
   2  -3   7   23.95    0.79
   2  -3   7   24.25    0.69
   2   3   7   24.61    0.93
   2   3   7   24.29    0.84
   2   3   7   25.96    0.82
   3  -3   7    1.62    0.19
   3  -3   7    2.00    0.27
  -3  -3  -7    0.88    0.30
   3  -3   7    1.64    0.25
   3   3   7    1.32    0.24
  -3   3  -7    1.67    0.20
   3   3   7    1.62    0.24
   3   3   7    0.97    0.26
  -4  -3  -7    7.00    0.55
  -4  -3  -7    6.91    0.47
   4  -3   7    7.86    0.49
   4  -3   7    8.16    0.48
   4  -3   7    7.55    0.40
   4   3   7    7.44    0.43
   4   3   7    8.15    0.51
  -4   3  -7    7.62    0.39
  -4   3  -7    7.25    0.54
   4   3   7    7.12    0.45
   5  -3   7    7.86    0.51
   5  -3   7    9.15    0.54
   5  -3   7    9.58    0.51
  -5  -3  -7    8.80    0.61
  -5  -3  -7    9.07    0.71
  -5   3  -7    8.36    0.48
   5   3   7    8.87    0.49
   5   3   7    8.00    0.50
  -5   3  -7    7.72    0.57
   5   3   7    7.80    0.55
   6  -3   7    7.12    0.54
   6  -3   7    7.59    0.54
   6  -3   7    7.73    0.52
  -6   3  -7    6.98    0.58
   6   3   7    6.62    0.50
  -6   3  -7    7.10    0.48
   6   3   7    6.74    0.51
   6   3   7    6.81    0.57
   7  -3   7    1.90    0.37
   7  -3   7    0.96    0.35
   7  -3   7    2.62    0.42
   7   3   7    1.72    0.37
   7   3   7    1.97    0.45
   7   3   7    1.35    0.34
   8  -4  -7    0.70    0.30
   8  -4  -7    0.38    0.36
   8   4  -7    0.65    0.30
   8   4  -7    0.89    0.40
   8   4  -7    0.96    0.41
   7  -4  -7    2.53    0.46
   7  -4  -7    1.66    0.37
   7   4  -7    2.50    0.45
   7   4  -7    1.82    0.43
   7   4  -7    2.16    0.39
  -7   4   7    1.76    0.37
   6  -4  -7    2.54    0.41
   6  -4  -7    2.57    0.37
   6   4  -7    2.98    0.42
   6   4  -7    2.96    0.39
   6   4  -7    3.17    0.45
   6   4  -7    3.24    0.41
  -6   4   7    2.83    0.39
   5  -4  -7    3.44    0.40
   5  -4  -7    2.91    0.35
   5  -4  -7    3.06    0.35
  -5  -4   7    2.89    0.36
  -5  -4   7    2.86    0.38
  -5   4   7    2.80    0.33
   5   4  -7    3.14    0.38
   5   4  -7    2.91    0.39
  -4  -4   7   13.44    0.63
   4  -4  -7   12.44    0.57
   4  -4  -7   13.05    0.61
   4  -4  -7   13.39    0.57
  -4   4   7   11.80    0.41
   4   4  -7   12.74    0.61
  -4   4   7   12.42    0.56
   4   4  -7   12.13    0.59
   4   4  -7   12.30    0.57
   3  -4  -7   33.81    1.03
   3  -4  -7   33.31    1.05
  -3  -4   7   34.83    1.07
   3  -4  -7   34.82    1.09
  -3   4   7   35.42    1.04
  -3   4   7   34.42    0.98
   3   4  -7   35.80    1.07
   3   4  -7   34.32    1.07
   3   4  -7   35.55    1.14
   2  -4  -7   16.06    0.59
   2  -4  -7   15.88    0.57
   2  -4  -7   14.99    0.56
  -2  -4   7   14.98    0.56
   2  -4  -7   15.08    0.57
  -2   4   7   15.82    0.57
   2   4  -7   15.34    0.57
   2   4  -7   14.61    0.65
   2   4  -7   15.74    0.56
  -2   4   7   13.74    0.56
  -1  -4   7   15.56    0.52
   1  -4  -7   15.00    0.56
   1  -4  -7   15.18    0.61
  -1  -4   7   15.21    0.58
   1   4  -7   16.12    0.67
   1   4  -7   15.02    0.51
  -1   4   7   15.43    0.53
  -1   4   7   14.79    0.60
   0  -4  -7   19.05    0.66
   0  -4   7   18.25    0.55
   0  -4   7   18.77    0.66
   0  -4  -7   17.33    0.73
   0   4  -7   18.57    0.55
   0   4   7   19.72    0.65
   0   4   7   18.19    0.72
   0   4   7   18.71    0.62
   1  -4   7    1.90    0.17
  -1  -4  -7    2.27    0.30
   1  -4   7    1.64    0.24
   1  -4   7    1.74    0.24
  -1   4  -7    1.61    0.14
   1   4   7    2.11    0.30
   1   4   7    1.87    0.24
   1   4   7    1.94    0.27
   2  -4   7   41.08    1.09
  -2  -4  -7   41.12    1.40
   2  -4   7   40.87    1.23
   2  -4   7   40.83    1.22
  -2   4  -7   41.91    1.08
   2   4   7   43.52    1.24
   2   4   7   41.67    1.37
   2   4   7   41.50    1.27
   3  -4   7   26.31    0.94
   3  -4   7   27.21    0.94
  -3  -4  -7   28.99    1.16
   3  -4   7   28.32    0.84
   3   4   7   27.73    0.93
   3   4   7   28.12    0.94
  -3   4  -7   28.36    0.82
   3   4   7   30.85    1.02
   4  -4   7    0.10    0.22
   4  -4   7    0.27    0.21
  -4  -4  -7    0.45    0.32
   4  -4   7    0.26    0.17
  -4  -4  -7   -0.24    0.15
   4   4   7    0.11    0.19
   4   4   7   -0.11    0.23
   4   4   7   -0.16    0.19
  -4   4  -7   -0.08    0.13
  -5  -4  -7    1.71    0.45
   5  -4   7    2.14    0.36
   5  -4   7    1.98    0.36
  -5  -4  -7    1.78    0.32
   5  -4   7    1.88    0.30
   5   4   7    2.13    0.34
   5   4   7    1.40    0.35
  -5   4  -7    1.72    0.28
  -5   4  -7    1.60    0.34
   5   4   7    1.55    0.32
   6  -4   7    0.74    0.30
   6  -4   7    0.32    0.25
   6  -4   7    0.25    0.28
   6   4   7    0.55    0.27
   6   4   7    0.41    0.30
   6   4   7    0.50    0.34
  -6   4  -7    0.76    0.29
   7  -4   7    0.51    0.32
   7  -4   7    0.36    0.32
   7  -4   7    0.33    0.30
   7   4   7    0.70    0.30
   7   4   7    0.92    0.39
   7   4   7    0.65    0.35
   7  -5  -7    2.35    0.45
   7  -5  -7    1.78    0.35
   7   5  -7    2.02    0.38
   7   5  -7    1.87    0.45
   7   5  -7    2.06    0.40
   6  -5  -7    2.99    0.40
   6  -5  -7    3.19    0.46
   6  -5  -7    2.58    0.36
   6   5  -7    2.22    0.39
   6   5  -7    2.71    0.43
   6   5  -7    3.14    0.43
  -6   5   7    2.67    0.37
   5  -5  -7    3.06    0.42
   5  -5  -7    3.04    0.38
  -5  -5   7    2.99    0.39
   5  -5  -7    2.76    0.35
  -5  -5   7    3.21    0.41
   5   5  -7    2.22    0.39
  -5   5   7    3.27    0.36
  -4  -5   7   11.51    0.59
   4  -5  -7   10.42    0.51
   4  -5  -7   10.53    0.55
   4  -5  -7   11.76    0.56
  -4   5   7   10.74    0.53
  -4   5   7   10.57    0.46
   4   5  -7   11.00    0.58
   4   5  -7   11.21    0.63
   3  -5  -7   14.99    0.58
   3  -5  -7   14.78    0.59
  -3  -5   7   14.56    0.61
   3  -5  -7   13.82    0.64
  -3   5   7   13.82    0.57
   3   5  -7   13.89    0.62
   3   5  -7   15.05    0.72
  -3   5   7   13.09    0.56
   3   5  -7   15.06    0.60
  -2  -5   7   18.69    0.68
   2  -5  -7   18.43    0.65
   2  -5  -7   17.76    0.70
   2  -5  -7   18.82    0.65
   2  -5  -7   17.02    0.69
  -2  -5   7   18.28    0.65
  -2   5   7   20.70    0.68
   2   5  -7   19.29    0.68
   2   5  -7   18.01    0.63
   2   5  -7   17.93    0.80
  -2   5   7   16.58    0.69
   1  -5  -7   10.34    0.43
   1  -5  -7   11.23    0.55
   1  -5  -7   11.82    0.49
  -1  -5   7   10.69    0.41
  -1  -5   7   10.94    0.48
  -1   5   7   11.38    0.46
   1   5  -7   11.55    0.61
  -1   5   7   11.17    0.45
   1   5  -7   10.97    0.46
   1   5  -7   10.51    0.41
  -1   5   7   11.21    0.55
   0  -5   7   10.97    0.36
   0  -5  -7   10.18    0.58
   0  -5  -7   10.69    0.47
   0  -5   7   10.32    0.47
   0   5   7   11.10    0.47
   0   5  -7   10.39    0.59
   0   5  -7   10.01    0.35
   0   5   7   10.02    0.47
   0   5   7   10.19    0.56
  -1  -5  -7    6.61    0.51
   1  -5   7    5.80    0.36
   1  -5   7    5.81    0.30
   1   5   7    6.17    0.48
  -1   5  -7    5.85    0.21
   1   5   7    6.15    0.40
   1   5   7    5.69    0.37
  -2  -5  -7    2.28    0.37
   2  -5   7    2.09    0.30
   2  -5   7    2.38    0.22
   2  -5   7    2.17    0.29
   2   5   7    1.99    0.32
  -2   5  -7    1.99    0.13
   2   5   7    2.46    0.31
  -2   5  -7    1.87    0.14
   3  -5   7   14.90    0.65
  -3  -5  -7   15.93    0.86
   3  -5   7   14.31    0.67
   3  -5   7   14.91    0.55
   3   5   7   14.31    0.71
   3   5   7   13.92    0.66
  -3   5  -7   14.81    0.46
  -3   5  -7   14.45    0.47
   4  -5   7    0.88    0.29
  -4  -5  -7    0.22    0.24
  -4  -5  -7    0.23    0.33
   4  -5   7    0.50    0.20
   4  -5   7    0.41    0.23
   4   5   7    0.39    0.28
   4   5   7    0.77    0.29
   4   5   7    0.43    0.24
   5  -5   7    5.53    0.52
   5  -5   7    5.62    0.44
   5  -5   7    5.43    0.50
   5   5   7    4.57    0.55
   5   5   7    5.82    0.53
   5   5   7    4.96    0.49
  -5   5  -7    5.27    0.51
   6  -5   7    0.15    0.29
   6  -5   7    0.69    0.30
   6  -5   7    1.16    0.32
   6   5   7    0.44    0.30
   6   5   7    0.53    0.35
   6   5   7   -0.14    0.24
   7  -6  -7    0.70    0.31
   7  -6  -7    0.94    0.38
   7   6  -7    0.59    0.33
   7   6  -7    0.92    0.40
   7   6  -7    0.68    0.39
   6  -6  -7    2.08    0.37
   6  -6  -7    1.53    0.41
   6  -6  -7    1.49    0.36
   6   6  -7    1.64    0.41
   6   6  -7    1.50    0.41
   6   6  -7    1.42    0.38
   5  -6  -7    2.84    0.38
   5  -6  -7    2.35    0.38
  -5  -6   7    3.42    0.45
  -5  -6   7    2.65    0.40
   5   6  -7    2.00    0.38
   5   6  -7    2.62    0.41
  -5   6   7    1.94    0.30
   4  -6  -7   12.38    0.64
  -4  -6   7   13.89    0.67
   4  -6  -7   14.13    0.68
   4  -6  -7   13.51    0.58
   4   6  -7   14.84    0.70
  -4   6   7   14.27    0.60
   3  -6  -7   26.52    1.01
   3  -6  -7   28.27    0.96
  -3  -6   7   28.64    0.97
  -3  -6   7   30.26    0.98
   3  -6  -7   29.18    0.92
   3   6  -7   28.86    1.00
  -3   6   7   29.49    1.00
   3   6  -7   30.34    0.97
   2  -6  -7   13.17    0.62
   2  -6  -7   11.91    0.55
   2  -6  -7   12.97    0.54
  -2  -6   7   13.08    0.53
  -2  -6   7   12.80    0.57
   2  -6  -7   13.18    0.63
  -2   6   7   12.21    0.49
   2   6  -7   12.26    0.51
  -2   6   7   13.46    0.63
   2   6  -7   11.71    0.55
  -2   6   7   14.46    0.54
   1  -6  -7   17.12    0.79
  -1  -6   7   17.38    0.57
   1  -6  -7   17.45    0.62
   1  -6  -7   17.76    0.66
  -1  -6   7   16.72    0.68
   1   6  -7   17.73    0.57
  -1   6   7   18.08    0.78
  -1   6   7   18.07    0.68
  -1   6   7   17.60    0.63
   1   6  -7   18.75    0.65
   0  -6   7    7.95    0.45
   0  -6  -7    7.66    0.55
   0  -6  -7    8.45    0.45
   0   6   7    8.26    0.48
   0   6  -7    8.26    0.29
   0   6  -7    8.69    0.38
   0   6   7    7.69    0.43
   0   6   7    7.64    0.54
   1  -6   7    2.87    0.26
   1  -6   7    2.93    0.34
  -1  -6  -7    2.82    0.42
   1   6   7    3.06    0.34
   1   6   7    2.73    0.35
  -2  -6  -7    0.81    0.29
   2  -6   7    1.07    0.20
   2  -6   7    0.95    0.22
   2   6   7    0.66    0.27
   2   6   7    0.40    0.19
   3  -6   7   14.81    0.58
   3  -6   7   13.48    0.69
  -3  -6  -7   13.09    0.85
  -3  -6  -7   15.32    0.72
   3   6   7   15.31    0.76
   3   6   7   14.27    0.69
  -4  -6  -7    4.55    0.61
   4  -6   7    4.90    0.48
   4  -6   7    4.53    0.36
  -4  -6  -7    5.61    0.52
   4   6   7    5.51    0.51
   4   6   7    5.08    0.53
   4   6   7    5.56    0.53
   5  -6   7    0.53    0.26
   5  -6   7    0.91    0.26
   5  -6   7    0.81    0.33
   5   6   7    1.11    0.34
   5   6   7    1.12    0.38
   5   6   7    0.64    0.34
   6  -6   7    1.25    0.34
   6  -6   7    0.62    0.29
   6  -6   7    0.56    0.27
   6   6   7    0.60    0.39
   6   6   7    0.40    0.33
   6   6   7    0.85    0.36
   6  -7  -7    0.61    0.26
   6  -7  -7    0.56    0.37
   6  -7  -7    0.20    0.31
   6   7  -7    0.02    0.31
   6   7  -7    0.22    0.33
   6   7  -7    0.09    0.29
   5  -7  -7    1.41    0.36
  -5  -7   7    0.52    0.30
  -5  -7   7    1.41    0.30
   5  -7  -7    1.87    0.34
   5   7  -7    1.33    0.38
   5   7  -7    1.27    0.38
  -4  -7   7    1.41    0.29
   4  -7  -7    1.07    0.27
   4  -7  -7    0.68    0.25
  -4  -7   7    1.06    0.25
   4   7  -7    1.16    0.31
   3  -7  -7    0.32    0.25
  -3  -7   7    0.20    0.20
   3  -7  -7    0.20    0.25
  -3  -7   7    0.29    0.20
  -3   7   7    0.54    0.26
   3   7  -7    0.35    0.23
   2  -7  -7   18.55    0.84
  -2  -7   7   20.73    0.71
  -2  -7   7   20.47    0.78
   2  -7  -7   21.21    0.73
   2  -7  -7   20.66    0.76
   2  -7  -7   19.77    0.87
  -2   7   7   21.32    0.77
  -2   7   7   20.29    0.70
   2   7  -7   20.13    0.70
  -2   7   7   20.20    0.95
   2   7  -7   20.85    0.80
  -1  -7   7   29.49    1.01
   1  -7  -7   30.94    0.97
   1  -7  -7   31.47    0.94
  -1  -7   7   30.41    0.86
   1  -7  -7   29.56    1.15
  -1   7   7   30.66    0.97
  -1   7   7   28.81    1.00
   1   7  -7   29.88    0.96
   0  -7   7   17.44    0.72
   0  -7  -7   18.27    0.60
   0  -7  -7   18.64    0.71
   0  -7  -7   18.16    0.89
   0   7   7   18.37    0.77
   0   7  -7   18.27    0.64
   0   7   7   17.61    0.71
  -1  -7  -7   11.74    0.75
   1  -7   7   11.50    0.51
   1  -7   7   10.03    0.58
   1   7   7   10.87    0.57
   1   7   7   11.79    0.62
   2  -7   7    4.43    0.46
   2  -7   7    4.23    0.34
  -2  -7  -7    3.82    0.54
   2   7   7    5.51    0.49
   2   7   7    4.86    0.50
  -3  -7  -7    3.97    0.44
   3  -7   7    4.39    0.36
   3  -7   7    4.87    0.49
  -3  -7  -7    3.82    0.57
   3   7   7    3.67    0.49
   3   7   7    3.79    0.45
   4  -7   7    7.63    0.48
   4  -7   7    8.87    0.63
   4   7   7    6.48    0.65
   4   7   7    7.56    0.60
   5  -7   7    0.84    0.36
   5  -7   7    0.69    0.28
   5   7   7    0.57    0.35
   5   7   7    0.18    0.33
   5   7   7    0.81    0.42
   6  -7   7    1.48    0.43
   6   7   7    0.90    0.36
   6   7   7    1.20    0.42
   6   7   7    0.62    0.42
   6  -8  -7    0.38    0.30
   6  -8  -7    0.70    0.37
   6  -8  -7    0.37    0.26
   6   8  -7    0.31    0.39
   6   8  -7    1.41    0.46
   6   8  -7    0.25    0.35
   5  -8  -7    9.39    0.67
   5  -8  -7    8.79    0.68
   5   8  -7    8.15    0.65
   5   8  -7    6.14    0.64
  -4  -8   7   15.62    0.75
  -4  -8   7   14.57    0.69
   4  -8  -7   14.34    0.80
   4  -8  -7   14.18    0.77
   4   8  -7   15.11    0.77
   4   8  -7   13.86    0.78
   3  -8  -7    1.75    0.34
  -3  -8   7    1.19    0.25
  -3  -8   7    1.04    0.29
   3  -8  -7    1.44    0.36
   3   8  -7    1.40    0.32
   3   8  -7    1.50    0.35
   2  -8  -7    3.55    0.46
   2  -8  -7    5.65    0.46
   2  -8  -7    3.84    0.47
  -2  -8   7    4.92    0.44
   2   8  -7    4.71    0.44
  -2   8   7    4.11    0.41
  -2   8   7    4.43    0.34
   1  -8  -7    1.50    0.24
   1  -8  -7    1.17    0.35
  -1  -8   7    1.77    0.31
  -1   8   7    1.29    0.27
  -1   8   7    0.57    0.26
   1   8  -7    1.68    0.29
   0  -8  -7    5.18    0.40
   0  -8  -7    4.72    0.56
   0  -8   7    4.91    0.46
   0   8  -7    5.49    0.37
   0   8   7    5.16    0.41
   0   8   7    4.83    0.48
   1  -8   7    2.98    0.37
  -1  -8  -7    3.20    0.51
   1  -8   7    2.92    0.36
   1   8   7    3.11    0.38
   1   8   7    2.81    0.42
   2  -8   7    5.65    0.53
  -2  -8  -7    6.27    0.48
   2  -8   7    5.95    0.43
   2   8   7    6.64    0.53
   2   8   7    5.68    0.58
   3  -8   7    2.52    0.33
   3  -8   7    2.88    0.46
  -3  -8  -7    2.41    0.37
   3   8   7    2.76    0.44
   3   8   7    2.42    0.45
   4  -8   7    5.72    0.60
   4  -8   7    7.99    0.51
   4   8   7    6.61    0.66
   4   8   7    6.68    0.70
   5  -8   7    0.91    0.41
   5   8   7    0.87    0.41
   5   8   7    1.10    0.45
   5  -9  -7    0.67    0.34
   5  -9  -7    0.34    0.37
   5   9  -7    0.27    0.40
   5   9  -7    0.40    0.39
   4  -9  -7    0.79    0.36
   4  -9  -7    1.27    0.37
   4   9  -7    1.31    0.41
   4   9  -7    1.17    0.36
  -3  -9   7    2.31    0.36
   3  -9  -7    1.81    0.42
   3  -9  -7    2.54    0.40
   3   9  -7    2.44    0.42
   3   9  -7    2.05    0.40
   2  -9  -7    1.53    0.38
   2  -9  -7    1.11    0.36
  -2  -9   7    1.35    0.30
   2  -9  -7    1.08    0.29
   2   9  -7    1.61    0.32
   2   9  -7    0.76    0.31
  -2   9   7    0.63    0.26
  -1  -9   7    5.60    0.50
   1  -9  -7    5.07    0.59
   1  -9  -7    5.61    0.43
   1   9  -7    6.15    0.53
  -1   9   7    5.15    0.45
  -1   9   7    5.06    0.51
   1   9  -7    4.93    0.45
   0  -9   7    8.35    0.57
   0  -9  -7    8.95    0.73
   0   9   7    7.70    0.58
   0   9  -7    8.04    0.53
   0   9   7    8.16    0.54
   1  -9   7    0.81    0.33
   1  -9   7    0.48    0.26
   1   9   7    0.87    0.31
  -1   9  -7    0.67    0.25
   1   9   7    0.49    0.32
   2  -9   7    0.10    0.24
  -2  -9  -7    0.06    0.24
   2  -9   7    0.32    0.31
   2   9   7   -0.08    0.28
   2   9   7   -0.07    0.32
   3  -9   7    0.83    0.29
   3  -9   7    0.86    0.31
   3   9   7    1.08    0.42
   3   9   7    1.23    0.40
   4  -9   7    0.58    0.38
   4   9   7    0.14    0.40
   4   9   7   -0.33    0.31
   4 -10  -7    0.82    0.39
   4 -10  -7    0.86    0.40
   4  10  -7    0.70    0.40
   4  10  -7    1.33    0.41
  -3 -10   7    4.95    0.53
   3 -10  -7    3.74    0.50
   3 -10  -7    2.82    0.50
   3  10  -7    3.66    0.49
   3  10  -7    3.88    0.54
  -2 -10   7    0.18    0.26
   2 -10  -7    0.50    0.34
   2 -10  -7    0.00    0.25
  -2  10   7    0.56    0.28
   2  10  -7    0.04    0.26
   2  10  -7    0.37    0.32
  -1 -10   7   -0.18    0.29
  -1  10   7    0.11    0.27
  -1  10   7    0.07    0.24
   1  10  -7    0.20    0.22
   1  10  -7    0.10    0.26
   0 -10   7    0.31    0.31
   0  10   7    0.96    0.35
   0  10   7    0.86    0.31
   0  10  -7    0.98    0.29
   1 -10   7    3.63    0.45
   1 -10   7    3.18    0.46
   1  10   7    2.63    0.49
   1  10   7    3.53    0.45
   2 -10   7    3.12    0.42
   2 -10   7    2.17    0.47
   2  10   7    1.84    0.43
   2  10   7    1.87    0.48
   3 -10   7    1.62    0.46
   3  10   7    2.22    0.47
   3  10   7    1.72    0.49
  -2 -11   7    0.84    0.33
   2 -11  -7    0.22    0.37
   2  11  -7    0.69    0.33
   2  11  -7    0.98    0.38
  -1 -11   7   -0.05    0.35
  -1  11   7    1.60    0.44
   1  11  -7    1.43    0.38
  -1  11   7    1.08    0.30
   0 -11   7    2.03    0.46
   0  11  -7    1.63    0.36
   0  11   7    1.26    0.33
   0  11   7    1.30    0.40
   1 -11   7    4.42    0.55
   1 -11   7    3.73    0.50
   1  11   7    3.05    0.55
   1  11   7    3.06    0.49
   8   0  -8    0.67    0.32
   8   0  -8    1.09    0.37
   7   0  -8    0.03    0.26
   7   0  -8   -0.07    0.27
  -6   0   8    0.93    0.31
   6   0  -8    1.16    0.31
   6   0  -8    0.83    0.28
   5   0  -8   15.50    0.67
   5   0  -8   16.11    0.69
  -5   0   8   15.08    0.68
  -4   0   8   30.41    1.00
   4   0  -8   28.63    0.95
   4   0  -8   30.67    0.99
   4   0  -8   29.65    0.95
  -3   0   8   63.73    1.72
   3   0  -8   61.90    1.70
   3   0  -8   61.36    1.68
   3   0  -8   63.01    1.52
   3   0  -8   64.51    1.52
   3   0  -8   64.02    1.66
   2   0  -8   16.81    0.58
   2   0  -8   16.71    0.60
   2   0  -8   16.31    0.51
  -2   0   8   16.07    0.58
   2   0  -8   17.37    0.53
  -1   0   8   27.88    0.84
   1   0  -8   27.10    0.82
   1   0  -8   27.78    0.83
   1   0  -8   27.87    0.73
   0   0  -8   13.89    0.55
   0   0  -8   14.37    0.52
   1   0   8   85.80    2.20
   1   0   8   89.76    2.15
  -1   0  -8   85.50    2.29
   2   0   8   -0.03    0.13
  -2   0  -8    0.19    0.20
   2   0   8   -0.06    0.15
   2   0   8    0.08    0.10
   3   0   8   10.18    0.41
   3   0   8   10.21    0.41
   3   0   8   10.55    0.50
  -3   0  -8    9.80    0.58
   3   0   8   10.34    0.45
   4   0   8    1.66    0.29
   4   0   8    1.74    0.26
  -4   0  -8    1.34    0.26
   4   0   8    1.66    0.24
  -4   0  -8    1.90    0.36
   4   0   8    2.17    0.25
  -5   0  -8    9.61    0.67
  -5   0  -8    8.89    0.55
   5   0   8    8.41    0.45
   5   0   8    8.05    0.48
   5   0   8    8.61    0.54
   5   0   8    8.91    0.44
   6   0   8    0.08    0.25
  -6   0  -8    0.11    0.24
   6   0   8    0.16    0.21
   6   0   8   -0.03    0.27
  -6   0  -8    0.37    0.28
   7   0   8    5.53    0.57
   7   0   8    4.70    0.55
   8  -1  -8    0.38    0.36
   8  -1  -8    0.05    0.28
   8   1  -8    0.23    0.32
   8   1  -8    0.17    0.33
   7  -1  -8    5.34    0.57
   7  -1  -8    4.80    0.51
   7   1  -8    4.80    0.54
   7   1  -8    5.09    0.55
   7   1  -8    5.80    0.46
   6  -1  -8   28.11    1.01
  -6  -1   8   27.71    1.08
   6  -1  -8   26.28    1.02
   6   1  -8   25.53    1.01
  -6   1   8   27.93    1.04
   6   1  -8   26.20    1.02
  -5  -1   8   19.86    0.80
   5  -1  -8   19.81    0.77
   5  -1  -8   18.89    0.77
   5   1  -8   19.63    0.56
   5   1  -8   19.46    0.77
  -5   1   8   18.12    0.78
   5   1  -8   18.81    0.78
   4  -1  -8   17.23    0.68
  -4  -1   8   19.49    0.74
   4  -1  -8   18.37    0.69
   4  -1  -8   18.55    0.70
   4   1  -8   18.82    0.70
   4   1  -8   17.67    0.67
   4   1  -8   18.83    0.71
  -4   1   8   19.01    0.73
   4   1  -8   18.68    0.56
   3  -1  -8    1.91    0.23
   3  -1  -8    1.27    0.22
   3  -1  -8    1.77    0.22
  -3  -1   8    1.54    0.24
   3   1  -8    1.52    0.23
   3   1  -8    2.32    0.19
   3   1  -8    1.52    0.20
   3   1  -8    1.50    0.23
  -3   1   8    1.95    0.25
   2  -1  -8   28.26    0.86
   2  -1  -8   27.58    0.80
  -2  -1   8   27.13    0.84
   2  -1  -8   27.33    0.76
   2   1  -8   27.76    0.77
   2   1  -8   28.14    0.85
  -2   1   8   27.78    0.86
   2   1  -8   28.05    0.83
   1  -1  -8   75.70    1.80
   1  -1  -8   72.60    1.88
  -1  -1   8   71.37    1.86
   1  -1  -8   73.50    1.86
  -1   1   8   71.02    1.87
   1   1  -8   73.90    1.87
   0  -1  -8    1.17    0.21
   0  -1  -8    1.29    0.19
   0   1  -8    1.04    0.16
   0   1   8    1.10    0.20
  -1  -1  -8    9.18    0.49
   1  -1   8    9.85    0.43
   1  -1   8    9.77    0.40
   1   1   8    9.41    0.41
  -1   1  -8    9.57    0.40
   1   1   8   10.07    0.36
   1   1   8    9.78    0.47
   1   1   8   10.33    0.43
   2  -1   8   34.17    0.88
   2  -1   8   33.96    1.02
  -2  -1  -8   34.58    1.14
   2  -1   8   33.17    0.96
   2   1   8   33.81    0.90
   2   1   8   32.79    1.01
   2   1   8   32.58    0.98
   2   1   8   33.06    1.11
  -2   1  -8   32.99    1.10
   3  -1   8   20.53    0.63
   3  -1   8   19.76    0.68
  -3  -1  -8   22.65    0.90
   3  -1   8   21.47    0.67
   3  -1   8   20.36    0.75
  -3   1  -8   20.99    0.86
   3   1   8   19.04    0.69
   3   1   8   19.22    0.84
   3   1   8   19.91    0.62
   3   1   8   20.41    0.75
  -4  -1  -8    1.63    0.29
   4  -1   8    1.40    0.23
  -4  -1  -8    1.72    0.35
   4  -1   8    1.90    0.27
   4  -1   8    1.46    0.23
   4  -1   8    1.40    0.28
   4   1   8    1.81    0.26
  -4   1  -8    1.10    0.31
   4   1   8    1.42    0.19
   4   1   8    1.15    0.27
   4   1   8    1.54    0.22
  -4   1  -8    1.28    0.23
   5  -1   8    1.33    0.30
  -5  -1  -8    1.98    0.40
   5  -1   8    2.43    0.32
  -5  -1  -8    1.79    0.33
   5  -1   8    1.59    0.27
   5  -1   8    2.50    0.28
   5   1   8    2.60    0.28
   5   1   8    2.08    0.30
   5   1   8    1.74    0.31
  -5   1  -8    1.86    0.30
   5   1   8    1.74    0.34
  -5   1  -8    1.94    0.37
   5   1   8    2.22    0.27
   6  -1   8    3.56    0.40
   6  -1   8    3.63    0.46
   6  -1   8    3.24    0.41
  -6  -1  -8    4.54    0.58
  -6   1  -8    3.32    0.49
   6   1   8    4.16    0.41
   6   1   8    3.54    0.43
   6   1   8    3.17    0.44
  -6   1  -8    4.55    0.45
   7  -1   8    0.02    0.28
   7  -1   8    0.55    0.27
   7  -1   8    0.33    0.30
   7   1   8    0.29    0.32
   7   1   8    0.16    0.29
   8  -2  -8    1.58    0.38
   8  -2  -8    1.12    0.41
   8   2  -8    1.28    0.40
   8   2  -8    0.92    0.40
   7  -2  -8    1.41    0.35
   7  -2  -8    1.23    0.36
   7   2  -8    1.17    0.36
   7   2  -8    1.66    0.31
   7   2  -8    1.24    0.36
  -6  -2   8    1.28    0.33
   6  -2  -8    1.34    0.31
   6  -2  -8    1.12    0.33
  -6   2   8    1.09    0.31
   6   2  -8    1.45    0.30
   6   2  -8    1.13    0.32
   5  -2  -8   21.48    0.83
  -5  -2   8   23.82    0.92
   5  -2  -8   23.02    0.85
   5   2  -8   21.80    0.85
   5   2  -8   21.33    0.74
  -5   2   8   24.03    0.89
   5   2  -8   22.27    0.87
   5   2  -8   22.19    0.73
   4  -2  -8    3.01    0.32
   4  -2  -8    3.01    0.31
  -4  -2   8    2.43    0.29
   4  -2  -8    2.92    0.32
   4   2  -8    2.49    0.31
  -4   2   8    2.60    0.30
   4   2  -8    2.76    0.29
   4   2  -8    2.60    0.25
  -3  -2   8   51.72    1.47
   3  -2  -8   52.84    1.47
   3  -2  -8   51.20    1.44
   3   2  -8   52.98    1.42
   3   2  -8   53.44    1.48
   3   2  -8   52.10    1.46
  -3   2   8   52.63    1.47
   3   2  -8   53.31    1.43
   2  -2  -8   48.53    1.33
   2  -2  -8   48.85    1.36
   2  -2  -8   52.57    1.29
  -2  -2   8   48.39    1.35
  -2   2   8   50.34    1.28
  -2   2   8   49.88    1.37
   2   2  -8   52.01    1.38
   2   2  -8   48.23    1.33
   2   2  -8   48.12    1.35
   2   2  -8   47.36    1.27
   1  -2  -8    1.20    0.17
   1  -2  -8    1.07    0.20
  -1  -2   8    1.21    0.18
   1  -2  -8    1.00    0.18
  -1   2   8    1.22    0.18
  -1   2   8    1.20    0.20
   1   2  -8    1.28    0.18
   0  -2   8    6.40    0.33
   0  -2   8    6.05    0.31
   0  -2  -8    5.48    0.37
   0  -2  -8    5.39    0.33
   0   2  -8    5.95    0.29
   0   2   8    6.25    0.32
   0   2   8    5.91    0.36
  -1  -2  -8    1.45    0.27
   1  -2   8    2.24    0.24
   1  -2   8    2.32    0.24
   1   2   8    2.29    0.25
   1   2   8    2.34    0.25
   1   2   8    1.72    0.24
  -1   2  -8    1.83    0.18
   2  -2   8   18.88    0.66
  -2  -2  -8   19.97    0.82
   2  -2   8   17.98    0.68
   2  -2   8   19.67    0.54
   2   2   8   18.82    0.78
   2   2   8   19.02    0.69
   2   2   8   19.26    0.67
   3  -2   8   10.62    0.41
   3  -2   8    9.99    0.51
  -3  -2  -8    9.47    0.62
   3  -2   8   10.02    0.48
   3  -2   8   10.95    0.48
   3   2   8   10.77    0.35
  -3   2  -8   10.61    0.60
   3   2   8    9.69    0.51
   3   2   8   10.41    0.69
   3   2   8   10.51    0.48
  -4  -2  -8   15.83    0.83
   4  -2   8   15.54    0.64
   4  -2   8   15.91    0.55
  -4  -2  -8   14.82    0.71
   4  -2   8   15.76    0.58
   4  -2   8   14.13    0.66
   4   2   8   14.89    0.59
   4   2   8   15.45    0.64
  -4   2  -8   16.11    0.79
   4   2   8   15.62    0.70
  -4   2  -8   15.60    0.62
  -5  -2  -8    3.03    0.48
   5  -2   8    1.71    0.30
  -5  -2  -8    2.01    0.35
   5  -2   8    2.25    0.31
   5  -2   8    2.38    0.35
  -5   2  -8    2.10    0.28
  -5   2  -8    2.23    0.39
   5   2   8    2.17    0.31
   5   2   8    2.11    0.30
   5   2   8    2.19    0.38
   6  -2   8    7.32    0.56
   6  -2   8    8.07    0.52
   6  -2   8    7.89    0.53
   6   2   8    7.28    0.48
   6   2   8    7.72    0.58
  -6   2  -8    6.85    0.60
  -6   2  -8    6.47    0.47
   6   2   8    7.41    0.51
   7  -2   8    1.36    0.37
   7  -2   8    1.77    0.36
   7  -2   8    1.91    0.38
   7   2   8    1.64    0.34
   7   2   8    1.57    0.41
   8  -3  -8    1.16    0.35
   8  -3  -8    1.42    0.42
   8   3  -8    1.41    0.43
   8   3  -8    1.31    0.46
   8   3  -8    1.59    0.37
   7  -3  -8    2.29    0.40
   7  -3  -8    2.34    0.43
   7   3  -8    1.87    0.41
   7   3  -8    1.92    0.34
   7   3  -8    1.99    0.41
  -6  -3   8    3.11    0.44
   6  -3  -8    3.37    0.40
   6  -3  -8    3.95    0.46
  -6   3   8    3.71    0.44
   6   3  -8    3.66    0.44
   6   3  -8    3.31    0.44
  -5  -3   8   16.16    0.73
   5  -3  -8   15.14    0.71
   5  -3  -8   15.14    0.68
  -5   3   8   17.47    0.75
   5   3  -8   15.65    0.69
   5   3  -8   16.06    0.73
   5   3  -8   16.09    0.66
   4  -3  -8   23.48    0.85
   4  -3  -8   25.16    0.86
  -4  -3   8   24.90    0.90
   4  -3  -8   23.98    0.86
   4   3  -8   23.97    0.88
   4   3  -8   24.25    0.83
  -4   3   8   25.43    0.87
   4   3  -8   24.80    0.85
   3  -3  -8    0.46    0.10
   3  -3  -8    0.50    0.18
  -3  -3   8    0.67    0.19
   3  -3  -8    0.40    0.16
   3   3  -8    0.10    0.15
  -3   3   8    0.41    0.10
   3   3  -8    0.35    0.18
   3   3  -8   -0.03    0.15
   3   3  -8    0.32    0.15
  -3   3   8    0.25    0.17
   2  -3  -8    3.98    0.30
   2  -3  -8    3.99    0.29
  -2  -3   8    4.27    0.30
   2  -3  -8    3.73    0.26
  -2   3   8    3.56    0.25
   2   3  -8    3.73    0.32
  -2   3   8    3.90    0.30
   2   3  -8    4.02    0.28
   2   3  -8    4.30    0.29
   2   3  -8    3.99    0.24
  -1  -3   8   22.91    0.73
   1  -3  -8   22.78    0.76
   1  -3  -8   23.57    0.79
   1   3  -8   23.94    0.72
  -1   3   8   24.30    0.78
  -1   3   8   24.31    0.73
   0  -3   8    0.38    0.17
   0  -3  -8    0.51    0.16
   0  -3  -8    0.24    0.19
   0  -3   8    0.40    0.13
   0  -3   8    0.57    0.17
   0   3  -8    0.45    0.13
   0   3   8    0.20    0.17
   0   3   8    0.43    0.19
   0   3   8    0.27    0.15
  -1  -3  -8   16.24    0.71
   1  -3   8   16.74    0.62
   1  -3   8   15.82    0.60
  -1   3  -8   16.04    0.52
   1   3   8   15.15    0.67
   1   3   8   16.48    0.59
   1   3   8   16.37    0.61
   2  -3   8   35.19    1.09
   2  -3   8   35.86    1.11
   2  -3   8   36.91    0.95
  -2  -3  -8   36.33    1.26
   2   3   8   36.60    1.14
   2   3   8   38.07    1.11
   2   3   8   38.26    1.25
   3  -3   8   27.15    0.93
  -3  -3  -8   27.23    1.08
   3  -3   8   27.44    0.94
   3  -3   8   27.86    0.80
   3   3   8   26.77    0.91
   3   3   8   28.79    0.97
   4  -3   8   14.57    0.55
   4  -3   8   13.22    0.63
  -4  -3  -8   13.28    0.65
   4  -3   8   12.84    0.62
  -4  -3  -8   14.30    0.83
   4   3   8   14.13    0.68
  -4   3  -8   14.20    0.58
   4   3   8   13.61    0.63
  -4   3  -8   14.18    0.76
   4   3   8   13.87    0.61
  -5  -3  -8    2.28    0.37
  -5  -3  -8    1.56    0.42
   5  -3   8    2.06    0.30
   5  -3   8    1.87    0.32
   5  -3   8    1.84    0.33
   5   3   8    1.68    0.32
   5   3   8    1.67    0.35
  -5   3  -8    1.68    0.35
  -5   3  -8    1.26    0.26
   5   3   8    1.86    0.31
   6  -3   8    1.40    0.33
   6  -3   8    1.43    0.32
   6  -3   8    1.67    0.34
  -6   3  -8    0.92    0.33
   6   3   8    1.05    0.33
   6   3   8    1.75    0.33
   6   3   8    0.90    0.35
   7  -3   8    0.61    0.31
   7  -3   8    0.59    0.30
   7  -3   8    0.22    0.32
   7   3   8    0.27    0.31
   7   3   8    0.30    0.34
   7   3   8    0.50    0.31
   8  -4  -8    2.61    0.43
   8  -4  -8    2.93    0.52
   8   4  -8    3.14    0.53
   8   4  -8    2.98    0.53
   8   4  -8    2.44    0.41
   7  -4  -8    2.67    0.39
   7  -4  -8    2.02    0.38
   7   4  -8    1.29    0.34
   7   4  -8    1.68    0.39
   7   4  -8    1.79    0.43
   6  -4  -8    0.83    0.31
   6  -4  -8    1.21    0.30
   6   4  -8    0.98    0.29
   6   4  -8    0.47    0.26
   6   4  -8    0.70    0.30
  -6   4   8    0.67    0.27
   5  -4  -8    6.04    0.43
   5  -4  -8    5.63    0.47
  -5  -4   8    5.76    0.45
   5   4  -8    4.99    0.48
   5   4  -8    5.21    0.44
  -5   4   8    6.61    0.46
   5   4  -8    5.51    0.48
   4  -4  -8    8.64    0.50
   4  -4  -8    8.15    0.45
  -4  -4   8    8.66    0.51
  -4   4   8    8.44    0.47
   4   4  -8    8.42    0.46
  -4   4   8    7.77    0.29
   4   4  -8    7.56    0.50
   4   4  -8    8.58    0.50
   3  -4  -8   19.06    0.62
  -3  -4   8   19.20    0.72
   3  -4  -8   20.86    0.71
   3  -4  -8   19.45    0.74
  -3   4   8   18.43    0.62
   3   4  -8   17.42    0.75
   3   4  -8   19.73    0.71
   3   4  -8   19.25    0.70
  -3   4   8   19.02    0.70
   2  -4  -8   25.91    0.83
   2  -4  -8   25.57    0.83
  -2  -4   8   26.12    0.82
   2  -4  -8   24.06    0.84
   2   4  -8   24.72    0.91
  -2   4   8   24.88    0.82
  -2   4   8   26.11    0.84
  -2   4   8   26.64    0.79
   2   4  -8   25.64    0.81
   2   4  -8   24.84    0.81
   1  -4  -8   11.80    0.53
  -1  -4   8   10.19    0.46
  -1  -4   8   10.33    0.43
   1  -4  -8   11.44    0.49
  -1   4   8   11.19    0.52
   1   4  -8   11.61    0.58
  -1   4   8   11.67    0.47
   1   4  -8   10.62    0.43
   1   4  -8   11.75    0.45
   0  -4   8    7.71    0.33
   0  -4  -8    7.94    0.41
   0  -4  -8    7.61    0.45
   0  -4   8    8.51    0.42
   0   4  -8    7.66    0.33
   0   4   8    8.56    0.40
   0   4   8    8.14    0.47
   0   4   8    8.75    0.43
   1  -4   8    5.12    0.36
  -1  -4  -8    5.37    0.46
   1  -4   8    5.28    0.23
   1  -4   8    5.41    0.36
   1   4   8    5.79    0.38
  -1   4  -8    5.34    0.26
   1   4   8    6.38    0.46
   1   4   8    5.10    0.35
   2  -4   8    5.46    0.38
   2  -4   8    5.97    0.26
  -2  -4  -8    5.35    0.50
   2  -4   8    5.47    0.38
  -2   4  -8    5.25    0.27
   2   4   8    4.82    0.37
   2   4   8    5.73    0.41
   3  -4   8   12.63    0.47
  -3  -4  -8   11.94    0.75
   3  -4   8   12.28    0.60
   3  -4   8   13.17    0.61
   3   4   8   12.14    0.63
  -3   4  -8   13.56    0.48
   3   4   8   11.97    0.59
  -4  -4  -8    6.61    0.48
   4  -4   8    7.49    0.40
   4  -4   8    5.92    0.47
   4  -4   8    7.20    0.48
  -4  -4  -8    6.95    0.65
   4   4   8    6.92    0.53
   4   4   8    7.52    0.48
   4   4   8    6.89    0.48
  -4   4  -8    7.44    0.38
  -5  -4  -8    3.50    0.57
   5  -4   8    3.57    0.42
   5  -4   8    4.70    0.40
   5  -4   8    3.32    0.42
   5   4   8    2.98    0.40
  -5   4  -8    3.57    0.47
   5   4   8    4.06    0.44
   5   4   8    3.56    0.48
   6  -4   8    0.88    0.33
   6  -4   8    1.13    0.32
   6  -4   8    1.13    0.34
   6   4   8    1.01    0.30
   6   4   8    0.72    0.35
   6   4   8    0.83    0.31
   7  -4   8    0.14    0.29
   7  -4   8    0.10    0.30
   7  -4   8    0.39    0.57
   7   4   8   -0.11    0.32
   7   4   8    0.24    0.30
   7   4   8   -0.17    0.33
   7  -5  -8   -0.27    0.30
   7  -5  -8    0.15    0.28
   7   5  -8   -0.19    0.32
   7   5  -8   -0.13    0.27
   7   5  -8    0.45    0.27
   7   5  -8   -0.13    0.31
   6  -5  -8    4.11    0.46
   6  -5  -8    3.36    0.47
   6   5  -8    2.69    0.45
   6   5  -8    3.20    0.42
  -6   5   8    3.32    0.40
   6   5  -8    3.07    0.44
   5  -5  -8    1.51    0.35
   5  -5  -8    1.58    0.30
   5  -5  -8    1.41    0.33
  -5  -5   8    1.37    0.33
   5   5  -8    0.98    0.32
  -5   5   8    1.43    0.27
   4  -5  -8    3.38    0.33
   4  -5  -8    3.20    0.38
  -4  -5   8    3.54    0.38
   4  -5  -8    3.33    0.39
   4   5  -8    3.71    0.42
  -4   5   8    3.52    0.35
   4   5  -8    3.62    0.41
   3  -5  -8   44.93    1.28
  -3  -5   8   43.00    1.29
   3  -5  -8   42.24    1.29
   3  -5  -8   42.96    1.25
   3  -5  -8   41.61    1.33
   3   5  -8   44.21    1.43
  -3   5   8   42.79    1.27
   3   5  -8   42.13    1.30
   3   5  -8   43.54    1.29
  -3   5   8   44.16    1.26
   2  -5  -8    7.00    0.39
   2  -5  -8    7.08    0.40
   2  -5  -8    6.36    0.39
   2  -5  -8    6.44    0.43
  -2  -5   8    5.90    0.36
  -2  -5   8    6.35    0.38
  -2   5   8    6.50    0.34
  -2   5   8    6.74    0.42
   2   5  -8    7.04    0.39
   2   5  -8    6.54    0.37
   2   5  -8    6.79    0.50
  -1  -5   8    1.30    0.21
  -1  -5   8    1.77    0.20
   1  -5  -8    1.68    0.24
   1  -5  -8    1.43    0.28
  -1   5   8    1.85    0.23
  -1   5   8    1.64    0.24
   1   5  -8    1.42    0.31
  -1   5   8    1.07    0.24
   1   5  -8    1.79    0.23
   1   5  -8    1.58    0.18
   0  -5  -8   16.60    0.63
   0  -5   8   15.53    0.49
   0  -5  -8   14.80    0.72
   0  -5   8   15.54    0.63
   0   5   8   15.43    0.60
   0   5  -8   15.21    0.48
   0   5   8   14.97    0.61
   0   5   8   15.92    0.72
   0   5  -8   15.45    0.72
   1  -5   8   14.74    0.63
   1  -5   8   15.27    0.50
  -1  -5  -8   14.90    0.76
   1   5   8   15.00    0.64
   1   5   8   15.14    0.62
  -1   5  -8   15.21    0.45
   2  -5   8   12.35    0.59
   2  -5   8   12.88    0.59
  -2  -5  -8   11.36    0.68
   2  -5   8   12.55    0.45
  -2   5  -8   12.06    0.39
   2   5   8   12.46    0.62
   2   5   8   12.04    0.55
  -3  -5  -8   19.75    0.96
   3  -5   8   21.35    0.83
   3  -5   8   19.77    0.67
   3  -5   8   20.73    0.84
   3   5   8   21.22    0.83
   3   5   8   20.70    0.87
  -3   5  -8   20.90    0.67
  -3   5  -8   21.33    0.62
  -4  -5  -8    3.13    0.52
   4  -5   8    3.22    0.39
   4  -5   8    4.09    0.35
   4  -5   8    3.58    0.43
  -4  -5  -8    3.81    0.44
   4   5   8    3.28    0.39
   4   5   8    2.63    0.42
   5  -5   8    0.49    0.31
   5  -5   8    0.38    0.24
   5  -5   8    0.53    0.27
   5   5   8    0.78    0.31
   5   5   8    0.34    0.32
  -5   5  -8    0.55    0.28
   5   5   8    0.14    0.25
   6  -5   8    0.12    0.24
   6  -5   8   -0.02    0.28
   6   5   8    0.07    0.33
   6   5   8   -0.22    0.23
   6   5   8    0.22    0.29
   7  -6  -8    2.11    0.47
   7  -6  -8    1.70    0.35
   7   6  -8    1.38    0.43
   7   6  -8    1.41    0.41
   7   6  -8    2.40    0.43
   6  -6  -8    1.58    0.39
   6  -6  -8    1.58    0.35
   6   6  -8    1.47    0.38
   6   6  -8    1.45    0.40
   6   6  -8    1.22    0.38
   5  -6  -8    2.18    0.36
  -5  -6   8    2.80    0.41
   5  -6  -8    2.74    0.43
   5   6  -8    2.67    0.42
  -5   6   8    2.93    0.35
  -4  -6   8    5.86    0.46
   4  -6  -8    5.67    0.40
   4  -6  -8    4.94    0.51
   4  -6  -8    5.58    0.50
  -4   6   8    5.42    0.41
   4   6  -8    4.81    0.48
   3  -6  -8    2.61    0.34
   3  -6  -8    3.06    0.32
   3  -6  -8    3.09    0.30
   3  -6  -8    3.48    0.40
  -3  -6   8    2.81    0.34
  -3  -6   8    3.71    0.37
   3   6  -8    3.30    0.34
   3   6  -8    3.20    0.37
  -3   6   8    2.91    0.34
   2  -6  -8    6.71    0.44
   2  -6  -8    7.42    0.47
   2  -6  -8    6.56    0.43
  -2  -6   8    7.89    0.46
   2  -6  -8    7.34    0.43
  -2  -6   8    7.38    0.40
   2   6  -8    8.02    0.44
  -2   6   8    7.84    0.40
  -2   6   8    7.75    0.49
   2   6  -8    7.31    0.39
  -2   6   8    7.76    0.39
  -1  -6   8   14.15    0.51
   1  -6  -8   15.09    0.61
  -1  -6   8   14.39    0.63
   1  -6  -8   14.62    0.71
   1   6  -8   14.47    0.51
  -1   6   8   13.99    0.57
  -1   6   8   14.14    0.60
   1   6  -8   14.02    0.55
  -1   6   8   14.21    0.72
   0  -6  -8    6.90    0.53
   0  -6   8    5.97    0.43
   0  -6  -8    7.17    0.42
   0   6  -8    6.45    0.34
   0   6   8    5.55    0.39
   0   6   8    6.54    0.42
   0   6  -8    6.55    0.27
   1  -6   8    4.50    0.36
   1  -6   8    4.97    0.29
  -1  -6  -8    5.53    0.48
   1   6   8    5.05    0.36
   1   6   8    5.39    0.43
  -1   6  -8    5.21    0.16
   2  -6   8    4.64    0.44
  -2  -6  -8    3.46    0.48
   2  -6   8    4.28    0.29
   2   6   8    4.24    0.42
   2   6   8    4.60    0.45
  -3  -6  -8    2.01    0.45
   3  -6   8    2.47    0.34
   3  -6   8    2.70    0.28
   3   6   8    1.74    0.37
   3   6   8    2.40    0.37
   4  -6   8    3.94    0.48
   4  -6   8    4.25    0.46
   4  -6   8    4.55    0.37
   4   6   8    4.49    0.50
   4   6   8    3.07    0.47
   5  -6   8    3.93    0.52
   5  -6   8    3.39    0.43
   5   6   8    3.41    0.48
   5   6   8    3.94    0.54
   6  -6   8    0.31    0.27
   6  -6   8    0.30    0.35
   6   6   8    0.22    0.32
   6   6   8    0.23    0.38
   6   6   8    0.02    0.38
   6  -7  -8    0.09    0.25
   6  -7  -8    0.37    0.26
   6  -7  -8    0.78    0.35
   6   7  -8    0.24    0.30
   6   7  -8    0.63    0.38
   6   7  -8   -0.32    0.31
   5  -7  -8    2.62    0.40
   5  -7  -8    2.64    0.43
  -5  -7   8    2.28    0.39
  -5  -7   8    2.14    0.37
   5   7  -8    2.58    0.44
   5   7  -8    1.75    0.39
   4  -7  -8    8.76    0.60
   4  -7  -8    9.43    0.62
  -4  -7   8    9.94    0.58
  -4  -7   8    9.61    0.58
   4   7  -8    8.53    0.59
   3  -7  -8    5.63    0.53
  -3  -7   8    6.48    0.45
  -3  -7   8    6.25    0.48
   3  -7  -8    6.47    0.48
   3   7  -8    6.42    0.47
  -3   7   8    6.42    0.58
   2  -7  -8    3.02    0.40
  -2  -7   8    2.67    0.34
   2  -7  -8    2.58    0.32
   2  -7  -8    2.87    0.30
   2  -7  -8    2.89    0.40
  -2  -7   8    2.80    0.28
  -2   7   8    3.04    0.34
   2   7  -8    3.50    0.38
  -2   7   8    3.75    0.34
   2   7  -8    3.00    0.29
  -1  -7   8    2.43    0.22
   1  -7  -8    3.26    0.31
   1  -7  -8    2.37    0.28
   1  -7  -8    2.62    0.41
  -1  -7   8    2.85    0.35
  -1   7   8    2.49    0.32
   1   7  -8    2.81    0.23
  -1   7   8    2.27    0.29
   1   7  -8    3.22    0.33
   0  -7   8    4.09    0.42
   0  -7  -8    3.59    0.48
   0  -7  -8    4.54    0.36
   0   7   8    3.87    0.42
   0   7   8    3.89    0.38
   0   7  -8    4.00    0.31
   1  -7   8    6.93    0.50
  -1  -7  -8    7.49    0.65
   1  -7   8    7.80    0.41
   1   7   8    7.15    0.52
   1   7   8    8.51    0.51
  -2  -7  -8    5.56    0.64
   2  -7   8    6.13    0.45
   2  -7   8    5.87    0.36
   2   7   8    6.24    0.44
   2   7   8    5.70    0.54
   3  -7   8    4.97    0.48
  -3  -7  -8    6.88    0.54
   3  -7   8    5.30    0.38
   3   7   8    5.11    0.51
   3   7   8    4.90    0.56
   4  -7   8    4.08    0.51
   4   7   8    4.37    0.52
   4   7   8    4.56    0.57
   5  -7   8    2.47    0.46
   5   7   8    2.14    0.48
   5   7   8    1.74    0.43
   6  -8  -8    0.55    0.31
   6  -8  -8    0.41    0.36
   6  -8  -8    1.01    0.43
   6   8  -8    0.43    0.39
   6   8  -8    0.43    0.39
   6   8  -8    1.01    0.39
   5  -8  -8    0.38    0.36
   5  -8  -8    0.34    0.32
   5   8  -8    0.35    0.36
   5   8  -8    0.75    0.38
   4  -8  -8    2.57    0.43
  -4  -8   8    2.57    0.37
  -4  -8   8    3.29    0.41
   4  -8  -8    3.27    0.46
   4   8  -8    3.87    0.48
   4   8  -8    2.87    0.47
   3  -8  -8    6.94    0.52
  -3  -8   8    7.33    0.68
   3  -8  -8    7.76    0.59
  -3  -8   8    7.16    0.50
   3   8  -8    6.69    0.51
   2  -8  -8    5.75    0.54
  -2  -8   8    6.24    0.47
   2  -8  -8    6.71    0.55
   2  -8  -8    6.43    0.45
  -2   8   8    6.00    0.44
   2   8  -8    5.98    0.45
  -2   8   8    5.55    0.39
   1  -8  -8    3.20    0.34
  -1  -8   8    2.39    0.35
   1  -8  -8    2.88    0.46
   1   8  -8    2.72    0.33
  -1   8   8    3.57    0.39
  -1   8   8    2.85    0.33
   0  -8  -8    5.21    0.59
   0  -8   8    4.58    0.44
   0   8   8    4.11    0.45
   0   8   8    4.05    0.41
   0   8  -8    5.44    0.50
  -1  -8  -8    1.81    0.44
   1  -8   8    1.96    0.28
   1  -8   8    2.20    0.38
   1   8   8    1.84    0.37
   1   8   8    2.52    0.37
   2  -8   8    0.98    0.32
   2  -8   8    0.94    0.25
   2   8   8    1.07    0.36
   2   8   8    0.94    0.31
   3  -8   8    1.83    0.39
   3   8   8    1.22    0.40
   3   8   8    1.35    0.38
   4  -8   8    3.86    0.53
   4   8   8    3.25    0.54
   4   8   8    3.71    0.53
   5  -8   8    0.86    0.40
   5   8   8    0.57    0.43
   5   8   8    1.84    0.46
   5  -9  -8    3.22    0.52
   5  -9  -8    3.25    0.52
   5   9  -8    2.17    0.47
   5   9  -8    3.51    0.54
  -4  -9   8    2.81    0.40
   4  -9  -8    2.85    0.47
   4  -9  -8    3.59    0.51
   4   9  -8    2.92    0.47
   4   9  -8    2.29    0.48
   3  -9  -8    6.83    0.55
  -3  -9   8    6.71    0.56
   3  -9  -8    6.57    0.63
   3   9  -8    6.77    0.54
   3   9  -8    6.41    0.61
  -2  -9   8    1.82    0.37
   2  -9  -8    0.82    0.37
   2  -9  -8    1.00    0.39
   2  -9  -8    1.10    0.29
   2   9  -8    0.89    0.30
  -2   9   8    1.07    0.31
   1  -9  -8    0.34    0.35
  -1  -9   8   -0.06    0.24
  -1   9   8    0.48    0.23
  -1   9   8    0.42    0.30
   1   9  -8    0.52    0.23
   0  -9   8    5.20    0.52
   0   9   8    4.50    0.53
   0   9   8    4.69    0.48
   1  -9   8    9.12    0.54
   1  -9   8    7.99    0.60
   1   9   8    9.44    0.60
   1   9   8    7.97    0.64
   2  -9   8    5.77    0.59
  -2  -9  -8    6.84    0.57
   2   9   8    5.36    0.56
   2   9   8    4.92    0.59
   3  -9   8    4.56    0.57
   3   9   8    4.46    0.61
   3   9   8    5.24    0.59
   4  -9   8    0.71    0.38
   4   9   8    0.29    0.38
   4   9   8    0.57    0.41
   4 -10  -8    0.05    0.36
   4 -10  -8    0.29    0.35
   4  10  -8    0.35    0.34
   4  10  -8    0.08    0.35
   3 -10  -8    1.36    0.36
  -3 -10   8    1.27    0.37
   3 -10  -8    1.98    0.44
   3  10  -8    1.05    0.34
   3  10  -8    1.19    0.39
   2 -10  -8    0.69    0.36
   2 -10  -8    1.05    0.32
  -2 -10   8    1.47    0.38
   2  10  -8    0.54    0.26
   2  10  -8    1.56    0.38
  -1 -10   8    1.48    0.37
  -1  10   8    1.02    0.30
  -1  10   8    1.62    0.36
   1  10  -8    1.03    0.30
   1  10  -8    0.94    0.33
   0 -10   8    0.56    0.33
   0  10  -8    1.61    0.36
   0  10   8    1.27    0.34
   0  10   8    0.50    0.33
   1 -10   8    0.27    0.33
   1  10   8    0.01    0.27
   1  10   8    0.28    0.36
   2 -10   8    0.80    0.38
   2  10   8    0.66    0.38
   2  10   8    0.35    0.39
   3 -10   8    0.78    0.40
   3  10   8   -0.23    0.42
   3  10   8    0.52    0.39
  -2 -11   8    1.01    0.34
   2 -11  -8    0.70    0.39
   2  11  -8    0.78    0.38
   2  11  -8    0.86    0.33
  -1 -11   8    0.02    0.31
   1  11  -8   -0.25    0.29
  -1  11   8    0.18    0.30
  -1  11   8    0.04    0.25
   0 -11   8    0.34    0.35
   0  11   8    0.10    0.32
   0  11   8   -0.18    0.37
   0  11  -8   -0.61    0.24
   1 -11   8   -0.06    0.34
   1  11   8   -0.03    0.36
   1  11   8    0.38    0.31
   8   0  -9    1.16    0.40
   8   0  -9    1.72    0.44
   7   0  -9    1.15    0.35
   7   0  -9    0.56    0.30
  -6   0   9   12.25    0.69
   6   0  -9   10.47    0.62
   6   0  -9   10.44    0.62
   5   0  -9   48.87    1.47
  -5   0   9   48.90    1.53
   5   0  -9   50.07    1.50
  -4   0   9    0.03    0.20
   4   0  -9   -0.07    0.16
   4   0  -9    0.09    0.18
   3   0  -9   28.95    0.85
   3   0  -9   27.95    0.74
   3   0  -9   27.39    0.90
   3   0  -9   27.94    0.89
  -3   0   9   27.81    0.91
   3   0  -9   27.41    0.74
   2   0  -9   69.65    1.80
  -2   0   9   68.93    1.83
   2   0  -9   68.90    1.74
   2   0  -9   68.11    1.82
   2   0  -9   69.64    1.73
  -1   0   9   48.12    1.35
   1   0  -9   48.43    1.35
  -1   0   9   51.90    1.34
   1   0  -9   50.07    1.24
   0   0   9   71.58    1.80
   0   0  -9   66.84    1.86
   0   0  -9   71.06    1.82
  -1   0  -9    2.70    0.31
   1   0   9    2.82    0.22
   1   0   9    3.15    0.27
   1   0   9    2.81    0.28
   2   0   9   21.78    0.78
   2   0   9   23.01    0.74
   2   0   9   22.80    0.70
  -2   0  -9   23.56    0.89
   3   0   9    2.03    0.22
   3   0   9    1.69    0.27
  -3   0  -9    1.66    0.33
   3   0   9    1.74    0.24
   4   0   9    6.04    0.37
   4   0   9    7.10    0.39
   4   0   9    6.82    0.46
  -4   0  -9    6.34    0.56
   4   0   9    5.93    0.36
  -5   0  -9    1.58    0.32
   5   0   9    2.42    0.33
   5   0   9    2.50    0.30
  -5   0  -9    2.70    0.47
   5   0   9    2.67    0.38
   5   0   9    2.29    0.28
   6   0   9    2.22    0.39
   6   0   9    3.23    0.40
   7   0   9    0.14    0.28
   7   0   9   -0.03    0.32
   8  -1  -9    1.94    0.45
   8  -1  -9    2.98    0.47
   8   1  -9    2.40    0.48
   8   1  -9    2.18    0.44
   7  -1  -9    0.94    0.29
   7  -1  -9    0.70    0.31
   7   1  -9    0.80    0.33
   7   1  -9    0.54    0.31
   6  -1  -9   -0.19    0.24
  -6  -1   9   -0.35    0.24
   6  -1  -9   -0.08    0.21
   6   1  -9    0.34    0.26
  -6   1   9   -0.15    0.25
   6   1  -9    0.32    0.26
   5  -1  -9    0.66    0.25
   5  -1  -9    0.71    0.21
  -5  -1   9    0.64    0.27
   5   1  -9    1.13    0.11
   5   1  -9    1.10    0.28
   5   1  -9    0.78    0.25
  -5   1   9    1.29    0.29
  -4  -1   9   26.48    0.94
   4  -1  -9   28.35    0.92
   4  -1  -9   28.75    0.96
   4  -1  -9   29.10    0.94
   4   1  -9   26.66    0.92
   4   1  -9   26.95    0.77
   4   1  -9   26.27    0.89
  -4   1   9   28.07    0.96
   3  -1  -9   30.18    0.92
   3  -1  -9   29.96    0.96
   3  -1  -9   30.26    0.97
   3  -1  -9   31.52    0.76
  -3  -1   9   30.68    0.98
   3   1  -9   30.61    0.98
  -3   1   9   30.93    0.98
   3   1  -9   30.85    0.96
   3   1  -9   29.96    0.90
   3   1  -9   31.93    0.88
   2  -1  -9    0.94    0.19
  -2  -1   9    1.28    0.21
   2  -1  -9    1.23    0.17
   2  -1  -9    0.95    0.15
   2   1  -9    0.70    0.15
  -2   1   9    0.67    0.19
   2   1  -9    0.65    0.13
   2   1  -9    0.98    0.19
   1  -1  -9   31.65    0.85
   1  -1  -9   30.43    0.94
   1  -1  -9   32.72    0.94
  -1  -1   9   30.78    0.93
  -1   1   9   30.67    0.95
   1   1  -9   31.18    0.93
  -1   1   9   30.72    0.91
   0  -1  -9    4.62    0.32
   0  -1   9    4.59    0.29
   0  -1  -9    4.84    0.35
   0  -1   9    4.44    0.29
   0   1   9    4.99    0.28
   0   1  -9    4.38    0.29
   1  -1   9   15.28    0.60
  -1  -1  -9   16.32    0.69
   1  -1   9   16.01    0.56
   1  -1   9   15.99    0.55
   1   1   9   16.69    0.52
  -1   1  -9   15.88    0.59
   1   1   9   16.99    0.68
   1   1   9   16.40    0.59
   1   1   9   16.60    0.58
  -1   1  -9   16.70    0.67
   2  -1   9    7.10    0.36
   2  -1   9    7.26    0.39
   2  -1   9    7.69    0.37
  -2  -1  -9    7.75    0.51
   2   1   9    8.31    0.32
   2   1   9    7.58    0.46
   2   1   9    8.44    0.43
   2   1   9    7.92    0.39
  -2   1  -9    7.55    0.47
   3  -1   9    9.21    0.44
   3  -1   9    9.15    0.50
   3  -1   9    9.85    0.39
   3  -1   9   10.21    0.45
  -3  -1  -9    9.41    0.57
   3   1   9   10.22    0.39
  -3   1  -9   10.28    0.57
   3   1   9    9.44    0.50
   3   1   9    9.48    0.46
   4  -1   9    4.20    0.33
  -4  -1  -9    4.15    0.50
   4  -1   9    4.24    0.33
   4  -1   9    3.97    0.31
   4  -1   9    4.26    0.43
   4   1   9    4.40    0.27
  -4   1  -9    4.41    0.43
  -4   1  -9    4.11    0.35
   4   1   9    3.38    0.38
   4   1   9    4.39    0.38
   5  -1   9    5.17    0.49
  -5  -1  -9    4.72    0.57
  -5  -1  -9    4.75    0.48
   5  -1   9    5.35    0.42
   5  -1   9    5.07    0.39
   5  -1   9    5.05    0.39
  -5   1  -9    5.13    0.42
   5   1   9    5.22    0.51
  -5   1  -9    6.52    0.59
   5   1   9    5.76    0.40
   6  -1   9    8.08    0.61
   6  -1   9    9.31    0.59
   6  -1   9    8.60    0.52
  -6   1  -9    8.70    0.57
   6   1   9    7.99    0.61
   6   1   9    7.76    0.51
   7  -1   9    3.18    0.44
   7  -1   9    1.99    0.40
   7   1   9    2.19    0.47
   8  -2  -9    2.36    0.46
   8  -2  -9    2.43    0.43
   8   2  -9    2.09    0.47
   8   2  -9    2.02    0.37
   8   2  -9    2.45    0.47
   7  -2  -9    6.90    0.53
   7  -2  -9    6.82    0.55
   7   2  -9    6.32    0.60
   7   2  -9    6.81    0.62
   6  -2  -9    4.73    0.47
  -6  -2   9    4.08    0.49
   6  -2  -9    4.99    0.50
  -6   2   9    4.91    0.49
   6   2  -9    4.88    0.49
   6   2  -9    4.45    0.49
  -5  -2   9   82.08    2.24
   5  -2  -9   77.40    2.17
   5  -2  -9   74.64    2.14
  -5   2   9   78.85    2.19
   5   2  -9   75.99    2.14
   5   2  -9   79.41    2.02
   5   2  -9   75.79    2.17
   5   2  -9   81.17    2.13
  -4  -2   9    8.34    0.51
   4  -2  -9    8.27    0.47
   4  -2  -9    9.36    0.49
   4  -2  -9    8.47    0.47
   4   2  -9   10.30    0.43
   4   2  -9    8.37    0.44
  -4   2   9    8.84    0.50
   4   2  -9    8.57    0.46
   3  -2  -9    0.68    0.19
   3  -2  -9    0.51    0.08
   3  -2  -9    0.77    0.19
  -3  -2   9    0.46    0.19
  -3   2   9    0.99    0.22
   3   2  -9    0.81    0.20
   3   2  -9    0.63    0.15
   3   2  -9    0.62    0.17
   3   2  -9    0.62    0.16
   2  -2  -9   33.06    0.94
   2  -2  -9   34.13    0.98
  -2  -2   9   33.11    1.01
   2  -2  -9   32.81    1.02
   2   2  -9   33.81    0.98
   2   2  -9   33.66    1.01
   2   2  -9   33.88    0.91
  -2   2   9   33.49    0.96
  -2   2   9   33.28    1.02
  -2   2   9   34.32    0.94
   1  -2  -9  130.07    3.07
   1  -2  -9  128.58    3.13
  -1  -2   9  124.49    3.09
   1  -2  -9  125.05    3.13
  -1  -2   9  122.51    3.08
   1   2  -9  123.82    3.09
  -1   2   9  130.48    3.10
  -1   2   9  124.36    3.12
   0  -2  -9   -0.08    0.14
   0  -2   9    0.32    0.16
   0  -2   9    0.09    0.14
   0  -2  -9   -0.06    0.16
   0   2  -9    0.07    0.11
   0   2   9    0.11    0.15
   0   2   9    0.14    0.16
   0   2   9    0.06    0.15
   1  -2   9   30.62    0.94
  -1  -2  -9   31.01    1.05
   1  -2   9   31.65    0.97
   1   2   9   31.25    0.94
   1   2   9   30.65    1.04
  -1   2  -9   31.55    0.91
   1   2   9   30.57    0.95
  -2  -2  -9   16.24    0.76
   2  -2   9   16.56    0.65
   2  -2   9   17.37    0.48
   2  -2   9   16.56    0.61
   2  -2   9   16.95    0.58
   2   2   9   16.04    0.73
   2   2   9   16.71    0.49
   2   2   9   16.64    0.63
   2   2   9   15.40    0.64
   3  -2   9   17.89    0.61
  -3  -2  -9   18.57    0.87
   3  -2   9   17.16    0.70
   3  -2   9   17.65    0.56
   3  -2   9   17.62    0.67
   3   2   9   16.03    0.70
   3   2   9   17.57    0.52
  -3   2  -9   17.33    0.82
   3   2   9   17.32    0.67
  -4  -2  -9    1.47    0.38
   4  -2   9    1.70    0.24
   4  -2   9    0.79    0.25
   4  -2   9    1.06    0.25
   4  -2   9    1.71    0.22
  -4   2  -9    0.94    0.31
   4   2   9    1.20    0.29
   4   2   9    0.97    0.24
  -4   2  -9    0.75    0.21
  -5  -2  -9   -0.22    0.20
  -5  -2  -9    0.04    0.31
   5  -2   9   -0.30    0.21
   5  -2   9    0.19    0.21
   5  -2   9    0.05    0.18
  -5   2  -9   -0.12    0.24
   5   2   9   -0.17    0.24
   5   2   9   -0.12    0.17
  -5   2  -9   -0.02    0.15
   6  -2   9    0.50    0.28
   6  -2   9    0.82    0.30
   6  -2   9    0.93    0.30
   6   2   9    1.17    0.40
   6   2   9    0.89    0.30
  -6   2  -9    1.02    0.26
   7  -2   9    2.99    0.48
   7  -2   9    3.60    0.48
   7  -2   9    3.40    0.44
   7   2   9    2.80    0.52
   7   2   9    2.53    0.40
   8  -3  -9    0.28    0.33
   8  -3  -9    0.88    0.39
   8   3  -9    1.16    0.43
   8   3  -9    0.67    0.32
   8   3  -9    0.68    0.39
   7  -3  -9    0.53    0.33
   7  -3  -9    0.48    0.29
   7   3  -9    0.84    0.30
   7   3  -9    0.61    0.33
   7   3  -9    0.45    0.34
  -6  -3   9    0.26    0.34
   6  -3  -9    0.09    0.24
   6  -3  -9    0.46    0.27
  -6   3   9    0.06    0.28
   6   3  -9    0.87    0.25
   6   3  -9    0.27    0.29
   5  -3  -9   10.19    0.55
   5  -3  -9    9.22    0.54
  -5  -3   9    9.69    0.61
  -5   3   9   10.67    0.58
   5   3  -9   10.33    0.55
   5   3  -9   10.00    0.59
   5   3  -9    9.91    0.53
  -4  -3   9    6.97    0.47
   4  -3  -9    7.45    0.44
   4  -3  -9    6.08    0.42
   4  -3  -9    5.99    0.42
   4   3  -9    6.68    0.40
   4   3  -9    5.76    0.40
  -4   3   9    6.89    0.45
   4   3  -9    6.07    0.44
  -3  -3   9   16.56    0.65
   3  -3  -9   15.39    0.49
   3  -3  -9   17.38    0.64
   3  -3  -9   15.95    0.63
   3   3  -9   14.89    0.64
   3   3  -9   15.46    0.62
  -3   3   9   15.26    0.63
   3   3  -9   16.07    0.57
  -3   3   9   15.52    0.55
   3   3  -9   15.81    0.63
  -3   3   9   15.96    0.49
   2  -3  -9    8.61    0.41
   2  -3  -9    9.16    0.44
   2  -3  -9    8.60    0.39
  -2  -3   9    8.45    0.42
  -2   3   9    8.77    0.44
   2   3  -9    7.98    0.44
  -2   3   9    8.35    0.37
   2   3  -9    7.28    0.33
   2   3  -9    7.79    0.39
   2   3  -9    8.37    0.42
  -2   3   9    7.78    0.36
  -1  -3   9    2.70    0.25
   1  -3  -9    3.39    0.30
   1  -3  -9    4.12    0.31
  -1   3   9    3.34    0.28
   1   3  -9    3.32    0.25
  -1   3   9    3.49    0.28
   0  -3   9   15.35    0.60
   0  -3  -9   16.01    0.68
   0  -3  -9   16.20    0.61
   0  -3   9   15.33    0.60
   0   3  -9   16.21    0.55
   0   3   9   17.21    0.67
   0   3   9   16.36    0.58
   0   3   9   16.74    0.59
   1  -3   9   17.42    0.66
  -1  -3  -9   17.12    0.76
   1  -3   9   16.58    0.64
   1   3   9   17.54    0.64
   1   3   9   17.03    0.73
  -1   3  -9   17.25    0.57
   1   3   9   17.31    0.64
   2  -3   9    6.50    0.40
  -2  -3  -9    5.36    0.45
   2  -3   9    6.08    0.24
   2  -3   9    6.56    0.40
   2   3   9    5.75    0.43
   2   3   9    6.33    0.38
   2   3   9    6.32    0.41
  -2   3  -9    6.32    0.33
   3  -3   9   32.83    1.05
  -3  -3  -9   32.29    1.25
   3  -3   9   34.66    0.91
   3  -3   9   31.59    1.07
   3   3   9   30.73    1.08
   3   3   9   30.35    1.03
   4  -3   9    8.06    0.39
   4  -3   9    7.21    0.52
   4  -3   9    6.79    0.47
  -4  -3  -9    7.73    0.66
   4   3   9    7.84    0.49
   4   3   9    8.20    0.51
  -4   3  -9    7.10    0.59
  -4   3  -9    7.41    0.43
  -5  -3  -9    0.79    0.32
   5  -3   9    0.27    0.24
   5  -3   9    0.74    0.28
   5  -3   9    1.18    0.25
   5   3   9    0.91    0.32
  -5   3  -9    0.83    0.30
   5   3   9    0.64    0.26
  -5   3  -9    0.56    0.19
   6  -3   9    1.60    0.31
   6  -3   9    0.82    0.31
   6  -3   9    0.72    0.30
   6   3   9    0.68    0.30
   6   3   9    1.25    0.38
   6   3   9    0.81    0.28
   7  -3   9    0.64    0.32
   7  -3   9    0.38    0.33
   7   3   9    0.23    0.34
   7   3   9    0.63    0.33
   7  -4  -9    2.55    0.48
   7  -4  -9    2.43    0.42
   7   4  -9    1.15    0.34
   7   4  -9    1.90    0.42
   7   4  -9    2.52    0.47
   6  -4  -9    3.55    0.48
   6  -4  -9    3.45    0.42
   6   4  -9    2.64    0.43
  -6   4   9    3.42    0.43
   6   4  -9    3.84    0.42
   6   4  -9    3.70    0.46
   5  -4  -9    5.46    0.51
  -5  -4   9    6.72    0.53
   5  -4  -9    5.44    0.45
   5   4  -9    6.61    0.50
  -5   4   9    6.92    0.49
   5   4  -9    7.86    0.84
   5   4  -9    6.66    0.47
  -4  -4   9    4.14    0.40
   4  -4  -9    3.56    0.40
   4  -4  -9    4.09    0.42
  -4   4   9    4.06    0.38
  -4   4   9    4.14    0.19
   4   4  -9    4.77    0.40
   4   4  -9    4.29    0.40
   4   4  -9    3.95    0.40
   3  -4  -9    7.80    0.43
   3  -4  -9    7.88    0.36
  -3  -4   9    8.02    0.46
   3  -4  -9    7.71    0.45
   3   4  -9    8.26    0.49
   3   4  -9    6.93    0.43
  -3   4   9    7.67    0.36
  -3   4   9    8.12    0.36
  -3   4   9    7.27    0.44
   3   4  -9    8.11    0.44
   2  -4  -9    2.51    0.27
   2  -4  -9    2.04    0.26
  -2  -4   9    2.14    0.27
   2  -4  -9    1.96    0.24
  -2   4   9    3.03    0.28
   2   4  -9    2.53    0.25
  -2   4   9    2.16    0.25
   2   4  -9    2.56    0.33
   2   4  -9    2.56    0.27
  -1  -4   9    1.88    0.21
  -1  -4   9    1.79    0.26
   1  -4  -9    2.08    0.27
   1  -4  -9    1.68    0.24
   1   4  -9    2.33    0.24
  -1   4   9    2.00    0.26
  -1   4   9    2.40    0.25
   1   4  -9    1.60    0.20
   1   4  -9    1.94    0.31
   0  -4   9    4.31    0.34
   0  -4  -9    4.40    0.40
   0  -4  -9    4.58    0.34
   0   4   9    4.20    0.35
   0   4   9    4.51    0.31
   0   4  -9    3.98    0.25
   0   4   9    3.94    0.37
   1  -4   9    5.72    0.38
  -1  -4  -9    5.68    0.48
   1  -4   9    5.62    0.35
   1   4   9    5.88    0.37
   1   4   9    5.75    0.38
   1   4   9    6.07    0.47
  -1   4  -9    6.20    0.30
   2  -4   9   14.27    0.44
   2  -4   9   13.86    0.62
   2  -4   9   13.77    0.62
  -2  -4  -9   14.24    0.76
   2   4   9   13.39    0.60
  -2   4  -9   13.01    0.48
   2   4   9   13.06    0.62
   3  -4   9    8.04    0.50
   3  -4   9    8.10    0.51
  -3  -4  -9    8.96    0.68
   3  -4   9    7.71    0.35
   3   4   9    8.31    0.50
   3   4   9    7.92    0.50
  -3   4  -9    8.80    0.40
   4  -4   9    1.84    0.32
   4  -4   9    1.95    0.34
  -4  -4  -9    2.28    0.36
   4  -4   9    2.27    0.26
  -4  -4  -9    2.08    0.45
  -4   4  -9    2.88    0.44
   4   4   9    2.25    0.36
   4   4   9    2.93    0.41
  -4   4  -9    2.09    0.25
   5  -4   9    0.73    0.26
   5  -4   9    0.49    0.28
   5  -4   9    0.73    0.29
  -5   4  -9    0.18    0.26
   5   4   9    0.93    0.31
   5   4   9    0.66    0.32
   6  -4   9   -0.05    0.27
   6  -4   9    0.36    0.32
   6   4   9    0.50    0.28
   6   4   9   -0.21    0.28
   7  -5  -9    0.53    0.32
   7  -5  -9    0.34    0.32
   7   5  -9    0.56    0.32
   7   5  -9    0.55    0.37
   7   5  -9    0.39    0.33
   6  -5  -9    2.25    0.40
   6  -5  -9    2.26    0.40
   6   5  -9    2.17    0.39
   6   5  -9    2.48    0.43
  -6   5   9    1.93    0.35
  -5  -5   9    1.14    0.32
   5  -5  -9    1.07    0.31
   5  -5  -9    0.70    0.27
   5   5  -9    0.53    0.24
  -5   5   9    0.48    0.27
   4  -5  -9    6.64    0.49
  -4  -5   9    6.67    0.48
   4   5  -9    6.65    0.45
  -4   5   9    7.24    0.45
  -3  -5   9    7.46    0.45
   3  -5  -9    6.16    0.42
   3  -5  -9    6.93    0.41
   3  -5  -9    6.50    0.37
  -3   5   9    7.60    0.46
   3   5  -9    6.93    0.44
  -3   5   9    7.14    0.40
   3   5  -9    7.25    0.53
  -3   5   9    6.92    0.35
   3   5  -9    7.48    0.43
   2  -5  -9    7.88    0.44
  -2  -5   9    7.80    0.47
   2  -5  -9    8.10    0.47
  -2  -5   9    8.18    0.44
   2  -5  -9    7.52    0.44
  -2   5   9    8.06    0.46
   2   5  -9    8.38    0.43
   2   5  -9    8.53    0.56
   2   5  -9    8.98    0.46
  -2   5   9    9.05    0.40
  -1  -5   9    9.58    0.50
   1  -5  -9   10.52    0.57
  -1  -5   9    9.70    0.42
   1  -5  -9   10.79    0.50
  -1   5   9   10.12    0.46
   1   5  -9    9.47    0.41
  -1   5   9   11.27    0.48
   1   5  -9    9.62    0.43
   1   5  -9   10.81    0.62
  -1   5   9   11.02    0.55
   0  -5   9    6.06    0.41
   0  -5  -9    6.00    0.48
   0  -5  -9    5.60    0.38
   0   5   9    5.79    0.45
   0   5  -9    5.08    0.27
   0   5   9    6.10    0.39
   0   5   9    5.95    0.37
   1  -5   9    3.69    0.22
   1  -5   9    4.14    0.33
  -1  -5  -9    4.17    0.47
   1   5   9    4.05    0.38
   1   5   9    3.87    0.38
  -1   5  -9    4.08    0.23
   2  -5   9    4.94    0.41
   2  -5   9    4.33    0.25
   2  -5   9    4.71    0.37
  -2  -5  -9    4.56    0.53
   2   5   9    4.13    0.41
   2   5   9    4.34    0.44
  -2   5  -9    4.23    0.25
  -3  -5  -9    5.50    0.62
   3  -5   9    7.29    0.36
   3  -5   9    6.86    0.49
   3  -5   9    7.14    0.47
   3   5   9    6.54    0.47
  -3   5  -9    6.99    0.33
   3   5   9    7.76    0.52
  -4  -5  -9   12.95    0.72
   4  -5   9   11.67    0.67
   4  -5   9   12.09    0.65
  -4  -5  -9   11.24    0.84
   4   5   9   11.92    0.71
   4   5   9   11.41    0.66
   5  -5   9    0.86    0.33
   5  -5   9    0.49    0.28
   5   5   9    0.60    0.35
   5   5   9    1.30    0.36
   6  -5   9    0.07    0.30
   6  -5   9    0.24    0.32
   6   5   9   -0.24    0.29
   6   5   9    0.10    0.35
   7  -6  -9    0.07    0.34
   7  -6  -9    1.06    0.34
   7   6  -9    1.06    0.39
   7   6  -9    0.72    0.35
   7   6  -9    0.58    0.39
   6  -6  -9    3.35    0.48
   6  -6  -9    3.82    0.48
   6   6  -9    3.15    0.49
   6   6  -9    3.13    0.46
   6   6  -9    3.30    0.48
   5  -6  -9    0.41    0.28
  -5  -6   9    0.76    0.30
  -5   6   9    0.43    0.24
   5   6  -9    0.16    0.29
   4  -6  -9    0.33    0.26
  -4  -6   9    0.00    0.25
   4   6  -9    0.59    0.27
  -4   6   9    0.56    0.21
  -3  -6   9    0.21    0.21
   3  -6  -9    0.67    0.22
  -3  -6   9    0.39    0.22
   3  -6  -9   -0.11    0.16
   3  -6  -9    0.35    0.25
   3   6  -9    0.50    0.23
  -3   6   9    0.49    0.18
  -3   6   9    0.41    0.21
   2  -6  -9   13.94    0.62
  -2  -6   9   13.98    0.57
   2  -6  -9   13.66    0.68
   2  -6  -9   13.68    0.65
  -2  -6   9   14.76    0.65
   2   6  -9   14.28    0.57
   2   6  -9   14.34    0.60
  -2   6   9   14.29    0.55
  -2   6   9   14.30    0.56
  -2   6   9   14.71    0.69
  -1  -6   9   13.55    0.50
   1  -6  -9   14.16    0.71
  -1  -6   9   14.12    0.64
   1  -6  -9   13.85    0.61
  -1   6   9   13.97    0.58
  -1   6   9   13.85    0.57
   1   6  -9   14.13    0.50
   1   6  -9   13.38    0.55
  -1   6   9   12.86    0.68
   0  -6  -9   10.38    0.66
   0  -6   9   10.41    0.56
   0  -6  -9   10.99    0.56
   0   6  -9   10.68    0.38
   0   6  -9   11.05    0.44
   0   6   9   10.88    0.52
   0   6   9   10.85    0.55
  -1  -6  -9    6.15    0.52
   1  -6   9    7.02    0.48
   1  -6   9    6.63    0.32
   1   6   9    6.05    0.46
   1   6   9    5.87    0.44
  -1   6  -9    6.78    0.24
   2  -6   9    8.56    0.54
   2  -6   9    8.72    0.42
  -2  -6  -9    8.05    0.68
   2   6   9    9.88    0.55
   2   6   9    8.36    0.57
   3  -6   9    1.24    0.30
  -3  -6  -9    0.79    0.33
   3  -6   9    0.85    0.30
   3   6   9    1.02    0.28
   3   6   9    1.10    0.34
   4  -6   9    9.99    0.66
   4  -6   9   10.66    0.62
   4   6   9    9.54    0.69
   4   6   9    9.18    0.63
   5  -6   9    3.09    0.48
   5  -6   9    3.61    0.46
   5   6   9    3.18    0.47
   5   6   9    2.76    0.50
   6  -6   9    1.11    0.37
   6  -6   9    0.55    0.37
   6   6   9    1.02    0.43
   6   6   9    0.61    0.40
   6  -7  -9   -0.38    0.22
   6  -7  -9    0.64    0.33
   6   7  -9    0.15    0.34
   6   7  -9   -0.09    0.33
   6   7  -9    0.01    0.28
  -5  -7   9    1.29    0.31
   5  -7  -9    0.82    0.33
   5  -7  -9    0.36    0.33
   5   7  -9    0.77    0.35
  -4  -7   9    3.24    0.39
   4  -7  -9    4.00    0.47
  -4  -7   9    3.26    0.41
   4  -7  -9    4.00    0.46
   4   7  -9    3.41    0.47
   3  -7  -9   25.57    0.94
   3  -7  -9   22.22    0.93
  -3  -7   9   22.47    0.89
   3  -7  -9   24.30    0.91
  -3  -7   9   23.49    0.87
   3   7  -9   22.91    0.91
   2  -7  -9   20.15    0.88
   2  -7  -9   21.71    0.90
   2  -7  -9   21.54    0.80
  -2  -7   9   20.38    0.83
  -2  -7   9   20.39    0.73
   2   7  -9   20.24    0.79
   2   7  -9   20.92    0.74
  -2   7   9   22.77    0.79
  -2   7   9   20.36    0.74
  -1  -7   9    7.06    0.46
   1  -7  -9    8.58    0.48
  -1  -7   9    8.00    0.36
   1  -7  -9    8.45    0.60
  -1   7   9    8.10    0.45
  -1   7   9    7.37    0.46
   1   7  -9    8.40    0.44
   0  -7  -9    9.82    0.68
   0  -7   9    9.33    0.52
   0   7   9    9.01    0.51
   0   7   9    9.25    0.56
   1  -7   9    0.21    0.15
  -1  -7  -9    0.47    0.33
   1  -7   9    0.14    0.25
   1   7   9    0.41    0.27
   1   7   9    0.31    0.25
   2  -7   9    3.87    0.46
  -2  -7  -9    3.78    0.56
   2   7   9    3.40    0.42
   2   7   9    2.67    0.42
   3  -7   9    1.70    0.38
   3   7   9    1.93    0.42
   3   7   9    2.71    0.43
   4  -7   9    1.08    0.38
   4   7   9    1.42    0.41
   4   7   9    1.06    0.39
   5  -7   9    6.36    0.66
   5   7   9    6.22    0.64
   5   7   9    5.38    0.67
   6  -8  -9    0.44    0.32
   6  -8  -9    0.64    0.38
   6   8  -9    0.39    0.37
   6   8  -9    0.71    0.39
   6   8  -9    0.21    0.36
   5  -8  -9    1.82    0.42
  -5  -8   9    1.58    0.38
   5  -8  -9    1.81    0.43
   5   8  -9    1.66    0.43
   5   8  -9    1.94    0.47
  -4  -8   9    4.84    0.47
   4  -8  -9    4.48    0.56
  -4  -8   9    5.44    0.59
   4  -8  -9    5.00    0.55
   4   8  -9    4.70    0.54
   3  -8  -9    2.24    0.41
   3  -8  -9    2.87    0.42
  -3  -8   9    3.36    0.41
   3   8  -9    2.88    0.39
  -2  -8   9    2.70    0.39
   2  -8  -9    2.39    0.40
   2  -8  -9    2.88    0.43
   2  -8  -9    2.62    0.36
   2   8  -9    2.10    0.33
  -2   8   9    3.06    0.38
  -2   8   9    3.24    0.34
  -1  -8   9    0.25    0.25
   1  -8  -9    0.07    0.28
  -1   8   9    0.07    0.25
  -1   8   9    0.34    0.20
   1   8  -9    0.34    0.22
   0  -8   9    4.05    0.46
   0  -8  -9    4.65    0.57
   0   8   9    3.85    0.44
   0   8   9    4.68    0.47
  -1  -8  -9   18.38    1.03
   1  -8   9   18.34    0.81
   1   8   9   17.71    0.84
   1   8   9   18.92    0.82
   2  -8   9    9.14    0.64
   2   8   9    9.04    0.62
   2   8   9    8.33    0.65
   3  -8   9    2.63    0.41
   3   8   9    2.61    0.46
   3   8   9    2.27    0.47
   4  -8   9    0.57    0.34
   4   8   9    1.17    0.40
   4   8   9    0.48    0.39
   5   8   9   -0.11    0.39
   5  -9  -9    1.13    0.39
   5  -9  -9    0.46    0.39
   5   9  -9    1.10    0.42
   5   9  -9   -0.11    0.35
  -4  -9   9   -0.18    0.29
   4  -9  -9    0.61    0.35
   4  -9  -9    0.20    0.34
   4   9  -9    1.01    0.36
   4   9  -9    0.74    0.39
   3  -9  -9    0.48    0.35
  -3  -9   9    0.03    0.29
   3  -9  -9   -0.26    0.27
   3   9  -9    0.02    0.26
   2  -9  -9    1.34    0.33
   2  -9  -9    1.10    0.39
   2  -9  -9    1.54    0.35
  -2  -9   9    1.60    0.35
   2   9  -9    1.17    0.29
  -2   9   9    1.75    0.33
   1  -9  -9    0.87    0.40
  -1  -9   9    1.95    0.37
  -1   9   9    1.44    0.36
  -1   9   9    1.47    0.29
   1   9  -9    1.61    0.28
   0  -9   9    1.36    0.35
   0   9   9    1.10    0.34
   0   9   9    0.80    0.32
   1  -9   9    0.29    0.32
   1   9   9   -0.14    0.27
   1   9   9    0.28    0.34
   2  -9   9    2.04    0.43
   2   9   9    1.83    0.45
   2   9   9    1.70    0.41
   3  -9   9    1.56    0.43
   3   9   9    1.18    0.41
   3   9   9    1.00    0.42
   4  -9   9    0.89    0.34
   4   9   9    1.11    0.44
   4   9   9    1.62    0.50
   4 -10  -9    1.29    0.43
   4 -10  -9    0.75    0.39
   4  10  -9    1.36    0.41
  -3 -10   9    0.60    0.31
   3 -10  -9    0.67    0.35
   3 -10  -9    0.49    0.34
   3  10  -9    0.88    0.36
   3  10  -9    0.33    0.34
   2 -10  -9    0.74    0.31
   2 -10  -9    0.10    0.32
  -2 -10   9    0.41    0.33
   2  10  -9    0.80    0.35
   2  10  -9    0.15    0.23
  -1 -10   9    2.58    0.43
   1  10  -9    1.75    0.38
  -1  10   9    1.48    0.36
  -1  10   9    1.63    0.33
   0 -10   9    3.04    0.46
   0  10   9    2.40    0.44
   0  10  -9    1.99    0.36
   0  10   9    1.81    0.35
   1 -10   9    2.90    0.49
   1  10   9    2.21    0.45
   1  10   9    2.51    0.44
   2 -10   9    3.67    0.54
   2  10   9    3.32    0.51
   2  10   9    3.33    0.57
   1 -11  -9    0.23    0.35
  -1 -11   9    0.64    0.36
  -1  11   9    0.64    0.29
  -1  11   9    0.52    0.36
   1  11  -9    0.31    0.31
   0 -11   9    0.28    0.35
   0  11  -9    0.16    0.25
   0  11   9    0.08    0.28
   0  11   9    0.61    0.35
   8   0 -10    0.27    0.35
   8   0 -10    0.86    0.37
   7   0 -10    0.37    0.31
   7   0 -10    0.14    0.29
  -6   0  10    0.68    0.25
   6   0 -10    0.92    0.30
   6   0 -10    1.01    0.27
   5   0 -10   57.09    1.70
  -5   0  10   60.17    1.76
   5   0 -10   56.70    1.68
   4   0 -10  147.78    3.75
   4   0 -10  150.04    3.71
  -4   0  10  150.62    3.79
   3   0 -10   53.35    1.48
   3   0 -10   53.77    1.51
   3   0 -10   53.14    1.34
   3   0 -10   51.95    1.42
  -3   0  10   51.73    1.50
  -2   0  10   38.32    1.11
   2   0 -10   36.75    1.04
   2   0 -10   37.10    1.11
   2   0 -10   35.99    1.07
   2   0 -10   36.38    1.00
   1   0 -10   52.35    1.49
  -1   0  10   53.99    1.50
   1   0 -10   56.41    1.51
   1   0 -10   56.26    1.36
  -1   0  10   55.57    1.48
   0   0 -10    8.53    0.41
   0   0  10    7.60    0.36
   0   0 -10    7.11    0.43
   0   0  10    8.06    0.38
  -1   0 -10    0.11    0.11
   1   0  10    0.30    0.17
  -1   0 -10   -0.07    0.18
   1   0  10    0.12    0.13
   1   0  10    0.23    0.14
   2   0  10    4.21    0.27
  -2   0 -10    3.57    0.41
   2   0  10    3.85    0.32
   2   0  10    3.44    0.34
   3   0  10   27.25    0.83
   3   0  10   25.57    0.92
   3   0  10   25.96    0.86
  -3   0 -10   25.70    1.05
  -4   0 -10    2.97    0.45
   4   0  10    2.10    0.33
   4   0  10    2.48    0.29
   4   0  10    2.85    0.32
   5   0  10    0.78    0.23
   5   0  10    0.12    0.25
  -5   0 -10    0.53    0.25
  -5   0 -10    0.31    0.31
   5   0  10    0.29    0.21
   6   0  10    3.26    0.47
   7   0  10    1.90    0.42
   8  -1 -10    2.20    0.45
   8  -1 -10    2.08    0.46
   8   1 -10    2.72    0.49
   8   1 -10    2.94    0.51
   7  -1 -10    0.92    0.34
   7  -1 -10    1.01    0.34
   7   1 -10    0.96    0.35
   7   1 -10    1.13    0.37
   6  -1 -10    1.64    0.34
   6  -1 -10    1.91    0.36
  -6  -1  10    1.69    0.37
   6   1 -10    1.62    0.33
  -6   1  10    1.66    0.36
   6   1 -10    1.61    0.35
   5  -1 -10   -0.13    0.21
  -5  -1  10    0.48    0.27
   5  -1 -10   -0.27    0.15
  -5   1  10    0.18    0.24
   5   1 -10    0.42    0.24
   5   1 -10    0.23    0.22
   4  -1 -10   83.66    2.22
   4  -1 -10   81.54    2.19
  -4  -1  10   80.60    2.24
   4   1 -10   82.38    2.04
   4   1 -10   81.18    2.22
  -4   1  10   83.15    2.25
   4   1 -10   85.99    2.18
   3  -1 -10    3.85    0.30
   3  -1 -10    5.21    0.33
   3  -1 -10    4.85    0.34
   3  -1 -10    3.38    0.18
  -3  -1  10    4.55    0.37
   3   1 -10    3.76    0.26
  -3   1  10    4.36    0.37
   3   1 -10    4.93    0.34
   3   1 -10    3.99    0.30
   3   1 -10    4.79    0.30
   2  -1 -10   32.95    1.03
  -2  -1  10   31.56    1.00
   2  -1 -10   33.16    0.94
   2  -1 -10   32.10    0.94
   2   1 -10   34.77    0.99
  -2   1  10   32.97    1.03
   2   1 -10   34.40    0.91
   2   1 -10   34.03    1.02
  -1  -1  10   11.13    0.48
   1  -1 -10    9.86    0.48
  -1  -1  10   10.88    0.50
   1  -1 -10   10.88    0.47
   1  -1 -10   11.47    0.40
  -1   1  10   11.44    0.50
  -1   1  10   11.47    0.46
   1   1 -10   10.94    0.47
   0  -1 -10   36.93    1.11
   0  -1  10   37.61    1.08
   0  -1 -10   37.46    1.15
   0  -1  10   38.23    1.08
   0   1  10   38.00    1.07
   0   1 -10   37.70    1.08
   0   1  10   35.57    1.07
   1  -1  10   36.98    1.09
  -1  -1 -10   35.89    1.22
   1  -1  10   40.46    1.15
   1  -1  10   37.08    1.09
   1   1  10   39.11    1.12
  -1   1 -10   38.98    1.12
  -1   1 -10   37.91    1.22
   1   1  10   39.55    1.14
   1   1  10   39.74    1.05
   2  -1  10   12.08    0.56
  -2  -1 -10   12.56    0.67
   2  -1  10   13.11    0.51
   2  -1  10   13.48    0.52
   2   1  10   13.49    0.57
   2   1  10   13.22    0.54
   2   1  10   12.65    0.45
  -2   1 -10   12.97    0.66
   3  -1  10    4.21    0.40
  -3  -1 -10    2.90    0.43
   3  -1  10    3.95    0.25
   3  -1  10    3.59    0.32
   3  -1  10    3.56    0.33
   3   1  10    3.23    0.33
   3   1  10    3.89    0.27
   3   1  10    3.86    0.39
  -3   1 -10    3.59    0.42
   4  -1  10    4.30    0.34
  -4  -1 -10    4.45    0.54
   4  -1  10    5.03    0.47
   4  -1  10    4.98    0.35
   4  -1  10    4.21    0.34
  -4   1 -10    4.09    0.50
   4   1  10    4.62    0.46
   4   1  10    4.63    0.29
   4   1  10    4.86    0.36
  -5  -1 -10    0.83    0.29
   5  -1  10    0.61    0.25
   5  -1  10    0.70    0.24
  -5  -1 -10    1.53    0.42
   5  -1  10    1.05    0.27
   5  -1  10    0.74    0.33
  -5   1 -10    0.84    0.24
  -5   1 -10    0.69    0.33
   5   1  10    0.92    0.31
   5   1  10    0.63    0.25
   6  -1  10    1.58    0.37
   6  -1  10    1.89    0.35
   6  -1  10    1.37    0.31
   6   1  10    1.59    0.41
   6   1  10    1.80    0.30
   7  -1  10    3.51    0.50
   7  -1  10    5.00    0.53
   7   1  10    3.38    0.53
   8  -2 -10    1.10    0.40
   8  -2 -10    1.35    0.41
   8   2 -10    0.67    0.31
   8   2 -10    2.11    0.47
   8   2 -10    1.11    0.40
   7  -2 -10    0.11    0.30
   7  -2 -10    0.07    0.28
   7   2 -10    0.67    0.31
   7   2 -10    0.12    0.30
   6  -2 -10    7.79    0.57
   6  -2 -10    7.28    0.55
  -6  -2  10    8.47    0.63
  -6   2  10    7.66    0.58
   6   2 -10    7.30    0.56
   6   2 -10    8.09    0.55
   5  -2 -10    9.54    0.55
  -5  -2  10    8.81    0.55
   5  -2 -10    9.19    0.55
  -5   2  10    8.88    0.57
   5   2 -10    8.34    0.51
   5   2 -10    9.47    0.57
  -4  -2  10   17.93    0.76
   4  -2 -10   17.58    0.68
   4  -2 -10   18.27    0.72
  -4   2  10   17.55    0.74
   4   2 -10   16.87    0.62
   4   2 -10   18.25    0.73
   4   2 -10   17.47    0.66
   3  -2 -10   36.85    0.93
   3  -2 -10   35.74    1.08
   3  -2 -10   36.23    1.12
  -3  -2  10   36.24    1.13
   3   2 -10   34.47    1.09
   3   2 -10   36.97    1.13
   3   2 -10   35.91    1.03
   3   2 -10   35.86    1.07
  -3   2  10   35.48    1.12
   2  -2 -10    6.17    0.33
  -2  -2  10    6.64    0.39
   2  -2 -10    6.03    0.32
   2  -2 -10    6.30    0.39
   2   2 -10    7.03    0.29
   2   2 -10    5.55    0.33
   2   2 -10    6.35    0.35
  -2   2  10    5.56    0.35
  -2   2  10    6.80    0.34
   1  -2 -10   17.15    0.62
  -1  -2  10   15.71    0.58
   1  -2 -10   15.51    0.61
  -1  -2  10   15.41    0.57
   1  -2 -10   16.06    0.54
  -1   2  10   15.46    0.57
   1   2 -10   16.37    0.59
  -1   2  10   15.10    0.59
   0  -2 -10   28.54    0.97
   0  -2 -10   29.56    0.94
   0  -2  10   29.57    0.91
   0  -2  10   28.93    0.91
   0   2  10   28.90    0.90
   0   2  10   27.91    0.96
   0   2  10   29.88    0.88
   0   2 -10   29.97    0.89
   1  -2  10   10.98    0.51
  -1  -2 -10   12.31    0.62
   1  -2  10   10.89    0.48
   1   2  10   10.40    0.48
   1   2  10   10.80    0.57
  -1   2 -10   11.34    0.46
   1   2  10   10.84    0.49
   1   2  10   11.85    0.41
  -2  -2 -10   12.73    0.66
   2  -2  10   13.62    0.57
   2  -2  10   12.65    0.54
   2  -2  10   13.05    0.51
   2   2  10   11.76    0.63
   2   2  10   13.12    0.58
   2   2  10   13.31    0.56
   2   2  10   12.78    0.42
  -2   2 -10   13.47    0.68
  -3  -2 -10    4.79    0.45
   3  -2  10    4.31    0.35
   3  -2  10    4.25    0.32
   3  -2  10    4.12    0.25
   3  -2  10    4.37    0.42
  -3   2 -10    4.81    0.50
   3   2  10    4.79    0.37
   3   2  10    5.22    0.25
   3   2  10    4.63    0.37
   4  -2  10    1.01    0.22
   4  -2  10    0.69    0.25
  -4  -2 -10    0.74    0.33
   4  -2  10    1.33    0.30
   4  -2  10    0.95    0.19
   4   2  10    0.90    0.29
  -4   2 -10    0.39    0.23
  -4   2 -10    0.61    0.19
   4   2  10    0.99    0.28
   5  -2  10    1.08    0.28
  -5  -2 -10    1.28    0.36
   5  -2  10    1.13    0.35
   5  -2  10    1.37    0.27
  -5   2 -10    1.15    0.25
  -5   2 -10    0.51    0.33
   5   2  10    1.46    0.35
   5   2  10    1.11    0.28
   6  -2  10    0.07    0.22
   6  -2  10    0.81    0.27
   6  -2  10   -0.02    0.27
   6   2  10    0.22    0.27
   6   2  10   -0.08    0.30
  -6   2 -10    0.06    0.19
   7  -2  10    2.44    0.40
   7  -2  10    2.63    0.47
   7   2  10    2.49    0.40
   7   2  10    3.01    0.52
   8  -3 -10    1.82    0.41
   8  -3 -10    2.59    0.50
   8   3 -10    1.84    0.50
   8   3 -10    2.25    0.47
   8   3 -10    2.30    0.40
   7  -3 -10    2.69    0.45
   7  -3 -10    2.94    0.44
   7   3 -10    2.78    0.45
   7   3 -10    3.44    0.50
   6  -3 -10   12.17    0.70
   6  -3 -10   12.45    0.69
   6   3 -10   13.09    0.69
  -6   3  10   12.96    0.72
   6   3 -10   13.60    0.74
   5  -3 -10   19.12    0.80
   5  -3 -10   18.51    0.80
  -5  -3  10   20.21    0.87
   5   3 -10   16.98    0.77
   5   3 -10   18.69    0.77
  -5   3  10   19.27    0.82
   4  -3 -10   20.37    0.81
   4  -3 -10   20.99    0.80
  -4  -3  10   22.35    0.85
   4   3 -10   20.26    0.74
   4   3 -10   21.54    0.79
   4   3 -10   20.09    0.80
  -4   3  10   20.83    0.82
  -3  -3  10   19.50    0.74
   3  -3 -10   19.05    0.72
   3  -3 -10   19.16    0.71
   3  -3 -10   18.40    0.58
   3   3 -10   18.77    0.74
  -3   3  10   19.56    0.74
   3   3 -10   19.06    0.71
  -3   3  10   19.97    0.65
   3   3 -10   17.73    0.63
   3   3 -10   17.45    0.70
  -2  -3  10   30.82    0.96
   2  -3 -10   29.55    0.93
   2  -3 -10   31.28    0.99
   2  -3 -10   30.07    0.95
   2   3 -10   32.58    1.04
   2   3 -10   30.55    0.96
  -2   3  10   30.01    0.99
   2   3 -10   32.28    0.87
  -2   3  10   30.60    0.92
   2   3 -10   30.66    0.94
  -2   3  10   30.34    0.92
   1  -3 -10    8.58    0.46
  -1  -3  10    8.77    0.41
   1  -3 -10    8.34    0.40
   1  -3 -10    8.58    0.45
   1   3 -10   10.04    0.40
   1   3 -10    9.74    0.42
  -1   3  10    8.85    0.46
  -1   3  10    9.00    0.42
   0  -3  10   22.45    0.79
   0  -3 -10   23.27    0.81
   0  -3  10   23.13    0.80
   0  -3 -10   23.39    0.88
   0   3  10   23.51    0.78
   0   3  10   24.37    0.77
   0   3  10   25.29    0.88
   0   3 -10   23.63    0.75
   1  -3  10    1.57    0.26
  -1  -3 -10    1.80    0.33
   1  -3  10    2.19    0.28
   1   3  10    2.10    0.27
   1   3  10    2.14    0.32
  -1   3 -10    2.16    0.22
   1   3  10    2.39    0.29
   2  -3  10    6.37    0.42
   2  -3  10    6.08    0.37
  -2  -3 -10    6.52    0.50
   2   3  10    5.99    0.42
  -2   3 -10    6.48    0.35
   2   3  10    6.80    0.42
   3  -3  10    3.42    0.38
   3  -3  10    3.09    0.24
  -3  -3 -10    2.71    0.44
   3  -3  10    3.34    0.36
   3   3  10    2.76    0.35
  -3   3 -10    3.21    0.43
   3   3  10    3.55    0.37
   4  -3  10    0.11    0.18
  -4  -3 -10   -0.02    0.30
   4  -3  10    0.60    0.24
   4  -3  10    0.25    0.24
  -4   3 -10    0.46    0.29
  -4   3 -10    0.30    0.16
   4   3  10    0.23    0.23
   4   3  10    0.37    0.27
   5  -3  10    0.14    0.26
   5  -3  10    0.67    0.26
  -5   3 -10    0.90    0.23
   5   3  10    0.40    0.30
  -5   3 -10    0.39    0.30
   5   3  10    0.99    0.29
   6  -3  10   -0.25    0.29
   6  -3  10    0.59    0.30
   6   3  10    0.01    0.31
   6   3  10    0.08    0.26
   7  -4 -10    0.73    0.35
   7  -4 -10    0.99    0.33
   7   4 -10    0.46    0.35
   7   4 -10    0.85    0.36
   6  -4 -10    0.80    0.33
   6  -4 -10    1.35    0.33
  -6   4  10    0.97    0.34
   6   4 -10    0.67    0.32
   6   4 -10    1.07    0.33
   6   4 -10    0.72    0.28
   5  -4 -10    1.11    0.30
   5  -4 -10    1.20    0.30
  -5  -4  10    1.22    0.32
   5   4 -10    1.42    0.33
   5   4 -10    1.24    0.29
  -5   4  10    1.16    0.29
   4  -4 -10   13.02    0.64
  -4  -4  10   14.20    0.67
   4   4 -10   13.23    0.66
   4   4 -10   12.12    0.62
  -4   4  10   14.01    0.64
   4   4 -10   13.24    0.60
  -3  -4  10    0.24    0.20
   3  -4 -10   -0.01    0.17
   3  -4 -10    0.33    0.17
   3  -4 -10    0.16    0.12
   3   4 -10    0.35    0.20
   3   4 -10    0.17    0.20
   3   4 -10    0.46    0.19
  -3   4  10   -0.06    0.14
  -3   4  10    0.29    0.13
  -3   4  10    0.24    0.19
   2  -4 -10   14.11    0.60
   2  -4 -10   14.68    0.59
   2  -4 -10   14.52    0.60
  -2  -4  10   13.65    0.58
   2   4 -10   14.76    0.57
   2   4 -10   13.73    0.56
   2   4 -10   14.13    0.67
  -2   4  10   14.13    0.55
  -2   4  10   13.83    0.57
   1  -4 -10   14.33    0.59
  -1  -4  10   13.65    0.53
   1  -4 -10   12.98    0.61
  -1  -4  10   12.74    0.58
  -1   4  10   13.94    0.52
   1   4 -10   14.10    0.51
  -1   4  10   12.90    0.60
   1   4 -10   14.13    0.52
  -1   4  10   13.67    0.54
   0  -4  10    1.12    0.24
   0  -4  10    1.55    0.26
   0  -4 -10    0.90    0.26
   0  -4 -10    1.28    0.23
   0   4  10    1.49    0.25
   0   4  10    1.44    0.27
   0   4  10    1.17    0.24
   0   4 -10    1.45    0.18
   1  -4  10    1.58    0.24
   1  -4  10    1.61    0.27
  -1  -4 -10    1.32    0.32
  -1   4 -10    1.48    0.19
   1   4  10    1.24    0.34
   1   4  10    1.39    0.26
   1   4  10    1.25    0.23
   2  -4  10   29.48    1.03
  -2  -4 -10   28.46    1.18
   2  -4  10   30.14    1.02
  -2   4 -10   30.52    0.89
   2   4  10   30.32    1.04
   2   4  10   29.25    1.00
  -3  -4 -10   19.25    0.99
   3  -4  10   19.57    0.81
   3  -4  10   19.98    0.80
   3   4  10   19.10    0.83
   3   4  10   19.41    0.79
  -3   4 -10   19.61    0.67
   4  -4  10    5.87    0.51
  -4  -4 -10    6.41    0.68
   4  -4  10    6.65    0.51
   4   4  10    6.50    0.49
  -4   4 -10    6.45    0.40
   4   4  10    6.38    0.50
  -4   4 -10    5.83    0.61
   5  -4  10    0.67    0.30
   5  -4  10    1.00    0.32
   5   4  10    0.97    0.36
   5   4  10    1.10    0.32
   6  -4  10    0.22    0.32
   6  -4  10    0.39    0.32
   6   4  10    0.73    0.31
   6   4  10    0.65    0.37
   7  -5 -10    4.45    0.51
   7  -5 -10    6.13    0.62
   7   5 -10    6.72    0.61
   7   5 -10    5.50    0.64
   7   5 -10    5.23    0.58
   6  -5 -10    1.72    0.35
   6  -5 -10    2.11    0.36
   6   5 -10    1.42    0.34
   6   5 -10    2.42    0.44
   6   5 -10    0.91    0.32
  -6   5  10    1.54    0.37
   5  -5 -10    0.53    0.26
  -5  -5  10    0.60    0.28
   5  -5 -10    1.21    0.31
  -5   5  10    0.87    0.27
   5   5 -10    0.58    0.30
   4  -5 -10    0.94    0.28
  -4  -5  10    0.75    0.26
  -4   5  10    0.55    0.23
   4   5 -10    0.91    0.28
   3  -5 -10   16.51    0.64
   3  -5 -10   16.78    0.73
  -3  -5  10   16.22    0.69
   3  -5 -10   18.09    0.72
  -3   5  10   16.08    0.69
   3   5 -10   17.37    0.70
  -3   5  10   17.29    0.61
  -3   5  10   15.80    0.63
   2  -5 -10   38.88    1.18
   2  -5 -10   38.67    1.20
   2  -5 -10   36.74    1.18
  -2  -5  10   36.80    1.18
  -2  -5  10   37.50    1.12
  -2   5  10   36.12    1.18
   2   5 -10   36.55    1.13
  -2   5  10   36.01    1.10
   2   5 -10   37.28    1.11
   1  -5 -10   17.61    0.71
  -1  -5  10   17.53    0.71
  -1  -5  10   18.16    0.62
   1  -5 -10   17.49    0.76
  -1   5  10   16.09    0.62
  -1   5  10   16.32    0.73
  -1   5  10   16.21    0.65
   1   5 -10   17.94    0.61
   1   5 -10   17.99    0.63
   0  -5 -10   18.57    0.71
   0  -5  10   15.36    0.69
   0  -5 -10   15.93    0.78
   0   5  10   16.27    0.77
   0   5  10   17.01    0.66
   0   5 -10   17.06    0.56
   0   5  10   16.13    0.67
   1  -5  10   13.64    0.63
  -1  -5 -10   13.37    0.75
   1   5  10   12.74    0.61
   1   5  10   12.34    0.57
  -1   5 -10   13.25    0.46
   2  -5  10    6.56    0.48
   2  -5  10    5.90    0.42
  -2  -5 -10    6.49    0.61
   2   5  10    6.03    0.48
  -2   5 -10    6.57    0.32
   2   5  10    6.44    0.46
  -3  -5 -10    1.86    0.39
   3  -5  10    2.62    0.38
   3  -5  10    2.33    0.37
   3   5  10    1.73    0.36
   3   5  10    1.56    0.34
   4  -5  10    2.68    0.43
   4  -5  10    2.15    0.34
   4   5  10    2.36    0.40
   4   5  10    1.94    0.40
   5  -5  10    1.97    0.36
   5  -5  10    1.60    0.37
   5   5  10    2.17    0.45
   5   5  10    1.63    0.40
   6  -5  10    1.62    0.41
   6  -5  10    2.24    0.42
   6   5  10    2.66    0.45
   6   5  10    2.48    0.50
   7  -6 -10    0.17    0.28
   7  -6 -10    1.35    0.41
   7   6 -10    0.13    0.37
   7   6 -10    0.38    0.39
   7   6 -10    0.24    0.34
   6  -6 -10    1.02    0.32
   6  -6 -10    0.99    0.35
   6   6 -10    0.43    0.32
   6   6 -10    0.62    0.36
   5  -6 -10    2.50    0.42
  -5  -6  10    3.28    0.44
  -5   6  10    3.21    0.37
   5   6 -10    2.86    0.44
   4  -6 -10    6.02    0.46
  -4  -6  10    6.16    0.51
   4   6 -10    5.58    0.52
  -4   6  10    6.15    0.47
  -3  -6  10    9.77    0.52
   3  -6 -10    9.75    0.51
   3  -6 -10    8.06    0.55
  -3  -6  10    9.54    0.55
   3   6 -10    8.77    0.54
  -3   6  10    9.17    0.55
  -3   6  10    9.23    0.43
   2  -6 -10    4.30    0.43
   2  -6 -10    4.50    0.39
  -2  -6  10    4.70    0.44
   2  -6 -10    5.00    0.44
  -2  -6  10    4.89    0.36
  -2   6  10    4.85    0.38
   2   6 -10    3.77    0.32
   2   6 -10    4.59    0.36
  -2   6  10    4.74    0.33
  -2   6  10    4.68    0.40
   1  -6 -10    8.71    0.55
   1  -6 -10    8.06    0.57
  -1  -6  10    9.39    0.54
  -1  -6  10    8.98    0.40
  -1   6  10    9.51    0.50
  -1   6  10    8.59    0.64
   1   6 -10    8.82    0.41
   1   6 -10    9.33    0.45
  -1   6  10    7.95    0.45
   0  -6  10    3.32    0.39
   0  -6 -10    3.43    0.46
   0   6  10    3.75    0.41
   0   6 -10    3.20    0.23
   0   6  10    3.46    0.36
   1  -6  10    3.33    0.41
  -1  -6 -10    2.90    0.47
   1   6  10    4.06    0.39
   1   6  10    3.55    0.41
   2  -6  10    4.24    0.46
  -2  -6 -10    3.91    0.55
   2   6  10    3.52    0.44
   2   6  10    3.81    0.44
   3  -6  10    3.98    0.47
  -3  -6 -10    4.44    0.62
   3  -6  10    3.42    0.43
   3   6  10    3.89    0.49
   3   6  10    4.35    0.49
   4  -6  10    5.71    0.57
   4  -6  10    6.46    0.51
   4   6  10    6.04    0.62
   4   6  10    5.28    0.55
   5  -6  10    0.98    0.38
   5  -6  10    1.48    0.40
   5   6  10    1.62    0.40
   5   6  10    1.66    0.44
   6  -7 -10    1.50    0.41
   6  -7 -10    1.54    0.37
   6   7 -10    1.94    0.46
   6   7 -10    1.79    0.45
   6   7 -10    1.57    0.39
  -5  -7  10    0.88    0.33
   5  -7 -10    0.10    0.29
   5   7 -10    0.37    0.32
   4  -7 -10    0.46    0.24
  -4  -7  10   -0.22    0.25
  -4  -7  10   -0.16    0.25
   4   7 -10   -0.44    0.23
   3  -7 -10    1.84    0.31
  -3  -7  10    2.44    0.31
   3  -7 -10    2.72    0.40
  -3  -7  10    2.11    0.34
   3   7 -10    2.58    0.36
  -2  -7  10    2.44    0.27
   2  -7 -10    2.53    0.37
  -2  -7  10    2.59    0.38
   2  -7 -10    2.37    0.39
  -2   7  10    3.01    0.32
  -2   7  10    3.27    0.35
   2   7 -10    2.82    0.33
  -1  -7  10    3.24    0.29
  -1  -7  10    3.01    0.36
   1  -7 -10    2.66    0.42
  -1   7  10    2.10    0.32
  -1   7  10    2.76    0.34
   1   7 -10    3.31    0.33
   0  -7 -10   15.49    0.85
   0  -7  10   15.06    0.70
   0   7  10   16.27    0.69
   0   7  10   15.54    0.71
  -1  -7 -10    8.36    0.71
   1  -7  10    9.84    0.61
   1   7  10   10.19    0.58
   1   7  10    9.68    0.63
  -2  -7 -10    3.26    0.51
   2  -7  10    3.42    0.45
   2   7  10    3.17    0.44
   2   7  10    3.01    0.45
   3  -7  10    1.87    0.39
   3   7  10    1.72    0.42
   3   7  10    2.35    0.42
   4  -7  10    3.47    0.51
   4   7  10    3.37    0.51
   4   7  10    3.92    0.56
   5  -7  10    0.21    0.36
   5   7  10   -0.59    0.31
   5   7  10   -0.29    0.37
   5  -8 -10    0.71    0.34
  -5  -8  10    1.22    0.34
   5   8 -10    0.94    0.37
   5   8 -10    1.35    0.42
   4  -8 -10    1.75    0.40
  -4  -8  10    1.06    0.35
   4   8 -10    1.13    0.36
  -3  -8  10    2.21    0.38
   3  -8 -10    1.91    0.39
   3   8 -10    2.56    0.38
   2  -8 -10    3.96    0.49
   2  -8 -10    4.64    0.52
  -2  -8  10    4.63    0.48
  -2   8  10    4.36    0.40
   2   8 -10    3.30    0.39
  -1  -8  10    4.28    0.46
   1  -8 -10    3.59    0.50
   1   8 -10    3.64    0.37
  -1   8  10    3.99    0.41
  -1   8  10    3.55    0.38
   0  -8 -10    6.83    0.66
   0  -8  10    7.81    0.58
   0   8  10    8.19    0.54
   0   8  10    7.01    0.52
   1  -8  10    0.32    0.29
   1   8  10    0.85    0.32
   1   8  10    0.83    0.30
   2  -8  10    3.36    0.47
   2   8  10    3.37    0.47
   2   8  10    2.43    0.45
   3  -8  10    6.06    0.62
   3   8  10    6.06    0.65
   3   8  10    5.20    0.59
   4  -8  10    1.23    0.42
   4   8  10    0.53    0.38
   4   8  10    0.93    0.43
   5  -9 -10    0.79    0.38
   5   9 -10    0.36    0.35
   5   9 -10    0.54    0.41
  -4  -9  10    0.40    0.33
   4  -9 -10    0.32    0.32
   4   9 -10    0.37    0.39
   4   9 -10   -0.01    0.30
   3  -9 -10    0.32    0.31
  -3  -9  10    0.19    0.32
   3   9 -10    0.19    0.29
   2  -9 -10    0.45    0.35
   2  -9 -10    0.04    0.32
  -2  -9  10    0.08    0.28
  -2   9  10    0.51    0.24
   2   9 -10    0.53    0.25
  -1  -9  10    1.83    0.39
   1  -9 -10    1.67    0.46
   1   9 -10    1.70    0.30
  -1   9  10    1.80    0.32
  -1   9  10    1.45    0.32
   0  -9  10    1.85    0.39
   0   9  10    1.91    0.38
   0   9  10    1.95    0.38
   1  -9  10    7.92    0.64
   1   9  10    9.71    0.64
   1   9  10    7.13    0.67
   2  -9  10    1.01    0.38
   2   9  10    1.35    0.43
   2   9  10    1.74    0.42
   3  -9  10    0.04    0.33
   3   9  10   -0.28    0.32
   3   9  10    0.30    0.40
   3 -10 -10    0.38    0.35
  -3 -10  10    0.33    0.31
   3  10 -10    0.19    0.33
   3  10 -10    0.65    0.37
  -2 -10  10    0.57    0.33
   2 -10 -10    0.04    0.33
   2  10 -10    0.46    0.34
   2  10 -10    0.64    0.30
  -1 -10  10   -0.31    0.28
  -1  10  10    0.77    0.34
  -1  10  10    0.01    0.22
   0 -10  10    0.69    0.35
   0  10  10    1.20    0.33
   0  10  10    0.86    0.38
   1 -10  10    1.79    0.44
   1  10  10    1.48    0.46
   1  10  10    1.57    0.44
   2 -10  10    1.89    0.47
   2  10  10    1.44    0.46
   2  10  10    1.99    0.50
   8   0 -11    5.49    0.59
   8   0 -11    4.53    0.58
   7   0 -11    3.62    0.49
   7   0 -11    3.52    0.48
   6   0 -11    2.52    0.40
  -6   0  11    2.58    0.41
   6   0 -11    3.15    0.41
   5   0 -11    6.35    0.48
   5   0 -11    6.68    0.46
  -5   0  11    6.12    0.52
   4   0 -11   40.54    1.06
   4   0 -11   46.98    1.37
   4   0 -11   41.17    1.05
  -4   0  11   45.38    1.38
   4   0 -11   49.86    1.33
  -3   0  11   36.19    1.14
   3   0 -11   35.32    1.03
   3   0 -11   34.55    1.09
   3   0 -11   35.67    0.97
   3   0 -11   35.10    1.12
   2   0 -11   29.76    0.96
   2   0 -11   28.88    0.92
   2   0 -11   30.76    0.85
   2   0 -11   29.58    0.90
  -2   0  11   30.28    0.97
  -1   0  11   11.59    0.50
   1   0 -11   11.29    0.51
   1   0 -11   11.21    0.52
  -1   0  11   11.06    0.47
  -1   0  11   11.59    0.46
   1   0 -11   11.65    0.37
   0   0  11   15.73    0.59
   0   0 -11   15.88    0.61
   0   0  11   15.45    0.59
   0   0 -11   16.01    0.67
  -1   0 -11    0.02    0.19
   1   0  11    0.16    0.17
   1   0  11    0.03    0.12
  -1   0 -11    0.18    0.15
   1   0  11    0.07    0.15
  -2   0 -11    0.12    0.18
   2   0  11    0.52    0.19
   2   0  11    0.13    0.13
   2   0  11    0.51    0.18
   3   0  11    1.82    0.29
  -3   0 -11    1.76    0.33
   3   0  11    1.69    0.28
   3   0  11    1.50    0.23
   4   0  11   -0.20    0.16
   4   0  11   -0.06    0.17
   4   0  11    0.01    0.24
  -4   0 -11   -0.01    0.29
   5   0  11    0.06    0.26
   5   0  11   -0.02    0.18
   5   0  11   -0.14    0.18
  -5   0 -11    0.03    0.30
  -5   0 -11    0.27    0.24
   6   0  11    0.23    0.35
   7   0  11    7.07    0.71
   8  -1 -11    0.49    0.36
   8  -1 -11    1.17    0.40
   8   1 -11    0.09    0.35
   8   1 -11    0.73    0.39
   7  -1 -11    0.31    0.28
   7  -1 -11   -0.10    0.28
   7   1 -11    0.50    0.33
   7   1 -11    0.20    0.29
   6  -1 -11    1.45    0.34
   6  -1 -11    1.07    0.32
  -6  -1  11    1.32    0.37
   6   1 -11    1.39    0.34
   6   1 -11    1.24    0.32
  -6   1  11    1.05    0.34
   5  -1 -11   26.60    0.97
   5  -1 -11   26.02    0.97
  -5  -1  11   27.14    1.04
   5   1 -11   26.16    0.99
   5   1 -11   26.38    0.95
  -5   1  11   27.61    1.04
  -4  -1  11   21.53    0.85
   4  -1 -11   19.57    0.76
   4  -1 -11   19.75    0.80
   4   1 -11   20.23    0.80
   4   1 -11   22.44    0.65
  -4   1  11   22.77    0.86
   4   1 -11   19.42    0.73
   3  -1 -11    1.91    0.27
   3  -1 -11    1.52    0.23
   3  -1 -11    1.92    0.26
   3  -1 -11    2.04    0.17
  -3  -1  11    1.56    0.27
  -3   1  11    2.28    0.30
   3   1 -11    1.70    0.26
   3   1 -11    2.03    0.23
   3   1 -11    2.27    0.23
   3   1 -11    1.95    0.26
   2  -1 -11   12.85    0.57
   2  -1 -11   13.38    0.48
  -2  -1  11   14.01    0.58
   2  -1 -11   14.17    0.52
  -2   1  11   12.80    0.58
   2   1 -11   13.59    0.46
   2   1 -11   13.72    0.54
   2   1 -11   13.08    0.56
  -1  -1  11   60.30    1.58
   1  -1 -11   61.14    1.52
   1  -1 -11   60.09    1.64
  -1  -1  11   58.37    1.62
   1  -1 -11   58.82    1.65
  -1   1  11   60.81    1.61
   1   1 -11   58.21    1.56
   1   1 -11   59.38    1.63
  -1   1  11   58.97    1.64
   0  -1 -11   24.28    0.89
   0  -1  11   25.49    0.82
   0  -1  11   25.76    0.82
   0  -1 -11   24.99    0.85
   0   1  11   25.80    0.82
   0   1 -11   24.95    0.82
   0   1 -11   24.69    0.89
   0   1  11   26.21    0.82
   1  -1  11   34.71    1.02
  -1  -1 -11   33.15    1.07
   1  -1  11   35.15    1.06
  -1  -1 -11   34.23    1.17
   1  -1  11   31.95    0.99
  -1   1 -11   34.26    1.17
  -1   1 -11   32.46    1.02
   1   1  11   34.37    1.05
   1   1  11   32.92    1.03
   1   1  11   35.00    0.97
   2  -1  11   20.80    0.71
   2  -1  11   19.82    0.77
  -2  -1 -11   20.38    0.90
   2  -1  11   21.47    0.73
   2   1  11   20.36    0.74
   2   1  11   20.01    0.65
   2   1  11   19.50    0.75
  -2   1 -11   20.81    0.88
   3  -1  11    7.90    0.42
   3  -1  11    7.96    0.43
   3  -1  11    8.42    0.52
  -3  -1 -11    8.06    0.62
   3   1  11    7.89    0.45
   3   1  11    8.97    0.38
  -3   1 -11    8.10    0.60
   3   1  11    8.06    0.51
   4  -1  11    0.83    0.24
   4  -1  11    0.61    0.28
  -4  -1 -11    0.66    0.34
   4  -1  11    0.84    0.24
   4   1  11    0.84    0.18
   4   1  11    0.68    0.25
  -4   1 -11    0.78    0.29
   4   1  11    0.74    0.23
   5  -1  11    1.22    0.26
  -5  -1 -11    1.73    0.39
   5  -1  11    1.31    0.27
   5  -1  11    1.10    0.32
   5  -1  11    1.22    0.27
   5   1  11    1.26    0.29
  -5   1 -11    1.33    0.30
   5   1  11    1.96    0.38
  -5   1 -11    1.16    0.39
   6  -1  11   -0.40    0.31
   6  -1  11    0.14    0.21
   6   1  11    0.21    0.22
   6   1  11    0.26    0.32
   8  -2 -11    0.22    0.33
   8  -2 -11    0.63    0.37
   8   2 -11    0.93    0.40
   8   2 -11    0.19    0.36
   8   2 -11    0.34    0.29
   7  -2 -11    2.66    0.45
   7  -2 -11    2.63    0.43
   7   2 -11    2.52    0.43
   7   2 -11    2.19    0.46
   6  -2 -11    0.50    0.29
   6  -2 -11    0.34    0.25
   6   2 -11    0.35    0.27
  -6   2  11    0.11    0.28
   6   2 -11    0.21    0.30
   5  -2 -11    5.83    0.46
  -5  -2  11    6.55    0.54
   5  -2 -11    5.46    0.49
   5   2 -11    4.98    0.45
   5   2 -11    5.32    0.50
  -5   2  11    5.25    0.48
  -4  -2  11    9.08    0.57
   4  -2 -11    8.57    0.52
   4  -2 -11    9.31    0.51
   4   2 -11   10.31    0.50
   4   2 -11   10.32    0.46
   4   2 -11   10.05    0.51
  -4   2  11   10.28    0.57
   3  -2 -11   20.06    0.71
   3  -2 -11   19.29    0.75
  -3  -2  11   19.44    0.76
   3  -2 -11   19.00    0.58
   3   2 -11   19.66    0.66
   3   2 -11   19.74    0.71
  -3   2  11   19.51    0.76
   3   2 -11   20.45    0.76
   3   2 -11   18.61    0.72
   2  -2 -11    7.89    0.39
   2  -2 -11    7.66    0.44
  -2  -2  11    7.83    0.44
   2  -2 -11    9.16    0.41
   2   2 -11    7.62    0.42
  -2   2  11    8.50    0.40
  -2   2  11    9.03    0.47
   2   2 -11    8.50    0.44
  -1  -2  11   23.63    0.79
   1  -2 -11   23.86    0.75
   1  -2 -11   24.89    0.85
   1  -2 -11   26.20    0.86
  -1  -2  11   24.32    0.82
  -1   2  11   23.85    0.83
   1   2 -11   24.61    0.81
  -1   2  11   23.76    0.79
   1   2 -11   24.77    0.76
   0  -2  11    9.39    0.46
   0  -2  11    8.41    0.43
   0  -2 -11    9.41    0.53
   0  -2 -11    9.21    0.48
   0   2  11   10.42    0.52
   0   2  11   10.92    0.46
   0   2 -11    9.07    0.43
   0   2  11   10.70    0.45
   1  -2  11   12.73    0.59
   1  -2  11   14.16    0.58
  -1  -2 -11   14.41    0.70
   1   2  11   14.55    0.68
   1   2  11   15.22    0.49
   1   2  11   13.56    0.57
   1   2  11   13.68    0.58
  -1   2 -11   14.47    0.56
  -2  -2 -11    0.61    0.29
   2  -2  11    0.67    0.21
   2  -2  11    0.55    0.19
   2  -2  11    0.38    0.21
   2   2  11    0.70    0.23
   2   2  11    0.59    0.12
  -2   2 -11    0.27    0.19
  -2   2 -11    0.41    0.16
   2   2  11    0.43    0.20
   3  -2  11   21.60    0.74
  -3  -2 -11   20.39    0.99
   3  -2  11   22.22    0.79
   3  -2  11   21.19    0.85
   3   2  11   21.02    0.85
  -3   2 -11   22.44    0.96
   3   2  11   21.45    0.81
  -4  -2 -11   11.43    0.78
   4  -2  11   10.17    0.54
   4  -2  11   10.51    0.62
   4  -2  11   10.81    0.50
  -4   2 -11   11.33    0.74
   4   2  11    9.99    0.61
   4   2  11    9.24    0.54
   5  -2  11    1.16    0.34
   5  -2  11    1.59    0.33
   5   2  11    0.77    0.33
  -5   2 -11    1.32    0.26
   5   2  11    1.70    0.32
   6  -2  11    3.06    0.49
   6  -2  11    3.40    0.43
   6   2  11    2.65    0.47
   6   2  11    2.42    0.37
   8  -3 -11    3.29    0.51
   8  -3 -11    2.51    0.50
   8   3 -11    3.71    0.50
   8   3 -11    2.55    0.54
   8   3 -11    3.67    0.57
   7  -3 -11    0.33    0.31
   7  -3 -11    0.28    0.26
   7   3 -11   -0.03    0.31
   7   3 -11    0.39    0.31
   6  -3 -11   11.71    0.68
   6  -3 -11   10.58    0.65
   6   3 -11   10.50    0.64
   6   3 -11   11.89    0.66
  -6   3  11   12.14    0.71
  -5  -3  11    1.02    0.27
   5  -3 -11    1.08    0.29
   5  -3 -11    1.01    0.29
   5   3 -11    0.99    0.27
   5   3 -11    1.22    0.32
  -5   3  11    1.35    0.32
   4  -3 -11   19.54    0.77
   4  -3 -11   18.96    0.79
  -4  -3  11   21.27    0.84
  -4   3  11   18.49    0.79
   4   3 -11   18.50    0.78
   4   3 -11   18.63    0.74
   4   3 -11   19.45    0.71
   3  -3 -11    5.20    0.28
   3  -3 -11    4.99    0.37
  -3  -3  11    5.16    0.41
  -3   3  11    4.64    0.33
   3   3 -11    5.08    0.38
   3   3 -11    5.38    0.38
   3   3 -11    4.07    0.30
  -3   3  11    5.10    0.37
   3   3 -11    4.77    0.45
  -2  -3  11    1.47    0.23
   2  -3 -11    1.66    0.26
   2  -3 -11    1.39    0.23
   2  -3 -11    1.41    0.22
   2   3 -11    1.44    0.23
  -2   3  11    1.60    0.26
   2   3 -11    1.83    0.25
  -2   3  11    1.56    0.21
   2   3 -11    1.90    0.28
  -2   3  11    2.00    0.24
   1  -3 -11    5.15    0.40
   1  -3 -11    5.09    0.37
   1  -3 -11    4.75    0.33
  -1  -3  11    4.45    0.34
  -1   3  11    4.93    0.35
  -1   3  11    4.81    0.33
   1   3 -11    5.00    0.31
   1   3 -11    4.38    0.31
  -1   3  11    5.32    0.31
   0  -3 -11   44.35    1.31
   0  -3  11   43.09    1.29
   0  -3  11   42.32    1.27
   0  -3 -11   44.63    1.39
   0   3  11   42.82    1.35
   0   3  11   44.39    1.25
   0   3  11   42.43    1.26
   0   3 -11   42.59    1.22
   1  -3  11   14.04    0.62
   1  -3  11   14.70    0.62
  -1  -3 -11   14.87    0.74
   1   3  11   14.47    0.61
   1   3  11   14.17    0.69
  -1   3 -11   14.39    0.55
   1   3  11   14.06    0.60
   2  -3  11   23.18    0.83
   2  -3  11   24.25    0.88
  -2  -3 -11   21.71    0.97
  -2   3 -11   23.44    0.78
   2   3  11   23.24    0.87
   2   3  11   25.29    0.87
  -3  -3 -11    7.03    0.58
   3  -3  11    7.55    0.48
   3  -3  11    7.71    0.51
   3   3  11    7.62    0.52
  -3   3 -11    7.79    0.61
   3   3  11    7.10    0.48
  -4  -3 -11    1.87    0.40
   4  -3  11    1.74    0.31
   4  -3  11    1.87    0.36
  -4   3 -11    1.64    0.39
   4   3  11    1.83    0.33
   4   3  11    2.13    0.34
  -4   3 -11    2.17    0.30
   5  -3  11    0.98    0.33
   5  -3  11    0.66    0.29
   5   3  11    1.58    0.39
  -5   3 -11    1.09    0.29
   5   3  11    0.91    0.30
   6  -3  11    1.17    0.36
   6  -3  11    1.49    0.36
   6   3  11    1.63    0.43
   6   3  11    0.81    0.31
   7  -4 -11    1.81    0.42
   7  -4 -11    0.66    0.32
   7   4 -11    1.21    0.41
   7   4 -11    1.37    0.38
   6  -4 -11    7.61    0.60
   6  -4 -11    6.90    0.55
   6   4 -11    6.74    0.60
   6   4 -11    7.45    0.61
  -6   4  11    6.91    0.58
  -5  -4  11    1.35    0.33
   5  -4 -11    1.38    0.32
   5  -4 -11    2.15    0.37
   5   4 -11    2.05    0.33
  -5   4  11    1.80    0.34
   5   4 -11    1.73    0.35
   4  -4 -11   15.45    0.70
  -4  -4  11   16.02    0.73
  -4   4  11   15.10    0.70
   4   4 -11   13.97    0.61
   4   4 -11   15.31    0.70
   4   4 -11   15.30    0.71
  -3  -4  11    9.10    0.52
   3  -4 -11   10.27    0.43
   3  -4 -11    8.92    0.51
  -3   4  11    9.26    0.41
  -3   4  11    9.04    0.44
  -3   4  11    8.93    0.51
   3   4 -11    9.49    0.55
   3   4 -11    9.94    0.52
   2  -4 -11   80.52    2.21
   2  -4 -11   83.81    2.23
  -2  -4  11   84.13    2.20
   2  -4 -11   83.36    2.25
   2   4 -11   82.57    2.20
  -2   4  11   84.44    2.21
  -2   4  11   83.44    2.17
   2   4 -11   85.92    2.35
   2   4 -11   84.09    2.19
   1  -4 -11    3.68    0.36
  -1  -4  11    3.83    0.32
   1  -4 -11    4.17    0.41
  -1  -4  11    4.59    0.40
  -1   4  11    4.02    0.31
  -1   4  11    4.00    0.37
   1   4 -11    3.88    0.30
  -1   4  11    4.14    0.30
   1   4 -11    3.69    0.29
   0  -4 -11    6.53    0.47
   0  -4 -11    5.96    0.48
   0  -4  11    5.37    0.40
   0  -4  11    5.90    0.42
   0   4  11    5.56    0.36
   0   4 -11    5.60    0.33
   0   4  11    5.57    0.44
   0   4  11    5.73    0.38
  -1  -4 -11    0.25    0.27
   1  -4  11    0.18    0.20
   1  -4  11    0.26    0.17
  -1   4 -11    0.36    0.15
   1   4  11   -0.01    0.20
   1   4  11    0.39    0.21
  -2  -4 -11    3.94    0.48
   2  -4  11    3.78    0.40
   2  -4  11    4.43    0.44
   2   4  11    3.87    0.39
  -2   4 -11    4.04    0.31
   2   4  11    3.87    0.40
  -3  -4 -11    0.43    0.34
   3  -4  11    1.08    0.30
   3  -4  11    0.60    0.21
   3   4  11    0.77    0.25
   3   4  11    0.38    0.25
  -3   4 -11    0.29    0.16
  -4  -4 -11    5.25    0.71
   4  -4  11    4.64    0.50
   4  -4  11    4.62    0.48
   4   4  11    4.73    0.53
   4   4  11    4.40    0.47
  -4   4 -11    4.63    0.59
   5  -4  11    2.73    0.44
   5  -4  11    1.91    0.38
   5   4  11    2.37    0.40
   5   4  11    2.25    0.44
   6  -4  11    0.60    0.32
   6  -4  11    0.12    0.34
   6   4  11    0.31    0.30
   6   4  11    0.57    0.39
   7  -5 -11    3.97    0.55
   7  -5 -11    4.66    0.56
   7   5 -11    3.47    0.52
   7   5 -11    3.74    0.58
   6  -5 -11    0.94    0.32
   6  -5 -11    0.96    0.35
   6   5 -11    1.25    0.38
  -6   5  11    1.26    0.32
   5  -5 -11    7.37    0.54
  -5  -5  11    8.89    0.62
   5  -5 -11    7.70    0.57
   5   5 -11    8.73    0.59
  -5   5  11    7.46    0.54
   4  -5 -11    4.56    0.46
  -4  -5  11    4.26    0.43
  -4   5  11    5.10    0.43
   4   5 -11    3.54    0.43
  -3  -5  11    5.29    0.42
   3  -5 -11    5.38    0.36
   3  -5 -11    5.79    0.45
  -3   5  11    4.93    0.34
  -3   5  11    5.41    0.36
   3   5 -11    5.76    0.41
   2  -5 -11    3.48    0.36
  -2  -5  11    3.52    0.34
   2  -5 -11    3.25    0.37
  -2  -5  11    3.26    0.39
   2   5 -11    3.89    0.34
  -2   5  11    3.31    0.26
  -2   5  11    3.94    0.35
   2   5 -11    4.35    0.38
  -2   5  11    4.39    0.38
   1  -5 -11    4.70    0.44
  -1  -5  11    5.56    0.44
  -1  -5  11    5.49    0.35
   1   5 -11    5.19    0.34
   1   5 -11    6.21    0.35
  -1   5  11    6.39    0.39
  -1   5  11    4.75    0.42
  -1   5  11    5.77    0.37
   0  -5 -11    0.37    0.26
   0  -5  11    0.46    0.20
   0   5 -11    0.37    0.15
   0   5  11    0.55    0.23
   0   5  11    0.57    0.22
   1  -5  11    6.39    0.43
  -1  -5 -11    6.67    0.59
   1  -5  11    6.17    0.46
   1   5  11    7.14    0.46
  -1   5 -11    7.11    0.34
   1   5  11    7.25    0.47
  -2  -5 -11    4.78    0.57
   2  -5  11    5.46    0.49
   2  -5  11    4.93    0.48
   2   5  11    5.92    0.48
   2   5  11    5.72    0.49
  -3  -5 -11    4.54    0.57
   3  -5  11    5.20    0.52
   3  -5  11    4.68    0.48
   3   5  11    5.52    0.49
   3   5  11    5.02    0.50
   4  -5  11    1.26    0.30
   4  -5  11    1.61    0.36
   4   5  11    1.24    0.35
   4   5  11    1.49    0.38
   5  -5  11    2.16    0.42
   5  -5  11    2.48    0.46
   5   5  11    2.11    0.47
   5   5  11    2.72    0.44
   6  -5  11    0.19    0.29
   6  -5  11    0.16    0.32
   6   5  11    0.56    0.34
   6   5  11    0.20    0.42
   7  -6 -11    0.34    0.36
   6  -6 -11    0.03    0.30
   6  -6 -11    0.08    0.28
   6   6 -11    0.43    0.35
   5  -6 -11   -0.05    0.26
  -5  -6  11    0.22    0.32
   5   6 -11    0.22    0.29
  -5   6  11    0.30    0.24
  -4  -6  11    2.22    0.38
   4  -6 -11    2.11    0.37
  -4   6  11    1.86    0.31
   4   6 -11    1.48    0.34
  -3  -6  11    3.05    0.40
  -3  -6  11    3.74    0.39
   3  -6 -11    2.85    0.32
   3  -6 -11    3.05    0.41
   3   6 -11    2.87    0.37
  -3   6  11    3.06    0.31
   2  -6 -11    5.68    0.46
  -2  -6  11    4.96    0.40
  -2  -6  11    5.53    0.37
   2  -6 -11    5.43    0.50
   2   6 -11    5.57    0.38
  -2   6  11    5.53    0.36
   2   6 -11    5.35    0.41
  -2   6  11    6.08    0.45
  -2   6  11    5.83    0.37
  -1  -6  11   45.27    1.43
  -1  -6  11   46.81    1.30
   1  -6 -11   46.78    1.53
   1   6 -11   45.12    1.31
  -1   6  11   45.40    1.37
  -1   6  11   46.06    1.35
   1   6 -11   47.27    1.29
   0  -6  11   24.95    0.96
   0  -6 -11   24.61    1.07
   0   6  11   25.11    0.91
   0   6  11   23.72    0.90
   0   6 -11   27.24    0.85
   1  -6  11   16.53    0.77
  -1  -6 -11   17.28    0.93
   1   6  11   17.76    0.77
   1   6  11   16.42    0.74
   2  -6  11    1.35    0.33
  -2  -6 -11    1.69    0.45
   2   6  11    1.42    0.35
   2   6  11    1.66    0.33
   3  -6  11    5.39    0.55
   3  -6  11    4.84    0.52
   3   6  11    4.75    0.51
   3   6  11    5.16    0.55
   4  -6  11    1.80    0.36
   4  -6  11    2.75    0.45
   4   6  11    2.05    0.41
   4   6  11    2.50    0.46
   5  -6  11    4.29    0.55
   5  -6  11    4.15    0.53
   5   6  11    4.71    0.62
   5   6  11    5.24    0.59
   6  -7 -11    1.79    0.43
   6  -7 -11    1.52    0.38
   6   7 -11    1.58    0.44
  -5  -7  11    0.97    0.37
   5  -7 -11    1.27    0.38
   5   7 -11    1.29    0.39
  -4  -7  11    6.29    0.54
   4  -7 -11    5.31    0.56
  -4  -7  11    6.22    0.56
   4   7 -11    5.86    0.55
   3  -7 -11    0.76    0.30
  -3  -7  11    0.56    0.25
  -3  -7  11    0.77    0.29
   3   7 -11    0.49    0.25
  -2  -7  11    7.03    0.42
   2  -7 -11    6.62    0.55
  -2  -7  11    7.46    0.49
   2  -7 -11    6.16    0.48
   2   7 -11    7.56    0.48
  -2   7  11    7.31    0.45
  -1  -7  11    2.23    0.37
   1  -7 -11    2.28    0.41
  -1   7  11    2.80    0.34
  -1   7  11    2.17    0.33
   1   7 -11    2.07    0.28
   0  -7  11    1.76    0.34
   0  -7 -11    1.61    0.39
   0   7  11    1.75    0.32
   0   7  11    2.03    0.32
   1  -7  11    1.99    0.37
  -1  -7 -11    1.32    0.42
   1   7  11    2.20    0.38
   1   7  11    2.63    0.38
   2  -7  11    7.37    0.58
   2   7  11    6.92    0.58
   2   7  11    8.35    0.59
   3  -7  11    3.21    0.47
   3   7  11    2.72    0.49
   3   7  11    3.60    0.50
   4  -7  11    1.85    0.43
   4   7  11    0.93    0.42
   4   7  11    1.33    0.42
   5  -7  11    2.62    0.48
   5   7  11    0.92    0.41
   5   7  11    1.01    0.45
  -5  -8  11    0.63    0.34
   5  -8 -11    0.72    0.35
   5   8 -11    0.68    0.36
  -4  -8  11    1.64    0.36
   4  -8 -11    1.08    0.39
   4   8 -11    2.05    0.40
  -3  -8  11    0.94    0.32
   3  -8 -11    0.30    0.25
   3   8 -11    0.88    0.29
  -2  -8  11    2.78    0.42
   2  -8 -11    2.70    0.45
   2  -8 -11    2.28    0.40
  -2   8  11    2.68    0.34
   2   8 -11    2.38    0.34
  -1  -8  11    0.87    0.33
   1  -8 -11    1.19    0.37
  -1   8  11    0.98    0.27
  -1   8  11    0.83    0.30
   1   8 -11    1.27    0.26
   0  -8  11    0.87    0.32
   0  -8 -11    0.32    0.35
   0   8  11    0.69    0.29
   0   8  11    1.19    0.31
   1  -8  11    1.44    0.38
   1   8  11    1.24    0.34
   1   8  11    0.76    0.32
   2  -8  11    0.29    0.32
   2   8  11   -0.26    0.27
   2   8  11    0.36    0.37
   3  -8  11    0.74    0.37
   3   8  11    0.16    0.34
   3   8  11    0.30    0.37
   4  -8  11    0.34    0.36
   4   8  11    0.21    0.39
   4   8  11    0.49    0.38
   4  -9 -11   -0.29    0.29
  -4  -9  11   -0.08    0.30
   4   9 -11    0.06    0.30
  -3  -9  11    2.41    0.44
   3  -9 -11    1.71    0.41
   3   9 -11    2.27    0.42
   2  -9 -11    0.46    0.28
  -2  -9  11    0.75    0.34
   2   9 -11   -0.14    0.20
  -2   9  11    0.06    0.19
  -1  -9  11   -0.22    0.28
  -1   9  11   -0.08    0.23
  -1   9  11   -0.38    0.23
   0  -9  11    0.76    0.35
   0   9  11    0.46    0.28
   0   9  11    0.94    0.37
   1  -9  11    2.24    0.44
   1   9  11    2.46    0.43
   1   9  11    2.38    0.44
   2  -9  11    1.10    0.39
   2   9  11    1.16    0.40
   2   9  11    1.63    0.44
   3  -9  11    1.81    0.44
   3   9  11    1.78    0.49
   3   9  11    1.58    0.46
  -3 -10  11    1.26    0.39
   3 -10 -11    0.98    0.39
   3  10 -11    0.40    0.36
   3  10 -11    0.74    0.33
  -2 -10  11    0.59    0.40
   2 -10 -11    1.10    0.40
   2  10 -11    0.68    0.29
  -1 -10  11    1.57    0.40
  -1  10  11    1.23    0.37
  -1  10  11    0.77    0.31
   0 -10  11    3.01    0.48
   0  10  11    2.91    0.44
   0  10  11    2.11    0.43
   1 -10  11    0.28    0.35
   1  10  11    0.82    0.35
   1  10  11    0.51    0.35
   2  10  11    0.65    0.42
   8   0 -12    0.42    0.35
   8   0 -12   -0.07    0.31
   7   0 -12    1.00    0.35
   7   0 -12    0.95    0.38
   6   0 -12    2.89    0.40
   6   0 -12    3.59    0.46
   5   0 -12    0.75    0.28
  -5   0  12    1.19    0.32
   5   0 -12    0.54    0.24
   4   0 -12   32.58    1.12
  -4   0  12   35.38    1.18
   4   0 -12   32.54    1.05
   4   0 -12   35.41    0.88
   4   0 -12   33.12    0.86
   3   0 -12   18.05    0.59
   3   0 -12   16.78    0.69
   3   0 -12   17.40    0.62
  -3   0  12   17.32    0.73
   2   0 -12    0.17    0.16
  -2   0  12   -0.01    0.18
   2   0 -12    0.08    0.16
   2   0 -12    0.16    0.13
   2   0 -12   -0.03    0.10
  -1   0  12    7.96    0.37
   1   0 -12    7.50    0.29
   1   0 -12    7.59    0.43
  -1   0  12    7.19    0.40
  -1   0  12    7.26    0.43
   1   0 -12    7.68    0.43
   0   0 -12    9.49    0.52
   0   0  12    8.21    0.43
   0   0  12    8.37    0.43
   0   0 -12    8.01    0.45
   1   0  12   10.99    0.47
   1   0  12   11.05    0.50
   1   0  12   10.57    0.52
  -1   0 -12   11.16    0.53
  -1   0 -12   10.57    0.61
  -2   0 -12   25.01    1.03
   2   0  12   24.97    0.86
   2   0  12   25.61    0.81
   2   0  12   23.48    0.89
   3   0  12    0.25    0.24
  -3   0 -12    0.94    0.33
   3   0  12    0.30    0.18
   3   0  12    0.56    0.22
   4   0  12    0.98    0.26
  -4   0 -12    1.41    0.35
   4   0  12    0.92    0.23
   4   0  12    0.94    0.27
   5   0  12    0.51    0.33
  -5   0 -12    0.50    0.34
   5   0  12    0.30    0.25
   6   0  12    1.37    0.42
   8  -1 -12    0.34    0.36
   8  -1 -12    0.54    0.35
   8   1 -12    0.83    0.40
   8   1 -12    0.76    0.38
   7  -1 -12    1.92    0.40
   7  -1 -12    2.24    0.43
   7   1 -12    2.04    0.41
   7   1 -12    2.65    0.46
   6  -1 -12    0.41    0.29
   6  -1 -12    0.34    0.27
   6   1 -12    0.52    0.25
   6   1 -12    0.12    0.25
  -5  -1  12    8.88    0.62
   5  -1 -12   10.06    0.60
   5  -1 -12    9.65    0.55
   5   1 -12   10.06    0.54
  -5   1  12   10.39    0.64
   5   1 -12   10.43    0.61
   4  -1 -12   48.21    1.40
   4  -1 -12   45.89    1.43
  -4  -1  12   49.05    1.48
   4   1 -12   45.59    1.26
  -4   1  12   46.06    1.45
   4   1 -12   46.05    1.42
   4   1 -12   47.05    1.36
   3  -1 -12   72.99    2.01
   3  -1 -12   74.44    1.86
  -3  -1  12   73.63    2.03
   3  -1 -12   73.98    1.94
   3   1 -12   73.73    1.90
  -3   1  12   71.92    2.03
   3   1 -12   74.43    2.00
   2  -1 -12   14.82    0.52
   2  -1 -12   15.34    0.58
   2  -1 -12   14.64    0.63
  -2  -1  12   13.59    0.61
  -2  -1  12   14.60    0.54
   2   1 -12   14.87    0.48
   2   1 -12   14.97    0.62
  -2   1  12   15.12    0.64
   2   1 -12   14.67    0.58
  -1  -1  12   35.58    1.05
   1  -1 -12   36.11    0.97
   1  -1 -12   34.51    1.09
   1  -1 -12   33.75    1.11
  -1  -1  12   35.62    1.09
  -1   1  12   34.27    1.06
  -1   1  12   36.83    1.04
   1   1 -12   35.81    1.09
   1   1 -12   34.61    1.02
   0  -1  12   21.36    0.77
   0  -1 -12   23.22    0.88
   0  -1  12   22.33    0.76
   0  -1 -12   23.29    0.82
   0  -1 -12   22.92    0.66
   0  -1  12   23.29    0.79
   0   1  12   23.76    0.79
   0   1  12   23.55    0.78
   0   1 -12   21.65    0.86
   0   1 -12   23.47    0.80
  -1  -1 -12   15.42    0.64
   1  -1  12   16.81    0.63
   1  -1  12   16.20    0.61
  -1  -1 -12   15.98    0.75
   1  -1  12   15.15    0.64
  -1   1 -12   16.14    0.76
  -1   1 -12   15.62    0.63
   1   1  12   15.92    0.64
   1   1  12   16.70    0.64
   1   1  12   15.06    0.56
   2  -1  12    9.54    0.53
   2  -1  12    8.40    0.45
  -2  -1 -12    8.18    0.56
   2  -1  12    8.86    0.44
   2   1  12    8.70    0.51
  -2   1 -12    8.98    0.56
   2   1  12    9.72    0.41
   2   1  12    9.04    0.48
   3  -1  12    6.40    0.49
   3  -1  12    6.89    0.41
  -3  -1 -12    7.22    0.56
   3  -1  12    6.53    0.42
   3   1  12    6.61    0.35
  -3   1 -12    7.06    0.59
   3   1  12    6.66    0.45
   3   1  12    6.08    0.43
  -4  -1 -12    2.54    0.47
   4  -1  12    3.33    0.44
   4  -1  12    3.24    0.34
   4  -1  12    3.03    0.35
   4   1  12    2.67    0.34
   4   1  12    3.18    0.43
  -4   1 -12    2.42    0.45
   5  -1  12    1.61    0.29
   5  -1  12    2.02    0.34
   5  -1  12    1.51    0.36
   5   1  12    1.79    0.41
   5   1  12    1.65    0.32
  -5   1 -12    2.01    0.33
   6  -1  12    3.21    0.52
   6   1  12    2.09    0.38
   6   1  12    2.50    0.48
   8  -2 -12    0.11    0.32
   8  -2 -12   -0.08    0.34
   8   2 -12    0.16    0.37
   8   2 -12    0.83    0.39
   7  -2 -12    4.59    0.55
   7  -2 -12    4.74    0.56
   7   2 -12    4.59    0.56
   7   2 -12    5.09    0.54
   6  -2 -12    5.91    0.57
   6  -2 -12    5.65    0.55
   6   2 -12    6.26    0.51
   6   2 -12    6.71    0.61
  -6   2  12    5.58    0.66
   5  -2 -12   27.24    1.00
   5  -2 -12   25.77    1.00
  -5  -2  12   25.37    1.02
   5   2 -12   27.38    1.03
  -5   2  12   26.29    1.05
   5   2 -12   28.80    0.98
  -4  -2  12   10.81    0.59
   4  -2 -12   12.40    0.59
   4  -2 -12   11.52    0.61
  -4   2  12   12.68    0.65
   4   2 -12   12.99    0.54
   4   2 -12   12.98    0.56
   4   2 -12   12.29    0.59
   3  -2 -12   19.80    0.65
  -3  -2  12   19.63    0.80
   3  -2 -12   21.61    0.76
   3   2 -12   21.94    0.78
   3   2 -12   22.03    0.70
  -3   2  12   20.53    0.82
   3   2 -12   21.71    0.77
  -2  -2  12    0.25    0.18
   2  -2 -12    0.23    0.18
   2  -2 -12    0.19    0.15
   2  -2 -12    0.14    0.14
  -2   2  12    0.15    0.19
   2   2 -12    0.43    0.19
   2   2 -12    0.18    0.18
  -2   2  12    0.50    0.18
   2   2 -12    0.33    0.11
  -1  -2  12    5.27    0.36
   1  -2 -12    5.00    0.38
  -1  -2  12    4.77    0.33
   1  -2 -12    5.52    0.40
   1  -2 -12    5.16    0.31
   1   2 -12    5.52    0.31
   1   2 -12    5.26    0.36
  -1   2  12    5.43    0.33
  -1   2  12    5.49    0.31
   0  -2  12   20.65    0.75
   0  -2 -12   21.66    0.80
   0  -2 -12   20.43    0.84
   0  -2  12   19.85    0.75
   0   2  12   21.41    0.73
   0   2  12   20.43    0.75
   0   2  12   22.56    0.84
   0   2 -12   20.97    0.74
   1  -2  12   22.12    0.79
   1  -2  12   21.63    0.82
  -1  -2 -12   22.51    0.93
  -1   2 -12   22.36    0.77
   1   2  12   22.35    0.69
   1   2  12   21.87    0.79
   1   2  12   22.22    0.80
   1   2  12   22.44    0.91
  -2  -2 -12    2.32    0.40
   2  -2  12    2.46    0.29
   2  -2  12    2.48    0.28
   2  -2  12    1.73    0.30
   2   2  12    1.79    0.31
  -2   2 -12    2.47    0.40
   2   2  12    2.14    0.30
  -2   2 -12    2.36    0.28
   2   2  12    2.29    0.21
   3  -2  12    4.39    0.34
  -3  -2 -12    4.71    0.56
   3  -2  12    4.70    0.45
   3  -2  12    4.80    0.38
   3   2  12    4.28    0.41
   3   2  12    4.88    0.47
  -3   2 -12    4.22    0.51
   4  -2  12    2.30    0.32
   4  -2  12    2.07    0.30
  -4  -2 -12    2.24    0.42
   4  -2  12    2.10    0.39
  -4   2 -12    2.40    0.45
   4   2  12    1.79    0.32
   4   2  12    1.80    0.37
   5  -2  12    0.42    0.23
   5  -2  12    1.01    0.35
   5   2  12    0.87    0.28
  -5   2 -12    0.26    0.20
   5   2  12    0.17    0.31
   6  -2  12    0.12    0.36
   6  -2  12    0.19    0.25
   6   2  12    0.21    0.35
   6   2  12    0.09    0.29
   7  -3 -12    1.57    0.40
   7  -3 -12    1.69    0.39
   7   3 -12    1.27    0.37
   7   3 -12    1.17    0.40
   6  -3 -12    0.79    0.32
   6  -3 -12    0.74    0.30
   6   3 -12    0.64    0.33
   6   3 -12    0.61    0.28
  -5  -3  12    4.43    0.49
   5  -3 -12    3.26    0.39
   5  -3 -12    3.36    0.44
   5   3 -12    3.88    0.40
   5   3 -12    2.91    0.43
  -5   3  12    3.47    0.43
   4  -3 -12    2.26    0.35
  -4  -3  12    2.88    0.37
   4  -3 -12    2.80    0.35
   4   3 -12    3.36    0.33
   4   3 -12    3.13    0.38
   4   3 -12    3.01    0.35
  -4   3  12    2.74    0.37
   3  -3 -12   10.04    0.50
  -3  -3  12   10.44    0.55
   3  -3 -12    9.02    0.40
  -3   3  12    9.96    0.48
  -3   3  12    9.19    0.54
   3   3 -12    9.65    0.43
   3   3 -12    9.80    0.51
   3   3 -12   10.20    0.53
   2  -3 -12   32.20    1.00
   2  -3 -12   30.31    0.97
  -2  -3  12   30.18    1.00
  -2   3  12   29.99    1.03
   2   3 -12   31.20    1.00
  -2   3  12   30.36    0.96
  -2   3  12   30.90    0.97
   2   3 -12   30.28    0.96
   1  -3 -12   17.76    0.72
   1  -3 -12   17.26    0.72
  -1  -3  12   17.17    0.67
  -1  -3  12   16.55    0.67
  -1  -3  12   16.90    0.65
   1  -3 -12   17.08    0.63
  -1   3  12   17.95    0.62
   1   3 -12   17.97    0.61
   1   3 -12   17.73    0.66
  -1   3  12   18.88    0.72
  -1   3  12   16.86    0.66
   0  -3  12   20.92    0.79
   0  -3  12   20.64    0.79
   0  -3 -12   21.67    0.88
   0   3  12   21.66    0.75
   0   3  12   21.42    0.77
   0   3 -12   22.55    0.76
   0   3  12   21.34    0.84
   1  -3  12    4.59    0.41
   1  -3  12    3.41    0.35
  -1  -3 -12    3.94    0.46
   1   3  12    3.79    0.37
   1   3  12    3.94    0.38
  -1   3 -12    4.18    0.33
   2  -3  12    7.66    0.50
  -2  -3 -12    6.51    0.61
   2  -3  12    7.71    0.47
   2   3  12    8.04    0.51
   2   3  12    7.41    0.45
  -2   3 -12    7.55    0.43
   3  -3  12    6.62    0.47
   3  -3  12    6.92    0.52
  -3  -3 -12    6.03    0.64
  -3   3 -12    6.61    0.61
   3   3  12    6.72    0.48
   3   3  12    6.19    0.50
  -3   3 -12    6.76    0.41
  -4  -3 -12   10.24    0.89
   4  -3  12    9.28    0.63
   4  -3  12    9.34    0.57
   4   3  12    9.95    0.65
   4   3  12    9.27    0.58
  -4   3 -12   10.55    0.53
  -4   3 -12   10.88    0.77
   5  -3  12    0.74    0.30
   5  -3  12    0.37    0.35
   5   3  12    0.80    0.34
   5   3  12    0.72    0.31
   6  -3  12    1.15    0.35
   6  -3  12    1.10    0.42
   6   3  12    1.28    0.35
   6   3  12    0.66    0.38
   7  -4 -12    1.12    0.38
   7  -4 -12    1.42    0.38
   7   4 -12    1.63    0.44
   7   4 -12    2.01    0.41
   6  -4 -12    9.86    0.67
   6  -4 -12   10.78    0.67
   6   4 -12   10.02    0.63
   6   4 -12   10.27    0.70
   5  -4 -12    6.20    0.55
  -5  -4  12    5.41    0.53
   5  -4 -12    6.23    0.50
   5   4 -12    4.68    0.51
  -5   4  12    6.08    0.53
   5   4 -12    5.62    0.50
   4  -4 -12   13.38    0.66
  -4  -4  12   14.96    0.72
   4   4 -12   13.42    0.58
   4   4 -12   14.34    0.69
   4   4 -12   13.11    0.68
  -4   4  12   13.44    0.69
   3  -4 -12    4.82    0.39
  -3  -4  12    4.14    0.40
   3  -4 -12    3.67    0.30
  -3   4  12    4.24    0.41
  -3   4  12    4.08    0.36
   3   4 -12    4.42    0.41
  -3   4  12    4.35    0.30
   3   4 -12    4.54    0.44
  -2  -4  12   12.08    0.57
   2  -4 -12   12.04    0.57
   2  -4 -12   11.92    0.58
   2   4 -12   13.63    0.68
  -2   4  12   12.13    0.54
  -2   4  12   12.55    0.56
   2   4 -12   13.35    0.56
   2   4 -12   12.98    0.57
  -1  -4  12   16.52    0.63
  -1  -4  12   14.78    0.66
   1  -4 -12   16.08    0.65
   1  -4 -12   17.88    0.78
  -1   4  12   16.25    0.66
  -1   4  12   17.56    0.63
   1   4 -12   16.75    0.60
   1   4 -12   16.69    0.63
  -1   4  12   16.71    0.71
   0  -4  12   24.69    0.89
   0  -4  12   24.66    0.88
   0  -4 -12   25.53    1.00
   0   4  12   25.03    0.85
   0   4 -12   24.62    0.81
   0   4  12   23.29    0.85
   0   4  12   23.72    0.95
   1  -4  12   26.66    0.97
   1  -4  12   27.12    0.97
  -1  -4 -12   26.14    1.08
  -1   4 -12   26.90    0.85
   1   4  12   27.04    0.95
   1   4  12   26.54    0.95
   2  -4  12    9.43    0.58
  -2  -4 -12   11.58    0.72
   2  -4  12   10.48    0.59
  -2   4 -12   10.57    0.49
   2   4  12   11.05    0.59
   2   4  12   10.69    0.59
  -3  -4 -12    2.40    0.49
   3  -4  12    2.69    0.34
   3  -4  12    3.01    0.43
   3   4  12    3.34    0.42
   3   4  12    2.96    0.42
   4  -4  12    2.16    0.40
   4  -4  12    2.42    0.38
   4   4  12    1.18    0.36
   4   4  12    1.61    0.35
   5  -4  12    0.72    0.34
   5  -4  12    0.66    0.31
   5   4  12    0.90    0.34
   5   4  12    0.48    0.35
   6  -4  12    0.47    0.34
   6  -4  12   -0.24    0.27
   6   4  12    0.32    0.37
   6   4  12    0.03    0.30
   7  -5 -12    1.45    0.39
   7  -5 -12    1.57    0.43
   7   5 -12    2.20    0.45
   7   5 -12    1.75    0.47
   6  -5 -12    1.38    0.33
   6  -5 -12    1.64    0.38
   6   5 -12    2.02    0.44
   5  -5 -12    0.18    0.27
  -5  -5  12    0.12    0.28
   5  -5 -12    0.29    0.26
  -5   5  12    0.09    0.24
   5   5 -12    0.29    0.29
   4  -5 -12    3.75    0.43
  -4  -5  12    3.19    0.40
   4   5 -12    3.42    0.41
  -4   5  12    4.03    0.42
   3  -5 -12   11.95    0.54
  -3  -5  12   12.78    0.64
   3  -5 -12   11.50    0.61
  -3   5  12   12.18    0.53
   3   5 -12   11.43    0.58
  -2  -5  12    2.55    0.30
   2  -5 -12    2.63    0.34
   2  -5 -12    2.43    0.34
  -2  -5  12    2.52    0.34
   2   5 -12    2.97    0.31
  -2   5  12    3.48    0.36
   2   5 -12    3.34    0.33
  -2   5  12    3.15    0.35
  -2   5  12    3.72    0.33
   1  -5 -12   62.76    1.88
  -1  -5  12   62.10    1.68
  -1  -5  12   61.38    1.80
  -1   5  12   63.29    1.70
   1   5 -12   61.14    1.66
  -1   5  12   60.20    1.73
  -1   5  12   61.84    1.85
   1   5 -12   63.39    1.69
   0  -5 -12   17.57    0.86
   0  -5  12   17.71    0.77
   0   5 -12   17.52    0.62
   0   5  12   18.15    0.71
   0   5  12   17.11    0.70
   1  -5  12    1.25    0.30
   1  -5  12    0.96    0.28
  -1  -5 -12    1.13    0.32
   1   5  12    1.52    0.30
  -1   5 -12    0.61    0.16
   1   5  12    0.61    0.25
   2  -5  12    2.70    0.39
  -2  -5 -12    1.88    0.45
   2  -5  12    2.04    0.32
   2   5  12    2.41    0.37
   2   5  12    2.29    0.37
   3  -5  12   10.63    0.64
  -3  -5 -12    8.05    0.76
   3  -5  12   10.35    0.65
   3   5  12    9.95    0.61
   3   5  12    9.33    0.63
   4  -5  12    7.12    0.59
   4  -5  12    6.54    0.51
   4   5  12    6.24    0.63
   4   5  12    5.86    0.58
   5  -5  12    3.66    0.55
   5  -5  12    3.06    0.47
   5   5  12    2.57    0.51
   5   5  12    2.90    0.47
   6  -6 -12    0.40    0.32
   6  -6 -12   -0.31    0.27
   6   6 -12    0.50    0.35
   5  -6 -12    0.49    0.31
   5   6 -12    0.38    0.31
  -5   6  12    0.89    0.31
   4  -6 -12   -0.08    0.24
  -4  -6  12   -0.46    0.26
   4   6 -12    0.12    0.26
  -3  -6  12    0.28    0.22
   3  -6 -12    0.57    0.27
  -3  -6  12    0.60    0.28
  -3   6  12    0.92    0.22
   3   6 -12    0.17    0.22
  -2  -6  12    6.74    0.51
  -2  -6  12    7.49    0.44
   2  -6 -12    6.93    0.51
   2  -6 -12    6.78    0.51
  -2   6  12    7.11    0.49
   2   6 -12    6.51    0.42
   2   6 -12    6.52    0.42
  -2   6  12    7.22    0.43
   1  -6 -12    8.21    0.59
  -1  -6  12    8.90    0.42
  -1  -6  12    8.55    0.57
  -1   6  12    7.45    0.46
   1   6 -12    8.40    0.43
  -1   6  12    8.06    0.48
   1   6 -12    8.49    0.43
   0  -6 -12    1.82    0.39
   0  -6  12    2.78    0.37
   0   6  12    3.60    0.40
   0   6  12    2.73    0.36
   1  -6  12    1.08    0.31
  -1  -6 -12    0.65    0.35
   1   6  12    1.28    0.34
   1   6  12    0.78    0.29
  -2  -6 -12    2.98    0.49
   2  -6  12    3.77    0.46
   2   6  12    3.38    0.43
   2   6  12    3.28    0.44
   3  -6  12    2.04    0.39
   3  -6  12    1.70    0.39
   3   6  12    2.24    0.43
   3   6  12    1.19    0.35
   4  -6  12    0.70    0.34
   4  -6  12    0.62    0.35
   4   6  12    0.51    0.34
   4   6  12    0.49    0.36
   5  -6  12    0.15    0.33
   5  -6  12    0.20    0.32
   5   6  12    0.44    0.36
   5   6  12   -0.17    0.34
   6  -7 -12    0.35    0.33
   6  -7 -12    1.16    0.39
   6   7 -12    0.78    0.39
   5  -7 -12    2.29    0.43
  -5  -7  12    2.09    0.40
   5   7 -12    2.34    0.45
  -4  -7  12    3.38    0.45
  -4  -7  12    3.47    0.46
   4  -7 -12    3.83    0.50
   4   7 -12    4.46    0.49
  -3  -7  12    2.24    0.34
  -3  -7  12    2.84    0.42
   3  -7 -12    2.52    0.41
   3   7 -12    2.14    0.34
  -3   7  12    2.63    0.31
   2  -7 -12    7.39    0.58
   2  -7 -12    7.67    0.57
  -2  -7  12    7.27    0.56
   2   7 -12    7.67    0.48
  -2   7  12    7.04    0.44
   1  -7 -12    1.83    0.39
  -1  -7  12    1.63    0.35
  -1   7  12    2.15    0.32
  -1   7  12    2.06    0.32
   1   7 -12    2.05    0.28
   0  -7 -12    0.22    0.32
   0  -7  12    0.79    0.31
   0   7  12    0.97    0.28
   0   7  12    0.59    0.26
  -1  -7 -12    0.69    0.37
   1  -7  12    0.40    0.30
   1   7  12    0.74    0.29
   1   7  12    1.11    0.32
   2  -7  12    0.35    0.31
   2   7  12    0.90    0.34
   2   7  12    0.40    0.32
   3  -7  12    0.36    0.32
   3   7  12    0.27    0.34
   3   7  12    0.17    0.31
   4  -7  12    0.77    0.38
   4   7  12    0.06    0.32
   4   7  12    0.85    0.41
   5  -8 -12   -0.30    0.20
  -5  -8  12    0.39    0.37
   5   8 -12   -0.31    0.29
  -4  -8  12    0.11    0.30
   4  -8 -12    0.36    0.34
   4   8 -12    0.61    0.32
  -3  -8  12    1.84    0.39
   3  -8 -12    2.16    0.42
   3   8 -12    1.97    0.35
   2  -8 -12    0.09    0.29
   2  -8 -12   -0.03    0.26
  -2  -8  12    0.41    0.31
  -2   8  12    0.29    0.23
   2   8 -12    0.85    0.25
  -1  -8  12    0.61    0.31
   1  -8 -12    1.30    0.38
  -1   8  12    0.78    0.26
  -1   8  12    0.57    0.28
   0  -8 -12    3.92    0.65
   0  -8  12    2.63    0.43
   0   8  12    2.77    0.42
   0   8  12    3.27    0.42
   1  -8  12    8.91    0.61
   1   8  12   10.35    0.65
   1   8  12   11.16    0.68
   2  -8  12    6.08    0.61
   2   8  12    6.22    0.62
   2   8  12    5.38    0.58
   3  -8  12    1.59    0.42
   3   8  12    1.71    0.43
   3   8  12    2.56    0.50
   4  -8  12    0.38    0.38
   4   8  12    0.92    0.45
   4   8  12    0.50    0.40
  -4  -9  12   -0.41    0.28
   4  -9 -12    0.71    0.36
   4   9 -12    0.24    0.30
  -3  -9  12    2.45    0.44
   3  -9 -12    2.05    0.44
   3   9 -12    2.48    0.42
   2  -9 -12    0.75    0.37
  -2  -9  12    1.00    0.37
   2   9 -12    0.83    0.27
  -2   9  12    1.23    0.29
  -1  -9  12    0.59    0.34
  -1   9  12    0.58    0.27
  -1   9  12    0.37    0.26
   0  -9  12   -0.13    0.23
   0   9  12    0.39    0.28
   0   9  12   -0.09    0.29
   1  -9  12    5.41    0.60
   1   9  12    5.05    0.61
   1   9  12    4.62    0.54
   2  -9  12    2.47    0.50
   2   9  12    1.34    0.42
   2   9  12    1.52    0.42
   3  -9  12    1.01    0.42
   3   9  12    1.64    0.49
   3   9  12    0.79    0.41
  -2 -10  12    0.07    0.33
   2 -10 -12    0.29    0.35
   1 -10 -12    2.72    0.51
  -1 -10  12    3.12    0.52
  -1  10  12    1.68    0.36
  -1  10  12    2.64    0.44
   0 -10  12    1.62    0.45
   0  10  12    2.07    0.46
   0  10  12    1.44    0.36
   1 -10  12    0.31    0.38
   1  10  12    0.91    0.40
   1  10  12    0.40    0.34
   8   0 -13    3.39    0.55
   8   0 -13    3.86    0.57
   7   0 -13    0.05    0.28
   7   0 -13    0.23    0.33
   6   0 -13    0.17    0.26
   6   0 -13    0.10    0.23
   5   0 -13    0.09    0.25
   5   0 -13    0.08    0.21
  -5   0  13    0.24    0.22
   4   0 -13   89.16    2.16
   4   0 -13   85.27    2.35
   4   0 -13   83.80    2.09
  -4   0  13   86.48    2.40
   4   0 -13   85.75    2.27
  -3   0  13    1.49    0.30
   3   0 -13    1.12    0.20
   3   0 -13    1.70    0.26
   3   0 -13    1.86    0.20
   2   0 -13   21.16    0.75
   2   0 -13   20.22    0.75
   2   0 -13   22.16    0.66
  -2   0  13   21.00    0.81
  -2   0  13   21.10    0.69
   1   0 -13   14.11    0.60
  -1   0  13   14.43    0.57
  -1   0  13   13.74    0.59
   1   0 -13   14.57    0.63
   1   0 -13   14.54    0.45
   0   0 -13    0.63    0.21
   0   0  13    1.24    0.23
   0   0 -13    0.77    0.25
   0   0  13    1.08    0.23
   1   0  13    2.24    0.29
   1   0  13    2.29    0.27
  -1   0 -13    1.86    0.28
  -1   0 -13    1.87    0.34
   1   0  13    1.73    0.27
   2   0  13   74.01    1.93
   2   0  13   71.02    2.05
  -2   0 -13   74.78    2.22
   2   0  13   72.58    2.00
   3   0  13    0.32    0.27
   3   0  13    0.80    0.20
   3   0  13    0.46    0.24
  -3   0 -13    0.99    0.35
   4   0  13    0.20    0.19
   4   0  13    0.33    0.30
  -4   0 -13    0.41    0.35
   4   0  13    0.38    0.24
   5   0  13    0.39    0.32
   5   0  13    0.33    0.24
   6   0  13   -0.05    0.33
   8  -1 -13    0.55    0.37
   8  -1 -13    1.11    0.39
   8   1 -13    0.90    0.38
   8   1 -13    0.88    0.40
   7  -1 -13    1.56    0.39
   7  -1 -13    1.43    0.38
   7   1 -13    1.66    0.43
   7   1 -13    1.21    0.37
   6  -1 -13    3.76    0.48
   6  -1 -13    2.94    0.42
   6   1 -13    3.28    0.47
   6   1 -13    3.18    0.42
  -5  -1  13   -0.04    0.26
   5  -1 -13    0.35    0.24
   5  -1 -13    0.55    0.28
   5   1 -13    0.47    0.23
   5   1 -13   -0.04    0.24
  -5   1  13    0.36    0.28
   4  -1 -13    9.20    0.52
   4  -1 -13    9.67    0.50
  -4  -1  13    9.36    0.59
  -4   1  13   10.70    0.62
   4   1 -13    9.97    0.50
   4   1 -13    9.05    0.51
   4   1 -13   10.07    0.43
   3  -1 -13    3.14    0.25
   3  -1 -13    2.90    0.29
  -3  -1  13    3.06    0.36
   3  -1 -13    3.20    0.34
   3   1 -13    2.69    0.34
   3   1 -13    2.90    0.27
  -3   1  13    2.97    0.34
   2  -1 -13   15.28    0.54
  -2  -1  13   16.21    0.67
  -2  -1  13   15.84    0.58
   2  -1 -13   14.85    0.61
   2   1 -13   16.05    0.51
   2   1 -13   15.98    0.62
  -2   1  13   15.69    0.66
   2   1 -13   15.26    0.73
   1  -1 -13    5.38    0.28
   1  -1 -13    5.00    0.39
  -1  -1  13    5.21    0.39
   1  -1 -13    5.49    0.40
  -1  -1  13    5.18    0.34
  -1   1  13    6.13    0.38
   1   1 -13    5.24    0.34
  -1   1  13    5.36    0.33
   1   1 -13    4.71    0.37
   1   1 -13    5.81    0.41
   0  -1  13   21.39    0.76
   0  -1 -13   20.60    0.85
   0  -1  13   19.06    0.71
   0  -1 -13   19.69    0.61
   0  -1  13   21.35    0.76
   0  -1 -13   19.01    0.80
   0   1 -13   20.37    0.84
   0   1 -13   21.06    0.67
   0   1  13   20.98    0.74
   0   1  13   20.14    0.74
   0   1 -13   20.77    0.77
   1  -1  13   19.40    0.74
   1  -1  13   20.54    0.79
  -1  -1 -13   20.54    0.90
   1  -1  13   20.39    0.74
   1   1  13   19.57    0.74
   1   1  13   20.44    0.69
   1   1  13   20.27    0.77
  -1   1 -13   21.79    0.88
  -1   1 -13   21.03    0.78
  -2  -1 -13    6.15    0.58
   2  -1  13    6.99    0.41
   2  -1  13    7.14    0.49
   2  -1  13    5.98    0.40
   2   1  13    6.03    0.39
   2   1  13    6.46    0.47
   2   1  13    6.02    0.34
  -2   1 -13    6.56    0.56
   3  -1  13    0.44    0.23
   3  -1  13    0.73    0.25
  -3  -1 -13    0.95    0.35
   3  -1  13    0.44    0.21
  -3   1 -13    0.21    0.29
   3   1  13    0.86    0.20
   3   1  13   -0.03    0.21
   3   1  13    0.65    0.24
   4  -1  13    0.64    0.23
  -4  -1 -13    1.29    0.40
   4  -1  13    0.84    0.26
   4  -1  13    0.47    0.30
   4   1  13    0.68    0.25
  -4   1 -13    0.81    0.37
   4   1  13    0.74    0.31
   5  -1  13    0.51    0.25
   5  -1  13    0.40    0.26
   5  -1  13    0.55    0.35
   5   1  13    0.44    0.25
   5   1  13    0.55    0.34
   6  -1  13    0.90    0.39
   6   1  13    1.49    0.44
   6   1  13    1.43    0.36
   7  -2 -13    2.01    0.43
   7  -2 -13    2.79    0.48
   7   2 -13    2.44    0.43
   7   2 -13    1.82    0.43
   6  -2 -13    1.86    0.37
   6  -2 -13    1.75    0.40
   6   2 -13    2.45    0.43
   6   2 -13    1.19    0.33
  -5  -2  13   21.21    0.94
   5  -2 -13   20.50    0.88
   5  -2 -13   20.50    0.84
   5   2 -13   20.36    0.81
   5   2 -13   18.84    0.87
  -5   2  13   20.75    0.89
  -4  -2  13    7.43    0.54
   4  -2 -13    6.94    0.49
   4  -2 -13    5.99    0.42
   4   2 -13    6.04    0.38
  -4   2  13    5.63    0.50
   4   2 -13    5.66    0.45
   4   2 -13    5.92    0.38
   3  -2 -13   49.68    1.32
  -3  -2  13   48.95    1.48
   3  -2 -13   47.97    1.39
   3   2 -13   48.28    1.32
   3   2 -13   49.82    1.44
   3   2 -13   47.18    1.43
  -3   2  13   46.79    1.48
   2  -2 -13    1.56    0.23
  -2  -2  13    1.55    0.26
   2  -2 -13    1.53    0.21
  -2   2  13    1.35    0.25
  -2   2  13    1.94    0.27
   2   2 -13    1.72    0.25
   2   2 -13    1.46    0.16
   2   2 -13    1.73    0.25
  -1  -2  13    3.96    0.32
   1  -2 -13    3.69    0.36
   1  -2 -13    3.37    0.27
  -1  -2  13    3.51    0.33
  -1   2  13    3.77    0.35
   1   2 -13    4.08    0.34
   1   2 -13    3.64    0.29
  -1   2  13    3.99    0.31
   0  -2  13   38.73    1.20
   0  -2 -13   39.60    1.31
   0  -2  13   37.66    1.20
   0   2 -13   38.67    1.19
   0   2  13   39.32    1.20
   0   2  13   39.73    1.19
   1  -2  13   46.23    1.43
  -1  -2 -13   47.09    1.56
   1  -2  13   46.91    1.39
   1   2  13   46.20    1.40
  -1   2 -13   46.86    1.38
   1   2  13   47.51    1.29
  -1   2 -13   47.24    1.56
   1   2  13   47.45    1.40
  -2  -2 -13    2.03    0.41
   2  -2  13    1.87    0.28
   2  -2  13    2.27    0.31
   2  -2  13    2.24    0.32
   2   2  13    2.27    0.22
  -2   2 -13    2.04    0.40
   2   2  13    2.33    0.35
  -2   2 -13    2.04    0.29
   2   2  13    1.89    0.31
   3  -2  13    8.12    0.56
   3  -2  13    8.68    0.49
   3  -2  13    8.46    0.50
  -3  -2 -13    8.11    0.69
   3   2  13    8.65    0.52
  -3   2 -13    8.92    0.68
   3   2  13    9.12    0.58
   4  -2  13    3.49    0.39
   4  -2  13    3.09    0.34
   4  -2  13    3.66    0.47
  -4   2 -13    4.62    0.67
   4   2  13    3.11    0.46
   4   2  13    3.63    0.41
   5  -2  13    2.38    0.44
   5  -2  13    1.89    0.34
   5   2  13    1.00    0.31
  -5   2 -13    1.42    0.28
   5   2  13    1.86    0.43
   6  -2  13    1.47    0.42
   6  -2  13    1.56    0.36
   6   2  13    1.56    0.37
   6   2  13    1.92    0.46
   7  -3 -13    4.88    0.57
   7  -3 -13    4.93    0.58
   7   3 -13    3.95    0.58
   7   3 -13    5.06    0.56
   6  -3 -13    5.84    0.58
   6  -3 -13    7.12    0.57
   6   3 -13    4.93    0.57
   6   3 -13    7.52    0.57
  -5  -3  13   15.99    0.82
   5  -3 -13   14.87    0.74
   5  -3 -13   14.38    0.75
   5   3 -13   15.80    0.71
   5   3 -13   15.58    0.78
  -5   3  13   16.44    0.80
   4  -3 -13    0.18    0.22
  -4  -3  13    1.04    0.26
   4  -3 -13    0.79    0.28
   4   3 -13    0.61    0.27
   4   3 -13    0.80    0.23
  -4   3  13    0.70    0.27
   4   3 -13    0.41    0.21
   3  -3 -13   38.35    1.19
  -3  -3  13   38.55    1.24
   3  -3 -13   36.93    1.09
   3   3 -13   37.28    1.20
   3   3 -13   39.05    1.09
   3   3 -13   37.59    1.25
  -3   3  13   38.48    1.16
  -3   3  13   38.72    1.26
   2  -3 -13    9.98    0.50
   2  -3 -13    9.68    0.48
  -2  -3  13    9.06    0.51
  -2   3  13    9.84    0.48
   2   3 -13   10.30    0.48
   2   3 -13    9.61    0.53
   1  -3 -13   35.10    1.19
  -1  -3  13   34.87    1.15
  -1  -3  13   34.66    1.11
  -1  -3  13   35.22    1.10
   1  -3 -13   34.28    1.06
  -1   3  13   35.74    1.12
   1   3 -13   34.72    1.10
   1   3 -13   35.28    1.03
  -1   3  13   37.41    1.07
  -1   3  13   36.05    1.17
   0  -3 -13   39.41    1.30
   0  -3  13   34.68    1.16
   0  -3  13   36.64    1.18
   0   3  13   38.04    1.27
   0   3  13   35.79    1.12
   0   3  13   34.49    1.14
   0   3 -13   35.99    1.12
  -1  -3 -13   12.65    0.73
   1  -3  13   10.99    0.59
   1  -3  13   12.36    0.60
   1   3  13   11.58    0.58
   1   3  13   11.64    0.45
  -1   3 -13   11.30    0.53
   1   3  13   12.37    0.59
  -2  -3 -13    2.86    0.43
   2  -3  13    3.27    0.38
   2  -3  13    3.34    0.41
   2   3  13    3.52    0.39
  -2   3 -13    3.39    0.34
   2   3  13    2.98    0.39
   3  -3  13    6.19    0.42
   3  -3  13    5.32    0.52
  -3  -3 -13    5.38    0.60
   3   3  13    5.54    0.51
   3   3  13    5.60    0.50
  -3   3 -13    5.46    0.58
   4  -3  13    0.97    0.28
   4  -3  13   -0.14    0.28
   4   3  13    0.17    0.25
   4   3  13    0.50    0.31
   5  -3  13    0.34    0.30
   5  -3  13    0.45    0.34
   5   3  13    0.21    0.28
   5   3  13    0.62    0.36
   6  -3  13    0.79    0.34
   6  -3  13    1.24    0.40
   6   3  13    0.92    0.46
   6   3  13    1.37    0.41
   7  -4 -13    5.36    0.62
   7  -4 -13    5.69    0.63
   7   4 -13    6.24    0.68
   6  -4 -13    1.78    0.39
   6  -4 -13    1.36    0.35
   6   4 -13    2.03    0.38
   6   4 -13    2.01    0.43
   5  -4 -13    0.14    0.27
   5  -4 -13    0.18    0.26
  -5  -4  13    0.21    0.29
   5   4 -13    0.20    0.22
   5   4 -13   -0.12    0.27
  -5   4  13   -0.10    0.25
   4  -4 -13   10.41    0.58
  -4  -4  13    9.55    0.61
   4   4 -13    9.86    0.59
   4   4 -13    9.10    0.60
  -4   4  13    9.68    0.61
   4   4 -13   10.31    0.50
   3  -4 -13    7.55    0.48
   3  -4 -13    6.42    0.38
  -3  -4  13    7.30    0.50
   3   4 -13    7.33    0.51
  -3   4  13    6.96    0.50
  -3   4  13    7.48    0.42
   3   4 -13    7.79    0.50
  -2  -4  13   12.99    0.60
   2  -4 -13   13.25    0.61
   2  -4 -13   13.35    0.59
   2   4 -13   12.43    0.58
   2   4 -13   12.91    0.56
  -2   4  13   12.57    0.59
  -2   4  13   12.05    0.49
  -2   4  13   12.67    0.58
   1  -4 -13   14.85    0.71
   1  -4 -13   14.23    0.61
  -1  -4  13   14.89    0.68
  -1  -4  13   14.53    0.61
   1   4 -13   13.69    0.55
   1   4 -13   13.05    0.59
  -1   4  13   14.20    0.67
  -1   4  13   13.38    0.61
  -1   4  13   13.78    0.57
   0  -4 -13    6.25    0.54
   0  -4  13    6.13    0.46
   0  -4  13    6.16    0.43
   0   4 -13    6.24    0.40
   0   4  13    7.08    0.45
   0   4  13    6.56    0.45
   1  -4  13    1.29    0.31
   1  -4  13    2.00    0.34
  -1  -4 -13    1.89    0.41
   1   4  13    1.48    0.30
   1   4  13    2.37    0.35
  -1   4 -13    1.94    0.25
  -2  -4 -13    8.96    0.72
   2  -4  13   10.80    0.60
   2  -4  13    9.70    0.60
   2   4  13    9.42    0.58
   2   4  13    9.78    0.58
   3  -4  13    4.52    0.51
  -3  -4 -13    4.47    0.61
   3  -4  13    4.04    0.45
   3   4  13    4.04    0.47
   3   4  13    4.53    0.52
  -3   4 -13    4.31    0.56
   4  -4  13    2.72    0.45
   4  -4  13    3.58    0.45
   4   4  13    2.78    0.43
   4   4  13    2.82    0.46
   5  -4  13    3.18    0.46
   5  -4  13    2.87    0.48
   5   4  13    3.01    0.53
   5   4  13    3.02    0.46
   7  -5 -13    0.89    0.38
   7  -5 -13    0.88    0.41
   7   5 -13    1.11    0.43
   6  -5 -13    1.36    0.41
   6  -5 -13    1.13    0.37
   6   5 -13    1.83    0.43
   5  -5 -13    1.76    0.33
   5  -5 -13    2.30    0.41
   5   5 -13    2.02    0.39
  -5   5  13    1.62    0.35
  -4  -5  13    1.61    0.33
   4  -5 -13    1.82    0.35
   4   5 -13    1.22    0.31
  -4   5  13    1.32    0.31
   3  -5 -13    4.27    0.35
   3  -5 -13    4.00    0.43
  -3  -5  13    3.55    0.41
   3   5 -13    4.12    0.41
  -3   5  13    4.71    0.39
  -2  -5  13   16.94    0.77
   2  -5 -13   18.20    0.77
  -2  -5  13   16.22    0.69
   2  -5 -13   17.22    0.74
   2   5 -13   16.93    0.68
  -2   5  13   16.96    0.74
  -2   5  13   17.58    0.71
  -1  -5  13   16.94    0.66
   1  -5 -13   16.18    0.80
   1  -5 -13   16.85    0.72
  -1  -5  13   17.79    0.78
   1   5 -13   16.93    0.63
  -1   5  13   18.04    0.68
   1   5 -13   16.93    0.66
  -1   5  13   17.52    0.71
   0  -5 -13    1.64    0.37
   0  -5  13    2.20    0.35
   0   5 -13    1.94    0.25
   0   5  13    1.97    0.32
   0   5  13    2.25    0.32
  -1  -5 -13    5.18    0.59
   1  -5  13    4.26    0.46
   1  -5  13    4.92    0.48
   1   5  13    4.87    0.47
   1   5  13    4.63    0.45
   2  -5  13    2.78    0.41
  -2  -5 -13    3.24    0.53
   2  -5  13    2.99    0.41
   2   5  13    3.33    0.42
   2   5  13    3.33    0.42
   3  -5  13    2.20    0.40
   3  -5  13    1.91    0.39
   3   5  13    2.11    0.39
   3   5  13    1.28    0.36
   4  -5  13    0.27    0.33
   4  -5  13    0.77    0.33
   4   5  13    0.97    0.38
   4   5  13    0.87    0.34
   5  -5  13    1.04    0.42
   5  -5  13    1.52    0.41
   5   5  13    0.60    0.35
   5   5  13    0.34    0.39
   6  -6 -13    1.26    0.39
   6  -6 -13    2.86    0.47
   6   6 -13    2.47    0.49
   5  -6 -13    9.42    0.66
   5   6 -13    9.66    0.72
  -5   6  13    9.87    0.63
   4  -6 -13    2.62    0.41
  -4  -6  13    1.90    0.36
   4   6 -13    2.04    0.38
  -3  -6  13   11.85    0.61
  -3  -6  13   10.85    0.65
   3  -6 -13   10.57    0.64
   3   6 -13   11.22    0.62
  -3   6  13   11.14    0.55
  -2  -6  13    2.30    0.31
  -2  -6  13    2.98    0.38
   2  -6 -13    3.68    0.41
   2  -6 -13    3.10    0.40
   2   6 -13    3.29    0.35
  -2   6  13    3.47    0.38
  -1  -6  13    0.75    0.30
   1  -6 -13    0.40    0.31
  -1  -6  13    0.36    0.17
  -1   6  13    0.55    0.26
   1   6 -13    0.80    0.21
  -1   6  13    0.56    0.23
   0  -6 -13    4.70    0.55
   0  -6  13    4.26    0.47
   0   6  13    5.90    0.45
   0   6  13    5.19    0.46
  -1  -6 -13    0.58    0.29
   1  -6  13    1.20    0.33
   1   6  13    1.32    0.32
   1   6  13    0.64    0.28
   2  -6  13    1.16    0.30
   2   6  13    1.06    0.34
   2   6  13    1.23    0.34
   3  -6  13    0.88    0.36
   3  -6  13    1.46    0.39
   3   6  13    1.61    0.39
   3   6  13    1.11    0.40
   4  -6  13    1.48    0.40
   4  -6  13    2.09    0.44
   4   6  13    2.34    0.44
   4   6  13    1.99    0.46
   5  -6  13    1.13    0.40
   5  -6  13    0.85    0.39
   5   6  13    1.83    0.47
   5   6  13    1.28    0.46
   6  -7 -13    1.33    0.39
   6  -7 -13    1.54    0.42
   6   7 -13    1.22    0.43
   5  -7 -13    0.37    0.32
  -5  -7  13   -0.41    0.27
   5   7 -13    0.21    0.32
  -4  -7  13    0.76    0.29
   4  -7 -13    0.94    0.35
  -4  -7  13    0.57    0.31
   4   7 -13    0.44    0.32
   3  -7 -13    0.78    0.30
  -3  -7  13    1.29    0.31
  -3  -7  13    0.73    0.32
   3   7 -13    0.85    0.29
  -3   7  13    1.26    0.26
  -2  -7  13    1.36    0.36
   2  -7 -13    1.59    0.36
   2  -7 -13    1.14    0.34
   2   7 -13    1.58    0.30
  -2   7  13    1.65    0.29
  -1  -7  13    1.64    0.38
   1  -7 -13    1.71    0.39
  -1   7  13    1.15    0.30
  -1   7  13    1.68    0.34
   0  -7  13    4.27    0.47
   0  -7 -13    3.88    0.54
   0   7  13    4.39    0.47
   0   7  13    4.58    0.46
   1  -7  13    2.36    0.43
   1   7  13    2.45    0.41
   1   7  13    1.79    0.36
   2  -7  13    1.75    0.40
   2   7  13    2.12    0.42
   2   7  13    1.44    0.37
   3  -7  13    0.59    0.35
   3   7  13    0.11    0.33
   3   7  13   -0.16    0.30
   4  -7  13   -0.28    0.32
   4   7  13    0.35    0.36
   4   7  13    0.25    0.39
   5  -8 -13    0.68    0.39
  -5  -8  13    1.76    0.43
   5   8 -13    1.88    0.44
   4  -8 -13    1.47    0.36
  -4  -8  13    0.97    0.41
   4   8 -13    1.87    0.40
  -3  -8  13    4.36    0.53
   3  -8 -13    4.06    0.51
   3   8 -13    3.74    0.43
   2  -8 -13    6.52    0.63
  -2  -8  13    6.32    0.60
  -2   8  13    5.50    0.49
   2   8 -13    6.39    0.45
  -1  -8  13   -0.08    0.29
   1  -8 -13    0.85    0.36
  -1   8  13    0.59    0.26
  -1   8  13    0.28    0.27
   0  -8  13    3.22    0.49
   0   8  13    3.05    0.43
   0   8  13    3.16    0.45
   1  -8  13    1.79    0.42
   1   8  13    1.30    0.37
   1   8  13    1.92    0.42
   2  -8  13    3.30    0.50
   2   8  13    3.36    0.51
   2   8  13    2.06    0.47
   3  -8  13    2.23    0.47
   3   8  13    2.09    0.49
   3   8  13    2.21    0.48
  -4  -9  13    0.28    0.34
   4  -9 -13    0.62    0.37
   4   9 -13    0.25    0.30
  -3  -9  13   -0.13    0.30
   3  -9 -13    0.26    0.32
   3   9 -13    0.62    0.31
  -2  -9  13    2.77    0.47
   2  -9 -13    2.99    0.48
  -2   9  13    3.26    0.42
   2   9 -13    3.05    0.40
  -1  -9  13    0.78    0.36
   1  -9 -13    1.25    0.41
  -1   9  13    0.65    0.32
  -1   9  13    1.15    0.30
   0  -9  13    0.21    0.34
   0   9  13    1.38    0.36
   0   9  13    0.75    0.32
   1  -9  13    3.83    0.51
   1   9  13    2.38    0.46
   1   9  13    3.18    0.47
   2  -9  13    2.53    0.50
   2   9  13    1.55    0.45
   2   9  13    1.32    0.43
   1 -10 -13    0.31    0.36
  -1 -10  13    0.34    0.36
  -1  10  13    0.53    0.31
  -1  10  13    0.41    0.35
   0 -10  13   -0.13    0.34
   0  10  13    0.60    0.33
   0  10  13    0.39    0.31
   7   0 -14    1.71    0.43
   7   0 -14    1.76    0.39
   6   0 -14    7.37    0.54
   6   0 -14    7.03    0.64
   5   0 -14    0.68    0.28
   5   0 -14    0.29    0.28
  -5   0  14    0.12    0.28
   4   0 -14    5.15    0.41
   4   0 -14    5.66    0.38
  -4   0  14    5.12    0.49
   3   0 -14    0.25    0.14
   3   0 -14    0.32    0.18
  -3   0  14    0.36    0.24
   3   0 -14    0.68    0.19
   2   0 -14   32.66    1.04
   2   0 -14   33.11    0.92
   2   0 -14   31.41    1.04
  -2   0  14   33.31    0.98
  -2   0  14   30.77    1.08
  -1   0  14    6.86    0.39
  -1   0  14    7.35    0.45
   1   0 -14    7.32    0.29
   1   0 -14    7.60    0.47
   0   0  14   29.18    0.98
   0   0 -14   30.56    1.09
   0   0  14   29.15    0.98
   1   0  14    2.39    0.33
   1   0  14    2.23    0.28
  -1   0 -14    1.99    0.37
   1   0  14    1.86    0.30
   2   0  14   12.06    0.61
  -2   0 -14   11.94    0.75
   2   0  14   10.76    0.57
   2   0  14   11.53    0.54
   3   0  14    0.00    0.18
  -3   0 -14    0.25    0.24
   3   0  14    0.07    0.21
   3   0  14   -0.12    0.19
   4   0  14    2.25    0.37
   4   0  14    1.37    0.37
   4   0  14    2.60    0.31
   5   0  14    0.95    0.37
   5   0  14    1.49    0.35
   6   0  14    3.51    0.55
   7  -1 -14    0.50    0.35
   7  -1 -14    0.63    0.34
   7   1 -14    0.39    0.36
   7   1 -14    0.73    0.34
   6  -1 -14    2.23    0.38
   6  -1 -14    3.02    0.46
   6   1 -14    2.60    0.44
   6   1 -14    2.38    0.39
   5  -1 -14   11.74    0.68
   5  -1 -14   12.41    0.63
   5   1 -14   12.14    0.63
  -5   1  14   13.60    0.75
   5   1 -14   11.69    0.68
  -4  -1  14   19.03    0.83
   4  -1 -14   17.48    0.71
   4  -1 -14   17.44    0.74
   4   1 -14   16.23    0.66
  -4   1  14   16.81    0.77
   4   1 -14   16.20    0.75
   4   1 -14   17.49    0.61
   3  -1 -14   15.27    0.57
   3  -1 -14   14.18    0.58
   3  -1 -14   14.31    0.67
  -3  -1  14   16.35    0.73
   3   1 -14   14.84    0.66
   3   1 -14   14.96    0.60
   3   1 -14   15.30    0.56
  -3   1  14   15.06    0.72
   2  -1 -14   10.09    0.50
   2  -1 -14    9.48    0.42
  -2  -1  14   10.01    0.47
  -2  -1  14   10.46    0.56
   2   1 -14    9.82    0.53
  -2   1  14   10.40    0.57
   2   1 -14    9.75    0.49
  -2   1  14    9.68    0.43
   2   1 -14   10.03    0.38
   1  -1 -14    3.56    0.25
   1  -1 -14    3.98    0.41
  -1  -1  14    3.44    0.34
  -1   1  14    3.81    0.35
   1   1 -14    3.42    0.37
   1   1 -14    3.83    0.34
  -1   1  14    3.45    0.32
   0  -1  14   12.54    0.55
   0  -1 -14   13.77    0.45
   0  -1  14   12.45    0.59
   0  -1  14   13.16    0.59
   0  -1 -14   13.15    0.68
   0   1 -14   13.19    0.69
   0   1 -14   12.73    0.51
   0   1  14   11.68    0.57
   0   1 -14   14.05    0.69
   0   1  14   12.94    0.58
   1  -1  14    8.41    0.50
   1  -1  14    8.96    0.48
   1  -1  14    8.06    0.48
  -1  -1 -14    7.98    0.60
   1   1  14    8.54    0.42
   1   1  14    8.73    0.51
  -1   1 -14    8.83    0.61
   1   1  14    8.92    0.50
   2  -1  14   25.87    0.99
   2  -1  14   26.06    0.92
   2  -1  14   27.75    0.92
  -2  -1 -14   27.62    1.16
   2   1  14   26.85    0.96
   2   1  14   25.79    0.98
   2   1  14   25.58    0.84
  -2   1 -14   25.85    1.12
   3  -1  14    4.92    0.39
   3  -1  14    4.17    0.49
   3  -1  14    4.43    0.39
  -3  -1 -14    4.11    0.56
   3   1  14    4.36    0.32
  -3   1 -14    4.24    0.55
   3   1  14    4.06    0.44
   3   1  14    4.03    0.45
   4  -1  14    0.94    0.28
   4  -1  14    1.07    0.26
   4  -1  14    0.71    0.29
   4   1  14    0.50    0.31
   4   1  14    1.33    0.34
   5  -1  14    0.34    0.25
   5  -1  14   -0.35    0.29
   5  -1  14    0.39    0.27
   5   1  14    0.18    0.28
   5   1  14    0.11    0.33
   6  -1  14   -0.07    0.36
   6   1  14    0.21    0.28
   6   1  14    0.45    0.39
   7  -2 -14    2.25    0.45
   7  -2 -14    2.23    0.45
   7   2 -14    1.98    0.45
   7   2 -14    1.27    0.37
   6  -2 -14    3.11    0.46
   6  -2 -14    3.03    0.44
   6   2 -14    4.38    0.50
   6   2 -14    3.45    0.49
   5  -2 -14    2.08    0.35
   5  -2 -14    1.85    0.37
  -5  -2  14    2.09    0.40
   5   2 -14    1.77    0.31
  -5   2  14    2.17    0.39
   5   2 -14    2.40    0.40
  -4  -2  14    3.66    0.40
   4  -2 -14    4.23    0.40
   4  -2 -14    4.19    0.46
  -4   2  14    2.92    0.40
   4   2 -14    4.22    0.37
   4   2 -14    3.35    0.41
   3  -2 -14    8.80    0.46
   3  -2 -14    8.28    0.40
  -3  -2  14    8.56    0.54
   3   2 -14    8.60    0.40
   3   2 -14    8.46    0.50
   3   2 -14    8.28    0.49
  -3   2  14    8.37    0.55
   2  -2 -14    0.58    0.19
   2  -2 -14    0.61    0.19
  -2  -2  14    0.51    0.23
   2   2 -14    0.16    0.18
  -2   2  14    0.05    0.17
   2   2 -14    0.45    0.12
  -2   2  14    0.44    0.21
  -2   2  14    0.74    0.17
  -1  -2  14   32.90    1.06
   1  -2 -14   31.76    1.10
  -1  -2  14   31.91    1.03
   1  -2 -14   31.95    0.94
   1   2 -14   31.46    0.97
   1   2 -14   31.11    1.06
  -1   2  14   31.67    1.04
  -1   2  14   32.28    0.99
   0  -2  14   10.45    0.54
   0  -2 -14   10.53    0.63
   0  -2  14    9.76    0.53
   0   2 -14    9.64    0.42
   0   2  14   10.32    0.51
   0   2  14    9.49    0.52
   0   2 -14   10.29    0.52
   1  -2  14   12.93    0.65
   1  -2  14   13.68    0.63
  -1  -2 -14   14.26    0.78
  -1   2 -14   14.50    0.77
   1   2  14   13.20    0.52
   1   2  14   13.33    0.63
  -1   2 -14   14.69    0.63
   1   2  14   12.02    0.62
  -2  -2 -14    0.11    0.30
   2  -2  14    0.09    0.19
   2  -2  14    0.15    0.24
   2  -2  14    0.42    0.22
   2   2  14    0.28    0.23
   2   2  14    0.23    0.25
  -2   2 -14    0.23    0.23
   2   2  14    0.38    0.15
   3  -2  14   10.44    0.56
   3  -2  14   10.31    0.55
   3  -2  14    9.70    0.63
  -3  -2 -14    9.35    0.76
  -3   2 -14    9.40    0.72
   3   2  14    9.81    0.58
   3   2  14   10.08    0.64
   4  -2  14   -0.01    0.22
   4  -2  14    0.07    0.22
   4  -2  14    0.12    0.30
   4   2  14   -0.07    0.27
   4   2  14   -0.24    0.28
   5  -2  14    0.55    0.30
   5  -2  14    0.30    0.33
   5   2  14    0.60    0.29
   5   2  14    0.76    0.39
   6  -2  14    0.36    0.32
   6  -2  14    0.58    0.39
   6   2  14    0.76    0.41
   6   2  14    0.88    0.32
   7  -3 -14    2.04    0.43
   7  -3 -14    0.87    0.37
   7   3 -14    1.86    0.41
   7   3 -14    1.07    0.42
   6  -3 -14    8.75    0.64
   6  -3 -14    9.71    0.67
   6   3 -14    9.34    0.63
   6   3 -14   10.27    0.62
  -5  -3  14    7.39    0.74
   5  -3 -14    7.39    0.57
   5  -3 -14    8.27    0.56
   5   3 -14    7.65    0.58
   5   3 -14    7.96    0.49
  -5   3  14    6.73    0.58
   4  -3 -14    6.78    0.47
   4  -3 -14    6.12    0.50
  -4  -3  14    6.64    0.54
   4   3 -14    6.55    0.50
  -4   3  14    6.27    0.55
   4   3 -14    6.88    0.42
   3  -3 -14   11.02    0.49
   3  -3 -14   10.77    0.56
  -3  -3  14   10.66    0.60
  -3   3  14   11.87    0.63
   3   3 -14   11.38    0.61
   3   3 -14   10.91    0.57
  -3   3  14   10.41    0.53
   3   3 -14   10.76    0.45
  -2  -3  14    0.31    0.21
   2  -3 -14    0.78    0.21
   2  -3 -14    0.95    0.24
  -2   3  14    0.44    0.17
   2   3 -14    0.40    0.20
  -2   3  14    0.49    0.21
  -1  -3  14    2.86    0.33
  -1  -3  14    2.99    0.37
   1  -3 -14    3.19    0.31
  -1  -3  14    2.55    0.33
   1  -3 -14    2.90    0.39
  -1   3  14    3.30    0.31
  -1   3  14    3.04    0.37
   1   3 -14    3.57    0.31
  -1   3  14    3.24    0.35
   1   3 -14    2.74    0.31
   0  -3 -14   29.99    1.17
   0  -3  14   31.20    1.08
   0  -3  14   32.66    1.09
   0   3 -14   32.45    1.05
   0   3  14   29.87    1.05
   0   3  14   31.56    1.04
   0   3 -14   33.69    0.94
   1  -3  14   31.54    1.12
   1  -3  14   32.89    1.15
  -1  -3 -14   33.07    1.29
   1   3  14   32.73    1.11
   1   3  14   34.60    0.97
   1   3  14   32.55    1.11
  -1   3 -14   34.93    1.09
   2  -3  14    4.30    0.46
   2  -3  14    3.45    0.39
  -2  -3 -14    3.60    0.52
  -2   3 -14    4.21    0.54
   2   3  14    3.49    0.43
   2   3  14    3.41    0.41
   3  -3  14    3.29    0.41
   3  -3  14    2.94    0.44
  -3  -3 -14    3.68    0.53
   3   3  14    3.47    0.46
  -3   3 -14    3.96    0.54
   3   3  14    3.59    0.43
   4  -3  14    5.02    0.50
   4  -3  14    5.01    0.56
   4   3  14    3.93    0.52
   4   3  14    3.41    0.44
   5  -3  14    2.55    0.42
   5  -3  14    1.77    0.44
   5   3  14    2.51    0.42
   5   3  14    2.77    0.51
   7  -4 -14    2.09    0.46
   7  -4 -14    3.42    0.54
   7   4 -14    3.20    0.51
   7   4 -14    2.76    0.54
   6  -4 -14    6.05    0.61
   6  -4 -14    6.14    0.60
   6   4 -14    7.07    0.59
   6   4 -14    6.74    0.66
   5  -4 -14    0.66    0.28
   5  -4 -14    1.03    0.34
  -5   4  14    0.67    0.31
   5   4 -14    0.71    0.29
   5   4 -14    0.85    0.34
  -4  -4  14   -0.13    0.24
   4  -4 -14   -0.27    0.20
   4   4 -14    0.18    0.20
  -4   4  14    0.11    0.24
   4   4 -14   -0.19    0.23
  -3  -4  14    8.20    0.57
   3  -4 -14    8.63    0.51
   3  -4 -14    6.92    0.41
  -3   4  14    7.65    0.44
   3   4 -14    7.67    0.51
  -3   4  14    7.28    0.53
   2  -4 -14    5.29    0.42
  -2  -4  14    4.65    0.42
   2  -4 -14    4.60    0.38
   2   4 -14    4.22    0.35
  -2   4  14    4.73    0.41
  -2   4  14    4.62    0.39
  -2   4  14    5.19    0.43
   1  -4 -14    0.16    0.25
  -1  -4  14    0.51    0.21
   1  -4 -14    0.73    0.22
  -1  -4  14    0.15    0.24
  -1   4  14    1.09    0.24
  -1   4  14    0.80    0.24
  -1   4  14    0.42    0.22
   1   4 -14    0.67    0.22
   1   4 -14    0.54    0.19
   0  -4  14   41.70    1.38
   0  -4 -14   44.01    1.53
   0  -4  14   46.21    1.42
   0   4  14   45.38    1.35
   0   4  14   43.67    1.37
   1  -4  14    1.54    0.29
  -1  -4 -14    2.15    0.43
   1  -4  14    1.48    0.30
   1   4  14    1.96    0.36
  -1   4 -14    2.17    0.28
   1   4  14    1.77    0.33
  -2  -4 -14    0.48    0.28
   2  -4  14    0.46    0.29
   2  -4  14    0.21    0.25
   2   4  14    0.72    0.29
   2   4  14    0.42    0.26
   3  -4  14    2.60    0.42
   3  -4  14    1.31    0.33
   3   4  14    1.45    0.36
   3   4  14    1.33    0.36
   4  -4  14    2.63    0.42
   4  -4  14    2.81    0.46
   4   4  14    2.28    0.45
   4   4  14    2.70    0.44
   5  -4  14    2.68    0.45
   5  -4  14    2.67    0.49
   5   4  14    3.27    0.48
   5   4  14    1.89    0.47
   6  -5 -14    0.49    0.34
   6  -5 -14    0.30    0.35
   6   5 -14    0.84    0.37
   5  -5 -14    5.00    0.56
   5  -5 -14    5.57    0.56
   5   5 -14    4.34    0.52
   4  -5 -14    2.96    0.41
  -4  -5  14    2.68    0.39
  -4   5  14    2.28    0.36
   4   5 -14    3.27    0.42
  -3  -5  14    3.32    0.39
   3  -5 -14    3.28    0.40
  -3   5  14    3.29    0.34
   3   5 -14    3.27    0.38
   2  -5 -14    1.50    0.29
   2  -5 -14    1.94    0.32
  -2  -5  14    1.76    0.30
  -2  -5  14    1.32    0.33
  -2   5  14    1.24    0.27
  -2   5  14    1.71    0.28
   2   5 -14    2.19    0.31
  -1  -5  14    6.22    0.40
   1  -5 -14    7.59    0.48
  -1  -5  14    6.69    0.53
   1  -5 -14    6.76    0.55
   1   5 -14    6.49    0.38
   1   5 -14    6.24    0.43
  -1   5  14    7.37    0.44
  -1   5  14    7.02    0.47
   0  -5 -14    1.99    0.40
   0  -5  14    2.66    0.39
   0   5 -14    2.56    0.29
   0   5  14    2.22    0.33
   0   5  14    1.99    0.34
   1  -5  14    2.63    0.40
   1  -5  14    1.58    0.35
  -1  -5 -14    2.21    0.40
   1   5  14    1.89    0.34
   1   5  14    1.69    0.34
   2  -5  14    4.61    0.48
   2  -5  14    4.69    0.53
  -2  -5 -14    5.38    0.65
   2   5  14    5.45    0.53
   2   5  14    4.52    0.53
   3  -5  14    0.38    0.29
   3  -5  14    0.36    0.33
   3   5  14    0.21    0.32
   3   5  14    1.09    0.35
   4  -5  14    1.31    0.40
   4  -5  14    1.16    0.38
   4   5  14    0.60    0.38
   4   5  14    1.69    0.41
   5  -5  14   -0.15    0.34
   5  -5  14    0.09    0.33
   5   5  14    0.00    0.37
   5   5  14   -0.03    0.37
   6  -6 -14    1.37    0.41
   6  -6 -14    1.45    0.41
   6   6 -14    0.73    0.39
   5  -6 -14   -0.24    0.27
   5   6 -14    0.67    0.34
  -4  -6  14    2.12    0.38
  -4  -6  14    1.88    0.35
   4  -6 -14    2.85    0.43
   4   6 -14    1.44    0.35
   3  -6 -14   -0.16    0.24
  -3  -6  14    0.19    0.29
  -3  -6  14   -0.44    0.23
  -3   6  14    0.27    0.22
   3   6 -14    0.54    0.28
   2  -6 -14    4.19    0.45
   2  -6 -14    4.61    0.47
  -2  -6  14    3.37    0.36
  -2  -6  14    3.45    0.46
  -2   6  14    3.51    0.40
   2   6 -14    3.83    0.39
  -1  -6  14   13.45    0.73
   1  -6 -14   12.89    0.67
  -1  -6  14   12.96    0.57
   1  -6 -14   13.47    0.77
  -1   6  14   12.68    0.61
  -1   6  14   12.65    0.64
   0  -6  14    4.04    0.49
   0  -6 -14    3.36    0.50
   0   6  14    4.22    0.47
   0   6  14    3.86    0.44
  -1  -6 -14    2.41    0.44
   1  -6  14    1.79    0.33
   1   6  14    2.35    0.39
   1   6  14    2.20    0.38
   2  -6  14    0.02    0.28
   2  -6  14   -0.11    0.28
   2   6  14   -0.09    0.29
   2   6  14   -0.14    0.27
   3  -6  14    0.33    0.33
   3  -6  14    0.47    0.33
   3   6  14    0.22    0.32
   3   6  14    0.16    0.33
   4  -6  14    2.27    0.45
   4  -6  14    1.52    0.44
   4   6  14    0.98    0.39
   4   6  14    0.77    0.42
  -5  -7  14    1.78    0.42
   5  -7 -14    1.28    0.40
   5   7 -14    1.28    0.38
  -4  -7  14    0.60    0.47
  -4  -7  14    0.80    0.34
   4  -7 -14    0.11    0.30
   4   7 -14    0.26    0.27
   3  -7 -14   -0.29    0.25
  -3  -7  14    0.12    0.30
   3   7 -14    0.27    0.24
  -3   7  14    0.36    0.23
  -2  -7  14    1.00    0.35
   2  -7 -14    0.60    0.37
   2  -7 -14    1.38    0.35
   2   7 -14    1.16    0.27
  -2   7  14    0.71    0.25
   1  -7 -14    0.75    0.31
   1  -7 -14    0.63    0.33
  -1  -7  14    0.64    0.33
  -1   7  14    0.79    0.27
  -1   7  14    0.44    0.26
   0  -7 -14    3.16    0.53
   0  -7  14    3.76    0.50
   0   7  14    4.06    0.46
   1  -7  14    0.89    0.36
   1   7  14    1.26    0.37
   1   7  14    1.14    0.35
   2  -7  14    1.42    0.40
   2   7  14    1.17    0.38
   2   7  14    1.30    0.39
   3  -7  14    0.26    0.34
   3   7  14    0.26    0.33
   3   7  14    0.15    0.34
   4  -7  14    0.47    0.36
   4   7  14    0.99    0.44
   4   7  14    0.34    0.38
  -4  -8  14    2.35    0.48
   4  -8 -14    2.28    0.46
   4   8 -14    3.00    0.44
  -3  -8  14    3.88    0.48
   3  -8 -14    3.65    0.51
   3   8 -14    3.25    0.42
  -2  -8  14    3.41    0.50
   2  -8 -14    2.72    0.46
   2   8 -14    3.04    0.37
  -2   8  14    3.40    0.43
   1  -8 -14    2.25    0.47
  -1  -8  14    2.27    0.39
   1  -8 -14    2.01    0.41
  -1   8  14    2.17    0.37
  -1   8  14    2.02    0.36
   0  -8  14   -0.28    0.29
   0   8  14   -0.45    0.21
   0   8  14   -0.03    0.26
   1  -8  14    1.63    0.42
   1   8  14    1.33    0.37
   1   8  14    1.34    0.37
   2  -8  14    2.59    0.48
   2   8  14    2.93    0.51
   2   8  14    2.75    0.49
   3  -8  14    0.50    0.40
   3   8  14    0.33    0.37
   3   8  14    0.27    0.38
   3  -9 -14    1.56    0.43
  -3  -9  14    1.15    0.41
   3   9 -14    1.37    0.33
  -2  -9  14    0.57    0.38
   2  -9 -14    1.03    0.39
  -2   9  14    1.29    0.32
  -1  -9  14    0.50    0.36
   1  -9 -14    0.22    0.33
  -1   9  14    0.01    0.23
  -1   9  14   -0.04    0.25
   0  -9  14    0.33    0.35
   0   9  14    0.15    0.31
   0   9  14    0.06    0.29
   1  -9  14    1.45    0.43
   1   9  14    1.21    0.41
   1   9  14    2.00    0.43
   7   0 -15   -0.12    0.33
   7   0 -15   -0.19    0.26
   6   0 -15    1.85    0.36
   6   0 -15    2.37    0.44
   5   0 -15   -0.13    0.26
   5   0 -15    0.06    0.21
   4   0 -15    4.45    0.36
   4   0 -15    4.71    0.47
  -4   0  15    4.00    0.46
   3   0 -15    8.28    0.43
  -3   0  15    8.21    0.56
   3   0 -15    8.53    0.52
   3   0 -15    8.93    0.43
   2   0 -15    0.22    0.20
  -2   0  15    0.02    0.16
   2   0 -15    0.05    0.17
   2   0 -15   -0.23    0.12
  -2   0  15   -0.09    0.21
   1   0 -15    0.48    0.23
  -1   0  15    0.76    0.21
   0   0  15    1.62    0.29
   0   0 -15    1.60    0.34
   0   0  15    1.97    0.29
  -1   0 -15    3.26    0.45
   1   0  15    3.82    0.37
   1   0  15    3.77    0.42
   1   0  15    3.41    0.37
   2   0  15    9.30    0.49
   2   0  15    8.24    0.51
  -2   0 -15    7.50    0.66
   2   0  15    9.03    0.58
   3   0  15    2.86    0.33
  -3   0 -15    2.20    0.47
   3   0  15    2.13    0.33
   3   0  15    3.05    0.44
   4   0  15    0.37    0.31
   4   0  15   -0.06    0.25
   5   0  15   -0.14    0.32
   5   0  15   -0.04    0.23
   7  -1 -15    0.68    0.33
   7  -1 -15    1.04    0.38
   7   1 -15    0.08    0.37
   7   1 -15    0.67    0.32
   6  -1 -15    0.09    0.29
   6  -1 -15    0.08    0.25
   6   1 -15    0.04    0.25
   6   1 -15    0.33    0.32
   5  -1 -15    2.03    0.34
   5  -1 -15    2.10    0.39
   5   1 -15    2.78    0.42
   5   1 -15    1.81    0.31
   4  -1 -15    6.02    0.45
  -4  -1  15    5.21    0.51
   4  -1 -15    5.56    0.42
   4   1 -15    6.38    0.49
   4   1 -15    6.06    0.38
  -4   1  15    5.49    0.53
  -3  -1  15   22.66    0.91
   3  -1 -15   21.36    0.75
   3  -1 -15   23.12    0.77
   3  -1 -15   21.47    0.86
   3   1 -15   22.34    0.73
   3   1 -15   21.25    0.84
  -3   1  15   21.54    0.91
   3   1 -15   22.56    0.81
  -2  -1  15   17.30    0.75
   2  -1 -15   17.16    0.71
   2  -1 -15   17.24    0.60
  -2  -1  15   17.18    0.65
   2   1 -15   17.68    0.55
  -2   1  15   17.08    0.77
   2   1 -15   18.09    0.70
   2   1 -15   17.35    0.73
  -2   1  15   17.64    0.63
  -1  -1  15   41.61    1.25
   1  -1 -15   42.05    1.12
   1  -1 -15   39.81    1.33
   1   1 -15   41.86    1.21
  -1   1  15   40.88    1.23
  -1   1  15   39.11    1.27
   1   1 -15   41.86    1.36
   0  -1 -15   16.07    0.51
   0  -1  15   15.37    0.68
   0  -1 -15   16.98    0.80
   0  -1  15   15.90    0.67
   0   1  15   16.08    0.68
   0   1 -15   15.30    0.77
   0   1 -15   15.59    0.59
   0   1  15   15.46    0.66
  -1  -1 -15   10.43    0.70
   1  -1  15   11.30    0.56
   1  -1  15   11.59    0.61
   1  -1  15   10.80    0.57
   1   1  15   10.77    0.60
   1   1  15   11.98    0.59
  -1   1 -15   11.59    0.71
   1   1  15   11.03    0.51
   2  -1  15    6.54    0.52
  -2  -1 -15    7.64    0.66
   2  -1  15    6.74    0.47
   2  -1  15    6.51    0.44
   2   1  15    7.25    0.41
  -2   1 -15    7.88    0.65
   2   1  15    6.97    0.50
   2   1  15    7.01    0.52
   3  -1  15    6.31    0.43
  -3  -1 -15    5.46    0.61
   3  -1  15    5.00    0.54
   3  -1  15    5.78    0.49
   3   1  15    6.15    0.53
   3   1  15    4.74    0.52
  -3   1 -15    5.72    0.63
   4  -1  15    1.21    0.37
   4  -1  15    0.12    0.26
   4   1  15    0.65    0.35
   4   1  15    0.65    0.30
   5  -1  15    3.10    0.51
   5  -1  15    2.51    0.38
   5   1  15    2.50    0.40
   5   1  15    2.70    0.50
   7  -2 -15    3.30    0.53
   7  -2 -15    2.81    0.46
   7   2 -15    2.75    0.51
   7   2 -15    2.42    0.43
   6  -2 -15    1.62    0.37
   6  -2 -15    1.83    0.41
   6   2 -15    1.24    0.34
   6   2 -15    1.18    0.38
   5  -2 -15    9.56    0.63
   5  -2 -15    8.93    0.56
   5   2 -15   10.25    0.65
   5   2 -15    9.22    0.53
  -4  -2  15    5.07    0.50
   4  -2 -15    4.17    0.47
   4  -2 -15    4.86    0.40
   4   2 -15    5.05    0.49
  -4   2  15    5.04    0.51
   4   2 -15    4.89    0.37
  -3  -2  15    3.72    0.42
   3  -2 -15    4.61    0.33
   3  -2 -15    4.34    0.38
   3   2 -15    4.42    0.30
  -3   2  15    4.13    0.41
   3   2 -15    4.51    0.43
   2  -2 -15    3.83    0.31
   2  -2 -15    3.77    0.36
  -2  -2  15    4.46    0.43
   2   2 -15    4.34    0.35
  -2   2  15    4.25    0.40
  -2   2  15    4.41    0.30
  -1  -2  15    4.92    0.38
   1  -2 -15    4.49    0.31
   1  -2 -15    4.33    0.42
  -1   2  15    4.23    0.35
   1   2 -15    4.94    0.33
  -1   2  15    5.00    0.40
   0  -2 -15   35.91    1.04
   0  -2 -15   34.56    1.29
   0  -2  15   36.03    1.19
   0  -2  15   36.51    1.19
   0   2 -15   37.04    1.32
   0   2 -15   37.25    1.06
   0   2  15   36.83    1.16
   0   2  15   37.36    1.20
   1  -2  15   65.36    1.88
  -1  -2 -15   67.48    2.10
   1  -2  15   66.26    1.93
  -1   2 -15   68.44    2.10
   1   2  15   63.08    1.89
   1   2  15   68.06    1.92
   2  -2  15    5.61    0.44
   2  -2  15    5.77    0.44
   2  -2  15    5.36    0.52
  -2  -2 -15    6.70    0.64
   2   2  15    5.89    0.53
   2   2  15    6.03    0.48
   2   2  15    5.57    0.52
  -2   2 -15    6.94    0.62
   3  -2  15    1.85    0.31
   3  -2  15    1.70    0.38
   3  -2  15    1.63    0.33
   3   2  15    1.09    0.32
   3   2  15    1.87    0.39
   4  -2  15    1.29    0.29
   4  -2  15    1.08    0.36
   4  -2  15    1.27    0.33
   4   2  15    1.19    0.39
   4   2  15    1.07    0.33
   5  -2  15    0.49    0.36
   5  -2  15   -0.12    0.24
   5   2  15    0.41    0.37
   5   2  15    0.69    0.36
   7  -3 -15    2.33    0.46
   7  -3 -15    2.51    0.49
   7   3 -15    1.99    0.44
   7   3 -15    2.03    0.48
   6  -3 -15    5.66    0.61
   6  -3 -15    5.59    0.57
   6   3 -15    6.96    0.57
   6   3 -15    5.96    0.63
   5  -3 -15    0.37    0.29
   5  -3 -15    0.38    0.27
   5   3 -15    0.33    0.31
   5   3 -15    0.40    0.26
   4  -3 -15    1.55    0.35
  -4  -3  15    1.18    0.33
   4  -3 -15    1.57    0.29
  -4   3  15    1.24    0.33
   4   3 -15    1.07    0.31
   4   3 -15    1.91    0.28
   3  -3 -15    2.86    0.34
   3  -3 -15    2.25    0.26
  -3  -3  15    2.06    0.34
   3   3 -15    1.76    0.31
   3   3 -15    2.19    0.35
   3   3 -15    1.36    0.33
  -3   3  15    2.10    0.32
  -2  -3  15   35.05    1.16
   2  -3 -15   34.08    1.13
   2  -3 -15   33.48    1.06
  -2   3  15   33.83    1.01
  -2   3  15   32.12    1.09
   2   3 -15   32.26    1.07
   1  -3 -15    3.14    0.31
   1  -3 -15    2.59    0.37
  -1  -3  15    2.77    0.35
  -1  -3  15    2.65    0.37
  -1   3  15    2.96    0.32
   1   3 -15    3.55    0.32
  -1   3  15    2.38    0.34
   0  -3  15    8.23    0.54
   0  -3  15    8.40    0.53
   0  -3 -15    8.65    0.63
   0   3  15    8.92    0.50
   0   3  15    7.59    0.50
   1  -3  15   13.82    0.70
  -1  -3 -15   14.09    0.83
   1  -3  15   13.99    0.66
   1   3  15   13.73    0.67
   1   3  15   14.65    0.54
   1   3  15   13.69    0.68
   2  -3  15    2.35    0.36
   2  -3  15    3.68    0.47
  -2  -3 -15    2.28    0.47
  -2   3 -15    2.62    0.47
   2   3  15    2.38    0.39
   2   3  15    2.53    0.39
   3  -3  15    0.93    0.34
   3  -3  15    0.47    0.27
   3   3  15    0.28    0.27
   3   3  15    0.83    0.33
   4  -3  15    5.51    0.60
   4  -3  15    5.50    0.52
   4   3  15    4.90    0.52
   4   3  15    3.64    0.53
   5  -3  15    1.66    0.38
   5  -3  15    1.74    0.50
   5   3  15    1.11    0.37
   5   3  15    1.81    0.48
   7  -4 -15    3.05    0.52
   7  -4 -15    4.26    0.57
   7   4 -15    4.34    0.54
   7   4 -15    4.13    0.60
   6  -4 -15    7.46    0.69
   6  -4 -15    9.40    0.68
   6   4 -15    8.97    0.70
   6   4 -15    8.56    0.59
   5  -4 -15    1.99    0.38
   5  -4 -15    1.91    0.41
   5   4 -15    2.22    0.35
   5   4 -15    1.93    0.40
   4  -4 -15    3.99    0.44
  -4  -4  15    4.06    0.47
  -4   4  15    4.39    0.49
   4   4 -15    4.52    0.47
  -3  -4  15    1.24    0.31
   3  -4 -15    2.01    0.34
  -3   4  15    1.17    0.26
   3   4 -15    1.89    0.31
  -2  -4  15   11.43    0.59
   2  -4 -15   11.05    0.55
  -2  -4  15   10.39    0.59
   2  -4 -15   10.65    0.60
  -2   4  15   10.24    0.55
   2   4 -15   11.06    0.55
  -2   4  15   11.61    0.59
  -1  -4  15   10.60    0.63
   1  -4 -15   11.16    0.55
   1  -4 -15   12.71    0.71
  -1  -4  15   10.81    0.56
   1   4 -15   11.55    0.51
  -1   4  15   10.85    0.59
  -1   4  15   12.56    0.55
   0  -4  15   18.80    0.85
   0  -4 -15   19.83    0.95
   0  -4  15   21.08    0.87
   0   4  15   20.35    0.80
   0   4 -15   21.32    0.78
   0   4  15   19.62    0.83
  -1  -4 -15    3.12    0.49
   1  -4  15    3.85    0.42
   1  -4  15    3.27    0.41
  -1   4 -15    2.89    0.34
   1   4  15    4.30    0.46
   1   4  15    4.00    0.44
   2  -4  15    1.63    0.38
   2  -4  15    0.87    0.30
  -2  -4 -15    1.77    0.45
   2   4  15    1.26    0.33
   2   4  15    1.34    0.35
   3  -4  15    0.28    0.30
   3  -4  15   -0.33    0.24
   3   4  15   -0.01    0.27
   3   4  15   -0.03    0.29
   4  -4  15    0.92    0.33
   4  -4  15    0.49    0.35
   4   4  15    1.64    0.42
   4   4  15    0.90    0.34
   5  -4  15    1.37    0.42
   5  -4  15    1.22    0.44
   5   4  15    1.78    0.44
   5   4  15    0.78    0.42
   6  -5 -15    5.21    0.60
   6  -5 -15    4.29    0.55
   6   5 -15    4.84    0.60
   5  -5 -15    4.87    0.57
   5  -5 -15    4.68    0.51
   5   5 -15    5.96    0.60
  -4  -5  15    1.63    0.36
   4  -5 -15    1.52    0.34
   4   5 -15    0.99    0.32
  -4   5  15    1.78    0.35
  -3  -5  15    5.04    0.47
   3  -5 -15    5.83    0.51
  -3   5  15    5.01    0.40
   3   5 -15    5.33    0.43
  -2  -5  15    5.12    0.42
   2  -5 -15    5.53    0.45
  -2  -5  15    5.10    0.51
   2  -5 -15    5.18    0.47
  -2   5  15    5.40    0.42
   2   5 -15    5.54    0.42
   1  -5 -15    0.75    0.29
   1  -5 -15    0.57    0.29
  -1  -5  15    1.26    0.29
  -1   5  15    0.95    0.27
  -1   5  15    1.82    0.30
   1   5 -15    1.58    0.25
   0  -5  15    2.85    0.42
   0  -5 -15    2.67    0.46
   0   5  15    3.08    0.40
   0   5  15    2.63    0.35
  -1  -5 -15    2.75    0.50
   1  -5  15    3.20    0.46
   1  -5  15    2.67    0.41
   1   5  15    3.29    0.42
   1   5  15    4.04    0.46
   2  -5  15    2.79    0.45
   2  -5  15    3.43    0.47
   2   5  15    3.50    0.46
   2   5  15    2.87    0.44
   3  -5  15    1.48    0.42
   3  -5  15    0.99    0.35
   3   5  15    0.68    0.35
   3   5  15    0.72    0.34
   4  -5  15    0.42    0.35
   4  -5  15    0.58    0.32
   4   5  15    0.17    0.36
   4   5  15    0.14    0.33
   6  -6 -15    2.18    0.46
   6  -6 -15    2.33    0.46
   6   6 -15    2.12    0.48
   5  -6 -15    1.67    0.40
   5   6 -15    1.72    0.41
   4  -6 -15    2.33    0.41
  -4  -6  15    1.71    0.40
  -4  -6  15    2.51    0.45
   4   6 -15    2.02    0.38
   3  -6 -15    0.63    0.29
  -3  -6  15    0.62    0.26
  -3  -6  15    0.33    0.24
   3   6 -15    0.44    0.24
  -3   6  15    0.20    0.20
  -2  -6  15    7.17    0.58
   2  -6 -15    6.29    0.56
   2  -6 -15    5.61    0.52
  -2  -6  15    7.11    0.48
  -2   6  15    6.49    0.46
   2   6 -15    6.15    0.45
   1  -6 -15    6.91    0.65
   1  -6 -15    6.95    0.51
  -1  -6  15    6.60    0.60
  -1   6  15    6.31    0.49
  -1   6  15    5.92    0.46
   0  -6 -15    0.28    0.32
   0  -6  15    0.61    0.32
   0   6  15    0.35    0.25
   0   6  15    0.26    0.25
   1  -6  15    0.90    0.34
   1   6  15    0.61    0.31
   1   6  15    0.54    0.33
   2  -6  15    1.60    0.40
   2  -6  15    2.21    0.45
   2   6  15    1.48    0.39
   2   6  15    2.12    0.41
   3  -6  15    0.48    0.34
   3  -6  15    0.58    0.36
   3   6  15    0.94    0.39
   3   6  15    0.89    0.39
   4  -6  15    0.92    0.42
   4  -6  15    0.55    0.37
   4   6  15    0.73    0.41
   4   6  15    1.15    0.43
  -5  -7  15   -0.36    0.31
   5  -7 -15    0.35    0.33
   5   7 -15   -0.04    0.31
   4  -7 -15    2.80    0.48
  -4  -7  15    3.03    0.50
   4   7 -15    3.96    0.48
   3  -7 -15    1.92    0.39
  -3  -7  15    1.84    0.42
  -3   7  15    2.31    0.34
   3   7 -15    1.47    0.33
  -2  -7  15    8.42    0.66
   2  -7 -15   10.37    0.65
  -2   7  15    9.24    0.56
   2   7 -15    9.24    0.54
   1  -7 -15    7.97    0.59
  -1  -7  15    8.71    0.65
   1  -7 -15    9.11    0.75
  -1   7  15    9.25    0.56
  -1   7  15    8.77    0.60
   0  -7  15   -0.06    0.31
   0   7  15    0.49    0.26
   0   7  15    0.12    0.26
   1  -7  15    0.41    0.26
   1   7  15    0.61    0.32
   1   7  15    0.14    0.27
   2  -7  15    2.10    0.44
   2   7  15    1.87    0.42
   2   7  15    1.69    0.45
   3  -7  15    2.66    0.50
   3   7  15    2.36    0.49
   3   7  15    2.36    0.50
  -4  -8  15    0.13    0.34
   4  -8 -15    0.30    0.34
   4   8 -15    0.05    0.32
   3  -8 -15    0.38    0.32
  -3  -8  15    0.20    0.27
   3   8 -15    0.35    0.30
  -2  -8  15    1.77    0.43
   2  -8 -15    1.30    0.39
  -2   8  15    1.40    0.33
  -1  -8  15    1.04    0.39
   1  -8 -15    0.78    0.35
  -1   8  15    0.28    0.27
  -1   8  15    1.14    0.31
   0  -8  15    0.09    0.32
   0   8  15    0.49    0.30
   0   8  15   -0.12    0.29
   1  -8  15    0.62    0.38
   1   8  15    0.21    0.34
   1   8  15    0.26    0.33
   2  -8  15    0.31    0.35
   2   8  15    0.34    0.36
   2   8  15    0.41    0.41
   2  -9 -15    0.26    0.34
  -2  -9  15    0.09    0.34
  -2   9  15   -0.22    0.24
  -1  -9  15    0.09    0.34
   1  -9 -15    0.57    0.35
  -1   9  15    0.28    0.31
   0  -9  15    0.92    0.41
   0   9  15    0.36    0.30
   0   9  15    0.75    0.35
   1  -9  15    0.30    0.29
   1   9  15    0.36    0.35
   1   9  15    0.66    0.37
   7   0 -16    0.01    0.36
   7   0 -16    1.53    0.39
   6   0 -16    0.37    0.30
   6   0 -16    0.14    0.33
   5   0 -16    1.84    0.31
   5   0 -16    2.67    0.43
   4   0 -16    2.37    0.29
  -4   0  16    1.81    0.37
   4   0 -16    1.75    0.35
   3   0 -16   30.52    0.98
   3   0 -16   28.95    0.91
   3   0 -16   27.65    1.03
  -3   0  16   28.67    1.07
   2   0 -16   34.46    0.96
   2   0 -16   34.09    1.12
  -2   0  16   32.50    1.04
  -2   0  16   33.34    1.16
   2   0 -16   33.97    1.13
  -1   0  16   22.92    0.83
   1   0 -16   22.80    0.82
   1   0 -16   23.43    0.96
   0   0 -16    0.86    0.31
   0   0  16    0.50    0.26
   0   0  16    0.64    0.27
   0   0  16    0.72    0.24
   1   0  16   31.87    1.11
   1   0  16   31.53    1.14
   1   0  16   32.03    1.06
  -1   0 -16   34.17    1.31
   2   0  16   16.07    0.73
  -2   0 -16   16.24    0.93
   2   0  16   16.79    0.80
   2   0  16   15.50    0.68
   3   0  16    4.86    0.47
   3   0  16    4.64    0.53
   3   0  16    4.87    0.40
   4   0  16    5.24    0.60
   4   0  16    5.45    0.51
   5   0  16    0.93    0.42
   5   0  16    0.47    0.27
   7  -1 -16    2.72    0.46
   7  -1 -16    2.79    0.51
   7   1 -16    4.39    0.59
   7   1 -16    2.99    0.46
   6  -1 -16    3.46    0.51
   6  -1 -16    3.04    0.43
   6   1 -16    3.16    0.44
   6   1 -16    2.75    0.48
   5  -1 -16    3.92    0.44
   5  -1 -16    3.96    0.50
   5   1 -16    4.16    0.41
   5   1 -16    3.43    0.47
   4  -1 -16    3.38    0.36
  -4  -1  16    3.64    0.46
   4  -1 -16    3.37    0.43
   4   1 -16    3.58    0.34
   4   1 -16    3.62    0.43
  -4   1  16    3.51    0.46
   3  -1 -16   18.08    0.78
   3  -1 -16   16.88    0.67
  -3  -1  16   17.63    0.82
   3  -1 -16   18.85    0.68
   3   1 -16   17.73    0.77
   3   1 -16   17.51    0.63
  -3   1  16   17.33    0.82
   3   1 -16   18.45    0.73
   2  -1 -16    1.11    0.26
  -2  -1  16    1.27    0.24
  -2  -1  16    1.37    0.29
   2  -1 -16    1.59    0.22
   2   1 -16    1.46    0.30
   2   1 -16    1.36    0.26
  -2   1  16    1.69    0.25
  -2   1  16    1.00    0.29
   1  -1 -16    4.34    0.27
   1  -1 -16    4.53    0.44
  -1  -1  16    4.33    0.39
  -1   1  16    4.50    0.43
   1   1 -16    4.58    0.49
   1   1 -16    4.91    0.35
  -1   1  16    4.36    0.35
   0  -1  16   10.79    0.59
   0  -1 -16   10.79    0.68
   0  -1  16   11.64    0.60
   0   1 -16   11.91    0.66
   0   1 -16   11.85    0.51
   0   1  16   11.55    0.58
   0   1  16   11.85    0.61
   1  -1  16   13.44    0.70
   1  -1  16   15.55    0.68
  -1  -1 -16   14.65    0.84
   1  -1  16   14.93    0.69
   1   1  16   14.47    0.61
  -1   1 -16   15.76    0.85
   1   1  16   14.27    0.71
   1   1  16   14.76    0.67
   2  -1  16    2.57    0.36
  -2  -1 -16    2.61    0.45
   2  -1  16    2.10    0.32
   2  -1  16    2.35    0.41
   2   1  16    2.23    0.39
   2   1  16    2.26    0.36
   2   1  16    2.72    0.29
  -2   1 -16    2.23    0.40
   3  -1  16    0.51    0.26
   3  -1  16    0.77    0.24
   3  -1  16    0.59    0.32
   3   1  16    1.36    0.34
   3   1  16    0.39    0.32
   4  -1  16    0.42    0.25
   4  -1  16    0.33    0.23
   4  -1  16    0.80    0.37
   4   1  16    0.38    0.28
   4   1  16    0.78    0.38
   5  -1  16    0.24    0.28
   5  -1  16    0.80    0.41
   5   1  16    0.77    0.42
   5   1  16    1.19    0.38
   7  -2 -16    1.00    0.38
   7  -2 -16    1.13    0.43
   7   2 -16    0.52    0.39
   7   2 -16    0.89    0.39
   6  -2 -16    4.86    0.58
   6  -2 -16    4.13    0.49
   6   2 -16    5.01    0.52
   6   2 -16    4.07    0.55
   5  -2 -16    4.26    0.45
   5  -2 -16    4.88    0.54
   5   2 -16    4.03    0.43
   5   2 -16    4.43    0.51
   4  -2 -16    2.67    0.35
   4  -2 -16    3.82    0.46
  -4  -2  16    3.20    0.44
  -4   2  16    3.70    0.45
   4   2 -16    3.59    0.35
   4   2 -16    2.99    0.42
   3  -2 -16    0.12    0.20
   3  -2 -16    0.09    0.15
  -3  -2  16    0.48    0.26
  -3   2  16   -0.27    0.22
   3   2 -16   -0.02    0.21
   2  -2 -16    1.52    0.23
  -2  -2  16    1.88    0.29
  -2  -2  16    1.45    0.30
   2  -2 -16    1.73    0.29
  -2   2  16    2.05    0.32
   2   2 -16    1.49    0.28
  -2   2  16    1.84    0.26
  -1  -2  16    0.29    0.22
   1  -2 -16    0.46    0.17
   1  -2 -16    0.45    0.26
  -1   2  16   -0.07    0.21
  -1   2  16    0.37    0.21
   1   2 -16    0.34    0.24
   1   2 -16    0.35    0.20
   0  -2  16    1.62    0.32
   0  -2  16    1.00    0.25
   0  -2 -16    1.42    0.22
   0  -2 -16    1.64    0.36
   0   2  16    1.87    0.33
   0   2  16    1.62    0.29
   0   2 -16    1.75    0.37
   0   2 -16    1.88    0.25
   1  -2  16    0.43    0.23
  -1  -2 -16    0.19    0.30
   1  -2  16    0.06    0.24
   1   2  16    0.12    0.20
   1   2  16    0.20    0.25
   1   2  16   -0.08    0.17
  -1   2 -16    0.20    0.30
   2  -2  16    0.87    0.27
   2  -2  16    1.33    0.36
  -2  -2 -16    0.72    0.36
   2   2  16    1.54    0.33
   2   2  16    0.96    0.32
  -2   2 -16    1.36    0.40
   3  -2  16    4.41    0.45
   3  -2  16    4.53    0.45
   3  -2  16    4.72    0.54
   3   2  16    3.89    0.51
   3   2  16    5.05    0.52
   4  -2  16    1.78    0.44
   4  -2  16    1.63    0.34
   4  -2  16    1.77    0.34
   4   2  16    1.44    0.43
   4   2  16    1.68    0.37
   5  -2  16    3.71    0.47
   5  -2  16    3.45    0.56
   5   2  16    3.58    0.57
   5   2  16    2.61    0.45
   7  -3 -16    1.08    0.43
   7  -3 -16    0.52    0.35
   7   3 -16    0.94    0.43
   7   3 -16    0.85    0.35
   6  -3 -16    1.59    0.40
   6  -3 -16    1.84    0.39
   6   3 -16    1.67    0.43
   6   3 -16    1.16    0.32
   5  -3 -16    2.03    0.39
   5  -3 -16    1.53    0.38
   5   3 -16    1.39    0.31
   5   3 -16    1.60    0.40
  -4  -3  16    0.84    0.31
   4  -3 -16    0.87    0.28
   4  -3 -16    0.81    0.31
  -4   3  16    1.16    0.33
   4   3 -16    0.97    0.31
   4   3 -16    0.62    0.22
   3  -3 -16    2.84    0.33
  -3  -3  16    2.67    0.38
  -3   3  16    2.35    0.35
   3   3 -16    2.90    0.37
   2  -3 -16    0.04    0.17
   2  -3 -16    0.20    0.21
  -2  -3  16    0.58    0.24
  -2   3  16    0.50    0.24
  -2   3  16    0.46    0.19
   2   3 -16    0.06    0.21
  -1  -3  16    3.53    0.43
   1  -3 -16    4.35    0.37
   1  -3 -16    3.59    0.45
  -1  -3  16    4.63    0.45
   1   3 -16    4.38    0.34
  -1   3  16    4.74    0.38
  -1   3  16    3.91    0.42
   0  -3 -16   17.69    0.88
   0  -3  16   16.23    0.76
   0  -3  16   16.51    0.74
   0  -3 -16   16.93    0.64
   0   3  16   16.18    0.73
   0   3  16   16.02    0.71
   1  -3  16    4.35    0.47
   1  -3  16    4.24    0.46
  -1  -3 -16    5.01    0.58
  -1   3 -16    5.83    0.61
   1   3  16    4.85    0.48
   1   3  16    4.44    0.46
   2  -3  16    1.11    0.31
  -2  -3 -16    0.77    0.38
   2  -3  16    1.56    0.37
   2   3  16    0.71    0.31
   2   3  16    0.51    0.29
   3  -3  16    0.16    0.31
   3  -3  16    0.00    0.26
   3   3  16   -0.17    0.27
   3   3  16   -0.51    0.26
   4  -3  16   -0.29    0.30
   4  -3  16   -0.08    0.25
   4   3  16    0.23    0.32
   4   3  16    0.00    0.34
   5  -3  16    0.83    0.42
   5  -3  16    0.32    0.33
   5   3  16   -0.07    0.35
   5   3  16   -0.02    0.30
   6  -4 -16    0.37    0.36
   6  -4 -16    0.40    0.36
   6   4 -16    0.29    0.30
   6   4 -16    1.31    0.40
   5  -4 -16    1.76    0.37
   5  -4 -16    2.46    0.45
   5   4 -16    2.25    0.34
   5   4 -16    2.05    0.43
   4  -4 -16    4.32    0.44
  -4  -4  16    3.58    0.46
   4   4 -16    4.25    0.48
  -3  -4  16    0.73    0.28
   3  -4 -16    0.27    0.22
   3   4 -16    0.42    0.24
  -3   4  16    0.78    0.27
   2  -4 -16    9.87    0.59
   2  -4 -16   10.73    0.55
  -2  -4  16    9.59    0.58
  -2  -4  16   10.35    0.58
  -2   4  16    9.58    0.55
   2   4 -16   10.98    0.56
  -1  -4  16    3.93    0.42
   1  -4 -16    4.17    0.50
   1  -4 -16    3.81    0.37
   1   4 -16    3.34    0.33
  -1   4  16    4.18    0.43
  -1   4  16    4.25    0.39
   0  -4  16    1.03    0.31
   0  -4 -16    0.62    0.33
   0  -4  16    0.34    0.29
   0   4  16    0.25    0.27
   0   4  16    0.94    0.27
  -1  -4 -16   -0.20    0.29
   1  -4  16    0.67    0.31
   1  -4  16    0.21    0.27
   1   4  16    0.10    0.26
   1   4  16    0.07    0.24
   2  -4  16    5.39    0.51
   2  -4  16    6.87    0.64
   2   4  16    6.07    0.56
   2   4  16    5.67    0.56
   3  -4  16    1.81    0.37
   3  -4  16    2.75    0.49
   3   4  16    1.41    0.38
   3   4  16    2.21    0.43
   4  -4  16    1.26    0.43
   4  -4  16    1.22    0.37
   4   4  16    1.12    0.38
   4   4  16    1.84    0.47
   6  -5 -16    1.76    0.44
   6  -5 -16    2.81    0.49
   6   5 -16    2.48    0.48
   5  -5 -16    2.72    0.47
   5  -5 -16    2.16    0.42
   5   5 -16    2.50    0.44
   4  -5 -16    0.46    0.28
   4   5 -16   -0.22    0.24
  -3  -5  16    0.81    0.34
  -3  -5  16    0.44    0.26
   3  -5 -16    0.51    0.27
  -3   5  16    0.68    0.24
   3   5 -16    0.21    0.23
  -2  -5  16    3.45    0.43
   2  -5 -16    3.07    0.39
   2  -5 -16    3.68    0.43
  -2  -5  16    3.74    0.39
   2   5 -16    4.23    0.39
  -2   5  16    4.24    0.42
  -1  -5  16   21.13    0.94
   1  -5 -16   21.99    1.00
   1  -5 -16   21.45    0.88
  -1   5  16   21.32    0.82
  -1   5  16   21.07    0.88
   0  -5  16    3.86    0.47
   0  -5 -16    3.81    0.54
   0   5  16    4.03    0.45
   0   5  16    4.20    0.47
   1  -5  16    8.38    0.61
   1  -5  16    9.77    0.65
  -1  -5 -16    8.12    0.73
   1   5  16    6.43    0.53
   1   5  16    7.20    0.57
   2  -5  16    1.56    0.39
   2  -5  16    1.78    0.41
   2   5  16    1.63    0.38
   2   5  16    1.47    0.38
   3  -5  16   -0.36    0.29
   3  -5  16    0.33    0.35
   3   5  16   -0.67    0.28
   3   5  16    0.17    0.32
   4  -5  16    0.80    0.41
   4  -5  16    1.03    0.38
   4   5  16    0.69    0.38
   4   5  16    0.52    0.41
   5  -6 -16    6.24    0.62
   5   6 -16    8.27    0.65
  -4  -6  16    2.99    0.48
   4  -6 -16    3.41    0.47
   4   6 -16    3.08    0.46
  -3  -6  16    4.89    0.56
  -3  -6  16    5.89    0.53
   3  -6 -16    5.64    0.55
   3   6 -16    5.87    0.47
  -3   6  16    6.08    0.47
  -2  -6  16    2.16    0.42
  -2  -6  16    2.32    0.37
   2  -6 -16    1.73    0.35
  -2   6  16    2.44    0.35
   2   6 -16    2.56    0.34
  -1  -6  16    0.53    0.34
   1  -6 -16    1.06    0.39
   1  -6 -16    0.40    0.27
  -1   6  16    0.78    0.25
  -1   6  16    0.26    0.29
   0  -6 -16    2.87    0.50
   0  -6  16    2.31    0.42
   0   6  16    2.22    0.39
   0   6  16    2.78    0.44
   1  -6  16    2.58    0.45
   1   6  16    2.69    0.42
   1   6  16    1.84    0.40
   2  -6  16    1.24    0.42
   2  -6  16    1.03    0.31
   2   6  16    1.63    0.40
   2   6  16    1.89    0.42
   3  -6  16    0.65    0.38
   3  -6  16    1.32    0.40
   3   6  16    0.93    0.41
   3   6  16    0.90    0.38
   5  -7 -16   -0.33    0.30
  -5  -7  16   -0.09    0.35
   5   7 -16   -0.07    0.30
   4  -7 -16    3.22    0.49
  -4  -7  16    3.72    0.54
   4   7 -16    3.35    0.48
   3  -7 -16    1.74    0.39
  -3  -7  16    1.68    0.42
  -3   7  16    1.90    0.34
   3   7 -16    1.77    0.36
   2  -7 -16    2.43    0.43
  -2  -7  16    2.51    0.47
  -2   7  16    2.31    0.36
  -1  -7  16    0.67    0.35
   1  -7 -16    0.50    0.31
   1  -7 -16    0.55    0.34
  -1   7  16    0.55    0.28
  -1   7  16    0.25    0.27
   0  -7  16    2.05    0.44
   0   7  16    2.07    0.39
   0   7  16    1.87    0.38
   1  -7  16    0.20    0.32
   1   7  16    0.77    0.33
   1   7  16    0.25    0.32
   2  -7  16    0.33    0.34
   2   7  16    0.74    0.37
   2   7  16    0.80    0.38
   3  -7  16    1.78    0.47
   3   7  16    1.39    0.45
   3   7  16    1.76    0.46
   4  -8 -16    0.94    0.39
   3  -8 -16    1.67    0.42
  -3  -8  16    1.94    0.47
  -3   8  16    2.27    0.37
   3   8 -16    1.87    0.36
   2  -8 -16    1.56    0.40
  -2  -8  16    1.96    0.45
  -2   8  16    1.43    0.36
  -1  -8  16    1.06    0.41
   1  -8 -16    0.23    0.33
  -1   8  16    0.66    0.34
   0  -8  16    1.11    0.40
   0   8  16    0.73    0.31
   0   8  16    0.85    0.33
   1  -8  16    0.92    0.41
   1   8  16    0.24    0.36
   1   8  16    0.51    0.34
   2  -8  16    0.76    0.41
   2   8  16    1.94    0.48
   2   8  16    0.90    0.41
   1  -9 -16    2.70    0.49
  -1  -9  16    2.79    0.51
  -1   9  16    2.48    0.42
   7   0 -17    3.13    0.48
   7   0 -17    3.24    0.54
   6   0 -17    0.43    0.34
   6   0 -17   -0.22    0.24
   5   0 -17    0.47    0.26
   5   0 -17    0.49    0.31
   4   0 -17    3.33    0.45
   4   0 -17    2.64    0.31
  -3   0  17    0.13    0.26
   3   0 -17    0.49    0.26
   3   0 -17    0.47    0.19
   3   0 -17    0.39    0.19
  -2   0  17   38.94    1.18
  -2   0  17   37.32    1.31
   2   0 -17   40.01    1.25
   2   0 -17   36.39    1.27
   1   0 -17   22.49    0.95
   1   0 -17   21.58    0.81
  -1   0  17   22.33    0.83
   0   0  17    6.58    0.47
   0   0  17    6.48    0.50
   0   0  17    7.35    0.48
   0   0 -17    7.18    0.59
   1   0  17   14.91    0.75
   1   0  17   16.13    0.69
   1   0  17   16.19    0.74
  -1   0 -17   16.19    0.85
   2   0  17    4.88    0.48
   2   0  17    4.65    0.42
  -2   0 -17    5.21    0.64
   2   0  17    5.36    0.55
   3   0  17    0.92    0.30
   3   0  17    1.02    0.25
   3   0  17    0.32    0.32
   4   0  17    2.31    0.48
   4   0  17    2.51    0.40
   5   0  17    3.29    0.44
   5   0  17    3.95    0.59
   7  -1 -17    3.24    0.55
   7  -1 -17    2.61    0.50
   7   1 -17    3.15    0.46
   7   1 -17    1.67    0.48
   6  -1 -17    2.05    0.38
   6  -1 -17    2.20    0.46
   6   1 -17    2.60    0.44
   6   1 -17    2.31    0.38
   5  -1 -17    0.74    0.28
   5  -1 -17    1.37    0.37
   5   1 -17    0.64    0.25
   5   1 -17    0.41    0.33
   4  -1 -17    2.33    0.33
   4  -1 -17    1.46    0.35
   4   1 -17    2.28    0.29
   4   1 -17    2.73    0.41
  -3  -1  17    4.82    0.50
   3  -1 -17    5.65    0.51
   3  -1 -17    5.54    0.38
  -3   1  17    5.82    0.53
   3   1 -17    6.17    0.48
   3   1 -17    6.28    0.44
  -2  -1  17   21.46    0.88
   2  -1 -17   19.99    0.83
  -2  -1  17   17.52    0.73
   2  -1 -17   19.20    0.66
   2   1 -17   19.50    0.77
   2   1 -17   19.85    0.83
  -2   1  17   18.87    0.72
  -1  -1  17    1.28    0.27
   1  -1 -17    2.16    0.37
  -1   1  17    1.76    0.31
   1   1 -17    1.89    0.38
   1   1 -17    1.81    0.30
  -1   1  17    1.60    0.33
   0  -1  17    4.40    0.44
   0  -1  17    4.81    0.45
   0  -1 -17    4.50    0.52
   0   1 -17    4.55    0.35
   0   1 -17    4.75    0.52
   0   1  17    3.95    0.43
   0   1  17    4.78    0.46
   1  -1  17    7.49    0.53
   1  -1  17    8.02    0.56
   1  -1  17    7.70    0.50
  -1  -1 -17    7.28    0.60
   1   1  17    7.39    0.53
   1   1  17    7.27    0.54
  -1   1 -17    8.55    0.67
   1   1  17    7.72    0.46
  -2  -1 -17    6.40    0.77
   2  -1  17    6.79    0.51
   2  -1  17    6.36    0.47
   2  -1  17    6.45    0.59
   2   1  17    7.64    0.58
   2   1  17    6.82    0.52
   2   1  17    6.91    0.45
   3  -1  17    1.43    0.30
   3  -1  17    1.65    0.34
   3  -1  17    1.28    0.38
   3   1  17    1.62    0.39
   3   1  17    1.24    0.39
   4  -1  17    2.90    0.41
   4  -1  17    1.91    0.36
   4  -1  17    2.11    0.47
   4   1  17    2.43    0.42
   4   1  17    3.08    0.53
   5  -1  17    0.77    0.43
   5  -1  17    1.26    0.34
   5   1  17    1.52    0.49
   5   1  17    2.01    0.42
   7  -2 -17   -0.25    0.30
   7  -2 -17    0.53    0.39
   7   2 -17   -0.04    0.27
   7   2 -17    0.08    0.35
   6  -2 -17    1.78    0.44
   6  -2 -17    2.23    0.40
   6   2 -17    2.18    0.39
   6   2 -17    1.77    0.42
   5  -2 -17    0.36    0.31
   5  -2 -17    0.17    0.24
   5   2 -17    0.14    0.24
   5   2 -17    0.48    0.31
   4  -2 -17    0.24    0.28
   4  -2 -17    0.41    0.22
   4   2 -17    0.60    0.34
   4   2 -17    0.35    0.28
   3  -2 -17    2.65    0.40
  -3  -2  17    3.02    0.41
   3  -2 -17    3.12    0.33
  -3   2  17    2.54    0.40
   3   2 -17    3.34    0.40
   2  -2 -17    0.46    0.23
   2  -2 -17    0.25    0.18
  -2  -2  17    0.03    0.22
  -2  -2  17    0.41    0.23
  -2   2  17    0.47    0.25
   2   2 -17    0.26    0.22
  -2   2  17    0.21    0.19
   2   2 -17    0.58    0.28
  -1  -2  17   14.83    0.68
   1  -2 -17   15.42    0.76
   1  -2 -17   14.25    0.56
  -1  -2  17   14.56    0.69
  -1   2  17   14.05    0.64
  -1   2  17   14.31    0.69
   1   2 -17   13.06    0.60
   1   2 -17   13.51    0.75
   0  -2  17   16.02    0.72
   0  -2  17   16.39    0.76
   0  -2 -17   17.33    0.88
   0   2  17   16.77    0.74
   0   2  17   16.16    0.75
   0   2 -17   16.69    0.88
  -1  -2 -17    0.07    0.29
   1  -2  17    0.51    0.26
   1  -2  17    0.33    0.29
  -1   2 -17    0.38    0.32
   1   2  17    0.75    0.29
   1   2  17    0.17    0.19
   1   2  17    0.41    0.26
   2  -2  17    1.54    0.31
   2  -2  17    2.12    0.42
   2   2  17    1.58    0.36
   2   2  17    2.22    0.40
   3  -2  17    0.80    0.36
   3  -2  17    0.61    0.28
   3   2  17    0.41    0.33
   3   2  17   -0.21    0.27
   4  -2  17   -0.34    0.25
   4  -2  17    0.16    0.35
   4  -2  17   -0.28    0.22
   4   2  17    0.17    0.35
   4   2  17    0.06    0.30
   6  -3 -17    0.85    0.37
   6  -3 -17    0.97    0.35
   6   3 -17    1.62    0.43
   6   3 -17    0.73    0.30
   5  -3 -17    3.64    0.44
   5  -3 -17    4.40    0.54
   5   3 -17    4.08    0.43
   5   3 -17    4.24    0.53
   4  -3 -17    1.43    0.37
   4  -3 -17    1.83    0.33
   4   3 -17    2.26    0.41
   3  -3 -17    4.52    0.42
  -3  -3  17    4.02    0.46
   3   3 -17    4.49    0.46
   2  -3 -17    3.38    0.41
  -2  -3  17    3.12    0.39
   2  -3 -17    3.38    0.36
  -2   3  17    2.23    0.36
   2   3 -17    2.81    0.35
   1  -3 -17    3.99    0.36
  -1  -3  17    4.26    0.44
  -1  -3  17    3.55    0.44
   1  -3 -17    3.05    0.45
  -1   3  17    4.32    0.45
  -1   3  17    3.69    0.39
   1   3 -17    3.45    0.34
   0  -3 -17   14.78    0.86
   0  -3  17   15.51    0.77
   0  -3  17   15.62    0.77
   0  -3 -17   16.10    0.64
   0   3  17   16.14    0.76
   0   3  17   17.16    0.75
   1  -3  17    7.40    0.58
   1  -3  17    8.31    0.57
  -1  -3 -17    6.17    0.66
  -1   3 -17    7.30    0.67
   1   3  17    7.45    0.55
   1   3  17    6.95    0.53
   2  -3  17    6.67    0.63
   2  -3  17    5.31    0.52
   2   3  17    5.26    0.54
   2   3  17    5.79    0.58
   3  -3  17    5.31    0.54
   3  -3  17    4.19    0.56
   3   3  17    4.23    0.52
   3   3  17    4.81    0.57
   4  -3  17    2.14    0.39
   4  -3  17    2.23    0.47
   4   3  17    1.86    0.47
   4   3  17    2.01    0.44
   6  -4 -17   -0.23    0.32
   6  -4 -17   -0.32    0.27
   6   4 -17    0.48    0.30
   6   4 -17    0.02    0.35
   5  -4 -17    1.56    0.36
   5  -4 -17    1.08    0.38
   5   4 -17    1.17    0.42
   4  -4 -17    0.18    0.24
   4   4 -17    0.27    0.27
  -3  -4  17    1.31    0.32
   3  -4 -17    0.31    0.23
  -3   4  17    0.93    0.30
   3   4 -17    0.73    0.27
   2  -4 -17    2.37    0.35
  -2  -4  17    1.77    0.32
   2  -4 -17    1.75    0.33
  -2  -4  17    2.15    0.36
  -2   4  17    2.49    0.37
   2   4 -17    2.15    0.32
   1  -4 -17    1.56    0.29
  -1  -4  17    1.78    0.38
   1  -4 -17    1.14    0.33
  -1   4  17    1.87    0.31
  -1   4  17    1.69    0.33
   0  -4 -17    2.04    0.31
   0  -4  17    1.60    0.36
   0  -4 -17    1.85    0.42
   0  -4  17    1.48    0.36
   0   4  17    1.85    0.37
   0   4  17    1.68    0.32
   1  -4  17    2.63    0.44
  -1  -4 -17    2.12    0.46
   1  -4  17    1.77    0.39
   1   4  17    2.26    0.38
   1   4  17    2.11    0.39
   2  -4  17    0.47    0.24
   2  -4  17    0.16    0.31
   2   4  17    0.27    0.25
   2   4  17    0.31    0.29
   3  -4  17    0.04    0.33
   3  -4  17   -0.17    0.27
   3   4  17    0.24    0.34
   3   4  17    0.22    0.32
   4  -4  17    1.10    0.37
   4  -4  17    0.39    0.39
   4   4  17    0.36    0.39
   4   4  17   -0.03    0.32
   6  -5 -17    3.41    0.54
   6  -5 -17    2.96    0.48
   6   5 -17    2.42    0.53
   5  -5 -17    3.63    0.49
   5  -5 -17    4.29    0.59
   5   5 -17    4.65    0.58
   4  -5 -17    2.42    0.41
   4   5 -17    2.77    0.42
  -3  -5  17    0.30    0.33
  -3  -5  17    1.61    0.36
   3  -5 -17    1.31    0.31
  -3   5  17    1.35    0.32
   3   5 -17    1.11    0.29
   2  -5 -17    5.55    0.50
  -2  -5  17    6.35    0.48
  -2  -5  17    5.81    0.58
  -2   5  17    6.04    0.55
   2   5 -17    5.82    0.44
   1  -5 -17    1.75    0.38
  -1  -5  17    1.80    0.34
   1  -5 -17    2.08    0.36
  -1   5  17    1.75    0.35
  -1   5  17    1.34    0.28
   0  -5  17    1.97    0.35
   0  -5 -17    1.81    0.43
   0   5  17    2.41    0.39
   0   5  17    1.66    0.35
   1  -5  17    7.01    0.63
   1  -5  17    6.85    0.65
   1   5  17    5.73    0.55
   1   5  17    8.23    0.60
   2  -5  17    1.27    0.39
   2  -5  17    1.07    0.35
   2   5  17    1.48    0.39
   2   5  17    0.59    0.35
   3  -5  17    0.32    0.33
   3  -5  17    1.45    0.44
   3   5  17    1.40    0.42
   3   5  17    1.83    0.42
   4  -5  17    0.37    0.41
   4   5  17   -0.04    0.34
   4   5  17    0.17    0.38
   5  -6 -17    1.27    0.39
   5  -6 -17    1.16    0.42
   5   6 -17    1.09    0.38
  -4  -6  17    1.46    0.36
   4  -6 -17    1.52    0.39
   4   6 -17    1.71    0.38
   3  -6 -17    0.74    0.31
  -3  -6  17    1.03    0.31
  -3  -6  17    1.03    0.38
  -3   6  17    1.27    0.29
   3   6 -17    1.44    0.34
   2  -6 -17    1.79    0.36
  -2  -6  17    2.41    0.45
  -2   6  17    1.56    0.33
   2   6 -17    2.42    0.36
   1  -6 -17   10.14    0.78
   1  -6 -17   11.39    0.65
  -1  -6  17    9.92    0.71
  -1   6  17   11.48    0.67
  -1   6  17   11.64    0.62
   0  -6  17    2.38    0.44
   0   6  17    2.62    0.39
   0   6  17    3.00    0.45
   1  -6  17    0.75    0.36
   1   6  17    0.57    0.32
   1   6  17    1.67    0.40
   2  -6  17    0.22    0.34
   2  -6  17    0.76    0.40
   2   6  17    0.69    0.37
   2   6  17    0.01    0.32
   3  -6  17    0.11    0.34
   3  -6  17    0.01    0.34
   3   6  17    0.07    0.33
   3   6  17    0.15    0.32
   4  -7 -17    2.10    0.45
  -4  -7  17    3.17    0.52
   4   7 -17    1.87    0.39
   3  -7 -17    2.25    0.42
  -3  -7  17    3.17    0.51
   3   7 -17    1.82    0.35
  -3   7  17    1.85    0.36
  -2  -7  17    4.07    0.51
   2  -7 -17    3.94    0.51
  -2   7  17    3.69    0.45
   1  -7 -17    1.90    0.40
  -1  -7  17    2.49    0.48
  -1   7  17    2.19    0.41
  -1   7  17    2.99    0.40
   0  -7  17   -0.03    0.32
   0   7  17    0.15    0.28
   0   7  17    0.05    0.29
   1  -7  17   -0.14    0.31
   1   7  17   -0.19    0.29
   1   7  17    0.01    0.29
   2  -7  17    1.39    0.45
   2   7  17    0.28    0.36
   2   7  17    0.65    0.42
  -3  -8  17    1.09    0.43
   3  -8 -17    2.12    0.45
  -3   8  17    1.08    0.32
   3   8 -17    0.90    0.33
   2  -8 -17    2.57    0.46
  -2  -8  17    3.04    0.52
  -2   8  17    2.58    0.43
   1  -8 -17    0.67    0.35
  -1  -8  17    1.20    0.42
  -1   8  17    1.37    0.39
   0  -8  17    1.70    0.44
   0   8  17    2.42    0.45
   0   8  17    2.53    0.45
   1  -8  17   -0.12    0.35
   1   8  17    0.24    0.35
   1   8  17    0.48    0.33
   6   0 -18    5.64    0.54
   6   0 -18    5.77    0.64
   5   0 -18    1.52    0.40
   5   0 -18    1.33    0.31
   4   0 -18    3.93    0.48
   4   0 -18    4.53    0.38
   3   0 -18    1.17    0.30
  -3   0  18    0.39    0.29
  -2   0  18    4.24    0.35
   2   0 -18    4.86    0.45
   2   0 -18    4.13    0.44
   1   0 -18    6.40    0.57
  -1   0  18    5.58    0.43
   1   0 -18    5.43    0.45
   0   0  18    0.03    0.23
   0   0 -18    0.49    0.30
   0   0  18    0.83    0.30
   0   0  18    0.55    0.26
  -1   0 -18    0.68    0.36
   1   0  18    1.04    0.32
   1   0  18    1.24    0.32
   1   0  18    0.93    0.27
   2   0  18   10.77    0.64
   2   0  18   10.41    0.59
   2   0  18   10.89    0.70
   3   0  18    2.67    0.49
   3   0  18    3.20    0.38
   3   0  18    3.27    0.43
   4   0  18    1.31    0.44
   4   0  18    1.20    0.35
   6  -1 -18    1.36    0.35
   6  -1 -18    0.85    0.39
   6   1 -18    1.15    0.40
   6   1 -18    0.85    0.30
   5  -1 -18    0.32    0.32
   5  -1 -18    0.46    0.26
   5   1 -18    0.41    0.22
   5   1 -18    0.62    0.33
   4  -1 -18    0.85    0.26
   4  -1 -18    0.82    0.33
   4   1 -18    1.07    0.32
   3  -1 -18    2.71    0.30
  -3  -1  18    2.70    0.38
   3  -1 -18    2.35    0.38
  -3   1  18    2.54    0.46
   3   1 -18    2.99    0.40
   3   1 -18    2.47    0.34
  -2  -1  18    8.92    0.50
  -2  -1  18    8.78    0.60
   2  -1 -18    8.39    0.57
   2  -1 -18    9.63    0.56
   2   1 -18    8.76    0.55
  -2   1  18    8.47    0.48
   2   1 -18    9.05    0.57
  -1  -1  18    9.96    0.58
   1  -1 -18   11.57    0.69
  -1   1  18    9.12    0.59
   1   1 -18   10.74    0.70
   1   1 -18    9.72    0.54
  -1   1  18    9.49    0.53
   0  -1  18    1.24    0.31
   0  -1  18    1.36    0.31
   0  -1 -18    1.40    0.37
   0   1  18    1.42    0.34
   0   1  18    1.05    0.28
   0   1  18    1.16    0.29
   0   1 -18    1.00    0.34
   0   1 -18    0.92    0.24
   1  -1  18    0.86    0.31
  -1  -1 -18    0.94    0.37
   1  -1  18    0.96    0.34
   1  -1  18    1.23    0.31
   1   1  18    0.68    0.30
   1   1  18    1.14    0.34
   1   1  18    1.01    0.26
  -1   1 -18    0.98    0.38
   2  -1  18    5.76    0.58
   2  -1  18    4.38    0.47
   2  -1  18    4.60    0.47
   2   1  18    4.98    0.39
   2   1  18    5.83    0.55
   2   1  18    5.70    0.58
   3  -1  18    0.66    0.38
   3  -1  18    1.79    0.38
   3  -1  18    1.80    0.33
   3   1  18    1.11    0.35
   3   1  18    1.71    0.44
   4  -1  18    3.19    0.55
   4  -1  18    3.15    0.46
   4   1  18    2.19    0.42
   4   1  18    3.00    0.53
   6  -2 -18    2.12    0.48
   6  -2 -18    2.34    0.41
   6   2 -18    2.27    0.40
   6   2 -18    2.29    0.48
   5  -2 -18    0.87    0.31
   5  -2 -18    0.75    0.28
   5   2 -18    0.61    0.33
   5   2 -18    0.61    0.26
   4  -2 -18   -0.06    0.27
   4  -2 -18    0.28    0.23
   4   2 -18    0.46    0.28
  -3  -2  18    5.90    0.55
   3  -2 -18    5.41    0.41
   3  -2 -18    5.55    0.53
   3   2 -18    5.30    0.43
   3   2 -18    5.32    0.52
  -2  -2  18    2.74    0.38
  -2  -2  18    2.63    0.37
   2  -2 -18    2.31    0.28
   2  -2 -18    2.67    0.38
  -2   2  18    2.17    0.37
   2   2 -18    2.63    0.37
  -2   2  18    2.50    0.31
   2   2 -18    2.38    0.38
   1  -2 -18    6.38    0.56
  -1  -2  18    7.90    0.52
  -1  -2  18    7.06    0.56
  -1   2  18    8.50    0.56
   1   2 -18    8.45    0.48
  -1   2  18    7.72    0.47
   1   2 -18    8.65    0.63
   0  -2 -18    6.77    0.62
   0  -2  18    7.14    0.54
   0  -2  18    7.91    0.55
   0   2 -18    7.92    0.65
   0   2  18    7.29    0.53
   0   2  18    6.00    0.47
  -1  -2 -18   11.06    0.79
   1  -2  18   10.96    0.64
   1  -2  18   11.68    0.69
   1   2  18   10.10    0.64
   1   2  18   11.07    0.66
   1   2  18   11.18    0.55
  -1   2 -18   10.39    0.83
   2  -2  18    0.44    0.35
   2  -2  18    1.14    0.30
   2   2  18    0.43    0.33
   2   2  18    1.40    0.38
   3  -2  18    3.23    0.52
   3  -2  18    3.08    0.42
   3   2  18    3.10    0.51
   3   2  18    3.16    0.48
   4  -2  18    2.06    0.40
   4  -2  18    1.89    0.48
   4   2  18    1.42    0.45
   4   2  18    1.91    0.50
   6  -3 -18    0.32    0.35
   6  -3 -18    0.52    0.33
   6   3 -18    0.85    0.40
   6   3 -18    1.01    0.33
   5  -3 -18    0.47    0.33
   5  -3 -18    0.32    0.30
   5   3 -18   -0.16    0.30
   4  -3 -18    1.08    0.36
   4  -3 -18    1.72    0.32
   4   3 -18    1.49    0.36
   3  -3 -18    3.71    0.38
  -3  -3  18    3.10    0.44
   3   3 -18    3.38    0.41
  -2  -3  18    1.63    0.34
   2  -3 -18    1.04    0.29
   2  -3 -18    1.83    0.28
  -2   3  18    1.28    0.32
   2   3 -18    1.45    0.30
   1  -3 -18    1.90    0.28
  -1  -3  18    1.84    0.34
   1  -3 -18    1.63    0.39
  -1  -3  18    1.25    0.36
   1   3 -18    2.26    0.31
  -1   3  18    1.94    0.32
  -1   3  18    2.08    0.34
   0  -3  18    2.23    0.41
   0  -3  18    2.45    0.40
   0  -3 -18    2.69    0.46
   0   3 -18    1.90    0.42
   0   3  18    2.47    0.37
   0   3  18    2.06    0.35
   1  -3  18    0.51    0.24
  -1  -3 -18    0.18    0.35
   1  -3  18    0.02    0.28
   1   3  18   -0.11    0.29
   1   3  18   -0.32    0.24
   2  -3  18    0.02    0.25
   2  -3  18    0.30    0.33
   2   3  18    0.25    0.32
   2   3  18    0.35    0.32
   3  -3  18    0.53    0.31
   3  -3  18    0.73    0.40
   3   3  18    1.18    0.38
   3   3  18    0.69    0.38
   4  -3  18    0.19    0.33
   4  -3  18    0.61    0.41
   4   3  18    0.32    0.39
   4   3  18    0.08    0.33
   6  -4 -18    0.04    0.31
   6  -4 -18    0.31    0.36
   6   4 -18    0.08    0.36
   5  -4 -18    2.29    0.41
   5  -4 -18    1.48    0.42
   5   4 -18    3.13    0.49
   4  -4 -18    3.35    0.43
   4   4 -18    3.13    0.45
   3  -4 -18   -0.15    0.23
  -3  -4  18    0.10    0.26
   3   4 -18    0.52    0.28
  -3   4  18    0.06    0.27
  -2  -4  18    2.08    0.38
   2  -4 -18    2.42    0.35
  -2  -4  18    2.55    0.39
   2   4 -18    2.07    0.33
  -2   4  18    2.28    0.37
  -1  -4  18    2.87    0.44
   1  -4 -18    3.06    0.38
   1  -4 -18    2.89    0.45
  -1   4  18    3.85    0.41
  -1   4  18    3.89    0.46
   0  -4  18    7.39    0.60
   0  -4 -18    7.51    0.67
   0  -4  18    7.13    0.58
   0   4  18    7.95    0.59
   0   4  18    6.44    0.50
   1  -4  18    6.79    0.65
   1  -4  18    6.15    0.59
   1   4  18    5.89    0.59
   1   4  18    6.65    0.55
   2  -4  18    2.49    0.49
   2  -4  18    3.20    0.46
   2   4  18    3.29    0.49
   2   4  18    3.65    0.51
   3  -4  18    0.43    0.32
   3  -4  18    0.32    0.39
   3   4  18    0.12    0.33
   3   4  18    0.40    0.37
   5  -5 -18    2.87    0.45
   5  -5 -18    2.72    0.50
   5   5 -18    2.00    0.43
   4  -5 -18    2.27    0.39
   4   5 -18    2.88    0.43
  -3  -5  18    2.13    0.46
  -3  -5  18    1.74    0.42
   3  -5 -18    2.54    0.39
   3   5 -18    3.56    0.44
  -3   5  18    1.64    0.36
  -2  -5  18    7.32    0.53
  -2  -5  18    7.19    0.66
   2  -5 -18    6.92    0.51
  -2   5  18    6.66    0.53
   2   5 -18    7.05    0.49
   1  -5 -18    2.02    0.46
   1  -5 -18    2.38    0.37
  -1  -5  18    1.13    0.38
  -1   5  18    1.62    0.37
  -1   5  18    1.27    0.31
   0  -5 -18    2.22    0.35
   0  -5 -18    1.89    0.51
   0  -5  18    2.49    0.45
   0   5  18    2.30    0.39
   0   5  18    2.34    0.40
   1  -5  18    1.44    0.42
   1  -5  18    1.72    0.41
   1   5  18    1.58    0.41
   1   5  18    2.12    0.40
   2  -5  18    0.81    0.38
   2  -5  18    0.79    0.38
   2   5  18    0.88    0.41
   2   5  18    0.47    0.35
   3  -5  18   -0.20    0.31
   3  -5  18    0.01    0.37
   3   5  18   -0.33    0.33
   3   5  18   -0.23    0.35
  -4  -6  18    2.70    0.50
   4  -6 -18    2.34    0.43
   4   6 -18    3.34    0.46
   3  -6 -18    2.62    0.43
  -3  -6  18    2.41    0.42
  -3   6  18    1.97    0.35
   3   6 -18    1.63    0.35
  -2  -6  18   -0.14    0.23
   2  -6 -18   -0.22    0.26
  -2   6  18    0.06    0.25
  -1  -6  18    0.50    0.35
   1  -6 -18    0.17    0.32
   1  -6 -18    0.27    0.30
  -1   6  18    0.55    0.27
  -1   6  18    0.79    0.33
   0  -6 -18    1.37    0.35
   0  -6  18    1.95    0.39
   0   6  18    0.93    0.36
   0   6  18    1.03    0.32
   1  -6  18   -0.13    0.32
   1   6  18    0.46    0.35
   1   6  18    0.86    0.38
   2  -6  18    2.25    0.50
   2  -6  18    2.08    0.46
   2   6  18    1.29    0.41
   2   6  18    1.13    0.43
  -4  -7  18    2.93    0.52
   4  -7 -18    2.78    0.49
  -3  -7  18    5.16    0.62
   3  -7 -18    4.69    0.55
  -3   7  18    4.90    0.51
   3   7 -18    6.07    0.55
   2  -7 -18    2.55    0.44
  -2  -7  18    1.86    0.47
  -2   7  18    2.27    0.39
   1  -7 -18    4.04    0.50
  -1  -7  18    2.85    0.51
  -1   7  18    4.29    0.52
   0  -7  18   -0.13    0.34
   0   7  18   -0.28    0.24
   0   7  18   -0.16    0.35
   1  -7  18    0.64    0.39
   1   7  18    0.48    0.34
   1   7  18    0.24    0.34
  -2  -8  18    1.87    0.40
   1  -8 -18    1.44    0.42
  -1  -8  18    1.63    0.40
  -1   8  18    2.95    0.47
   6   0 -19   -0.14    0.24
   6   0 -19   -0.15    0.32
   5   0 -19    1.50    0.41
   5   0 -19    1.62    0.31
   4   0 -19    2.44    0.44
   3   0 -19    4.16    0.49
   2   0 -19    0.50    0.26
   2   0 -19    0.99    0.28
  -2   0  19    0.87    0.26
  -1   0  19    4.85    0.48
   1   0 -19    4.97    0.54
   1   0 -19    5.09    0.47
   0   0  19    0.19    0.24
   0   0 -19   -0.01    0.26
   0   0  19   -0.20    0.26
   0   0  19    0.14    0.24
   1   0  19    5.95    0.48
   1   0  19    6.03    0.58
   1   0  19    6.79    0.60
   2   0  19    2.76    0.43
   2   0  19    2.50    0.35
   2   0  19    2.27    0.45
   3   0  19   -0.16    0.31
   3   0  19    0.29    0.32
   4   0  19    3.28    0.56
   4   0  19    4.05    0.51
   6  -1 -19    0.37    0.28
   6  -1 -19    0.46    0.38
   6   1 -19    0.40    0.37
   6   1 -19    0.57    0.30
   5  -1 -19    4.88    0.58
   5  -1 -19    5.43    0.51
   5   1 -19    3.69    0.54
   4  -1 -19    2.02    0.40
   4  -1 -19    1.54    0.29
   4   1 -19    1.59    0.38
   3  -1 -19    0.38    0.27
   3   1 -19   -0.02    0.26
  -2  -1  19    0.14    0.23
   2  -1 -19    0.47    0.26
   2  -1 -19    0.30    0.25
  -2   1  19    0.59    0.23
   2   1 -19    0.41    0.27
   2   1 -19    0.34    0.24
   1  -1 -19    2.16    0.40
  -1  -1  19    2.40    0.36
   1   1 -19    2.71    0.35
  -1   1  19    2.86    0.42
   1   1 -19    2.29    0.44
  -1   1  19    2.11    0.35
   0  -1 -19    3.74    0.53
   0  -1  19    3.18    0.42
   0  -1  19    3.07    0.41
   0   1 -19    2.92    0.48
   0   1  19    3.15    0.41
   0   1 -19    3.30    0.35
   0   1  19    3.24    0.38
   0   1  19    3.05    0.44
   1  -1  19    2.62    0.38
   1  -1  19    1.74    0.39
   1   1  19    2.06    0.41
   1   1  19    1.81    0.39
   1   1  19    1.54    0.32
   2  -1  19    9.97    0.71
   2  -1  19   10.37    0.61
   2  -1  19   10.34    0.65
   2   1  19   10.62    0.68
   2   1  19    9.30    0.69
   3  -1  19    0.79    0.38
   3  -1  19    0.64    0.32
   3  -1  19    0.38    0.27
   3   1  19    1.06    0.36
   3   1  19    0.90    0.39
   4  -1  19    0.08    0.31
   4  -1  19    0.59    0.43
   4   1  19    0.41    0.32
   4   1  19    0.77    0.44
   6  -2 -19    2.03    0.43
   6  -2 -19    2.84    0.43
   6   2 -19    2.23    0.50
   5  -2 -19    1.86    0.43
   5  -2 -19    1.09    0.31
   5   2 -19    1.06    0.38
   4  -2 -19    0.98    0.35
   4  -2 -19    1.17    0.30
   4   2 -19    1.22    0.35
   3  -2 -19    7.00    0.56
   3  -2 -19    7.61    0.47
   3   2 -19    7.25    0.53
  -2  -2  19   11.50    0.63
   2  -2 -19   12.33    0.69
   2   2 -19   11.25    0.61
  -2   2  19   12.80    0.59
   2   2 -19   12.81    0.76
   1  -2 -19    1.50    0.39
  -1  -2  19    1.98    0.38
  -1  -2  19    1.23    0.31
  -1   2  19    1.41    0.30
   1   2 -19    1.88    0.40
   1   2 -19    1.21    0.28
  -1   2  19    1.58    0.37
   0  -2  19    0.61    0.25
   0  -2  19    1.01    0.33
   0  -2 -19    0.89    0.37
   0   2  19    0.75    0.31
   0   2 -19    0.97    0.36
   0   2  19    0.76    0.31
   1  -2  19    0.51    0.28
   1  -2  19    0.35    0.31
   1   2  19    0.46    0.32
   1   2  19    0.31    0.23
   1   2  19    0.51    0.31
   2  -2  19    5.32    0.61
   2  -2  19    6.23    0.56
   2   2  19    5.23    0.58
   2   2  19    6.27    0.63
   3  -2  19    5.44    0.56
   3  -2  19    7.14    0.72
   3   2  19    6.20    0.63
   3   2  19    5.70    0.65
   4  -2  19    1.36    0.39
   4  -2  19    0.87    0.45
   4   2  19    1.45    0.42
   4   2  19    1.89    0.52
   6  -3 -19    0.06    0.36
   6  -3 -19    0.26    0.31
   6   3 -19    0.99    0.42
   5  -3 -19    1.09    0.39
   5  -3 -19    0.48    0.33
   5   3 -19    0.36    0.36
   4  -3 -19    0.08    0.32
   4  -3 -19    0.63    0.30
   4   3 -19    0.58    0.31
   3  -3 -19    0.93    0.28
   3   3 -19    0.33    0.28
   2  -3 -19    2.46    0.33
  -2  -3  19    3.20    0.42
  -2   3  19    3.41    0.44
   2   3 -19    2.54    0.37
   1  -3 -19    8.25    0.68
  -1  -3  19    8.49    0.64
  -1  -3  19    8.74    0.59
   1   3 -19    9.56    0.70
  -1   3  19    9.27    0.61
  -1   3  19    8.81    0.55
   0  -3  19    8.40    0.65
   0  -3  19    9.10    0.63
   0  -3 -19    7.80    0.73
   0   3  19    9.15    0.62
   0   3  19    8.65    0.60
   1  -3  19    5.16    0.58
   1  -3  19    4.72    0.52
   1   3  19    3.51    0.47
   1   3  19    3.68    0.51
   2  -3  19    1.18    0.41
   2  -3  19    0.19    0.29
   2   3  19    0.76    0.40
   2   3  19    0.45    0.35
   3  -3  19    1.21    0.44
   3  -3  19    1.47    0.37
   3   3  19    1.10    0.41
   3   3  19    1.26    0.40
   5  -4 -19    0.85    0.40
   5  -4 -19    1.20    0.34
   5   4 -19    0.84    0.39
   4  -4 -19    1.95    0.38
   4  -4 -19    2.32    0.46
   4   4 -19    2.50    0.43
   3  -4 -19    2.32    0.37
   3   4 -19    2.93    0.41
  -2  -4  19    0.80    0.29
  -2  -4  19    0.96    0.29
   2  -4 -19    0.82    0.28
   2   4 -19    0.95    0.28
  -2   4  19    0.94    0.31
   1  -4 -19    1.26    0.28
  -1  -4  19    1.29    0.38
   1  -4 -19    1.88    0.43
  -1   4  19    1.43    0.37
  -1   4  19    1.80    0.32
   0  -4  19    0.53    0.33
   0  -4  19    0.01    0.29
   0  -4 -19   -0.31    0.31
   0   4  19    0.19    0.24
   0   4  19   -0.05    0.30
   1  -4  19    2.39    0.43
   1  -4  19    4.05    0.55
   1   4  19    3.06    0.47
   1   4  19    3.34    0.47
   2  -4  19    0.23    0.36
   2  -4  19    1.24    0.38
   2   4  19    1.10    0.42
   2   4  19    0.97    0.38
   3  -4  19    1.75    0.41
   3  -4  19    1.89    0.50
   3   4  19    0.88    0.43
   3   4  19    1.03    0.42
   5  -5 -19    0.90    0.35
   5  -5 -19    0.78    0.41
   5   5 -19    1.22    0.38
   4  -5 -19    1.36    0.37
   4   5 -19    1.01    0.33
  -3  -5  19    1.07    0.38
   3  -5 -19    0.59    0.31
  -3   5  19    0.81    0.30
   3   5 -19    0.72    0.31
  -2  -5  19    2.89    0.48
   2  -5 -19    3.44    0.44
  -2   5  19    3.49    0.46
   1  -5 -19    4.70    0.57
  -1  -5  19    5.15    0.58
   1  -5 -19    4.73    0.49
  -1   5  19    5.61    0.56
  -1   5  19    4.65    0.47
   0  -5  19    0.71    0.35
   0  -5 -19    0.52    0.29
   0   5  19    0.51    0.35
   0   5  19    0.41    0.31
   1  -5  19    0.45    0.38
   1  -5  19    0.95    0.30
   1   5  19    1.09    0.36
   1   5  19    0.67    0.37
   2  -5  19    1.54    0.47
   2  -5  19    1.21    0.41
   2   5  19    1.41    0.41
   2   5  19    1.39    0.43
   4  -6 -19    1.05    0.40
  -4  -6  19    1.03    0.41
   4   6 -19    0.92    0.37
  -3  -6  19    3.39    0.54
   3  -6 -19    3.41    0.49
  -3   6  19    3.74    0.48
   3   6 -19    3.84    0.44
   2  -6 -19    1.67    0.37
  -2  -6  19    2.54    0.49
  -2   6  19    2.65    0.45
  -1  -6  19    0.57    0.35
   1  -6 -19    0.28    0.30
  -1   6  19    0.93    0.35
  -1   6  19    0.59    0.32
   0  -6 -19    1.91    0.39
   0  -6  19    1.73    0.45
   0   6  19    2.62    0.41
   0   6  19    2.25    0.44
   1  -6  19    1.85    0.40
   1   6  19    1.69    0.42
   1   6  19    2.05    0.46
   2  -6  19   -0.07    0.39
   2  -6  19    0.21    0.27
   2   6  19    0.35    0.33
   2   6  19    0.86    0.40
   3  -7 -19    0.08    0.35
  -3  -7  19   -0.29    0.35
   3   7 -19    0.50    0.31
  -3   7  19   -0.21    0.26
  -2  -7  19    0.16    0.27
   2  -7 -19   -0.08    0.33
  -2   7  19    0.38    0.32
  -1  -7  19    0.65    0.38
   1  -7 -19    1.59    0.41
  -1   7  19    1.49    0.39
   0  -7  19    4.85    0.61
   0  -7 -19    4.49    0.52
   0   7  19    4.27    0.57
   0   7  19    5.84    0.56
   6   0 -20    1.03    0.42
   6   0 -20   -0.12    0.27
   5   0 -20    0.88    0.39
   4   0 -20    0.55    0.32
   3   0 -20   -0.07    0.25
   2   0 -20    2.63    0.39
   2   0 -20    2.20    0.40
  -2   0  20    2.87    0.38
   1   0 -20    9.24    0.71
   1   0 -20    7.93    0.52
  -1   0  20    7.44    0.54
   0   0  20    1.11    0.33
   0   0  20    0.85    0.30
   0   0 -20    1.53    0.30
   0   0 -20    1.13    0.39
   1   0  20    1.58    0.33
   1   0  20    0.51    0.32
   1   0  20    0.83    0.33
   2   0  20    0.08    0.21
   2   0  20   -0.04    0.32
   2   0  20   -0.06    0.29
   3   0  20    1.11    0.37
   3   0  20    0.98    0.44
   6  -1 -20    1.47    0.35
   6  -1 -20    1.69    0.46
   6   1 -20    0.31    0.39
   5  -1 -20    1.07    0.29
   5  -1 -20    0.89    0.38
   5   1 -20    0.97    0.39
   4  -1 -20    1.65    0.39
   4   1 -20    1.44    0.37
   3  -1 -20    1.54    0.36
   3   1 -20    2.56    0.42
  -2  -1  20    1.48    0.32
   2  -1 -20    1.01    0.32
   2  -1 -20    1.72    0.52
  -2   1  20    1.63    0.30
   2   1 -20    1.78    0.34
   2   1 -20    1.69    0.37
  -1  -1  20    0.56    0.30
   1  -1 -20    0.66    0.32
  -1  -1  20    0.81    0.28
  -1   1  20    0.83    0.27
  -1   1  20    1.62    0.34
   1   1 -20    0.57    0.35
   1   1 -20    0.81    0.26
   0  -1 -20    1.20    0.40
   0  -1  20    1.28    0.36
   0  -1  20    0.69    0.31
   0   1  20    0.88    0.30
   0   1  20    0.83    0.34
   0   1  20    1.11    0.32
   1  -1  20    2.12    0.37
   1  -1  20    2.14    0.41
   1   1  20    2.10    0.41
   1   1  20    1.89    0.41
   1   1  20    1.73    0.32
   2  -1  20    0.54    0.33
   2  -1  20    0.25    0.29
   2  -1  20    0.80    0.39
   2   1  20    0.32    0.35
   2   1  20    0.85    0.35
   3  -1  20    1.06    0.43
   3  -1  20    1.57    0.37
   3  -1  20    1.80    0.41
   3   1  20    1.56    0.47
   3   1  20    1.00    0.37
   5  -2 -20    0.79    0.38
   5  -2 -20    1.76    0.37
   5   2 -20    1.09    0.43
   4  -2 -20    0.06    0.31
   4  -2 -20    0.22    0.25
   4   2 -20    0.90    0.35
   3  -2 -20    2.78    0.44
   3   2 -20    2.54    0.41
  -2  -2  20    0.44    0.25
   2   2 -20    0.56    0.29
   2   2 -20    0.43    0.28
  -1  -2  20    1.33    0.35
  -1  -2  20    0.92    0.34
   1  -2 -20    0.89    0.34
  -1   2  20    1.29    0.31
   1   2 -20    0.88    0.35
   1   2 -20    0.81    0.27
  -1   2  20    1.27    0.35
   0  -2  20    2.71    0.43
   0  -2 -20    2.21    0.46
   0  -2  20    2.13    0.40
   0   2  20    2.42    0.41
   0   2  20    2.26    0.41
   0   2  20    2.65    0.37
   1  -2  20    1.38    0.40
   1  -2  20    1.63    0.37
   1   2  20    1.38    0.39
   1   2  20    0.75    0.36
   2  -2  20    4.09    0.48
   2  -2  20    4.06    0.56
   2   2  20    4.02    0.56
   2   2  20    3.48    0.50
   3  -2  20    1.61    0.47
   3  -2  20    1.52    0.38
   3   2  20    1.90    0.49
   3   2  20    1.30    0.45
   5  -3 -20    3.49    0.44
   5  -3 -20    2.82    0.50
   5   3 -20    3.70    0.56
   4  -3 -20    2.18    0.35
   4  -3 -20    2.01    0.46
   4   3 -20    3.44    0.50
   3  -3 -20    1.05    0.30
   3   3 -20    0.91    0.31
  -2  -3  20    0.93    0.30
   2   3 -20    0.93    0.30
   2   3 -20    0.80    0.32
  -2   3  20    0.84    0.33
  -1  -3  20    0.48    0.32
  -1  -3  20    0.17    0.31
   1  -3 -20    0.71    0.33
  -1   3  20    0.38    0.27
  -1   3  20   -0.02    0.28
   0  -3  20    2.04    0.41
   0  -3  20    1.84    0.42
   0   3  20    2.03    0.40
   0   3  20    1.97    0.36
   1  -3  20    1.08    0.35
   1  -3  20    1.03    0.40
   1   3  20    2.48    0.45
   1   3  20    1.45    0.37
   2  -3  20    3.79    0.49
   2  -3  20    2.93    0.53
   2   3  20    3.30    0.53
   2   3  20    3.36    0.52
   3  -3  20    5.46    0.61
   3  -3  20    4.62    0.64
   3   3  20    4.67    0.63
   3   3  20    4.55    0.59
   5  -4 -20   -0.55    0.23
   5  -4 -20    0.23    0.34
   5   4 -20    0.17    0.34
   4  -4 -20    1.16    0.32
   4  -4 -20    1.30    0.42
   4   4 -20    1.46    0.38
   3  -4 -20   -0.24    0.21
   3   4 -20    0.06    0.28
   2  -4 -20   10.74    0.61
  -2  -4  20   11.16    0.75
   2   4 -20   11.50    0.63
  -2   4  20   11.92    0.71
   1  -4 -20   13.70    0.87
  -1  -4  20   12.09    0.79
  -1   4  20   12.83    0.68
  -1   4  20   14.13    0.77
   0  -4  20    1.09    0.38
   0  -4  20    1.87    0.41
   0   4  20    1.49    0.40
   0   4  20    1.66    0.38
   1  -4  20    0.41    0.36
   1  -4  20   -0.04    0.31
   1   4  20    0.22    0.34
   1   4  20    0.52    0.31
   2  -4  20    2.53    0.46
   2  -4  20    2.10    0.51
   2   4  20    1.75    0.44
   2   4  20    2.93    0.55
  -4  -5  20    4.07    0.56
   4  -5 -20    5.77    0.56
   4   5 -20    4.97    0.56
  -3  -5  20    2.33    0.50
   3  -5 -20    2.83    0.41
   3   5 -20    1.78    0.36
  -3   5  20    1.66    0.38
   2  -5 -20    1.22    0.33
  -2  -5  20    0.29    0.34
  -2   5  20    0.27    0.28
   1  -5 -20   -0.11    0.24
  -1  -5  20   -0.20    0.23
  -1   5  20    0.37    0.26
  -1   5  20    0.20    0.32
   0  -5  20    1.05    0.40
   0   5  20    1.15    0.34
   0   5  20    0.75    0.37
   1  -5  20    2.67    0.49
   1  -5  20    3.63    0.57
   1   5  20    2.09    0.42
   1   5  20    2.40    0.48
   2  -5  20    1.26    0.42
   2  -5  20    1.55    0.49
   2   5  20    0.72    0.42
   2   5  20    0.55    0.39
   3  -6 -20    2.27    0.42
  -3  -6  20    1.23    0.43
  -3   6  20    2.71    0.41
   3   6 -20    1.27    0.32
  -2  -6  20    0.01    0.35
   2  -6 -20    0.14    0.28
  -2   6  20    0.37    0.30
  -1  -6  20    1.74    0.45
   1  -6 -20    1.83    0.37
  -1   6  20    1.64    0.42
   0  -6 -20    0.95    0.35
   0  -6  20    0.86    0.40
   0   6  20    0.92    0.33
   0   6  20    1.23    0.41
   1  -6  20    0.70    0.41
   1   6  20    0.71    0.35
   1   6  20    1.21    0.41
   5   0 -21    0.31    0.35
   4   0 -21    1.06    0.37
   3   0 -21    1.08    0.34
   2   0 -21    0.15    0.26
  -2   0  21    0.13    0.25
  -1   0  21    0.64    0.28
   1   0 -21    0.48    0.29
   1   0 -21    0.96    0.35
   0   0  21    0.04    0.30
   0   0  21    0.05    0.29
   0   0 -21    0.14    0.25
   1   0  21   -0.26    0.27
   1   0  21   -0.04    0.28
   1   0  21    0.35    0.32
   2   0  21    2.66    0.49
   2   0  21    1.33    0.44
   2   0  21    1.65    0.36
   3   0  21    2.37    0.52
   3   0  21    1.79    0.44
   5  -1 -21    2.86    0.51
   5   1 -21    2.62    0.49
   4  -1 -21    2.05    0.45
   4   1 -21    2.75    0.46
   3  -1 -21    4.16    0.50
   3   1 -21    2.96    0.44
   2  -1 -21    2.65    0.41
  -2  -1  21    3.14    0.42
  -2   1  21    2.90    0.37
   2   1 -21    3.43    0.45
   1  -1 -21    3.27    0.43
  -1  -1  21    2.63    0.42
  -1  -1  21    2.85    0.42
   1  -1 -21    3.55    0.53
  -1   1  21    3.06    0.42
   1   1 -21    3.93    0.42
   1   1 -21    3.25    0.50
   0  -1  21    0.10    0.28
   0  -1  21    0.05    0.28
   0   1  21    0.68    0.30
   0   1  21   -0.08    0.29
   0   1  21    0.41    0.33
   1  -1  21    1.90    0.44
   1  -1  21    1.28    0.35
   1   1  21    1.82    0.34
   1   1  21    1.68    0.41
   1   1  21    1.67    0.39
   2  -1  21    0.43    0.37
   2  -1  21    0.03    0.29
   2   1  21    0.38    0.36
   2   1  21    0.55    0.36
   3  -1  21    3.65    0.46
   3  -1  21    3.36    0.58
   3  -1  21    4.09    0.54
   3   1  21    3.72    0.59
   3   1  21    3.81    0.55
   5  -2 -21    2.52    0.38
   5  -2 -21    2.22    0.50
   5   2 -21    2.46    0.48
   4  -2 -21    1.73    0.43
   4   2 -21    1.69    0.45
   3  -2 -21   -0.70    0.25
   3   2 -21   -0.36    0.28
  -2  -2  21    0.58    0.26
   2   2 -21    0.33    0.28
   2   2 -21    0.17    0.32
  -1  -2  21    2.31    0.42
   1  -2 -21    2.06    0.43
  -1  -2  21    2.05    0.39
  -1   2  21    1.98    0.43
  -1   2  21    2.54    0.40
   0  -2  21    4.54    0.54
   0  -2  21    3.88    0.51
   0   2  21    4.62    0.52
   0   2  21    3.96    0.45
   0   2  21    4.19    0.53
   1  -2  21    1.53    0.43
   1  -2  21    1.08    0.36
   1   2  21    1.71    0.42
   1   2  21    1.76    0.43
   2  -2  21    1.52    0.40
   2  -2  21    1.28    0.44
   2   2  21    1.48    0.43
   2   2  21    2.28    0.49
   5  -3 -21    0.93    0.34
   5  -3 -21    1.38    0.44
   5   3 -21    1.52    0.44
   4  -3 -21   -0.24    0.24
   4  -3 -21    0.55    0.38
   4   3 -21   -0.18    0.30
   3  -3 -21    1.81    0.42
   3   3 -21    1.91    0.41
  -2  -3  21    6.64    0.66
   2   3 -21    7.95    0.56
  -2   3  21    6.95    0.67
  -1  -3  21    2.17    0.41
   1  -3 -21    2.47    0.55
  -1  -3  21    2.76    0.47
  -1   3  21    1.49    0.40
  -1   3  21    2.41    0.39
   0  -3  21    2.93    0.43
   0  -3  21    2.55    0.45
   0   3  21    2.58    0.46
   0   3  21    3.14    0.45
   1  -3  21    0.51    0.27
   1  -3  21    0.28    0.36
   1   3  21    0.12    0.30
   1   3  21    0.59    0.36
   2  -3  21    1.47    0.39
   2  -3  21    0.65    0.42
   2   3  21    1.65    0.45
   2   3  21    1.40    0.42
   4  -4 -21    0.42    0.37
   4  -4 -21    0.47    0.32
   4   4 -21   -0.22    0.28
  -3  -4  21    0.53    0.36
   3  -4 -21    0.39    0.25
   3   4 -21    0.46    0.30
  -2  -4  21    2.14    0.46
  -2   4  21    1.83    0.44
  -1  -4  21    1.78    0.43
  -1   4  21    1.54    0.39
  -1   4  21    1.77    0.36
   0  -4  21    1.77    0.38
   0  -4  21    1.99    0.46
   0   4  21    2.24    0.46
   0   4  21    2.05    0.40
   1  -4  21    1.04    0.40
   1  -4  21    1.39    0.46
   1   4  21    2.18    0.46
   1   4  21    1.37    0.43
   2  -4  21   -0.26    0.38
   2  -4  21    0.19    0.34
   2   4  21    0.13    0.36
   2   4  21   -0.37    0.34
  -3  -5  21    0.88    0.41
   3  -5 -21    0.82    0.30
   3   5 -21    1.19    0.35
  -3   5  21    0.89    0.34
   2  -5 -21    0.21    0.25
  -2  -5  21   -0.16    0.32
  -2   5  21    0.16    0.32
  -1  -5  21    3.83    0.57
  -1   5  21    4.55    0.58
  -1   5  21    3.95    0.68
   0  -5  21   -0.28    0.30
   0   5  21    0.10    0.27
   0   5  21    0.21    0.34
   1  -5  21   -0.24    0.36
   1  -5  21    0.28    0.27
   1   5  21    0.06    0.31
   1   5  21   -0.06    0.34
  -2  -6  21    0.43    0.38
   2  -6 -21    0.60    0.31
  -2   6  21    0.88    0.35
  -1  -6  21    1.08    0.43
   1  -6 -21    1.38    0.36
  -1   6  21    0.19    0.33
   5   0 -22   -0.03    0.35
   4   0 -22    5.01    0.58
   3   0 -22    0.66    0.34
  -2   0  22    1.72    0.35
   2   0 -22    1.85    0.39
   1   0 -22    1.20    0.31
  -1   0  22    1.23    0.32
  -1   0  22    0.22    0.34
   0   0  22    0.18    0.29
   0   0  22    0.03    0.28
   1   0  22   -0.36    0.23
   1   0  22   -0.18    0.34
   1   0  22    0.00    0.33
   2   0  22    1.32    0.41
   2   0  22    0.78    0.41
   4  -1 -22    0.03    0.34
   4   1 -22    0.58    0.36
   3  -1 -22    1.23    0.38
   3   1 -22    1.09    0.35
  -2  -1  22    2.42    0.37
   2  -1 -22    2.46    0.45
   2   1 -22    2.89    0.42
  -2   1  22    2.17    0.36
   1  -1 -22    0.98    0.32
  -1  -1  22    0.58    0.30
  -1  -1  22    0.65    0.33
   1   1 -22    0.73    0.31
  -1   1  22    0.20    0.25
   0  -1  22    0.62    0.31
   0  -1  22    0.29    0.31
   0   1  22    0.98    0.34
   0   1  22    0.99    0.32
   0   1  22    0.29    0.36
   1  -1  22    0.53    0.37
   1  -1  22    0.72    0.32
   1   1  22    0.72    0.32
   1   1  22    0.79    0.36
   1   1  22    0.49    0.37
   2  -1  22    4.07    0.48
   2  -1  22    3.67    0.61
   2   1  22    3.65    0.55
   2   1  22    4.80    0.63
   4  -2 -22    1.07    0.40
   4   2 -22    0.89    0.38
   3  -2 -22    3.81    0.53
   3   2 -22    3.27    0.47
  -2  -2  22    1.17    0.40
   2  -2 -22    1.53    0.38
   2   2 -22    1.63    0.35
  -1  -2  22    0.31    0.30
  -1  -2  22    0.00    0.29
  -1   2  22    0.23    0.27
  -1   2  22    0.62    0.36
   0  -2  22    0.82    0.35
   0  -2  22    0.74    0.34
   0   2  22    0.31    0.30
   0   2  22    1.16    0.41
   0   2  22    0.86    0.34
   1  -2  22    0.32    0.32
   1  -2  22    0.56    0.38
   1   2  22    0.95    0.41
   1   2  22    0.62    0.37
   2  -2  22    0.24    0.44
   2  -2  22    0.46    0.32
   2   2  22    0.21    0.35
   2   2  22   -0.20    0.34
   4  -3 -22    2.27    0.49
   4   3 -22    2.67    0.48
   3  -3 -22    5.27    0.61
   3   3 -22    4.72    0.53
  -2  -3  22    1.00    0.40
   2   3 -22    1.41    0.33
  -1  -3  22    2.77    0.45
  -1  -3  22    4.65    0.57
  -1   3  22    3.20    0.42
  -1   3  22    3.21    0.51
   0  -3  22    1.48    0.40
   0  -3  22    2.20    0.48
   0   3  22    1.65    0.44
   0   3  22    1.67    0.40
   1  -3  22    1.18    0.44
   1  -3  22    0.99    0.37
   1   3  22    0.72    0.40
   1   3  22    1.21    0.42
  -3  -4  22    0.68    0.40
   3   4 -22    1.75    0.39
  -2  -4  22    0.23    0.36
  -2   4  22   -0.13    0.31
  -1  -4  22    0.75    0.39
  -1   4  22    1.14    0.39
  -1   4  22    0.58    0.32
   0  -4  22    1.59    0.44
   0  -4  22    1.87    0.44
   0   4  22    1.33    0.42
   0   4  22    1.62    0.40
   1  -4  22    0.73    0.42
   1  -4  22    0.79    0.38
   1   4  22   -0.27    0.35
   1   4  22   -0.01    0.32
  -2  -5  22    1.07    0.43
  -2   5  22    0.64    0.40
  -1  -5  22    2.05    0.47
  -1   5  22    1.49    0.48
   4   0 -23    2.36    0.47
   3   0 -23    1.57    0.41
   2   0 -23    4.54    0.53
  -2   0  23    6.00    0.55
  -1   0  23    0.71    0.33
  -1   0  23    0.47    0.32
   1   0 -23    0.81    0.32
   0   0  23    0.25    0.30
   0   0  23   -0.05    0.31
   1   0  23    0.36    0.36
   1   0  23    0.69    0.33
   4  -1 -23    4.39    0.59
   4   1 -23    3.53    0.54
   3  -1 -23    2.48    0.46
   3   1 -23    3.36    0.48
  -2  -1  23    1.80    0.36
   2  -1 -23    1.58    0.39
   2   1 -23    2.02    0.40
   1  -1 -23   -0.05    0.31
  -1  -1  23    0.01    0.27
  -1  -1  23    0.32    0.33
  -1   1  23    0.56    0.33
  -1   1  23    0.46    0.27
   0  -1  23    0.14    0.30
   0  -1 -23    0.18    0.30
   0  -1  23    0.26    0.32
   0   1  23    0.12    0.28
   0   1  23   -0.39    0.25
   1  -1  23    0.07    0.38
   1  -1  23    0.23    0.34
   1   1  23    0.09    0.32
   1   1  23   -0.34    0.32
   3  -2 -23    3.28    0.51
   3   2 -23    2.82    0.48
  -2  -2  23    0.41    0.35
   2  -2 -23    1.34    0.39
   2   2 -23    1.37    0.37
  -1  -2  23    1.87    0.43
  -1  -2  23    2.62    0.47
  -1   2  23    2.43    0.41
   0  -2  23    1.82    0.43
   0  -2  23    1.36    0.40
   0   2  23    1.32    0.39
   0   2  23    1.83    0.63
   0   2  23    1.14    0.42
   1  -2  23    1.52    0.42
   1  -2  23    1.91    0.48
   1   2  23    1.75    0.47
   1   2  23    1.86    0.46
  -3  -3  23    0.61    0.33
   3  -3 -23    1.15    0.41
   3   3 -23    1.06    0.38
  -2  -3  23    0.06    0.35
  -1  -3  23    0.39    0.36
  -1  -3  23    0.99    0.36
  -1   3  23    1.10    0.31
  -1   3  23    0.53    0.37
   0  -3  23    0.78    0.40
   0  -3  23    1.00    0.39
   0   3  23    1.61    0.45
   0   3  23    1.07    0.37
  -2  -4  23    2.56    0.51
  -2   4  23    3.58    0.53
  -1  -4  23    1.36    0.45
  -1   4  23    1.06    0.41
   3   0 -24    0.47    0.35
   2   0 -24    0.49    0.31
  -2   0  24    0.01    0.27
   1   0 -24   -0.13    0.29
  -1   0  24   -0.57    0.27
  -1   0  24    0.09    0.26
   0   0  24    0.27    0.31
   0   0  24    0.90    0.35
   2  -1 -24    3.29    0.52
  -2  -1  24    3.48    0.47
  -2  -1  24    3.28    0.53
   2   1 -24    3.21    0.49
  -1  -1  24    0.90    0.37
  -1  -1  24    1.36    0.36
   1  -1 -24    1.61    0.40
  -1   1  24    1.37    0.40
  -1   1  24    1.75    0.38
   0  -1  24    0.20    0.33
   0  -1  24    0.41    0.34
   0   1  24    0.01    0.33
   0   1  24   -0.22    0.31
   2  -2 -24    0.75    0.39
  -2  -2  24    1.05    0.41
   2   2 -24    1.57    0.44
  -1  -2  24    1.24    0.43
  -1  -2  24    2.46    0.49
   1  -2 -24    2.77    0.47
  -1   2  24    2.01    0.41
  -1   2  24    2.32    0.41
   0   0   0    0.00    0.00
;
_shelx_hkl_checksum              85561
loop_
_space_group_symop_operation_xyz
'x, y, z'
'-x, y+1/2, -z'
loop_
_atom_site_label
_atom_site_type_symbol
_atom_site_fract_x
_atom_site_fract_y
_atom_site_fract_z
_atom_site_U_iso_or_equiv
_atom_site_adp_type
_atom_site_occupancy
_atom_site_site_symmetry_order
_atom_site_calc_flag
_atom_site_refinement_flags_posn
_atom_site_refinement_flags_adp
_atom_site_refinement_flags_occupancy
_atom_site_disorder_assembly
_atom_site_disorder_group
S1 S 0.56888(8) 0.41035(7) 0.82833(3) 0.03483(14) Uani 1 1 d . . . . .
O2 O 0.6244(3) 0.3474(2) 0.76053(10) 0.0423(4) Uani 1 1 d . . . . .
O1 O 0.7305(3) 0.4378(2) 0.89226(10) 0.0504(5) Uani 1 1 d . . . . .
N1 N 0.4564(3) 0.5744(2) 0.80494(11) 0.0360(4) Uani 1 1 d D U . . .
C2 C 0.3793(14) 0.661(2) 0.8660(5) 0.0470(14) Uani 0.731(8) 1 d D U P A 1
H2A H 0.4359 0.7664 0.8693 0.056 Uiso 0.731(8) 1 calc R U P A 1
H2B H 0.4207 0.6101 0.9154 0.056 Uiso 0.731(8) 1 calc R U P A 1
C3 C 0.1383(10) 0.6609(7) 0.8418(3) 0.0515(13) Uani 0.731(8) 1 d D U P A 1
H3A H 0.0753 0.5626 0.8538 0.062 Uiso 0.731(8) 1 calc R U P A 1
H3B H 0.0710 0.7450 0.8659 0.062 Uiso 0.731(8) 1 calc R U P A 1
C4 C 0.1182(8) 0.6842(7) 0.7577(3) 0.0486(13) Uani 0.731(8) 1 d D U P A 1
H4A H 0.1235 0.7943 0.7458 0.058 Uiso 0.731(8) 1 calc R U P A 1
H4B H -0.0179 0.6422 0.7313 0.058 Uiso 0.731(8) 1 calc R U P A 1
C5 C 0.3063(9) 0.5997(8) 0.7327(3) 0.0332(13) Uani 0.731(8) 1 d D U P A 1
H5 H 0.2566 0.4989 0.7105 0.040 Uiso 0.731(8) 1 calc R U P A 1
C2' C 0.358(4) 0.652(6) 0.8638(14) 0.0470(14) Uani 0.269(8) 1 d D U P A 2
H2'1 H 0.4475 0.7378 0.8867 0.056 Uiso 0.269(8) 1 calc R U P A 2
H2'2 H 0.3355 0.5803 0.9042 0.056 Uiso 0.269(8) 1 calc R U P A 2
C3' C 0.146(3) 0.711(2) 0.8215(9) 0.064(5) Uani 0.269(8) 1 d D U P A 2
H3A' H 0.0342 0.7000 0.8533 0.076 Uiso 0.269(8) 1 calc R U P A 2
H3B' H 0.1574 0.8208 0.8092 0.076 Uiso 0.269(8) 1 calc R U P A 2
C4' C 0.089(2) 0.6193(18) 0.7498(7) 0.044(3) Uani 0.269(8) 1 d D U P A 2
H4A' H 0.0102 0.6824 0.7086 0.053 Uiso 0.269(8) 1 calc R U P A 2
H4B' H 0.0007 0.5299 0.7580 0.053 Uiso 0.269(8) 1 calc R U P A 2
C5' C 0.305(2) 0.569(3) 0.7310(8) 0.0332(13) Uani 0.269(8) 1 d D U P A 2
H5' H 0.2953 0.4624 0.7106 0.040 Uiso 0.269(8) 1 calc R U P A 2
C6 C 0.4074(15) 0.6912(6) 0.6745(8) 0.0367(7) Uani 0.731(8) 1 d D U P A 1
H6 H 0.2955 0.7253 0.6320 0.044 Uiso 0.731(8) 1 calc R U P A 1
C7 C 0.5279(7) 0.8286(5) 0.7121(2) 0.0352(9) Uani 0.731(8) 1 d D U P A 1
H7 H 0.6456 0.8106 0.7509 0.042 Uiso 0.731(8) 1 calc R U P A 1
C8 C 0.4785(8) 0.9687(5) 0.6938(3) 0.0522(12) Uani 0.731(8) 1 d D U P A 1
H8B H 0.3616 0.9900 0.6552 0.063 Uiso 0.731(8) 1 calc R U P A 1
H8A H 0.5592 1.0499 0.7192 0.063 Uiso 0.731(8) 1 calc R U P A 1
C6' C 0.396(4) 0.6765(17) 0.676(2) 0.0367(7) Uani 0.269(8) 1 d D U P A 2
H6' H 0.2794 0.6726 0.6319 0.044 Uiso 0.269(8) 1 calc R U P A 2
C7' C 0.3943(17) 0.8459(11) 0.6949(6) 0.040(2) Uani 0.269(8) 1 d D U P A 2
H7' H 0.2637 0.8997 0.6885 0.048 Uiso 0.269(8) 1 calc R U P A 2
C8' C 0.5682(17) 0.9162(19) 0.7192(8) 0.059(3) Uani 0.269(8) 1 d D U P A 2
H8B' H 0.6990 0.8627 0.7257 0.071 Uiso 0.269(8) 1 calc R U P A 2
H8A' H 0.5661 1.0219 0.7307 0.071 Uiso 0.269(8) 1 calc R U P A 2
N9 N 0.5588(3) 0.5958(3) 0.64643(12) 0.0462(5) Uani 1 1 d D U . . .
H9 H 0.5955 0.5097 0.6702 0.055 Uiso 1 1 calc R U . A 1
C10 C 0.6508(3) 0.6314(3) 0.58391(12) 0.0336(5) Uani 1 1 d . . . . .
C11 C 0.8195(4) 0.5440(3) 0.56890(15) 0.0417(5) Uani 1 1 d . . . . .
H11 H 0.8731 0.4651 0.6031 0.050 Uiso 1 1 calc R U . . .
C12 C 0.9122(4) 0.5681(3) 0.50570(15) 0.0420(5) Uani 1 1 d . . . . .
H12 H 1.0268 0.5058 0.4966 0.050 Uiso 1 1 calc R U . . .
C13 C 0.8374(3) 0.6830(3) 0.45585(12) 0.0349(5) Uani 1 1 d . . . . .
C14 C 0.6699(3) 0.7727(3) 0.46966(13) 0.0382(5) Uani 1 1 d . . . . .
H14 H 0.6176 0.8517 0.4353 0.046 Uiso 1 1 calc R U . . .
C15 C 0.5782(3) 0.7480(3) 0.53300(13) 0.0369(5) Uani 1 1 d . . . . .
H15 H 0.4644 0.8111 0.5421 0.044 Uiso 1 1 calc R U . . .
O13 O 0.9178(3) 0.7154(2) 0.39067(9) 0.0462(4) Uani 1 1 d . . . . .
C16 C 1.1029(4) 0.6347(4) 0.37955(16) 0.0538(7) Uani 1 1 d . . . . .
H16A H 1.1514 0.6731 0.3341 0.081 Uiso 1 1 calc R U . . .
H16B H 1.0702 0.5258 0.3735 0.081 Uiso 1 1 calc R U . . .
H16C H 1.2148 0.6497 0.4234 0.081 Uiso 1 1 calc R U . . .
C17 C 0.3788(4) 0.2903(3) 0.85849(13) 0.0347(5) Uani 1 1 d . . . . .
C18 C 0.3738(4) 0.2756(3) 0.93513(13) 0.0438(6) Uani 1 1 d . . . . .
H18 H 0.4771 0.3251 0.9713 0.053 Uiso 1 1 calc R U . . .
C19 C 0.2171(4) 0.1881(3) 0.95821(14) 0.0475(6) Uani 1 1 d . . . . .
H19 H 0.2149 0.1772 1.0107 0.057 Uiso 1 1 calc R U . . .
C20 C 0.0636(4) 0.1162(3) 0.90713(15) 0.0444(6) Uani 1 1 d . . . . .
C21 C 0.0729(4) 0.1304(3) 0.83049(15) 0.0454(6) Uani 1 1 d . . . . .
H21 H -0.0299 0.0800 0.7945 0.054 Uiso 1 1 calc R U . . .
C22 C 0.2291(4) 0.2166(3) 0.80571(14) 0.0396(5) Uani 1 1 d . . . . .
H22 H 0.2338 0.2252 0.7533 0.048 Uiso 1 1 calc R U . . .
C23 C -0.1124(5) 0.0262(4) 0.9331(2) 0.0656(9) Uani 1 1 d . . . . .
H23A H -0.0514 -0.0472 0.9719 0.098 Uiso 1 1 calc R U . . .
H23B H -0.1931 -0.0286 0.8901 0.098 Uiso 1 1 calc R U . . .
H23C H -0.2069 0.0959 0.9542 0.098 Uiso 1 1 calc R U . . .
loop_
_atom_site_aniso_label
_atom_site_aniso_U_11
_atom_site_aniso_U_22
_atom_site_aniso_U_33
_atom_site_aniso_U_23
_atom_site_aniso_U_13
_atom_site_aniso_U_12
S1 0.0344(2) 0.0381(3) 0.0327(3) 0.0006(3) 0.00781(19) 0.0033(2)
O2 0.0464(9) 0.0424(9) 0.0420(9) 0.0008(7) 0.0189(7) 0.0068(7)
O1 0.0408(8) 0.0608(13) 0.0462(10) 0.0009(9) -0.0021(7) 0.0017(8)
N1 0.0387(9) 0.0362(10) 0.0339(9) -0.0002(8) 0.0086(8) 0.0025(8)
C2 0.059(3) 0.042(3) 0.0439(14) -0.0072(12) 0.0174(14) 0.003(3)
C3 0.053(2) 0.057(3) 0.051(3) 0.001(2) 0.029(2) 0.010(2)
C4 0.0327(19) 0.055(3) 0.061(3) 0.000(3) 0.0142(17) 0.008(2)
C5 0.0321(10) 0.032(4) 0.0367(12) 0.0020(14) 0.0083(9) 0.0023(14)
C2' 0.059(3) 0.042(3) 0.0439(14) -0.0072(12) 0.0174(14) 0.003(3)
C3' 0.072(7) 0.075(10) 0.049(7) 0.002(6) 0.027(6) 0.021(7)
C4' 0.045(5) 0.048(8) 0.042(5) 0.000(5) 0.016(4) 0.006(5)
C5' 0.0321(10) 0.032(4) 0.0367(12) 0.0020(14) 0.0083(9) 0.0023(14)
C6 0.0444(15) 0.0329(15) 0.0347(13) 0.0035(16) 0.0125(11) 0.0047(12)
C7 0.035(2) 0.035(2) 0.0374(18) -0.0011(14) 0.0128(15) 0.0023(16)
C8 0.060(3) 0.036(2) 0.065(3) 0.0003(19) 0.023(2) 0.004(2)
C6' 0.0444(15) 0.0329(15) 0.0347(13) 0.0035(16) 0.0125(11) 0.0047(12)
C7' 0.039(5) 0.036(4) 0.048(5) 0.009(4) 0.017(4) 0.011(4)
C8' 0.052(6) 0.031(6) 0.095(9) 0.006(7) 0.013(5) 0.008(5)
N9 0.0535(11) 0.0455(12) 0.0447(11) 0.0144(9) 0.0233(10) 0.0134(9)
C10 0.0368(10) 0.0340(11) 0.0304(11) -0.0007(9) 0.0068(9) -0.0031(9)
C11 0.0470(12) 0.0373(12) 0.0411(12) 0.0051(10) 0.0087(10) 0.0076(10)
C12 0.0416(12) 0.0425(14) 0.0436(13) -0.0036(11) 0.0120(10) 0.0058(10)
C13 0.0347(10) 0.0402(12) 0.0301(11) -0.0042(10) 0.0068(9) -0.0053(9)
C14 0.0388(11) 0.0429(13) 0.0321(11) 0.0049(10) 0.0032(9) 0.0002(10)
C15 0.0344(11) 0.0402(12) 0.0364(12) 0.0004(10) 0.0067(9) 0.0047(10)
O13 0.0454(9) 0.0581(11) 0.0382(9) 0.0015(8) 0.0158(7) -0.0028(8)
C16 0.0438(13) 0.0723(19) 0.0490(15) -0.0101(14) 0.0189(12) -0.0046(13)
C17 0.0398(11) 0.0337(12) 0.0320(11) 0.0030(9) 0.0101(9) 0.0065(9)
C18 0.0537(14) 0.0464(14) 0.0315(12) 0.0042(11) 0.0075(10) 0.0050(11)
C19 0.0642(16) 0.0479(14) 0.0345(12) 0.0100(11) 0.0204(12) 0.0101(13)
C20 0.0503(13) 0.0370(13) 0.0511(15) 0.0098(11) 0.0233(12) 0.0103(11)
C21 0.0499(15) 0.0408(14) 0.0459(15) 0.0013(11) 0.0095(12) -0.0036(11)
C22 0.0506(13) 0.0376(13) 0.0324(11) 0.0007(10) 0.0119(10) -0.0010(10)
C23 0.0664(18) 0.0605(19) 0.079(2) 0.0168(17) 0.0384(17) 0.0015(15)
loop_
_atom_type_symbol
_atom_type_description
_atom_type_scat_dispersion_real
_atom_type_scat_dispersion_imag
_atom_type_scat_source
C C 0.0033 0.0016 'International Tables Vol C Tables 4.2.6.8 and 6.1.1.4'
H H 0.0000 0.0000 'International Tables Vol C Tables 4.2.6.8 and 6.1.1.4'
N N 0.0061 0.0033 'International Tables Vol C Tables 4.2.6.8 and 6.1.1.4'
O O 0.0106 0.0060 'International Tables Vol C Tables 4.2.6.8 and 6.1.1.4'
S S 0.1246 0.1234 'International Tables Vol C Tables 4.2.6.8 and 6.1.1.4'
loop_
_geom_angle_atom_site_label_1
_geom_angle_atom_site_label_2
_geom_angle_atom_site_label_3
_geom_angle
O1 S1 O2 119.81(10)
O1 S1 N1 106.65(12)
O2 S1 N1 106.38(10)
O1 S1 C17 107.28(11)
O2 S1 C17 108.26(11)
N1 S1 C17 107.98(10)
C2 N1 C5 108.6(5)
C2' N1 C5' 110.8(11)
C2 N1 S1 116.6(7)
C2' N1 S1 116(2)
C5 N1 S1 123.1(3)
C5' N1 S1 112.9(10)
N1 C2 C3 103.5(6)
N1 C2 H2A 111.1
C3 C2 H2A 111.1
N1 C2 H2B 111.1
C3 C2 H2B 111.1
H2A C2 H2B 109.0
C4 C3 C2 101.3(7)
C4 C3 H3A 111.5
C2 C3 H3A 111.5
C4 C3 H3B 111.5
C2 C3 H3B 111.5
H3A C3 H3B 109.3
C3 C4 C5 106.6(4)
C3 C4 H4A 110.4
C5 C4 H4A 110.4
C3 C4 H4B 110.4
C5 C4 H4B 110.4
H4A C4 H4B 108.6
N1 C5 C4 103.8(4)
N1 C5 C6 112.6(8)
C4 C5 C6 112.5(4)
N1 C5 H5 109.3
C4 C5 H5 109.3
C6 C5 H5 109.3
N1 C2' C3' 104.4(14)
N1 C2' H2'1 110.9
C3' C2' H2'1 110.9
N1 C2' H2'2 110.9
C3' C2' H2'2 110.9
H2'1 C2' H2'2 108.9
C4' C3' C2' 108.1(15)
C4' C3' H3A' 110.1
C2' C3' H3A' 110.1
C4' C3' H3B' 110.1
C2' C3' H3B' 110.1
H3A' C3' H3B' 108.4
C3' C4' C5' 104.0(13)
C3' C4' H4A' 111.0
C5' C4' H4A' 111.0
C3' C4' H4B' 111.0
C5' C4' H4B' 111.0
H4A' C4' H4B' 109.0
N1 C5' C4' 105.4(11)
N1 C5' C6' 106(2)
C4' C5' C6' 114.3(14)
N1 C5' H5' 110.2
C4' C5' H5' 110.2
C6' C5' H5' 110.2
N9 C6 C7 107.2(5)
N9 C6 C5 108.6(5)
C7 C6 C5 110.4(8)
N9 C6 H6 110.2
C7 C6 H6 110.2
C5 C6 H6 110.2
C8 C7 C6 123.6(6)
C8 C7 H7 118.2
C6 C7 H7 118.2
C7 C8 H8B 120.0
C7 C8 H8A 120.0
H8B C8 H8A 120.0
N9 C6' C7' 126.6(12)
N9 C6' C5' 108.2(14)
C7' C6' C5' 116.1(18)
N9 C6' H6' 100.1
C7' C6' H6' 100.1
C5' C6' H6' 100.1
C8' C7' C6' 120.3(17)
C8' C7' H7' 119.8
C6' C7' H7' 119.8
C7' C8' H8B' 120.0
C7' C8' H8A' 120.0
H8B' C8' H8A' 120.0
C10 N9 C6 123.8(5)
C10 N9 C6' 128.7(13)
C10 N9 H9 118.1
C6 N9 H9 118.1
C11 C10 N9 118.9(2)
C11 C10 C15 117.4(2)
N9 C10 C15 123.7(2)
C12 C11 C10 122.0(2)
C12 C11 H11 119.0
C10 C11 H11 119.0
C13 C12 C11 119.7(2)
C13 C12 H12 120.2
C11 C12 H12 120.2
C12 C13 C14 119.5(2)
C12 C13 O13 124.1(2)
C14 C13 O13 116.3(2)
C15 C14 C13 120.5(2)
C15 C14 H14 119.8
C13 C14 H14 119.8
C14 C15 C10 120.9(2)
C14 C15 H15 119.6
C10 C15 H15 119.6
C13 O13 C16 116.9(2)
O13 C16 H16A 109.5
O13 C16 H16B 109.5
H16A C16 H16B 109.5
O13 C16 H16C 109.5
H16A C16 H16C 109.5
H16B C16 H16C 109.5
C18 C17 C22 120.4(2)
C18 C17 S1 119.50(19)
C22 C17 S1 120.05(18)
C19 C18 C17 119.2(3)
C19 C18 H18 120.4
C17 C18 H18 120.4
C20 C19 C18 121.8(2)
C20 C19 H19 119.1
C18 C19 H19 119.1
C19 C20 C21 118.2(2)
C19 C20 C23 121.2(3)
C21 C20 C23 120.6(3)
C22 C21 C20 121.3(3)
C22 C21 H21 119.4
C20 C21 H21 119.4
C21 C22 C17 119.1(2)
C21 C22 H22 120.4
C17 C22 H22 120.4
C20 C23 H23A 109.5
C20 C23 H23B 109.5
H23A C23 H23B 109.5
C20 C23 H23C 109.5
H23A C23 H23C 109.5
H23B C23 H23C 109.5
loop_
_geom_bond_atom_site_label_1
_geom_bond_atom_site_label_2
_geom_bond_distance
S1 O1 1.4307(17)
S1 O2 1.4353(18)
S1 N1 1.631(2)
S1 C17 1.761(2)
N1 C2 1.485(5)
N1 C2' 1.488(11)
N1 C5 1.495(5)
N1 C5' 1.507(11)
C2 C3 1.530(8)
C2 H2A 0.9900
C2 H2B 0.9900
C3 C4 1.508(6)
C3 H3A 0.9900
C3 H3B 0.9900
C4 C5 1.543(5)
C4 H4A 0.9900
C4 H4B 0.9900
C5 C6 1.544(5)
C5 H5 1.0000
C2' C3' 1.529(14)
C2' H2'1 0.9900
C2' H2'2 0.9900
C3' C4' 1.513(12)
C3' H3A' 0.9900
C3' H3B' 0.9900
C4' C5' 1.545(11)
C4' H4A' 0.9900
C4' H4B' 0.9900
C5' C6' 1.546(11)
C5' H5' 1.0000
C6 N9 1.434(5)
C6 C7 1.526(8)
C6 H6 1.0000
C7 C8 1.296(6)
C7 H7 0.9500
C8 H8B 0.9500
C8 H8A 0.9500
C6' N9 1.434(11)
C6' C7' 1.523(11)
C6' H6' 1.0000
C7' C8' 1.282(11)
C7' H7' 0.9500
C8' H8B' 0.9500
C8' H8A' 0.9500
N9 C10 1.389(3)
N9 H9 0.8800
C10 C11 1.387(3)
C10 C15 1.398(3)
C11 C12 1.382(3)
C11 H11 0.9500
C12 C13 1.379(4)
C12 H12 0.9500
C13 C14 1.385(3)
C13 O13 1.385(3)
C14 C15 1.382(3)
C14 H14 0.9500
C15 H15 0.9500
O13 C16 1.422(3)
C16 H16A 0.9800
C16 H16B 0.9800
C16 H16C 0.9800
C17 C18 1.388(3)
C17 C22 1.389(4)
C18 C19 1.380(4)
C18 H18 0.9500
C19 C20 1.379(4)
C19 H19 0.9500
C20 C21 1.394(4)
C20 C23 1.512(4)
C21 C22 1.385(4)
C21 H21 0.9500
C22 H22 0.9500
C23 H23A 0.9800
C23 H23B 0.9800
C23 H23C 0.9800
loop_
_geom_hbond_atom_site_label_D
_geom_hbond_atom_site_label_H
_geom_hbond_atom_site_label_A
_geom_hbond_distance_DH
_geom_hbond_distance_HA
_geom_hbond_distance_DA
_geom_hbond_angle_DHA
N9 H9 O2 0.88 2.14 2.972(3) 156.9
loop_
_geom_torsion_atom_site_label_1
_geom_torsion_atom_site_label_2
_geom_torsion_atom_site_label_3
_geom_torsion_atom_site_label_4
_geom_torsion
O1 S1 N1 C2 -52.4(7)
O2 S1 N1 C2 178.6(7)
C17 S1 N1 C2 62.6(7)
O1 S1 N1 C2' -59.2(19)
O2 S1 N1 C2' 171.8(19)
C17 S1 N1 C2' 55.8(19)
O1 S1 N1 C5 168.7(4)
O2 S1 N1 C5 39.7(4)
C17 S1 N1 C5 -76.3(4)
O1 S1 N1 C5' 171.1(9)
O2 S1 N1 C5' 42.1(9)
C17 S1 N1 C5' -73.9(9)
C5 N1 C2 C3 30.9(14)
S1 N1 C2 C3 -113.5(8)
N1 C2 C3 C4 -39.8(13)
C2 C3 C4 C5 34.8(9)
C2 N1 C5 C4 -9.1(10)
S1 N1 C5 C4 132.6(3)
C2 N1 C5 C6 112.9(9)
S1 N1 C5 C6 -105.4(4)
C3 C4 C5 N1 -16.7(6)
C3 C4 C5 C6 -138.7(7)
C5' N1 C2' C3' -6(4)
S1 N1 C2' C3' -137(2)
N1 C2' C3' C4' 21(4)
C2' C3' C4' C5' -28(3)
C2' N1 C5' C4' -11(3)
S1 N1 C5' C4' 121.7(13)
C2' N1 C5' C6' 111(3)
S1 N1 C5' C6' -116.5(11)
C3' C4' C5' N1 23(2)
C3' C4' C5' C6' -93(2)
N1 C5 C6 N9 71.5(9)
C4 C5 C6 N9 -171.7(6)
N1 C5 C6 C7 -45.8(6)
C4 C5 C6 C7 71.1(9)
N9 C6 C7 C8 124.5(7)
C5 C6 C7 C8 -117.3(7)
N1 C5' C6' N9 81(2)
C4' C5' C6' N9 -162.9(15)
N1 C5' C6' C7' -68(2)
C4' C5' C6' C7' 48(3)
N9 C6' C7' C8' -34(4)
C5' C6' C7' C8' 109.2(19)
C7 C6 N9 C10 -72.7(10)
C5 C6 N9 C10 168.0(5)
C7' C6' N9 C10 -51(4)
C5' C6' N9 C10 164.0(13)
C6 N9 C10 C11 169.7(6)
C6' N9 C10 C11 174.4(15)
C6 N9 C10 C15 -12.7(6)
C6' N9 C10 C15 -8.0(16)
N9 C10 C11 C12 176.8(2)
C15 C10 C11 C12 -1.0(4)
C10 C11 C12 C13 0.6(4)
C11 C12 C13 C14 -0.2(4)
C11 C12 C13 O13 -179.4(2)
C12 C13 C14 C15 0.2(3)
O13 C13 C14 C15 179.5(2)
C13 C14 C15 C10 -0.7(3)
C11 C10 C15 C14 1.0(3)
N9 C10 C15 C14 -176.6(2)
C12 C13 O13 C16 -6.9(3)
C14 C13 O13 C16 173.9(2)
O1 S1 C17 C18 17.5(2)
O2 S1 C17 C18 148.10(19)
N1 S1 C17 C18 -97.1(2)
O1 S1 C17 C22 -165.49(19)
O2 S1 C17 C22 -34.9(2)
N1 S1 C17 C22 79.9(2)
C22 C17 C18 C19 -0.6(4)
S1 C17 C18 C19 176.4(2)
C17 C18 C19 C20 -0.7(4)
C18 C19 C20 C21 1.6(4)
C18 C19 C20 C23 -177.4(3)
C19 C20 C21 C22 -1.2(4)
C23 C20 C21 C22 177.9(3)
C20 C21 C22 C17 -0.1(4)
C18 C17 C22 C21 1.0(4)
S1 C17 C22 C21 -176.0(2)
