#------------------------------------------------------------------------------
#$Date: 2017-09-28 16:02:36 +0300 (Thu, 28 Sep 2017) $
#$Revision: 201425 $
#$URL: file:///home/coder/svn-repositories/cod/cif/1/54/74/1547423.cif $
#------------------------------------------------------------------------------
#
# This file is available in the Crystallography Open Database (COD),
# http://www.crystallography.net/
#
# All data on this site have been placed in the public domain by the
# contributors.
#
data_1547423
loop_
_publ_author_name
'Anuradha R. Pallipurath'
'Jonathan M. Skelton'
'Mark R. Warren'
'Naghmeh Kamali'
'Patrick McArdle'
'Andrea Erxleben'
_publ_section_title
;
 Sulfamerazine: Understanding the Influence of Slip Planes in the
 Polymorphic Phase Transformation through X-Ray Crystallographic Studies
 and ab Initio Lattice Dynamics
;
_journal_name_full               'Molecular Pharmaceutics'
_journal_page_first              3735
_journal_page_last               3748
_journal_paper_doi               10.1021/acs.molpharmaceut.5b00504
_journal_volume                  12
_journal_year                    2015
_chemical_absolute_configuration ad
_chemical_formula_moiety         'C11 H12 N4 O2 S'
_chemical_formula_sum            'C11 H12 N4 O2 S'
_chemical_formula_weight         264.31
_chemical_name_common            Sulfamerazine
_chemical_name_systematic        4-amino-N-(4-methylpyrimidin-2-yl)
_space_group_crystal_system      orthorhombic
_space_group_IT_number           33
_space_group_name_Hall           'P 2c -2n'
_space_group_name_H-M_alt        'P n a 21'
_symmetry_space_group_name_Hall  'P 2c -2n'
_symmetry_space_group_name_H-M   'P n a 21'
_atom_sites_solution_hydrogens   mixed
_cell_angle_alpha                90
_cell_angle_beta                 90
_cell_angle_gamma                90
_cell_formula_units_Z            8
_cell_length_a                   14.48840(10)
_cell_length_b                   8.20480(10)
_cell_length_c                   21.9167(3)
_cell_measurement_reflns_used    10594
_cell_measurement_temperature    250
_cell_measurement_theta_max      29.4850
_cell_measurement_theta_min      1.7990
_cell_volume                     2605.34(5)
_computing_cell_refinement
;
CrysAlisPro, Agilent Technologies,
Version 1.171.37.35 (release 13-08-2014 CrysAlis171 .NET)
(compiled Aug 13 2014,18:06:01)
;
_computing_data_collection
;
CrysAlisPro, Agilent Technologies,
Version 1.171.37.35 (release 13-08-2014 CrysAlis171 .NET)
(compiled Aug 13 2014,18:06:01)
;
_computing_data_reduction
;
CrysAlisPro, Agilent Technologies,
Version 1.171.37.35 (release 13-08-2014 CrysAlis171 .NET)
(compiled Aug 13 2014,18:06:01)
;
_computing_molecular_graphics    OSCAIL
_computing_structure_refinement  'SHELXL-2014/7 (Sheldrick, 2014)'
_computing_structure_solution    SHELXT
_diffrn_ambient_temperature      250
_diffrn_measured_fraction_theta_full 0.998
_diffrn_measured_fraction_theta_max 0.998
_diffrn_measurement_device       'CrystalLogic Kappa (3 circle)'
_diffrn_measurement_device_type  'Rigaku Saturn724+ (2x2 bin mode)'
_diffrn_measurement_method
;
omega rotation with 1 degree frames
;
_diffrn_measurement_specimen_support 'MiTeGen loop'
_diffrn_radiation_monochromator  'double crystal Silicon 111'
_diffrn_radiation_source         'Diamond Light Source Beamline I19'
_diffrn_radiation_type           Synchrotron
_diffrn_radiation_wavelength     0.68890
_diffrn_reflns_av_R_equivalents  0.0455
_diffrn_reflns_av_unetI/netI     0.0436
_diffrn_reflns_Laue_measured_fraction_full 0.998
_diffrn_reflns_Laue_measured_fraction_max 0.998
_diffrn_reflns_limit_h_max       20
_diffrn_reflns_limit_h_min       -13
_diffrn_reflns_limit_k_max       11
_diffrn_reflns_limit_k_min       -11
_diffrn_reflns_limit_l_max       27
_diffrn_reflns_limit_l_min       -31
_diffrn_reflns_number            23569
_diffrn_reflns_point_group_measured_fraction_full 0.988
_diffrn_reflns_point_group_measured_fraction_max 0.969
_diffrn_reflns_theta_full        24.415
_diffrn_reflns_theta_max         29.476
_diffrn_reflns_theta_min         2.569
_exptl_absorpt_coefficient_mu    0.249
_exptl_absorpt_correction_T_max  1.00000
_exptl_absorpt_correction_T_min  0.94839
_exptl_absorpt_correction_type   multi-scan
_exptl_absorpt_process_details
;
CrysAlisPro, Agilent Technologies,
Version 1.171.36.28 (release 01-02-2013 CrysAlis171 .NET)
Empirical absorption correction using spherical harmonics,
implemented in SCALE3 ABSPACK scaling algorithm.
;
_exptl_crystal_colour            Colourless
_exptl_crystal_density_diffrn    1.348
_exptl_crystal_description       Parallelepiped
_exptl_crystal_F_000             1104
_exptl_crystal_size_max          0.50
_exptl_crystal_size_mid          0.40
_exptl_crystal_size_min          0.20
_refine_diff_density_max         0.258
_refine_diff_density_min         -0.304
_refine_diff_density_rms         0.046
_refine_ls_abs_structure_details
;
 Flack x determined using 2196 quotients [(I+)-(I-)]/[(I+)+(I-)]
 (Parsons, Flack and Wagner, Acta Cryst. B69 (2013) 249-259).
;
_refine_ls_abs_structure_Flack   0.09(5)
_refine_ls_extinction_coef       .
_refine_ls_extinction_method     none
_refine_ls_goodness_of_fit_ref   1.027
_refine_ls_hydrogen_treatment    mixed
_refine_ls_matrix_type           full
_refine_ls_number_parameters     344
_refine_ls_number_reflns         7710
_refine_ls_number_restraints     1
_refine_ls_restrained_S_all      1.026
_refine_ls_R_factor_all          0.0660
_refine_ls_R_factor_gt           0.0477
_refine_ls_shift/su_max          0.109
_refine_ls_shift/su_mean         0.003
_refine_ls_structure_factor_coef Fsqd
_refine_ls_weighting_details
'w=1/[\s^2^(Fo^2^)+(0.0541P)^2^+0.3587P] where P=(Fo^2^+2Fc^2^)/3'
_refine_ls_weighting_scheme      calc
_refine_ls_wR_factor_gt          0.1115
_refine_ls_wR_factor_ref         0.1247
_reflns_Friedel_coverage         0.896
_reflns_Friedel_fraction_full    0.977
_reflns_Friedel_fraction_max     0.938
_reflns_number_gt                5980
_reflns_number_total             7710
_reflns_threshold_expression     'I > 2\s(I)'
_cod_data_source_file            Exp_Form-I2FSynchrotron_Form-I_250K.cif
_cod_data_source_block           250k_smz-f1_a
_cod_original_cell_volume        2605.33(5)
_cod_database_code               1547423
_shelx_space_group_comment
;
The symmetry employed for this shelxl refinement is uniquely defined
by the following loop, which should always be used as a source of
symmetry information in preference to the above space-group names.
They are only intended as comments.
;
_shelx_estimated_absorpt_t_min   0.886
_shelx_estimated_absorpt_t_max   0.952
_shelx_res_file
;
    250k_smz-f1_a.res created by SHELXL-2014/7
TITL 250k_smz-f1_a.res in Pna2(1)
REM Old TITL 007_250K_SulfamerazineF1_ in Pna2(1)
REM SHELXT solution in Pna2(1)
REM R1 0.104,  Rweak 0.024,  Alpha 0.002,  Orientation as input
REM Flack x =  0.118 ( 0.043 ) from Parsons' quotients
REM Formula found by SHELXT:  C26 N4 O4 S2
CELL  0.68890  14.4884   8.2048  21.9167   90.000   90.000   90.000
ZERR    8.000   0.0001   0.0001   0.0003    0.000    0.000    0.000
REM SG 33 4 4 Pna21 PGmm2 Orthorhombic
LATT -1
REM SG  ASUN  1  .5 .5 1.
REM SG  ORGN  on 2(1)
SYMM -X,-Y,0.5+Z
SYMM 0.5+X,0.5-Y,Z
SYMM 0.5-X,0.5+Y,0.5+Z
SFAC C H N O S
UNIT 88.00 96.00 32.00 16.00 8.00
L.S. 10
SIZE    0.50  0.40  0.20
BOND $H
FMAP 2
PLAN 20
ACTA
CONF
EQIV $1 x, y-1, z
HTAB N5 O4_$1
EQIV $2 -x+3/2, y+1/2, z-1/2
HTAB N1 O4_$2
EQIV $3 x, y+1, z
HTAB N1 O1_$3
HTAB N2 N8
HTAB N6 N4
LIST 4
WGHT    0.054100    0.358700
FVAR       0.40998   0.35344
S1    5    0.646204    0.495480    0.344286    11.00000    0.03130    0.03582 =
         0.03358    0.00279   -0.00158   -0.00220
S2    5    0.577802    0.495578    0.652617    11.00000    0.02999    0.03632 =
         0.03288    0.00351   -0.00090   -0.00229
O1    4    0.689566    0.371260    0.308740    11.00000    0.05158    0.03712 =
         0.04560   -0.00613    0.00251   -0.00164
O2    4    0.549167    0.522265    0.337799    11.00000    0.03166    0.05400 =
         0.04533    0.00729   -0.00681   -0.00437
O3    4    0.675195    0.468151    0.659037    11.00000    0.03121    0.05408 =
         0.04140    0.00751   -0.00547   -0.00330
O4    4    0.535535    0.622980    0.687255    11.00000    0.04737    0.03542 =
         0.04547   -0.00302   -0.00145   -0.00249
N1    3    0.842652    1.116192    0.312273    11.00000    0.04511    0.03803 =
         0.06850   -0.00855    0.01827   -0.00534
N2    3    0.655333    0.449283    0.417202    11.00000    0.02880    0.05178 =
         0.03386    0.00792   -0.00076   -0.00056
N3    3    0.814587    0.409428    0.417445    11.00000    0.03127    0.04231 =
         0.04138    0.00256    0.00122    0.00323
N4    3    0.728317    0.429593    0.509510    11.00000    0.03685    0.08536 =
         0.03955    0.00815   -0.00231    0.01348
N5    3    0.380388   -0.120397    0.695500    11.00000    0.05426    0.03777 =
         0.10191   -0.00425    0.02098   -0.01043
AFIX  93
H5A   2    0.323826   -0.119070    0.707392    11.00000   -1.30000
H5B   2    0.407883   -0.211822    0.689343    11.00000   -1.30000
AFIX   0
N6    3    0.568258    0.537924    0.579359    11.00000    0.02847    0.05872 =
         0.03595    0.01246    0.00324    0.00311
N7    3    0.409693    0.585405    0.579840    11.00000    0.03426    0.04790 =
         0.04291    0.00382    0.00182    0.00423
N8    3    0.496477    0.566078    0.487505    11.00000    0.03809    0.08349 =
         0.03677    0.00630   -0.00373    0.01321
C1    1    0.704957    0.677685    0.334237    11.00000    0.02929    0.03457 =
         0.02830    0.00204   -0.00023    0.00195
C2    1    0.794823    0.679757    0.310575    11.00000    0.03139    0.03583 =
         0.03062   -0.00032    0.00085    0.00356
AFIX  43
H2    2    0.823620    0.582686    0.299730    11.00000   -1.30000
AFIX   0
C3    1    0.840203    0.825176    0.303447    11.00000    0.03001    0.04192 =
         0.02868   -0.00194    0.00413    0.00078
AFIX  43
H3    2    0.900159    0.825841    0.288295    11.00000   -1.30000
AFIX   0
C4    1    0.797366    0.972858    0.318711    11.00000    0.03592    0.03703 =
         0.03266   -0.00244    0.00192   -0.00171
C5    1    0.706988    0.969339    0.342706    11.00000    0.03720    0.03529 =
         0.04022   -0.00270    0.00470    0.00319
AFIX  43
H5    2    0.677999    1.066070    0.353751    11.00000   -1.30000
AFIX   0
C6    1    0.661678    0.823328    0.349798    11.00000    0.03159    0.03936 =
         0.04345   -0.00140    0.00969    0.00193
AFIX  43
H6    2    0.601798    0.821866    0.365073    11.00000   -1.30000
AFIX   0
C7    1    0.737213    0.428467    0.449143    11.00000    0.03298    0.04012 =
         0.03786    0.00612   -0.00145    0.00380
C8    1    0.806174    0.403578    0.540409    11.00000    0.04824    0.13226 =
         0.04588    0.00447   -0.00702    0.02656
AFIX  43
H8    2    0.803690    0.399696    0.582786    11.00000   -1.30000
AFIX   0
C9    1    0.889484    0.382387    0.512302    11.00000    0.03833    0.11351 =
         0.05260    0.00004   -0.01259    0.02060
AFIX  43
H9    2    0.942877    0.364370    0.534869    11.00000   -1.30000
AFIX   0
C10   1    0.891957    0.388485    0.449915    11.00000    0.03372    0.05247 =
         0.05930   -0.00128   -0.00008    0.00895
C11   1    0.979336    0.369988    0.414383    11.00000    0.03658    0.08168 =
         0.07492   -0.00260    0.00553    0.01139
AFIX 137
H11A  2    0.985922    0.258709    0.401567    11.00000   -1.30000
H11B  2    1.030856    0.399813    0.439562    11.00000   -1.30000
H11C  2    0.977376    0.439556    0.379188    11.00000   -1.30000
AFIX   0
C12   1    0.519058    0.315175    0.665713    11.00000    0.03169    0.03077 =
         0.03334    0.00036    0.00175    0.00052
C13   1    0.563501    0.168199    0.655595    11.00000    0.03304    0.03808 =
         0.06017    0.00067    0.00988    0.00431
AFIX  43
H13   2    0.624263    0.167349    0.641917    11.00000   -1.30000
AFIX   0
C14   1    0.518044    0.023343    0.665714    11.00000    0.04164    0.03380 =
         0.07210   -0.00135    0.00785    0.00571
AFIX  43
H14   2    0.548279   -0.074910    0.658773    11.00000   -1.30000
AFIX   0
C15   1    0.426632    0.022950    0.686377    11.00000    0.04285    0.03645 =
         0.04550   -0.00056    0.00157   -0.00343
C16   1    0.382302    0.171852    0.696311    11.00000    0.03250    0.03909 =
         0.03976   -0.00476    0.00498   -0.00356
AFIX  43
H16   2    0.321458    0.173314    0.709820    11.00000   -1.30000
AFIX   0
C17   1    0.428269    0.317018    0.686196    11.00000    0.03210    0.03385 =
         0.03552   -0.00300    0.00308    0.00305
AFIX  43
H17   2    0.398496    0.415736    0.693085    11.00000   -1.30000
AFIX   0
C18   1    0.486770    0.564442    0.548039    11.00000    0.02950    0.04142 =
         0.03624    0.00618    0.00072    0.00200
C19   1    0.418586    0.597573    0.456713    11.00000    0.04954    0.12832 =
         0.03657    0.00461   -0.00658    0.02543
AFIX  43
H19   2    0.420973    0.600896    0.414328    11.00000   -1.30000
AFIX   0
C20   1    0.335793    0.625033    0.484780    11.00000    0.04300    0.11632 =
         0.05758   -0.00687   -0.01471    0.02924
AFIX  43
H20   2    0.283261    0.649800    0.462228    11.00000   -1.30000
AFIX   0
C21   1    0.332497    0.614884    0.547686    11.00000    0.03494    0.05712 =
         0.05285   -0.00096   -0.00382    0.00981
C22   1    0.246296    0.635196    0.583797    11.00000    0.03614    0.09034 =
         0.08632   -0.00698    0.00692    0.01224
AFIX 137
H22A  2    0.249217    0.735278    0.606405    11.00000   -1.30000
H22B  2    0.239817    0.545432    0.611564    11.00000   -1.30000
H22C  2    0.194237    0.637984    0.556719    11.00000   -1.30000
AFIX   0
H1N1  2    0.893374    1.118807    0.291045    11.00000    0.06399
H2N1  2    0.811725    1.197497    0.315854    11.00000    0.05241
H1N2  2    0.615659    0.479781    0.438919    11.00000    0.03992
H1N6  2    0.618045    0.506743    0.560931    11.00000    0.05497
HKLF 4
REM  250k_smz-f1_a.res in Pna2(1)
REM R1 =  0.0477 for    5980 Fo > 4sig(Fo)  and  0.0660 for all    7710 data
REM    344 parameters refined using      1 restraints
END
WGHT      0.0510      0.3368
REM Highest difference peak  0.258,  deepest hole -0.304,  1-sigma level  0.046
Q1    1   0.5413  0.3937  0.6596  11.00000  0.05    0.26
Q2    1   0.6832  0.5934  0.3390  11.00000  0.05    0.25
Q3    1   0.8089  0.7578  0.3009  11.00000  0.05    0.23
Q4    1   0.4159  0.2405  0.6988  11.00000  0.05    0.22
Q5    1   0.3336  0.5373  0.5003  11.00000  0.05    0.21
Q6    1   0.8254  0.8955  0.3181  11.00000  0.05    0.20
Q7    1   0.5422  0.6164  0.3537  11.00000  0.05    0.20
Q8    1   0.6943  0.4316  0.3398  11.00000  0.05    0.20
Q9    1   0.9549  0.4417  0.5511  11.00000  0.05    0.20
Q10   1   0.4738  0.3165  0.6710  11.00000  0.05    0.19
Q11   1   0.6813  0.3862  0.6427  11.00000  0.05    0.19
Q12   1   0.4518  0.5485  0.5697  11.00000  0.05    0.18
Q13   1   0.1986  0.5108  0.5795  11.00000  0.05    0.18
Q14   1   0.5518  0.2543  0.6656  11.00000  0.05    0.18
Q15   1   0.6816  0.7301  0.3467  11.00000  0.05    0.18
Q16   1   0.7449  0.9674  0.3189  11.00000  0.05    0.18
Q17   1   0.5715  0.2784  0.6701  11.00000  0.05    0.18
Q18   1   0.8145  0.4084  0.3928  11.00000  0.05    0.17
Q19   1   0.5904  0.5508  0.3428  11.00000  0.05    0.17
Q20   1   0.6900  0.9044  0.3517  11.00000  0.05    0.17
;
_shelx_res_checksum              30385
_shelx_hkl_file
;
   0   0 -29    1.36    2.19
   0   0 -28  117.55   10.19
   0   0 -27    3.75    2.05
   0   0 -26  318.32   15.96
   0   0 -25   -0.24    1.19
   0   0 -24    3.01    2.01
   0   0 -23    1.64    1.40
   0   0 -22   30.01    4.80
   0   0 -21    0.35    2.12
   0   0 -20  386.00   15.65
   0   0 -19   -0.72    1.05
   0   0 -18   36.55    4.74
   0   0 -17    0.64    1.04
   0   0 -16  197.87   10.02
   0   0 -15   -0.25    0.84
   0   0 -14   39.31    4.29
   0   0 -13   -0.43    0.70
   0   0 -12 2319.10   29.75
   0   0 -11    2.15    0.97
   0   0 -10  285.62    9.45
   0   0  -9    0.33    0.79
   0   0  -8 9999.00   49.91
   0   0  -7    0.20    0.37
   0   0  -5   -0.04    0.35
   0   0  -4 2668.22   18.62
   0   0  -3    2.10    0.42
   0   0   4 2714.29   14.07
   0   0   5   -0.01    0.21
   0   0   7    0.13    0.38
   0   0   9    0.17    0.47
   0   0  10  279.47    7.21
   0   0  11    0.23    0.35
   0   0  12 2433.46   23.02
   0   0  13    0.04    0.62
   0   0  14   41.43    3.28
   0   0  15    0.19    0.46
   0   0  16  217.18    8.15
   0   0  17    0.17    0.45
   0   0  18   45.98    3.99
   0   0  19    0.50    1.03
   0  -1 -31    6.74    3.16
   0  -1 -30    3.55    2.34
   0  -1 -29    4.13    2.12
   0  -1 -28   -2.92    2.90
   0  -1 -27    0.60    0.97
   0  -1 -26    1.47    2.37
   0   1 -26    0.04    1.63
   0  -1 -25    0.74    1.25
   0   1 -25    1.91    1.81
   0  -1 -24    0.87    1.77
   0   1 -24   -0.69    1.19
   0  -1 -23    0.06    1.04
   0   1 -23    0.17    1.37
   0   1 -22    0.34    0.91
   0  -1 -22   -1.36    1.52
   0  -1 -21   74.40    6.79
   0   1 -21   63.51    6.55
   0  -1 -20    0.04    0.79
   0   1 -20    0.22    1.00
   0   1 -19   10.65    2.69
   0  -1 -19    8.09    2.26
   0   1 -18    0.42    1.50
   0  -1 -18    1.17    1.33
   0  -1 -17   15.70    2.94
   0   1 -17   10.88    2.43
   0   1 -16    1.07    1.67
   0  -1 -16   -0.15    0.73
   0   1 -15   46.91    4.55
   0  -1 -15   51.81    5.09
   0   1 -14    0.19    1.14
   0  -1 -14   -0.22    1.28
   0  -1 -13   98.34    6.55
   0   1 -13  102.15    6.30
   0   1 -12   -0.14    0.85
   0  -1 -12   -0.07    0.78
   0   1 -11   29.77    3.06
   0  -1 -11   32.37    3.53
   0   1 -10   -0.26    0.57
   0  -1 -10    0.94    0.83
   0  -1  -9 1064.97   18.10
   0   1  -9 1082.02   16.68
   0   1  -9 1059.21    9.99
   0  -1  -8   -0.31    0.62
   0   1  -8    0.06    0.36
   0   1  -8   -0.01    0.23
   0   1  -7 1010.13   13.89
   0  -1  -7  995.74   15.82
   0   1  -7 1012.70    9.28
   0   1  -6    0.32    0.23
   0   1  -6    0.01    0.31
   0  -1  -6    0.33    0.62
   0   1  -5 1831.29   12.06
   0  -1  -5 1833.43   18.86
   0  -1  -5 1821.02   17.23
   0   1  -5 1828.27   15.27
   0   1  -4    0.16    0.24
   0   1  -4   -0.08    0.19
   0  -1  -4    0.33    0.33
   0  -1  -4    0.07    0.23
   0   1  -3  829.21    8.32
   0  -1  -3  842.29   10.55
   0  -1  -3  809.72   10.52
   0  -1  -2    0.37    0.36
   0   1  -2   -0.12    0.20
   0  -1  -2   -0.02    0.24
   0   1  -1  330.01    5.44
   0  -1  -1  336.21    5.85
   0   1   0   -0.01    0.20
   0  -1   0    0.03    0.22
   0  -1   1  330.80    4.94
   0   1   1  338.62    5.93
   0   1   2    0.22    0.31
   0  -1   2    0.03    0.14
   0  -1   5 1839.13   10.39
   0  -1   6   -0.04    0.11
   0  -1   7 1017.17    8.81
   0  -1   8    0.14    0.21
   0   1   8    1.37    0.81
   0   1   9 1085.56   16.25
   0  -1   9 1083.88   10.75
   0  -1  10   -0.04    0.19
   0   1  10   -0.38    0.50
   0  -1  11   32.15    2.15
   0   1  11   29.65    2.89
   0  -1  12    0.08    0.33
   0   1  12    0.18    0.66
   0   1  13   86.62    5.21
   0  -1  13   91.18    3.98
   0  -1  14   -0.35    0.46
   0   1  14    0.30    0.59
   0  -1  15   52.50    3.27
   0   1  15   51.00    4.31
   0   1  15   44.10    3.49
   0   1  16    0.32    0.59
   0  -1  16    0.32    0.37
   0   1  16   -0.43    0.73
   0   1  17    8.38    1.75
   0   1  17    7.89    1.48
   0  -1  17   12.64    1.83
   0   1  18   -0.11    0.70
   0   1  18   -0.17    0.79
   0   1  19   11.75    2.38
   0   1  20    0.00    0.73
   0  -2 -30   59.00    7.50
   0  -2 -29   -0.48    1.80
   0  -2 -28    8.39    2.99
   0  -2 -27   -1.93    2.02
   0  -2 -26  106.75    9.34
   0  -2 -25   -1.50    1.80
   0  -2 -24    2.46    1.18
   0  -2 -23    3.33    1.53
   0  -2 -22   72.68    7.18
   0  -2 -21    0.72    1.06
   0  -2 -20  107.39    8.39
   0  -2 -19   -0.44    0.87
   0   2 -19   -1.16    1.13
   0  -2 -18   46.32    5.30
   0   2 -18   40.00    4.68
   0  -2 -17    2.01    1.26
   0   2 -17    0.14    0.75
   0  -2 -16  526.85   16.93
   0   2 -16  498.21   15.26
   0   2 -15    0.67    0.95
   0  -2 -15   -0.12    0.79
   0   2 -14  204.31    5.71
   0  -2 -14  203.79    9.96
   0  -2 -13   -0.28    0.84
   0   2 -13    0.31    0.48
   0   2 -13    0.27    0.61
   0   2 -12 1095.19   12.89
   0   2 -12 1078.84   18.84
   0   2 -11   -0.32    0.42
   0   2 -11    0.21    0.37
   0   2 -10 1345.68   19.07
   0   2 -10 1367.35   14.76
   0  -2 -10 1355.63   22.60
   0  -2  -9    0.70    0.41
   0   2  -9    0.15    0.36
   0   2  -8   94.57    3.93
   0  -2  -8  101.62    5.84
   0  -2  -7    0.25    0.69
   0   2  -7    0.17    0.39
   0  -2  -7    0.50    0.57
   0  -2  -6 1019.48   16.40
   0  -2  -6 1050.17   16.85
   0   2  -6 1051.62   13.39
   0  -2  -5   -0.25    0.50
   0   2  -5    0.61    0.65
   0  -2  -5   -0.37    0.29
   0  -2  -4 1054.32   14.84
   0  -2  -4 1080.41   15.92
   0   2  -4 1085.07   13.83
   0   2  -3    0.18    0.49
   0  -2  -3    0.26    0.27
   0  -2  -3    0.19    0.59
   0  -2  -2  406.26    7.94
   0  -2  -2  418.73    9.19
   0   2  -2  416.09    8.71
   0  -2  -1    0.26    0.27
   0   2  -1    0.09    0.40
   0  -2  -1   -0.36    0.59
   0   2   1   -0.87    0.67
   0  -2   1   -0.36    0.21
   0  -2   2  428.19    5.38
   0   2   2  425.78    9.40
   0  -2   2  429.31    7.92
   0   2   3    0.41    0.50
   0  -2   3    0.01    0.31
   0  -2   4 1122.92   11.63
   0   2   4 1039.33   15.41
   0  -2   5   -0.03    0.24
   0   2   5    0.29    0.35
   0  -2   6 1067.88   11.13
   0   2   6 1047.98   16.00
   0   2   7    0.74    0.57
   0  -2   7    0.06    0.17
   0  -2   8  105.00    3.30
   0   2   8   97.58    5.04
   0  -2   9    0.21    0.22
   0   2   9   -0.29    0.47
   0   2  10 1354.52   19.70
   0   2  11    0.49    0.82
   0  -2  11    0.22    0.37
   0   2  11    0.45    0.72
   0   2  12 1092.53   18.52
   0   2  12 1089.04   20.44
   0  -2  12 1072.38   11.46
   0  -2  13    0.00    0.20
   0   2  13   -0.25    0.45
   0   2  14  212.46    9.57
   0   2  14  225.90    8.80
   0   2  15   -0.45    0.97
   0   2  15    0.36    0.60
   0  -2  15    0.17    0.42
   0   2  16  501.77   13.72
   0   2  16  496.92   15.04
   0   2  17   -0.38    0.96
   0   2  17   -0.02    0.73
   0   2  18   39.61    4.68
   0   2  18   37.08    3.81
   0   2  19    0.44    1.54
   0   2  19   -0.87    1.06
   0   2  20  103.13    7.50
   0   2  21   -0.56    0.75
   0   2  22   53.91    6.04
   0  -3 -30    3.35    2.58
   0  -3 -29    1.20    1.77
   0  -3 -28    0.55    1.60
   0  -3 -27    7.29    2.88
   0  -3 -26   -2.28    1.53
   0  -3 -25   -0.14    1.40
   0  -3 -24    0.76    1.12
   0  -3 -23    2.20    2.08
   0  -3 -22    0.67    1.12
   0  -3 -21   48.42    5.85
   0  -3 -20   -0.47    1.20
   0  -3 -19   69.84    6.97
   0  -3 -18    1.21    1.70
   0  -3 -17   29.63    4.27
   0  -3 -16   -1.17    1.48
   0  -3 -15   63.46    5.83
   0  -3 -14    3.04    1.66
   0   3 -14   -0.28    0.66
   0  -3 -13   80.95    6.26
   0   3 -13   80.10    4.49
   0  -3 -12    0.42    1.26
   0   3 -12    0.15    0.39
   0   3 -11   85.96    4.60
   0  -3 -11   82.87    6.06
   0  -3 -10    0.34    0.90
   0   3 -10   -0.01    0.63
   0   3  -9 1758.02   21.14
   0  -3  -9 1723.43   25.94
   0  -3  -8    0.12    0.64
   0  -3  -8   -0.40    0.78
   0   3  -8   -0.56    0.83
   0  -3  -7    5.77    1.54
   0   3  -7    8.92    1.61
   0  -3  -7    9.25    1.78
   0  -3  -6    1.12    0.86
   0  -3  -6   -0.02    0.47
   0  -3  -5  370.21   10.20
   0   3  -5  387.70   10.26
   0  -3  -5  382.55   11.25
   0  -3  -4    0.19    0.40
   0   3  -4   -0.09    0.39
   0  -3  -4    0.10    0.37
   0  -3  -3  486.75   10.60
   0  -3  -3  506.46   12.28
   0   3  -3  487.50   11.62
   0   3  -2   -0.50    0.70
   0  -3  -2    1.01    0.92
   0  -3  -2    0.50    0.62
   0   3  -1  996.85   16.86
   0  -3  -1  959.34   16.20
   0  -3   0    0.24    0.54
   0  -3   0    0.62    0.58
   0   3   0    0.71    0.85
   0  -3   1 1053.46   16.02
   0  -3   1 1039.48   11.35
   0  -3   2   -0.06    0.19
   0  -3   2    0.20    0.43
   0   3   2    0.49    0.37
   0   3   3  502.64   12.36
   0  -3   3  503.31    7.10
   0  -3   3  506.66   10.68
   0  -3   4    0.02    0.44
   0  -3   4    0.50    0.40
   0   3   4    1.30    0.88
   0   3   5  381.91   11.07
   0  -3   5  402.07    8.94
   0  -3   6    0.22    0.42
   0   3   6    0.02    0.66
   0  -3   7    8.69    1.19
   0   3   7    6.87    1.56
   0   3   8    0.19    1.04
   0  -3   8   -0.11    0.26
   0   3   9 1769.42   25.28
   0  -3   9 1731.55   16.91
   0  -3  10   -0.16    0.24
   0   3  10    0.98    0.95
   0   3  11   85.05    5.77
   0  -3  12    0.44    0.36
   0   3  12    0.31    0.47
   0   3  13   79.13    5.67
   0  -3  13   81.50    3.39
   0   3  13   80.53    6.31
   0  -3  14   -0.18    0.27
   0   3  14   -1.45    1.23
   0   3  14    0.14    0.81
   0   3  15   56.38    5.40
   0   3  15   71.38    5.64
   0   3  16    0.06    0.88
   0   3  16   -0.18    0.87
   0   3  17   34.58    4.61
   0   3  17   28.87    3.76
   0   3  18    0.96    0.99
   0   3  18   -0.90    1.35
   0   3  19   82.85    7.18
   0   3  19   61.97    5.61
   0   3  20   -0.84    0.81
   0   3  21   54.30    5.87
   0   3  22    0.89    1.19
   0   3  23    4.58    2.47
   0  -4 -29   -0.30    1.32
   0  -4 -28    1.29    2.11
   0  -4 -27    3.89    2.27
   0  -4 -26   23.83    4.76
   0  -4 -25    0.02    1.19
   0  -4 -24    1.55    1.32
   0  -4 -23    0.59    1.86
   0  -4 -22  184.68   11.64
   0  -4 -21    1.29    1.82
   0  -4 -20   20.13    3.90
   0  -4 -19   -1.19    1.39
   0  -4 -18   94.55    7.96
   0  -4 -17    2.94    2.18
   0  -4 -16  537.62   18.15
   0  -4 -15    0.01    0.98
   0   4 -14  109.62    6.15
   0  -4 -14  123.60    8.49
   0  -4 -13    0.60    1.33
   0   4 -13    1.08    0.72
   0  -4 -12  433.98   14.85
   0   4 -12  469.88   12.66
   0   4 -11    0.74    0.99
   0  -4 -11    0.37    0.93
   0  -4 -10 1276.15   24.71
   0  -4 -10 1283.19   24.26
   0   4 -10 1203.19   20.77
   0  -4  -9    0.84    0.84
   0   4  -9    1.14    1.29
   0  -4  -9   -0.01    0.83
   0  -4  -8  351.78   12.61
   0  -4  -8  343.29   12.03
   0   4  -8  343.66   11.06
   0  -4  -7    0.42    0.70
   0  -4  -7    0.35    0.76
   0   4  -7    0.43    0.51
   0   4  -6  608.11   14.96
   0  -4  -6  620.52   16.14
   0  -4  -6  616.95   14.64
   0  -4  -5    1.30    1.08
   0   4  -5   -0.33    0.81
   0  -4  -5    0.28    0.98
   0  -4  -4 1296.34   22.63
   0  -4  -4 1291.15   19.84
   0   4  -4 1281.75   21.86
   0  -4  -3    0.92    0.97
   0   4  -3    1.70    1.32
   0  -4  -3    0.54    1.15
   0   4  -2  347.71   11.51
   0  -4  -2  333.43    9.22
   0  -4  -2  359.65   11.59
   0  -4  -1    0.11    0.30
   0  -4  -1   -1.06    1.00
   0   4  -1   -0.24    0.62
   0  -4   0  169.79    5.68
   0   4   0  154.07    7.68
   0  -4   0  171.50    7.69
   0   4   1   -0.24    0.60
   0  -4   1    0.16    0.53
   0  -4   1   -0.57    0.59
   0  -4   2  345.46    7.12
   0   4   2  331.56   11.54
   0  -4   2  343.52   10.52
   0   4   3    0.19    0.75
   0  -4   3    0.61    0.38
   0  -4   3    0.43    0.68
   0   4   4 1301.48   23.13
   0  -4   4 1286.63   12.94
   0  -4   5   -0.39    0.52
   0   4   5    1.33    1.88
   0  -4   5    0.21    0.35
   0   4   6  639.70   16.38
   0  -4   6  638.68    9.26
   0  -4   6  630.36   13.28
   0   4   7    0.14    0.64
   0  -4   7    0.29    0.46
   0  -4   8  331.32    9.43
   0   4   8  337.45   12.29
   0  -4   9   -0.42    0.47
   0   4   9    1.07    1.10
   0  -4  10 1251.44   17.36
   0   4  10 1262.29   24.14
   0  -4  11    0.52    0.78
   0   4  11    0.76    1.21
   0   4  12  444.66   14.82
   0  -4  12  446.97   10.13
   0   4  13    1.42    1.36
   0  -4  13    0.46    0.55
   0   4  14  116.35    7.72
   0   4  14  136.96    8.97
   0   4  15   -0.30    0.89
   0   4  15    0.25    1.33
   0   4  16  455.21   15.99
   0   4  16  467.83   17.05
   0   4  17    0.01    1.06
   0   4  17    0.35    0.99
   0   4  18  100.00    8.08
   0   4  18   94.61    7.78
   0   4  19    0.19    1.01
   0   4  19    2.34    1.72
   0   4  20   27.60    4.39
   0   4  20   26.17    4.24
   0   4  21   -0.50    1.23
   0   4  22  150.34   10.71
   0   4  23    1.15    2.19
   0   4  24    1.37    1.54
   0  -5 -28    0.79    1.26
   0  -5 -27    0.40    1.14
   0  -5 -26    1.76    2.19
   0  -5 -25    2.13    1.67
   0  -5 -24    1.46    2.20
   0  -5 -23   19.83    4.37
   0  -5 -22    0.53    1.12
   0  -5 -21    6.30    2.41
   0  -5 -20    0.97    1.29
   0  -5 -19    5.63    2.01
   0  -5 -18   -2.09    1.43
   0  -5 -17    4.72    2.07
   0  -5 -16   -0.32    1.16
   0  -5 -15    9.28    2.17
   0  -5 -14   -0.20    1.18
   0  -5 -13   23.42    4.00
   0   5 -13   26.35    3.37
   0  -5 -12    0.25    1.36
   0   5 -12    0.45    0.93
   0   5 -11    9.00    2.14
   0  -5 -11   14.49    3.07
   0  -5 -10    0.99    0.65
   0   5 -10   -0.87    1.13
   0  -5 -10   -1.07    1.08
   0  -5  -9    3.64    1.39
   0  -5  -9    1.93    0.74
   0   5  -9    3.72    1.20
   0  -5  -8    1.11    1.26
   0   5  -8    0.81    1.19
   0  -5  -8    0.52    0.83
   0  -5  -7   72.53    5.69
   0   5  -7   88.75    6.34
   0  -5  -7   74.48    6.20
   0  -5  -6   -0.43    0.77
   0  -5  -6   -0.11    0.49
   0   5  -6   -0.19    0.98
   0  -5  -5   91.97    6.66
   0   5  -5  113.00    7.28
   0  -5  -4    1.25    1.06
   0  -5  -4    0.06    0.65
   0   5  -4    0.00    0.96
   0  -5  -3  119.83    6.31
   0  -5  -3  132.51    7.78
   0   5  -3  114.90    7.25
   0  -5  -2   -0.11    0.52
   0  -5  -2    1.26    1.26
   0   5  -2   -0.25    1.09
   0  -5  -1   27.58    2.76
   0  -5  -1   32.54    3.73
   0   5  -1   31.24    3.85
   0  -5   0   -0.53    0.70
   0   5   0   -0.49    0.62
   0  -5   0   -0.17    0.67
   0   5   1   29.98    3.75
   0  -5   1   30.60    3.64
   0  -5   1   29.13    2.49
   0  -5   2   -0.04    0.43
   0   5   2    0.49    0.89
   0  -5   2    0.12    0.62
   0  -5   3  121.95    6.86
   0  -5   3  128.69    4.63
   0   5   3  129.97    7.89
   0  -5   4    0.71    0.49
   0  -5   4    0.40    0.56
   0   5   5  121.28    7.78
   0  -5   5  113.67    4.09
   0  -5   5  111.39    6.48
   0   5   6    1.01    0.95
   0  -5   6    0.88    1.05
   0  -5   6   -0.22    0.28
   0   5   7   75.47    6.24
   0  -5   7   67.37    3.25
   0  -5   8   -0.03    0.37
   0   5   8    0.52    1.21
   0  -5   8   -0.14    0.50
   0  -5   9    1.38    0.45
   0  -5   9    1.47    1.05
   0   5   9    0.87    0.90
   0  -5  10    0.42    1.20
   0   5  10    0.88    0.83
   0  -5  11   10.25    2.05
   0   5  11    9.78    2.59
   0   5  12    0.25    1.35
   0  -5  12   -0.01    0.47
   0   5  13   28.12    4.09
   0   5  14    3.91    2.29
   0   5  15    7.98    2.77
   0   5  15    8.67    2.27
   0   5  16   -0.57    1.04
   0   5  16   -0.19    0.95
   0   5  17    3.35    1.81
   0   5  17    5.98    2.15
   0   5  18    1.05    1.21
   0   5  18    0.81    1.17
   0   5  19    4.43    1.92
   0   5  19    7.22    2.55
   0   5  20   -0.80    2.09
   0   5  20   -0.94    1.48
   0   5  21    1.31    1.74
   0   5  21    5.85    2.60
   0   5  22    1.04    2.19
   0   5  23   12.27    3.05
   0   5  24    2.83    2.86
   0   5  25   -1.36    2.30
   0  -6 -26   50.83    6.69
   0  -6 -25    0.02    1.10
   0  -6 -24   19.44    4.52
   0  -6 -23    1.09    1.58
   0  -6 -22  101.03    9.11
   0  -6 -21    7.26    3.28
   0  -6 -20   53.84    6.53
   0  -6 -19   -1.85    2.03
   0  -6 -18    0.67    1.96
   0  -6 -17   -0.58    1.94
   0  -6 -16  124.49    9.36
   0  -6 -15    0.80    1.19
   0  -6 -14    9.28    2.52
   0  -6 -13    0.03    1.46
   0   6 -13   -0.08    1.35
   0   6 -12  164.70    9.62
   0  -6 -12  169.27    9.98
   0  -6 -11   -0.87    1.23
   0   6 -11   -1.11    0.81
   0   6 -10  207.33   10.86
   0  -6 -10  214.08   10.74
   0  -6 -10  183.40   10.78
   0  -6  -9    2.29    1.57
   0   6  -9   -0.27    1.01
   0  -6  -9   -2.19    2.41
   0  -6  -8   26.10    4.21
   0  -6  -8   24.73    3.37
   0   6  -8   21.25    3.56
   0   6  -7    1.72    1.81
   0  -6  -7    0.08    0.77
   0  -6  -7    1.14    1.63
   0  -6  -6 1285.71   27.19
   0  -6  -6 1256.46   24.32
   0   6  -6 1220.68   26.19
   0   6  -5    0.03    0.89
   0  -6  -5    0.30    1.10
   0   6  -4  533.22   17.23
   0  -6  -4  512.21   14.37
   0  -6  -4  542.39   17.34
   0  -6  -3    0.48    0.82
   0  -6  -3   -0.03    1.38
   0   6  -3    0.84    1.24
   0  -6  -2  935.88   22.26
   0  -6  -2  893.91   17.79
   0   6  -2  950.52   23.05
   0  -6  -1    1.48    1.42
   0   6  -1    1.07    1.64
   0  -6  -1    0.10    1.38
   0  -6   0  708.25   14.89
   0  -6   0  673.43   18.51
   0   6   0  678.99   19.56
   0   6   1    4.30    2.13
   0  -6   1    1.22    0.78
   0  -6   1    1.64    1.80
   0   6   2  926.21   23.14
   0  -6   2  876.42   14.50
   0  -6   2  931.53   21.33
   0   6   3   -1.36    1.47
   0  -6   3    0.24    1.31
   0  -6   3    0.34    0.90
   0   6   4  514.17   17.28
   0  -6   4  518.77   15.70
   0  -6   5    0.33    0.50
   0  -6   5    2.24    1.35
   0   6   5    0.50    1.56
   0   6   6 1274.16   27.59
   0  -6   6 1301.37   24.43
   0   6   7    0.36    1.03
   0  -6   7    0.56    1.04
   0   6   8   29.09    4.43
   0  -6   8   27.57    3.52
   0  -6   9    0.29    0.69
   0   6   9    0.82    1.71
   0   6  10  207.70   11.32
   0  -6  10  204.89    9.32
   0   6  11    1.87    1.83
   0  -6  11    0.12    0.72
   0   6  12  151.86   10.01
   0   6  13   -0.77    0.92
   0   6  14    7.02    2.50
   0   6  15    0.09    1.32
   0   6  15    1.12    1.56
   0   6  16  115.13    9.03
   0   6  16  138.29   10.60
   0   6  17   -1.85    1.67
   0   6  17    1.11    1.62
   0   6  18    2.87    2.26
   0   6  18    1.45    1.15
   0   6  19    0.21    1.69
   0   6  19    0.17    1.60
   0   6  20   45.90    6.00
   0   6  20   51.29    6.59
   0   6  21    1.01    1.94
   0   6  21    1.58    1.79
   0   6  22   92.32    8.80
   0   6  23   -0.55    2.17
   0   6  24   20.69    4.32
   0   6  25    2.16    2.27
   0   6  26   33.11    6.28
   0  -7 -25    9.55    2.94
   0  -7 -24    0.60    2.49
   0  -7 -23    8.20    3.46
   0  -7 -22    3.16    2.92
   0  -7 -21   13.43    3.51
   0  -7 -20    1.15    1.61
   0  -7 -19   13.64    3.77
   0  -7 -18    0.04    1.42
   0  -7 -17    0.02    1.74
   0  -7 -16   -1.72    1.97
   0  -7 -15   15.87    3.56
   0  -7 -14    0.57    1.70
   0  -7 -13   20.71    3.78
   0   7 -12   -0.99    1.01
   0  -7 -12   -1.80    2.24
   0  -7 -11   13.51    3.20
   0   7 -11   13.61    3.37
   0  -7 -10    0.75    1.01
   0   7 -10    1.20    1.41
   0  -7  -9   72.73    7.10
   0  -7  -9   90.61    7.21
   0   7  -9   83.98    7.51
   0  -7  -8    0.69    1.46
   0   7  -8   -0.62    0.97
   0  -7  -8    1.38    1.92
   0  -7  -7  434.29   16.79
   0  -7  -7  440.72   15.82
   0   7  -7  454.84   17.37
   0   7  -6    0.62    1.67
   0  -7  -6    0.59    1.03
   0  -7  -6    2.07    0.95
   0   7  -5  295.54   13.66
   0  -7  -5  262.45   11.62
   0  -7  -5  304.93   14.04
   0  -7  -4    1.03    1.00
   0  -7  -4    1.93    1.25
   0   7  -4   -0.02    0.99
   0   7  -3   30.63    4.74
   0  -7  -3   30.16    3.75
   0  -7  -3   30.81    4.45
   0   7  -2    0.91    1.66
   0  -7  -2    0.26    0.98
   0  -7  -2    0.12    1.29
   0  -7  -1  817.45   22.25
   0   7  -1  831.36   23.55
   0  -7   0    1.65    1.87
   0  -7   0    0.60    1.25
   0   7   0    0.47    2.02
   0  -7   1  857.12   22.43
   0   7   1  822.95   23.19
   0   7   2    3.25    2.87
   0  -7   2   -0.52    1.01
   0   7   3   37.45    4.97
   0  -7   3   32.28    4.26
   0   7   4   -1.00    1.33
   0  -7   4    1.39    1.43
   0  -7   5  264.64   12.14
   0   7   5  249.87   13.00
   0   7   6    0.38    1.83
   0  -7   6   -0.18    1.20
   0  -7   7  437.48   15.50
   0   7   7  434.86   17.34
   0  -7   8    0.92    1.24
   0   7   8   -1.48    1.49
   0  -7   9   82.76    6.79
   0   7   9   83.68    7.72
   0   7  10    0.64    1.39
   0  -7  10    0.88    0.80
   0   7  11   12.52    3.10
   0   7  12    0.56    1.60
   0   7  13   28.31    4.88
   0   7  14   -2.07    1.99
   0   7  15   13.42    3.80
   0   7  15   14.42    3.62
   0   7  16   -0.42    1.51
   0   7  16    2.15    2.06
   0   7  17   -0.16    1.34
   0   7  17    3.82    2.23
   0   7  18   -2.00    2.65
   0   7  18    0.12    1.17
   0   7  19    5.70    2.51
   0   7  19    7.19    1.48
   0   7  20    5.46    2.86
   0   7  20    0.81    1.60
   0   7  21    2.49    2.52
   0   7  21    7.85    2.95
   0   7  22    1.76    1.92
   0   7  23    2.53    2.33
   0   7  24    0.35    1.02
   0   7  25    3.77    1.70
   0  -8 -22   14.98    3.91
   0  -8 -21    3.35    2.06
   0  -8 -20   25.12    4.72
   0  -8 -19   -2.19    2.29
   0  -8 -18   -0.14    1.24
   0  -8 -17   -1.49    2.47
   0  -8 -16   20.33    4.08
   0  -8 -15    0.29    1.51
   0  -8 -14    6.14    2.39
   0  -8 -13    2.13    2.29
   0  -8 -12    4.86    2.17
   0   8 -12   12.56    3.92
   0   8 -11   -1.25    1.13
   0  -8 -11   -0.76    1.27
   0   8 -10   37.69    5.66
   0  -8 -10   29.53    4.51
   0   8  -9    0.16    1.33
   0  -8  -9   -0.14    1.74
   0   8  -8   -0.25    0.87
   0  -8  -8    1.30    1.72
   0   8  -7   -0.97    1.16
   0  -8  -7    2.41    2.00
   0  -8  -7   -2.10    1.72
   0   8  -6   73.34    7.56
   0  -8  -6   81.25    7.55
   0  -8  -6   72.14    6.54
   0   8  -5   -1.77    1.90
   0  -8  -5    1.74    1.22
   0  -8  -5   -1.35    1.35
   0  -8  -4   34.91    4.54
   0  -8  -4   44.22    5.79
   0   8  -4   40.97    5.50
   0   8  -3    0.96    2.16
   0  -8  -3    0.15    1.25
   0   8  -2   38.82    5.35
   0  -8  -2   44.36    5.61
   0  -8  -1    0.37    0.87
   0   8  -1   -0.30    1.07
   0   8   0   83.81    7.80
   0  -8   0   76.65    7.24
   0  -8   1   -0.95    1.12
   0   8   1    1.95    1.16
   0  -8   2   40.36    5.22
   0   8   2   43.64    5.56
   0  -8   3    0.48    1.10
   0   8   3   -1.36    1.03
   0  -8   4   41.05    5.46
   0   8   4   35.73    5.06
   0   8   5    1.03    1.89
   0  -8   5    0.48    1.33
   0   8   6   91.15    8.27
   0  -8   6   80.21    7.39
   0  -8   7    0.34    1.20
   0   8   7    0.26    1.91
   0   8   8    1.94    1.52
   0  -8   8    0.39    1.42
   0  -8   9    1.83    1.08
   0   8   9    0.19    1.20
   0   8  10   41.35    5.88
   0   8  11   -1.26    1.45
   0   8  12    7.32    2.78
   0   8  13    0.83    1.43
   0   8  14    7.52    1.63
   0   8  14    4.49    2.34
   0   8  15    2.11    1.33
   0   8  15   -0.17    1.16
   0   8  16   31.09    5.41
   0   8  16   23.84    4.77
   0   8  17   -2.00    2.16
   0   8  17   -0.45    1.41
   0   8  18    1.12    2.41
   0   8  18    2.48    2.15
   0   8  19   -0.20    1.82
   0   8  19    1.72    1.45
   0   8  20   14.55    3.93
   0   8  20   13.95    3.67
   0   8  21   -0.28    1.39
   0   8  21    0.13    1.99
   0   8  22    9.82    2.90
   0  -9 -20    1.21    1.70
   0  -9 -19   -1.09    1.57
   0  -9 -18   -0.43    1.74
   0  -9 -17    7.29    2.97
   0  -9 -16    1.21    1.95
   0  -9 -15    1.02    1.88
   0  -9 -14   -0.92    1.70
   0  -9 -13    2.44    1.55
   0  -9 -12   -0.64    1.70
   0  -9 -11   12.02    3.38
   0   9 -11   13.96    3.61
   0  -9 -10   -0.66    1.24
   0   9 -10   -1.78    1.66
   0   9  -9   14.12    3.70
   0   9  -8   -0.15    1.90
   0   9  -7    2.24    1.63
   0   9  -6   -1.30    1.21
   0   9  -5    1.28    1.11
   0  -9  -5    0.04    1.44
   0  -9  -4    0.16    1.41
   0   9  -4   -0.45    2.26
   0  -9  -3   22.27    4.35
   0   9  -3   19.22    4.28
   0   9  -2    2.75    2.63
   0  -9  -2    2.11    2.36
   0   9  -1    2.17    1.36
   0  -9  -1    2.36    1.99
   0  -9   0    2.32    1.96
   0   9   0   -1.32    1.36
   0  -9   1    6.19    2.26
   0   9   1    0.20    1.84
   0  -9   2    0.45    1.58
   0   9   2   -0.49    1.86
   0   9   3   17.74    4.11
   0  -9   3   17.61    3.85
   0  -9   4    0.66    1.51
   0   9   4   -0.03    1.61
   0  -9   5    0.38    1.44
   0   9   5    0.61    1.59
   0   9   6   -0.27    1.17
   0  -9   6   -0.74    1.50
   0  -9   7    6.05    2.09
   0   9   7    7.18    2.23
   0  -9   8    1.79    2.02
   0   9   8   -1.63    1.95
   0   9   9   14.30    3.37
   0   9  10   -0.95    1.44
   0   9  11   17.44    4.37
   0   9  12    1.86    1.35
   0   9  13   -3.27    2.39
   0   9  13    3.15    2.51
   0   9  14   -1.33    1.24
   0   9  14   -1.04    1.90
   0   9  15    4.22    2.04
   0   9  15    7.50    2.59
   0   9  16    0.82    1.80
   0   9  16   -0.26    1.50
   0   9  17    8.99    3.18
   0   9  17   10.65    3.77
   0   9  18    0.41    1.65
   0   9  18   -3.09    2.16
   0   9  19    2.10    2.34
   0   9  19   -0.80    1.40
   0   9  20    6.39    2.93
   0   9  20    0.07    1.85
   0  10 -10   32.00    5.66
   0  10  -9   -0.72    1.26
   0  10  -8    1.14    1.79
   0  10  -7    2.26    2.26
   0  10  -6   49.68    6.95
   0  10  -5   -0.01    2.56
   0  10  -4   26.71    4.74
   0  10  -3    6.38    3.34
   0  10  -2   22.18    4.48
   0  10  -1   -1.44    1.55
   0  10   0   71.35    8.18
   0 -10   0   63.56    7.40
   0 -10   1   -0.21    1.62
   0  10   1    0.17    1.18
   0  10   2   15.05    4.01
   0 -10   2   21.62    4.50
   0  10   3    1.90    2.00
   0 -10   3   -0.89    1.73
   0  10   4   19.66    4.93
   0 -10   4   29.06    5.23
   0  10   5   -0.90    1.20
   0 -10   5   -0.49    1.60
   0 -10   6   48.33    6.27
   0  10   6   35.91    5.78
   0  10   7    1.68    2.52
   0  10   8    0.23    2.14
   0  10   9   -1.60    1.76
   0  10  10   24.51    4.74
   0  10  11   -0.49    1.37
   0  10  11    1.58    1.61
   0  10  12   11.36    3.27
   0  10  12   16.92    4.40
   0  10  13    2.92    2.52
   0  10  13   -4.51    2.93
   0  10  14    1.82    2.25
   0  10  14    5.80    2.37
   0  10  15   -2.39    2.34
   0  10  15   -0.02    1.20
   0  10  16   10.32    3.85
   0  10  16    8.89    3.19
   0  11  -9    1.67    2.18
   0  11  -8   -1.65    2.72
   0  11  -7   -1.96    1.80
   0  11  -6   -4.87    2.38
   0  11  -5    1.54    1.23
   0  11  -4   -0.69    1.39
   0  11  -3    7.91    2.92
   0  11  -2    0.05    1.36
   0  11  -1    2.24    2.01
   0  11   0    1.51    1.95
   0  11   1   -0.13    1.62
   0  11   2    3.40    2.22
   0  11   3    2.75    2.55
   0  11   4    2.69    3.36
   0  11   5   -1.09    1.81
   0  11   6   -0.02    2.63
   0  11   7   -1.42    1.78
   0  11   8    2.33    1.76
   0  11   8   -2.42    1.35
   0  11   9    7.84    3.06
   0  11   9    2.32    1.87
   0  11  10    0.18    1.48
   0  11  10    1.21    2.12
   1   0 -31    0.19    1.82
   1   0 -30   -2.64    1.50
   1   0 -29    6.28    2.76
   1   0 -28    1.90    1.65
   1   0 -27    0.23    1.47
  -1   0 -26    0.58    1.83
   1   0 -26   -0.59    1.36
   1   0 -25    2.29    2.06
  -1   0 -25    0.91    1.37
   1   0 -24    0.20    1.64
  -1   0 -24    0.34    1.92
  -1   0 -23   -0.66    1.60
   1   0 -23   -0.50    0.90
   1   0 -22    2.69    1.86
  -1   0 -22    0.60    1.15
  -1   0 -21   -1.18    1.29
   1   0 -21   -0.12    0.93
  -1   0 -20   -0.15    1.01
   1   0 -20   -0.18    0.89
  -1   0 -19    0.99    1.12
   1   0 -19   -0.31    0.74
   1   0 -18   -1.02    1.45
  -1   0 -18   -1.73    1.39
   1   0 -17   -0.72    1.33
  -1   0 -17   -1.03    0.70
  -1   0 -16    0.58    1.26
   1   0 -16    0.68    1.49
  -1   0 -15   -0.51    0.62
   1   0 -15   -1.10    0.84
   1   0 -14    0.51    0.90
  -1   0 -14   -0.11    0.60
   1   0 -13    1.14    0.99
  -1   0 -13    0.85    0.64
  -1   0 -12   -1.13    0.83
   1   0 -12   -0.05    0.81
   1   0 -11    1.08    0.70
  -1   0 -11    0.69    0.92
  -1   0 -10    1.03    0.63
   1   0 -10    1.39    0.73
   1   0  -9    0.56    0.74
  -1   0  -9    0.36    1.03
   1   0  -8    0.00    0.52
  -1   0  -8    0.02    0.56
  -1   0  -7   -0.26    0.38
   1   0  -7   -0.02    0.38
   1   0  -6   -0.16    0.33
   1   0  -6   -0.23    0.16
  -1   0  -6    0.06    0.58
   1   0  -5    0.24    0.21
   1   0  -5    0.12    0.38
  -1   0  -5    0.16    0.50
   1   0  -4    0.05    0.20
  -1   0  -4   -0.07    0.25
   1   0  -4    0.25    0.20
  -1   0  -3    0.28    0.23
   1   0  -3   -0.07    0.21
   1   0  -3   -0.10    0.16
   1   0  -2   -0.03    0.12
   1   0  -2    0.24    0.17
   1   0  -1    0.10    0.14
   1   0  -1    0.06    0.11
   1   0   1    0.11    0.16
   1   0   2    0.01    0.11
   1   0   3    0.07    0.19
   1   0   4    0.45    0.37
   1   0   5   -0.19    0.36
   1   0   6    0.38    0.23
   1   0   7   -0.07    0.44
  -1   0   8    0.14    0.33
   1   0   8    0.70    0.51
   1   0   8    0.03    0.16
   1   0   9    0.31    0.41
  -1   0   9    0.01    0.20
   1   0   9    0.07    0.14
   1   0  10   -0.11    0.35
  -1   0  10   -0.07    0.22
   1   0  10   -0.07    0.20
  -1   0  11   -0.16    0.49
   1   0  11    0.17    0.48
   1   0  11    0.02    0.19
   1   0  12    0.45    0.28
   1   0  12    0.37    0.61
  -1   0  12    0.02    0.53
   1   0  13    0.25    0.33
  -1   0  13    0.26    0.54
   1   0  13   -0.41    0.77
   1   0  14    0.16    0.22
   1   0  14   -0.14    0.74
  -1   0  14   -0.53    0.52
   1   0  15    0.14    0.43
   1   0  15   -0.01    0.22
  -1   0  15    0.64    0.75
   1   0  16    0.39    0.76
   1   0  16    0.20    0.36
  -1   0  16    0.84    0.89
  -1   0  17    0.28    0.42
   1   0  17    0.84    1.02
   1   0  18    0.08    0.79
  -1   0  18    0.27    0.61
   1   0  19   -0.11    0.78
   1   0  20    0.31    0.76
   1  -1 -31    3.01    2.29
   1  -1 -30   21.32    4.72
   1  -1 -29   32.31    5.53
  -1  -1 -29   42.50    6.06
  -1  -1 -28    4.51    2.19
   1   1 -28   14.94    3.74
   1  -1 -28   16.73    4.30
   1  -1 -27    4.26    2.58
   1   1 -27    4.18    2.68
  -1  -1 -27    9.64    3.01
   1   1 -26   59.64    7.24
  -1  -1 -26   66.42    7.42
   1  -1 -26   74.99    7.72
   1   1 -25   54.36    6.68
  -1  -1 -25   46.91    6.02
   1  -1 -25   68.00    7.24
   1  -1 -24    2.93    1.46
   1   1 -24    0.03    1.16
  -1  -1 -24    3.72    1.91
   1  -1 -23   40.83    5.48
   1   1 -23   45.54    5.64
  -1  -1 -23   29.42    4.70
   1   1 -22   28.12    4.68
   1  -1 -22   38.59    5.26
  -1  -1 -22   31.99    4.95
  -1   1 -22   29.06    4.49
  -1   1 -21   10.53    2.87
  -1  -1 -21    4.46    2.02
   1  -1 -21    7.60    2.05
   1   1 -21    3.32    2.20
  -1  -1 -20   78.73    7.18
   1   1 -20   73.77    6.71
  -1   1 -20   67.66    6.68
   1  -1 -20   65.64    6.53
  -1   1 -19   93.75    7.32
   1  -1 -19  101.54    7.93
   1   1 -19   80.35    6.77
  -1  -1 -19  110.36    8.14
   1  -1 -18   26.02    3.86
  -1  -1 -18   17.87    3.21
   1   1 -18   22.77    3.63
  -1   1 -18   26.41    3.72
   1   1 -17   84.77    6.83
  -1   1 -17   91.59    6.90
   1  -1 -17   83.51    6.76
  -1  -1 -17   85.49    6.89
   1   1 -16  156.72    8.59
   1  -1 -16  167.83    9.36
  -1  -1 -16  158.96    9.12
  -1   1 -16  151.58    8.68
  -1   1 -15    9.26    2.23
   1  -1 -15   10.13    2.44
   1   1 -15   12.19    2.42
  -1  -1 -15   11.04    2.51
   1  -1 -14   70.19    5.81
  -1   1 -14   75.92    5.64
   1   1 -14   81.06    5.69
  -1  -1 -14   74.40    6.10
  -1  -1 -13  373.05   12.85
   1  -1 -13  372.92   12.66
  -1   1 -13  367.11   12.17
   1   1 -13  358.16   11.64
  -1   1 -12  726.61   16.38
   1   1 -12  739.22   16.28
  -1  -1 -12  746.95   17.37
   1  -1 -12  784.58   17.82
   1  -1 -11  272.75   10.21
  -1   1 -11  260.87    9.39
   1   1 -11  261.73    9.14
  -1  -1 -11  253.82    9.79
   1  -1 -10  454.21   12.71
  -1  -1 -10  464.00   12.80
  -1   1 -10  503.26   12.36
   1   1 -10  470.83   11.44
   1   1 -10  462.65    8.64
   1  -1  -9  540.05   11.26
   1  -1  -9  563.52   13.44
  -1   1  -9  587.50   12.70
   1   1  -9  579.06   11.99
   1   1  -9  559.21    9.19
  -1  -1  -9  592.81   13.75
  -1  -1  -8  397.35   10.74
   1   1  -8  361.53    8.89
   1  -1  -8  367.39    9.01
  -1   1  -8  371.43    9.52
   1  -1  -8  370.38   10.32
   1   1  -8  378.94    7.24
   1   1  -7  533.45    8.50
   1   1  -7  546.21    9.96
  -1  -1  -7  516.19   11.58
   1  -1  -7  532.00   11.91
   1  -1  -7  524.43   10.36
   1   1  -6 1025.29   12.30
  -1  -1  -6 1040.50   15.47
   1  -1  -6 1036.02   15.95
   1  -1  -6  987.19   13.40
   1   1  -6  992.21   11.60
   1   1  -5  533.95    8.11
   1  -1  -5  541.87    9.55
   1   1  -5  545.85    8.00
  -1  -1  -5  537.79   10.34
  -1  -1  -4 1714.70   16.81
   1  -1  -4 1692.37   17.53
   1  -1  -4 1695.25   16.30
   1   1  -4 1713.31   12.39
  -1   1  -4 1722.27   10.49
   1   1  -4 1704.38   14.26
  -1   1  -3 1324.21   10.00
   1  -1  -3 1305.60   13.55
  -1  -1  -3 1316.71   13.43
   1   1  -3 1324.39   12.20
   1   1  -3 1354.36    8.61
   1   1  -2   50.78    2.39
   1  -1  -2   47.53    2.45
   1   1  -2   50.05    1.72
   1  -1  -2   43.23    2.40
  -1  -1  -2   48.68    2.24
   1  -1  -1 1998.51   15.45
   1  -1  -1 2016.83   15.02
  -1  -1  -1 1997.45   12.13
   1  -1   1 2085.16   14.52
   1   1   1 2067.45   15.42
   1  -1   2   48.74    2.19
   1   1   2   40.78    2.35
   1   1   2   46.55    2.35
   1  -1   3 1322.63   11.85
   1   1   3 1339.77   12.75
   1   1   3 1328.24   14.19
   1  -1   4 1672.76   13.45
   1   1   4 1714.90   14.72
   1   1   4 1667.86   16.96
   1   1   5  549.02    8.51
   1   1   5  537.92    9.96
   1  -1   5  540.37    7.81
   1   1   6 1002.87   12.04
   1  -1   6 1025.84   11.05
   1   1   6 1036.29   14.46
   1   1   7  583.56    9.35
   1   1   7  565.50   11.19
   1  -1   7  581.41    8.64
   1   1   8  364.56    7.64
   1   1   8  359.18    9.40
   1  -1   8  373.17    7.35
   1  -1   9  558.85    9.60
   1   1   9  574.80    9.76
   1   1   9  579.53   12.22
  -1  -1  10  474.17    5.91
   1   1  10  486.33    9.21
   1   1  10  479.47   11.59
   1  -1  10  485.24    9.16
   1   1  11  268.20    8.99
   1   1  11  269.11    7.08
  -1  -1  11  258.16    4.79
   1  -1  11  251.12    6.94
  -1   1  11  273.05    8.65
   1   1  12  773.70   15.60
   1   1  12  758.55   12.27
   1  -1  12  787.62   12.77
  -1   1  12  743.80   14.91
   1  -1  13  362.44    9.00
  -1  -1  13  349.58    6.53
  -1   1  13  351.77   10.48
   1   1  13  358.45   11.08
   1   1  13  346.00    8.56
   1   1  14   69.75    3.93
  -1  -1  14   72.18    3.14
  -1   1  14   69.55    4.70
   1  -1  14   76.57    4.31
   1   1  14   72.88    5.13
   1   1  15   10.27    1.55
  -1   1  15    8.53    1.63
   1   1  15    7.66    1.66
   1  -1  15    8.60    1.61
  -1  -1  15    9.00    1.25
   1   1  16  139.30    7.56
  -1   1  16  158.43    7.57
   1  -1  16  163.29    6.81
  -1  -1  16  148.87    5.13
   1   1  16  148.03    5.89
   1   1  17   89.19    6.20
   1   1  17   85.28    4.55
  -1   1  17   93.93    5.95
   1  -1  17   87.51    5.16
   1   1  18   23.09    3.22
   1  -1  18   23.81    2.87
  -1   1  18   24.30    3.19
   1   1  19   89.43    6.59
  -1   1  19   90.03    6.33
   1   1  20   68.16    5.89
  -1   1  20   68.68    5.74
   1   1  21    7.31    2.03
   1  -2 -30    3.02    1.96
  -1  -2 -30    7.84    2.62
   1  -2 -29    0.47    1.38
  -1  -2 -29    4.16    2.33
  -1  -2 -28    8.23    2.85
   1  -2 -28    8.33    2.44
   1  -2 -27    2.22    1.47
  -1  -2 -27    5.11    2.97
  -1  -2 -26    8.95    3.21
   1  -2 -26    5.06    1.89
  -1  -2 -25   15.61    3.77
   1  -2 -25    9.53    2.61
  -1  -2 -24   12.67    3.46
   1  -2 -24    7.80    2.54
   1   2 -24    5.90    3.02
  -1  -2 -23   12.96    3.39
   1   2 -23   10.92    3.05
   1  -2 -23    8.47    2.83
   1  -2 -22    5.83    2.14
  -1  -2 -22    3.09    1.15
   1   2 -22    3.28    1.53
   1  -2 -21    9.22    2.79
  -1  -2 -21    2.84    1.45
   1   2 -21    6.12    2.00
   1   2 -20   40.75    5.14
   1  -2 -20   30.06    4.40
  -1  -2 -20   37.25    4.75
   1  -2 -19   18.57    3.76
  -1  -2 -19   20.09    3.67
   1   2 -19    8.42    1.89
  -1  -2 -18    8.64    2.32
   1  -2 -18    7.42    2.58
   1   2 -18    7.70    2.00
   1  -2 -17   23.18    3.83
   1   2 -17   18.67    3.00
  -1  -2 -17   20.54    3.46
   1  -2 -16   26.81    3.94
  -1  -2 -16   25.75    3.86
   1   2 -16   18.45    2.84
   1   2 -15   12.65    2.18
  -1  -2 -15   15.40    2.86
   1   2 -15   11.94    1.73
   1  -2 -15   13.16    2.62
  -1  -2 -14   51.04    4.95
   1  -2 -14   64.88    5.64
   1   2 -14   69.49    3.91
   1   2 -14   63.80    5.02
  -1   2 -13    6.95    0.83
   1   2 -13    8.37    1.43
   1   2 -13   10.83    2.00
   1  -2 -13    8.68    1.74
  -1  -2 -13   11.73    2.63
  -1   2 -12    4.02    0.63
   1   2 -12    3.88    0.97
   1   2 -12    5.09    1.29
  -1  -2 -12    3.31    1.15
   1  -2 -11    3.32    1.16
   1   2 -11    1.10    0.50
   1   2 -11    1.26    0.55
  -1  -2 -11    0.82    0.92
  -1   2 -11    1.61    0.47
   1   2 -10   28.74    2.47
   1   2 -10   38.71    3.12
  -1  -2 -10   31.85    3.58
   1  -2 -10   29.20    3.08
   1  -2 -10   33.87    3.70
  -1   2 -10   32.52    1.96
   1   2  -9  119.56    5.07
  -1  -2  -9  110.05    6.24
   1   2  -9  120.72    4.98
   1  -2  -9  106.34    5.77
   1  -2  -9  115.39    6.43
  -1   2  -9  110.77    3.84
  -1   2  -8   74.37    3.22
   1   2  -8   81.47    3.90
  -1  -2  -8   68.81    4.69
   1  -2  -8   79.45    4.83
   1   2  -8   75.91    3.94
   1  -2  -8   80.71    5.19
   1   2  -7  112.57    4.66
  -1   2  -7  109.74    4.05
   1  -2  -7  103.40    5.58
   1  -2  -7  106.82    5.48
   1   2  -7  111.04    4.03
  -1  -2  -7  124.24    6.02
  -1  -2  -6  127.18    5.86
   1   2  -6  125.33    4.99
   1   2  -6  122.46    3.76
  -1   2  -6  123.68    4.36
   1  -2  -6  135.89    6.23
   1  -2  -6  132.24    5.94
   1  -2  -5   19.09    2.18
  -1  -2  -5   20.20    2.16
   1  -2  -5   21.38    2.37
  -1   2  -5   20.45    1.81
   1   2  -4  112.19    4.72
   1  -2  -4  109.96    5.12
  -1  -2  -4  111.53    4.75
  -1   2  -4  107.15    4.19
   1  -2  -4  109.89    5.05
  -1  -2  -3  854.71   12.11
   1  -2  -3  839.16   13.86
   1  -2  -3  835.32   13.05
   1   2  -3  834.56   12.83
  -1   2  -3  850.32   12.06
   1  -2  -2 2721.81   22.01
   1   2  -2 2724.01   23.28
  -1  -2  -2 2776.50   23.77
  -1   2  -2 2741.79   22.41
   1  -2  -2 2728.03   23.94
  -1  -2  -1 2674.26   22.30
   1  -2  -1 2564.05   22.91
   1   2  -1 2630.19   23.02
   1  -2  -1 2692.48   20.69
  -1   2  -1 2597.96   22.31
  -1  -2  -1 2552.11   16.27
   1  -2   0 4827.13   29.89
  -1   2   0 4728.69   30.39
   1   2   0 4730.38   31.40
   1  -2   0 4765.77   25.93
   1  -2   1 2489.26   21.96
   1  -2   1 2544.52   18.63
   1   2   1 2657.72   23.59
  -1  -2   1 2632.34   20.26
   1  -2   2 2708.63   21.81
  -1  -2   2 2728.19   19.66
   1  -2   2 2699.17   18.58
  -1  -2   3  863.37   10.35
   1   2   3  838.14   13.59
   1   2   4  109.01    4.89
  -1  -2   4  115.94    3.49
   1   2   5   19.13    2.16
   1  -2   5   25.16    1.97
  -1  -2   5   21.11    1.41
  -1  -2   6  129.00    3.12
   1   2   6  130.32    5.61
   1  -2   6  119.79    4.36
   1   2   7  118.03    6.02
   1  -2   7  100.93    4.08
   1   2   7  115.65    5.32
   1  -2   8   74.51    3.47
   1   2   8   80.85    4.55
   1   2   8   74.22    4.86
   1  -2   9  118.92    4.44
   1   2   9  110.45    6.17
   1   2   9  108.25    5.34
   1   2  10   27.65    3.35
   1   2  10   34.07    3.02
   1  -2  10   31.53    2.30
   1  -2  11    0.65    0.36
   1   2  11    1.32    1.09
   1   2  11    1.01    0.59
   1   2  12    7.20    2.05
   1   2  12    6.81    1.58
   1  -2  12    3.76    0.90
   1   2  13   10.70    1.91
   1  -2  13    8.49    1.35
   1   2  13    9.65    2.03
  -1   2  14   61.23    5.23
   1   2  14   59.28    4.97
   1   2  14   57.96    4.21
   1  -2  14   61.45    3.64
  -1   2  15   12.95    2.46
   1  -2  15    9.05    1.44
   1   2  15   13.76    2.19
   1   2  15   14.28    2.49
   1   2  16   17.73    2.58
  -1   2  16   17.13    3.09
   1  -2  16   16.55    2.01
   1   2  16   18.61    3.12
   1   2  17   20.33    3.34
  -1   2  17   26.94    3.84
  -1   2  17   20.52    3.02
   1   2  17   19.15    2.68
   1   2  18   10.93    2.46
   1   2  18    7.62    1.85
  -1   2  18    6.31    1.67
  -1   2  18   11.52    2.25
  -1   2  19   19.20    3.06
   1   2  19   13.02    2.78
  -1   2  19   16.47    2.87
   1   2  20   29.47    4.26
  -1   2  20   36.04    4.56
   1   2  21    5.76    2.04
  -1   2  21    8.46    1.80
   1   2  22    6.19    2.12
  -1  -3 -30   12.85    3.38
   1  -3 -30   12.78    4.16
   1  -3 -29   13.68    3.73
  -1  -3 -29   19.90    3.94
  -1  -3 -28    5.64    2.27
   1  -3 -28    3.70    1.33
   1  -3 -27    5.36    2.79
  -1  -3 -27    0.38    1.73
   1  -3 -26   45.00    5.79
  -1  -3 -26   38.68    5.49
   1  -3 -25   18.61    3.96
  -1  -3 -25   19.61    4.12
   1  -3 -24   18.25    4.22
  -1  -3 -24   12.74    3.50
  -1  -3 -23   46.15    5.80
   1  -3 -23   48.14    6.20
   1  -3 -22   83.43    8.18
  -1  -3 -22   79.84    7.77
   1  -3 -21   15.48    3.27
  -1  -3 -21   16.60    3.29
  -1  -3 -20   81.44    7.70
   1  -3 -20  101.01    8.30
  -1  -3 -19   98.74    8.14
   1  -3 -19   87.43    7.61
   1  -3 -18   31.02    4.42
  -1  -3 -18   31.25    4.61
   1  -3 -17  131.10    9.00
  -1  -3 -17  131.26    8.89
   1  -3 -16  457.54   16.37
  -1  -3 -16  405.02   15.41
   1   3 -15   38.53    3.25
  -1  -3 -15   45.24    5.27
   1  -3 -15   44.08    4.87
  -1  -3 -14  382.19   14.23
   1  -3 -14  360.57   13.87
   1   3 -14  357.27   10.04
  -1  -3 -13  535.97   16.37
  -1   3 -13  504.69   10.04
   1   3 -13  505.65   12.15
   1  -3 -12  207.48    9.67
   1   3 -12  199.00    7.58
  -1  -3 -12  213.96   10.03
  -1   3 -12  200.16    6.41
   1  -3 -12  202.60    9.95
  -1  -3 -11  149.30    8.13
  -1   3 -11  155.23    5.91
   1  -3 -11  152.99    8.27
   1   3 -11  167.02    6.88
   1  -3 -11  173.74    8.61
  -1  -3 -10  844.83   18.67
   1   3 -10  854.79   15.31
  -1   3 -10  837.30   13.84
   1  -3 -10  785.72   18.35
   1  -3 -10  834.55   18.53
  -1  -3  -9  186.89    8.43
   1   3  -9  193.32    7.37
   1  -3  -9  180.44    8.63
  -1   3  -9  195.87    6.77
   1  -3  -9  190.14    8.67
   1  -3  -8  120.65    6.72
   1  -3  -8  119.69    6.63
  -1   3  -8  134.30    5.69
  -1  -3  -8  126.01    6.67
   1   3  -8  119.84    5.88
   1  -3  -7  358.77   11.37
   1  -3  -7  348.75   11.19
  -1   3  -7  350.39    9.57
   1   3  -7  359.82   10.12
  -1  -3  -7  360.33   10.87
   1  -3  -6   48.78    4.01
   1   3  -6   46.16    3.61
   1  -3  -6   52.65    4.33
  -1  -3  -6   43.18    3.64
  -1   3  -6   45.35    3.51
   1   3  -5  186.51    7.31
  -1  -3  -5  199.83    8.06
   1  -3  -5  208.09    7.93
  -1  -3  -5  188.20    7.08
   1  -3  -5  179.30    7.78
  -1   3  -5  188.16    7.03
  -1  -3  -4  594.93   13.66
  -1  -3  -4  569.75   11.77
   1  -3  -4  607.84   12.92
   1  -3  -4  608.59   13.98
  -1   3  -4  601.27   12.63
   1   3  -4  590.83   13.11
  -1   3  -3  138.45    6.12
  -1  -3  -3  135.40    5.30
   1  -3  -3  140.26    6.61
   1  -3  -3  136.63    5.88
  -1  -3  -3  127.34    6.17
   1   3  -3  143.56    6.50
   1   3  -2  133.74    6.30
  -1   3  -2  133.81    6.08
   1  -3  -2  147.85    5.83
  -1  -3  -2  141.08    6.40
   1  -3  -2  145.87    6.60
  -1  -3  -2  143.96    5.17
   1  -3  -1  580.86   13.02
   1   3  -1  573.33   13.03
  -1  -3  -1  573.27   12.51
  -1  -3  -1  560.14    9.35
   1  -3  -1  605.47   11.31
  -1   3  -1  566.70   12.73
  -1  -3   0 1248.76   17.82
   1  -3   0 1240.06   18.44
  -1   3   0 1196.54   18.84
   1   3   0 1223.50   19.02
   1  -3   0 1178.39   14.94
  -1  -3   0 1202.61   11.93
   1  -3   1  578.68   12.36
  -1  -3   1  576.20   11.82
  -1   3   1  569.19   13.10
  -1  -3   1  579.36    7.00
   1   3   1  558.09   12.97
   1  -3   1  564.95   10.10
   1  -3   2  136.24    5.84
   1   3   2  143.77    6.67
  -1  -3   2  153.31    5.85
  -1   3   2  149.16    6.72
   1  -3   2  149.52    4.93
   1  -3   3  127.83    5.60
   1  -3   3  138.37    4.70
  -1   3   3  127.28    6.31
  -1  -3   3  126.52    5.15
   1   3   3  140.50    6.56
   1   3   4  609.60   13.86
   1  -3   4  613.87   12.02
   1  -3   4  576.42    9.88
  -1   3   4  619.29   14.07
  -1  -3   4  603.65   10.82
  -1  -3   5  196.33    5.93
   1   3   5  180.35    7.67
  -1   3   5  187.99    7.88
  -1  -3   6   45.78    2.74
   1  -3   6   45.67    3.22
   1   3   6   42.48    3.83
  -1   3   6   48.92    4.06
   1   3   7  355.88   10.92
  -1  -3   7  369.20    7.46
  -1   3   7  359.18   11.21
   1  -3   7  371.42    9.11
   1   3   8  124.91    6.57
  -1   3   8  118.89    6.56
   1  -3   8  116.88    5.08
  -1  -3   8  114.77    3.97
  -1  -3   9  188.88    4.87
   1   3   9  198.00    9.17
   1   3   9  189.60    8.13
  -1   3   9  181.57    8.15
  -1   3  10  803.43   17.62
   1   3  10  810.63   17.37
   1   3  10  820.67   19.07
   1  -3  10  819.31   13.47
   1   3  11  162.20    8.55
  -1  -3  11  144.96    3.49
  -1   3  11  174.75    8.34
   1  -3  11  159.29    5.84
   1   3  11  148.05    7.56
   1  -3  12  201.48    6.63
  -1   3  12  208.28    9.24
   1   3  12  196.94    8.69
   1   3  12  204.67    9.87
  -1   3  13  528.35   15.08
   1   3  13  490.39   14.07
   1  -3  13  506.68   10.56
   1  -3  14  358.13    8.84
   1   3  14  375.10   13.71
   1   3  14  341.86   11.91
  -1   3  14  333.32   12.18
  -1   3  15   52.35    4.86
  -1   3  15   50.11    5.22
   1   3  15   47.17    4.54
   1  -3  15   39.29    3.06
   1   3  15   56.20    5.39
  -1   3  16  425.60   14.44
   1   3  16  412.05   13.76
  -1   3  16  454.18   15.62
   1   3  16  424.61   15.18
  -1   3  17  104.23    7.26
   1   3  17  127.74    7.85
  -1   3  17  127.50    8.57
   1   3  17  125.04    8.35
   1   3  18   31.60    4.11
  -1   3  18   37.05    4.73
   1   3  18   38.58    4.72
  -1   3  18   28.82    4.16
  -1   3  19   99.48    7.53
   1   3  19   87.79    7.36
  -1   3  19  101.39    7.90
   1   3  19   97.95    6.99
  -1   3  20   91.49    7.27
   1   3  20  104.73    8.09
  -1   3  20   88.51    7.36
  -1   3  21   14.65    3.08
   1   3  21   17.74    3.31
  -1   3  22   77.58    7.47
   1   3  22   83.61    7.59
  -1   3  23   43.25    5.53
   1   3  23   46.35    6.04
   1   3  24   12.91    3.56
   1  -4 -29    4.77    2.75
  -1  -4 -29    1.17    2.05
  -1  -4 -28    3.16    2.43
   1  -4 -28   -1.53    1.79
   1  -4 -27    1.36    2.10
  -1  -4 -27   -1.51    2.04
   1  -4 -26    8.34    3.30
  -1  -4 -26    4.80    2.31
  -1  -4 -25    3.33    2.83
   1  -4 -25    1.76    2.11
   1  -4 -24    1.63    1.63
  -1  -4 -24    7.99    2.83
  -1  -4 -23   16.66    4.04
   1  -4 -23   22.33    4.58
  -1  -4 -22   18.32    3.88
   1  -4 -22   16.96    3.99
  -1  -4 -21   31.11    5.10
   1  -4 -21   30.47    4.92
  -1  -4 -20    0.18    1.75
   1  -4 -20    3.73    2.02
   1  -4 -19    5.70    2.25
  -1  -4 -19    7.71    2.87
  -1  -4 -18    8.11    2.54
   1  -4 -18   13.42    3.15
  -1  -4 -17   17.57    3.48
   1  -4 -17   18.16    3.75
  -1  -4 -16   10.34    3.00
   1  -4 -16   13.54    3.05
   1  -4 -15   23.54    3.76
  -1  -4 -15   30.35    4.30
   1  -4 -14    2.47    1.26
   1   4 -14    3.40    1.53
  -1  -4 -14    3.12    1.73
  -1   4 -13    4.79    1.36
   1   4 -13    6.34    1.78
  -1  -4 -13    6.85    1.94
   1  -4 -13    3.31    1.53
   1   4 -12  105.68    6.25
  -1  -4 -12   87.84    6.50
   1  -4 -12  103.18    7.52
  -1   4 -12   97.55    5.78
   1  -4 -12  110.86    7.56
   1  -4 -11   31.36    3.75
  -1  -4 -11   33.76    3.96
  -1   4 -11   33.21    3.30
   1   4 -11   35.53    3.79
   1  -4 -11   31.01    4.13
  -1   4 -10  152.32    7.23
   1  -4 -10  150.71    8.58
  -1  -4 -10  149.94    8.31
   1   4 -10  128.72    6.97
   1  -4 -10  130.71    7.99
  -1  -4  -9  238.37   10.12
   1   4  -9  233.69    9.51
  -1   4  -9  249.64    9.25
   1  -4  -9  257.60   10.71
  -1  -4  -8  112.68    6.71
   1   4  -8  113.76    6.46
  -1   4  -8  118.85    6.47
   1  -4  -8  117.26    7.09
   1  -4  -8  111.56    7.18
   1  -4  -7    9.56    2.05
  -1   4  -7    8.61    1.92
  -1  -4  -7   11.21    2.10
   1   4  -7   10.27    1.93
   1  -4  -7   11.77    2.27
  -1   4  -6   55.71    4.47
   1  -4  -6   56.12    4.97
  -1  -4  -6   61.65    4.53
   1   4  -6   63.52    4.95
   1  -4  -6   64.76    4.89
  -1  -4  -6   62.42    5.12
  -1  -4  -5   83.70    5.84
   1  -4  -5   77.47    5.65
   1   4  -5   72.56    5.19
  -1   4  -5   77.13    5.29
   1  -4  -5   72.37    5.02
  -1  -4  -5   88.04    5.24
   1  -4  -4   52.78    4.67
  -1   4  -4   48.42    4.24
   1  -4  -4   51.06    4.10
   1   4  -4   56.73    4.81
  -1  -4  -4   47.48    4.32
  -1  -4  -4   55.98    3.95
   1   4  -3   45.33    4.22
  -1  -4  -3   44.79    4.14
  -1  -4  -3   46.46    3.49
   1  -4  -3   46.55    4.21
  -1   4  -3   41.65    3.92
   1  -4  -3   44.53    3.58
  -1  -4  -2  163.53    6.06
   1  -4  -2  191.30    8.50
   1   4  -2  159.13    7.89
  -1   4  -2  178.66    8.28
   1  -4  -2  165.08    6.78
  -1  -4  -2  168.20    7.88
  -1   4  -1  342.84   11.51
   1  -4  -1  353.94   11.54
  -1  -4  -1  366.38   11.38
   1  -4  -1  364.30    9.65
  -1  -4  -1  349.38    8.27
   1   4  -1  352.79   11.76
  -1  -4   0  921.15   17.69
  -1   4   0  902.25   18.85
   1  -4   0  931.96   14.97
   1   4   0  903.43   18.93
  -1  -4   0  948.27   12.33
  -1  -4   1  371.52    6.89
   1   4   1  366.22   12.01
  -1   4   1  350.99   11.72
   1  -4   1  357.33   11.22
   1  -4   1  366.95    8.93
  -1  -4   1  347.62   10.57
  -1  -4   2  165.93    7.15
   1   4   2  175.17    8.29
   1  -4   2  174.33    6.00
   1  -4   2  176.86    7.70
  -1  -4   2  164.38    3.98
  -1   4   2  163.43    8.08
  -1  -4   3   48.24    1.77
   1  -4   3   51.23    4.13
  -1   4   3   55.26    4.65
  -1  -4   3   48.19    3.81
   1   4   3   52.12    4.63
   1  -4   3   50.19    3.13
   1   4   4   53.71    4.61
   1  -4   4   46.39    3.78
   1  -4   4   47.70    3.09
  -1   4   4   57.14    4.94
  -1  -4   4   55.65    3.94
   1  -4   5   83.77    5.08
  -1  -4   5   80.39    4.72
  -1   4   5   76.14    5.76
   1  -4   5   82.65    4.07
   1   4   5   81.44    5.86
   1   4   6   62.04    5.03
   1  -4   6   61.60    3.62
  -1   4   6   55.43    4.90
   1  -4   6   71.13    4.65
  -1  -4   6   61.22    4.04
   1   4   7    9.17    2.12
  -1   4   7   12.21    2.28
   1  -4   7    9.08    1.65
  -1  -4   7   10.53    1.52
  -1  -4   7    7.52    0.79
  -1   4   8  112.52    7.16
   1  -4   8  107.86    5.66
   1   4   8  107.40    6.81
  -1  -4   8  105.36    5.04
  -1  -4   9  249.55    7.37
   1  -4   9  240.01    8.35
  -1   4   9  267.41   11.04
   1   4   9  236.60   10.33
  -1   4  10  144.85    8.22
   1   4  10  136.27    7.86
  -1  -4  10  144.54    5.32
   1  -4  10  140.91    6.36
  -1  -4  11   30.61    2.35
  -1   4  11   32.37    4.03
   1  -4  11   31.09    2.88
   1   4  11   27.18    3.87
   1   4  11   23.40    3.39
   1   4  12   93.21    6.74
  -1   4  12  102.89    7.23
   1   4  12  100.74    7.56
   1  -4  12   98.01    5.41
  -1  -4  12   94.02    3.86
   1   4  13    4.46    1.97
   1  -4  13    4.21    1.19
  -1   4  13    0.59    1.03
   1   4  13    4.50    1.78
  -1   4  14    4.72    1.67
   1   4  14    3.00    1.40
   1   4  14    2.26    1.47
   1  -4  14    2.37    1.04
  -1   4  15   27.20    3.94
   1   4  15   24.31    3.74
   1   4  15   27.25    4.02
   1   4  16   11.33    2.98
   1   4  16   12.99    2.86
  -1   4  16   14.60    2.82
  -1   4  16   12.37    2.79
   1   4  17   18.10    3.23
   1   4  17   16.61    3.00
  -1   4  17   18.24    3.02
  -1   4  17   19.47    3.70
  -1   4  18   14.04    3.62
   1   4  18   10.74    2.57
   1   4  18   12.55    3.05
  -1   4  18   11.14    2.58
  -1   4  19    0.06    1.30
   1   4  19    8.29    2.21
   1   4  19    2.84    2.04
  -1   4  19    9.57    2.33
   1   4  20    0.57    1.06
  -1   4  20    3.13    2.03
  -1   4  20    1.65    1.34
   1   4  20    2.51    1.26
   1   4  21   28.26    4.61
  -1   4  21   22.35    3.65
  -1   4  21   24.91    4.67
  -1   4  22   16.78    3.57
   1   4  22   23.18    4.71
   1   4  23   21.06    4.16
  -1   4  23    8.98    2.83
   1   4  24    3.20    1.79
  -1   4  24    5.91    2.65
   1   4  25    0.01    1.98
  -1  -5 -28   -1.42    2.43
   1  -5 -28    5.32    2.63
   1  -5 -27    1.14    2.22
  -1  -5 -27    2.19    1.92
  -1  -5 -26   15.25    3.92
   1  -5 -26   19.90    3.70
   1  -5 -25    7.83    2.80
  -1  -5 -25   14.34    3.55
   1  -5 -24   -2.23    1.69
  -1  -5 -24   -0.66    1.72
  -1  -5 -23   16.95    4.01
   1  -5 -23   15.52    4.08
   1  -5 -22   53.65    6.56
  -1  -5 -22   64.91    7.17
  -1  -5 -21    8.03    2.63
   1  -5 -21    8.21    2.63
   1  -5 -20   21.70    3.87
  -1  -5 -20   15.52    3.20
  -1  -5 -19   51.59    6.24
   1  -5 -19   49.28    6.14
  -1  -5 -18   15.14    2.61
   1  -5 -18   18.81    4.04
   1  -5 -17   15.53    3.48
  -1  -5 -17   16.19    3.31
   1  -5 -16  161.35   10.15
  -1  -5 -16  130.11    9.30
   1  -5 -15   46.75    5.55
  -1  -5 -15   40.06    4.90
   1  -5 -14   41.14    5.15
   1   5 -14   46.20    4.73
  -1  -5 -14   41.63    4.99
   1  -5 -13  139.22    9.18
  -1   5 -13  135.64    7.65
   1   5 -13  152.28    8.42
  -1  -5 -13  143.35    9.01
   1  -5 -13  143.44    9.31
  -1  -5 -12   94.57    7.18
   1  -5 -12   94.66    7.47
   1  -5 -12  116.20    8.14
  -1   5 -12   97.88    6.63
   1   5 -12  110.28    7.15
  -1  -5 -11   22.38    3.68
   1   5 -11   11.29    2.38
   1  -5 -11   18.73    3.67
  -1   5 -11   15.43    2.83
   1  -5 -11   18.21    3.42
  -1   5 -10  273.07   11.13
   1   5 -10  283.43   11.42
  -1  -5 -10  277.84   11.81
   1  -5 -10  255.83   11.57
   1  -5 -10  278.50   12.56
  -1   5  -9  158.38    8.49
   1  -5  -9  143.39    8.44
   1  -5  -9  149.71    9.00
   1   5  -9  157.32    8.66
  -1  -5  -9  152.08    8.56
  -1  -5  -8   25.66    3.49
   1  -5  -8   30.04    3.79
   1   5  -8   33.33    3.93
   1  -5  -8   27.92    3.98
  -1   5  -8   20.93    3.11
  -1  -5  -7  147.80    7.92
   1  -5  -7  148.61    8.12
  -1   5  -7  152.35    8.43
   1   5  -7  149.17    8.30
   1  -5  -7  160.52    9.07
  -1  -5  -6  136.40    8.30
  -1  -5  -6  135.63    7.20
  -1   5  -6  121.21    7.54
   1  -5  -6  139.48    8.38
   1  -5  -6  137.65    7.71
   1   5  -6  129.43    7.83
  -1   5  -5   49.49    4.65
  -1  -5  -5   50.83    5.04
   1   5  -5   54.48    5.06
   1  -5  -5   38.16    4.46
   1  -5  -5   46.80    4.27
  -1  -5  -5   44.14    4.07
   1   5  -4  208.49    9.90
   1  -5  -4  198.90    8.77
   1  -5  -4  224.82   10.29
  -1   5  -4  195.77    9.47
  -1  -5  -4  201.55    9.64
  -1  -5  -4  206.31    8.24
   1   5  -3  286.11   11.71
   1  -5  -3  259.73    9.82
  -1   5  -3  265.61   11.07
   1  -5  -3  277.92   11.46
  -1  -5  -3  267.88   10.97
  -1  -5  -3  276.00    9.06
  -1  -5  -2   43.52    4.43
  -1  -5  -2   35.66    3.14
   1  -5  -2   47.60    4.67
   1  -5  -2   34.60    3.39
  -1   5  -2   41.66    4.40
   1   5  -2   41.68    4.57
   1  -5  -1   21.48    2.58
   1  -5  -1   20.80    3.02
  -1  -5  -1   17.00    2.13
   1   5  -1   22.77    3.43
  -1   5  -1   21.06    3.15
  -1  -5  -1   18.18    2.76
  -1  -5   0  165.49    8.27
   1   5   0  169.71    9.01
  -1   5   0  174.65    9.14
   1  -5   0  151.45    8.19
  -1  -5   0  181.73    6.16
   1  -5   0  168.73    6.94
   1   5   1   16.63    2.99
  -1  -5   1   20.71    1.97
   1  -5   1   19.96    2.36
  -1   5   1   24.89    3.24
  -1  -5   1   20.24    3.04
   1  -5   2   43.69    4.27
   1  -5   2   41.27    3.24
  -1   5   2   43.47    4.69
   1   5   2   40.76    4.49
  -1  -5   2   40.01    2.42
  -1  -5   2   44.77    4.23
  -1   5   3  283.92   11.88
   1  -5   3  260.14   10.37
  -1  -5   3  254.95    5.24
  -1  -5   3  286.56   10.46
   1   5   3  262.03   11.38
   1  -5   3  273.92    8.06
   1   5   4  208.79   10.32
  -1   5   4  189.70    9.71
   1  -5   4  192.10    6.68
   1  -5   4  214.94    9.37
  -1  -5   4  220.26    9.04
  -1   5   5   45.17    4.88
  -1  -5   5   50.72    4.39
   1  -5   5   48.41    4.42
   1   5   5   53.42    5.17
   1  -5   5   42.72    3.20
   1   5   6  135.50    8.41
  -1  -5   6  137.64    6.87
  -1   5   6  129.37    8.11
   1  -5   6  131.88    7.23
   1  -5   6  133.79    5.67
   1   5   7  145.41    8.81
  -1   5   7  164.44    9.27
  -1  -5   7  145.50    6.98
   1  -5   7  151.98    6.05
   1  -5   7  159.26    7.86
  -1   5   8   28.28    3.89
   1  -5   8   28.40    3.39
  -1  -5   8   28.71    3.21
   1  -5   8   30.57    2.71
   1   5   8   24.47    3.77
   1   5   9  150.82    8.88
  -1  -5   9  151.99    7.16
   1  -5   9  156.04    6.45
   1  -5   9  160.11    7.89
  -1   5   9  153.71    9.08
   1  -5  10  274.55    9.97
   1   5  10  283.88   12.44
  -1  -5  10  268.60    9.23
   1  -5  11   15.19    2.17
   1   5  11   15.38    2.85
  -1  -5  11   12.45    1.96
  -1   5  11   18.74    3.35
   1  -5  12  100.94    5.94
   1   5  12  101.01    7.59
   1   5  12  104.87    8.21
  -1   5  12   99.86    7.42
  -1  -5  12  105.57    5.34
   1  -5  13  117.63    6.61
   1   5  13  132.14    8.79
  -1   5  13  141.40    9.30
   1   5  13  135.03    9.27
   1   5  14   59.54    6.29
   1   5  14   42.99    5.02
  -1   5  14   43.14    5.38
   1   5  15   44.69    5.25
   1   5  15   35.66    4.98
  -1   5  15   42.36    5.27
   1   5  16  156.70   10.45
   1   5  16  154.17    9.91
  -1   5  16  135.07    9.23
   1   5  17   17.59    3.40
  -1   5  17   17.18    3.74
  -1   5  17   16.23    3.30
   1   5  17   12.40    2.88
   1   5  18   17.56    3.13
   1   5  18   16.07    3.43
  -1   5  18   13.96    3.28
  -1   5  18   13.95    3.32
   1   5  19   53.04    6.42
  -1   5  19   37.40    4.97
  -1   5  19   49.51    6.28
   1   5  19   40.21    5.35
   1   5  20   22.40    4.31
   1   5  20   12.27    2.73
  -1   5  20   21.53    4.18
  -1   5  20   16.82    3.94
  -1   5  21    9.48    3.04
  -1   5  21    5.07    2.58
   1   5  21   10.53    3.17
   1   5  22   47.93    6.06
  -1   5  22   51.89    6.62
  -1   5  23   15.41    3.68
   1   5  23   17.46    4.24
   1   5  24   -1.29    1.31
  -1   5  24    3.09    1.83
   1   5  25    6.78    2.86
  -1   5  25    8.00    2.91
   1   5  26   12.43    3.03
  -1  -6 -26    0.79    1.20
   1  -6 -26    2.07    2.19
   1  -6 -25    0.57    2.06
  -1  -6 -25   -1.08    1.44
  -1  -6 -24   -1.26    1.68
   1  -6 -24    4.22    2.79
  -1  -6 -23    3.13    2.62
   1  -6 -23    7.78    3.03
  -1  -6 -22    2.33    1.91
   1  -6 -22    7.62    2.48
   1  -6 -21    3.65    2.37
  -1  -6 -21    1.82    2.31
   1  -6 -20    1.38    1.10
  -1  -6 -20   -0.16    1.57
  -1  -6 -19    1.15    1.81
   1  -6 -19    2.28    1.45
   1  -6 -18    1.85    1.01
  -1  -6 -18    1.37    1.48
   1  -6 -17    5.29    2.24
  -1  -6 -17    4.35    1.95
  -1  -6 -16    3.64    1.81
   1  -6 -16    5.61    2.41
  -1  -6 -15    4.14    1.66
   1  -6 -15   11.53    2.92
   1  -6 -14    6.27    2.23
  -1  -6 -14    3.89    1.21
   1   6 -13   12.75    3.11
  -1  -6 -13   10.14    2.47
   1  -6 -13   14.29    3.06
  -1   6 -12   17.08    3.54
   1  -6 -12   18.03    3.75
  -1  -6 -12   14.53    3.40
   1   6 -12   14.87    3.14
   1  -6 -12   12.10    2.79
   1   6 -11    3.24    2.08
  -1   6 -11    7.61    2.40
  -1  -6 -11    6.12    2.02
   1  -6 -11    3.41    1.65
   1  -6 -11    8.25    2.77
   1   6 -10    6.44    2.32
  -1  -6 -10    9.44    2.53
   1  -6 -10    4.91    2.28
   1  -6 -10    9.97    2.83
  -1   6 -10    7.90    2.32
  -1  -6  -9   10.86    2.53
  -1   6  -9    5.17    1.48
   1  -6  -9    9.70    2.68
   1   6  -9    5.82    1.93
   1  -6  -9    5.06    1.87
   1  -6  -8    2.56    1.45
  -1   6  -8    3.59    1.41
   1   6  -8    2.76    1.47
   1  -6  -8    1.59    0.80
  -1  -6  -8    3.91    1.58
   1  -6  -7   29.10    4.13
   1  -6  -7   46.13    5.18
   1   6  -7   39.62    4.80
  -1   6  -7   36.62    4.76
  -1   6  -6   53.91    5.57
  -1  -6  -6   62.18    5.29
   1   6  -6   53.76    5.58
  -1  -6  -6   54.21    5.57
   1  -6  -6   59.53    5.37
   1  -6  -6   46.24    5.02
  -1  -6  -5   84.06    5.88
   1  -6  -5   77.60    6.08
   1   6  -5   86.82    7.00
  -1   6  -5   88.08    7.01
  -1  -6  -5   87.44    7.06
   1  -6  -5   73.59    6.56
  -1  -6  -4   71.56    5.28
  -1   6  -4   67.29    6.24
   1  -6  -4   69.49    5.59
   1   6  -4   67.83    6.22
  -1  -6  -4   81.94    6.63
   1  -6  -4   77.59    6.50
   1  -6  -3   51.62    4.69
   1  -6  -3   50.48    5.20
   1   6  -3   43.41    5.04
  -1  -6  -3   58.55    5.57
  -1  -6  -3   61.74    4.59
  -1   6  -3   51.84    5.41
   1  -6  -2   54.91    4.71
  -1   6  -2   59.06    5.81
   1  -6  -2   49.82    5.34
  -1  -6  -2   56.78    4.27
   1   6  -2   54.12    5.62
  -1  -6  -2   53.94    5.21
   1   6  -1   21.15    3.48
  -1  -6  -1   18.18    2.25
   1  -6  -1   13.46    2.36
  -1  -6  -1   15.58    3.05
   1  -6  -1   23.70    3.76
  -1   6  -1   15.05    3.21
  -1   6   0   24.87    3.61
  -1  -6   0   25.81    2.61
   1  -6   0   26.69    3.07
  -1  -6   0   31.17    3.97
   1   6   0   26.63    3.88
   1  -6   0   28.67    3.90
  -1  -6   1   14.99    2.93
   1  -6   1   21.20    2.54
   1   6   1   14.70    3.12
  -1  -6   1   24.78    2.36
   1  -6   1   21.66    3.55
  -1   6   1   17.58    3.18
   1  -6   2   53.14    3.93
  -1   6   2   63.98    6.06
   1  -6   2   55.07    5.18
  -1  -6   2   52.01    3.11
  -1  -6   2   58.13    5.29
  -1   6   3   58.11    5.87
   1   6   3   61.91    5.89
  -1  -6   3   55.89    5.18
   1  -6   3   51.26    3.79
  -1  -6   3   40.96    2.47
   1  -6   3   52.21    5.17
  -1   6   4   79.43    6.68
  -1  -6   4   76.77    6.08
   1   6   4   65.06    6.13
   1  -6   4   76.31    6.05
   1  -6   4   69.81    4.24
   1  -6   5   80.54    4.55
  -1   6   5   69.17    6.46
   1   6   5   89.73    7.35
   1  -6   5   86.71    6.48
  -1  -6   5   86.58    6.28
   1  -6   6   53.52    3.68
  -1   6   6   56.70    6.02
   1  -6   6   51.00    5.13
  -1  -6   6   58.63    5.14
   1   6   6   59.27    6.02
   1   6   7   35.50    4.58
   1  -6   7   42.98    4.53
  -1  -6   7   37.74    4.00
   1  -6   7   35.61    3.07
  -1   6   7   29.31    4.19
   1   6   8    2.50    1.31
  -1  -6   8    1.48    0.94
  -1   6   8    2.81    1.59
   1  -6   8    2.18    1.18
  -1   6   9    3.04    1.51
   1  -6   9    4.66    1.38
  -1  -6   9    5.73    1.48
   1   6   9    6.85    1.94
  -1  -6  10    6.44    1.79
   1   6  10    6.22    1.88
  -1   6  10    9.24    2.65
  -1  -6  11    5.57    1.87
  -1   6  11    7.62    2.41
   1   6  11    8.90    2.70
   1  -6  11    7.77    1.93
   1  -6  12   16.82    2.81
  -1   6  12   15.09    3.30
   1   6  12   19.10    4.00
   1   6  12   21.04    4.03
   1   6  13   17.06    3.47
  -1   6  13    9.92    2.86
   1   6  13   14.88    3.53
   1   6  14    3.44    1.94
  -1   6  14   -0.97    2.24
   1   6  14    3.91    1.72
   1   6  15    5.33    2.61
   1   6  15    6.61    2.44
  -1   6  15    2.54    1.89
  -1   6  16    2.60    1.13
   1   6  16    3.22    1.22
   1   6  16    4.94    2.05
  -1   6  17    2.96    1.93
   1   6  17    1.59    1.25
   1   6  17    2.51    2.01
  -1   6  17    6.00    2.38
  -1   6  18    0.01    1.45
   1   6  18    3.23    2.45
  -1   6  18    2.65    2.33
   1   6  18   -0.59    1.16
  -1   6  19    1.82    1.81
  -1   6  19    4.52    2.58
   1   6  19    4.40    2.48
   1   6  19    5.86    2.77
  -1   6  20    1.35    1.77
  -1   6  20   -0.39    1.11
   1   6  20   -1.35    1.88
   1   6  20    2.11    2.41
   1   6  21    2.97    1.06
  -1   6  21    2.66    2.03
  -1   6  21    1.32    1.43
   1   6  22    4.00    2.56
  -1   6  22    3.06    1.33
   1   6  23    4.61    1.93
  -1   6  23    1.66    2.08
  -1   6  24    0.19    2.05
   1   6  24    3.80    2.44
  -1   6  25    3.16    2.89
   1   6  25   -0.36    1.30
   1   6  26    3.68    1.89
  -1  -7 -25    7.76    3.74
   1  -7 -25    2.56    1.45
   1  -7 -24    0.39    2.10
  -1  -7 -24    3.98    2.16
   1  -7 -23   24.75    4.77
  -1  -7 -23   17.76    3.78
   1  -7 -22   24.90    5.05
  -1  -7 -22   22.12    4.62
  -1  -7 -21    8.41    3.44
   1  -7 -21   -1.19    1.35
  -1  -7 -20   12.17    3.79
   1  -7 -20   11.47    3.66
   1  -7 -19   15.99    3.61
  -1  -7 -19   12.07    3.74
  -1  -7 -18    2.08    1.60
   1  -7 -18    0.46    1.14
   1  -7 -17   21.82    4.18
  -1  -7 -17   18.58    4.16
   1  -7 -16   26.57    4.95
  -1  -7 -16   36.47    5.50
  -1  -7 -15    4.54    2.01
   1  -7 -15    3.22    2.27
  -1  -7 -14    5.54    2.84
   1  -7 -14    5.86    2.59
   1   7 -13   13.84    3.42
  -1  -7 -13   19.28    3.45
   1  -7 -13   23.10    4.00
  -1   7 -12   17.30    3.59
  -1  -7 -12   15.18    3.46
   1  -7 -12    8.78    1.93
   1   7 -12   13.15    3.00
   1  -7 -12   14.47    3.10
  -1   7 -11   -0.01    1.02
   1  -7 -11    2.81    1.88
  -1  -7 -11    5.39    2.06
   1   7 -11    4.13    1.66
   1  -7 -11    2.26    1.29
   1  -7 -10   58.32    6.40
   1  -7 -10   75.59    7.11
   1   7 -10   75.51    7.09
  -1  -7 -10   76.74    7.15
  -1   7 -10   71.24    6.78
   1  -7  -9   45.97    5.49
  -1   7  -9   56.58    6.02
   1  -7  -9   42.19    5.26
   1   7  -9   62.45    6.42
  -1  -7  -9   51.71    5.73
   1   7  -8    5.09    2.02
  -1   7  -8    3.19    1.54
  -1  -7  -8    1.72    1.99
   1  -7  -8    5.68    1.77
   1  -7  -8    3.90    2.30
  -1  -7  -7   57.80    5.59
  -1   7  -7   56.58    6.24
   1   7  -7   56.09    6.19
   1  -7  -7   49.06    5.77
   1  -7  -7   46.54    5.34
   1  -7  -6  128.11    9.38
  -1  -7  -6  107.71    7.24
  -1   7  -6  112.36    8.66
   1   7  -6  126.44    9.16
   1  -7  -6  136.66    8.58
   1  -7  -5   35.84    5.23
  -1   7  -5   34.85    5.09
  -1  -7  -5   35.28    4.92
   1  -7  -5   26.59    3.76
  -1  -7  -5   27.39    3.40
   1   7  -5   33.71    4.63
  -1   7  -4   72.07    6.94
   1   7  -4   83.29    7.30
   1  -7  -4   86.07    7.61
   1  -7  -4   64.87    5.89
  -1  -7  -4   67.52    6.76
  -1  -7  -4   79.82    6.03
  -1   7  -3  160.45   10.30
   1  -7  -3  170.94   10.34
  -1  -7  -3  155.66    8.06
   1  -7  -3  166.47    8.92
   1   7  -3  183.75   11.04
  -1  -7  -3  175.75   10.28
  -1  -7  -2   58.46    4.63
  -1  -7  -2   66.04    6.31
  -1   7  -2   70.95    6.99
   1  -7  -2   68.97    6.56
   1  -7  -2   58.23    5.19
   1   7  -2   70.92    6.87
  -1  -7  -1    3.60    1.74
  -1  -7  -1    1.10    1.08
   1   7  -1    0.40    1.00
  -1   7  -1    2.46    1.57
   1  -7  -1    2.93    1.86
   1  -7  -1    2.81    1.38
  -1   7   0   32.86    4.94
   1   7   0   33.50    4.76
   1  -7   0   30.30    3.52
  -1  -7   0   37.48    4.69
   1  -7   0   28.32    4.21
  -1   7   1    4.34    2.23
  -1  -7   1    4.32    1.70
   1  -7   1    2.08    0.81
   1  -7   1    6.43    2.04
   1   7   1    6.11    2.62
   1   7   2   74.66    7.00
   1  -7   2   68.60    6.39
  -1  -7   2   72.00    6.49
  -1   7   2   61.62    6.71
   1  -7   2   59.46    4.62
   1   7   3  164.63   10.41
  -1   7   3  185.49   11.15
  -1  -7   3  167.99    9.75
   1  -7   3  159.02    9.74
  -1  -7   4   77.78    6.66
  -1   7   4   66.32    6.57
   1   7   4   81.46    7.41
   1  -7   4   67.45    6.26
   1   7   5   37.44    5.19
   1  -7   5   22.73    3.90
  -1   7   5   27.81    4.49
  -1  -7   5   35.09    4.84
   1  -7   6  108.81    7.96
  -1  -7   6  124.02    8.31
   1   7   6  105.48    8.59
  -1   7   7   51.95    5.97
   1  -7   7   68.67    6.23
   1   7   7   55.39    6.35
  -1  -7   7   57.75    5.47
   1  -7   8    3.31    1.65
   1   7   8    1.45    1.60
  -1  -7   8    2.65    1.72
  -1   7   8    6.77    2.66
   1  -7   9   47.88    5.20
  -1   7   9   48.91    5.65
   1   7   9   46.78    5.90
  -1  -7   9   47.66    4.94
  -1   7  10   78.93    7.59
  -1  -7  10   77.38    6.32
   1   7  10   72.51    7.11
   1  -7  10   68.84    6.26
  -1   7  11    0.43    1.44
   1  -7  11    3.00    1.20
   1   7  12   13.83    3.25
   1   7  12   10.29    3.04
  -1   7  12    7.96    2.30
  -1   7  13   24.79    4.28
   1   7  13   15.95    3.86
   1   7  13   15.26    3.91
   1   7  14   15.05    3.42
   1   7  14   13.64    3.75
  -1   7  14    7.63    2.59
   1   7  15    4.19    2.36
   1   7  15    5.43    1.86
  -1   7  15    4.58    2.68
   1   7  16   26.57    4.97
   1   7  16   28.87    5.19
  -1   7  16   34.68    5.27
  -1   7  17   17.09    4.10
  -1   7  17   12.60    2.98
   1   7  17   11.66    3.68
  -1   7  18   -0.19    2.11
  -1   7  18    3.38    2.57
   1   7  18    0.69    1.84
   1   7  18   -0.12    2.22
   1   7  19   10.83    3.46
   1   7  19   12.98    4.16
  -1   7  19   14.19    4.08
  -1   7  19   18.37    4.13
  -1   7  20   18.72    4.56
   1   7  20    5.67    3.01
  -1   7  20   19.13    4.85
   1   7  20   12.64    2.88
   1   7  21    1.39    1.81
  -1   7  21    5.01    2.91
  -1   7  21    3.23    2.96
   1   7  21    2.19    1.68
  -1   7  22   18.96    4.32
  -1   7  22   14.44    4.38
   1   7  22   13.79    3.65
  -1   7  23   20.77    4.85
   1   7  23   18.36    4.33
   1   7  24    4.32    1.95
  -1   7  24    5.08    2.19
   1   7  25    0.86    1.76
  -1   7  25    5.83    2.87
   1  -8 -22   -2.86    1.53
  -1  -8 -22    0.35    1.86
  -1  -8 -21   -0.64    1.49
   1  -8 -21    0.43    1.98
  -1  -8 -20    2.12    1.93
   1  -8 -20    4.73    2.88
  -1  -8 -19    0.92    1.83
   1  -8 -19   -0.40    1.63
   1  -8 -18    2.03    1.92
  -1  -8 -18    3.67    2.75
   1  -8 -17    1.28    2.23
  -1  -8 -17    4.14    3.05
  -1  -8 -16   -2.16    2.40
   1  -8 -16    2.25    1.63
  -1  -8 -15    1.08    1.79
   1  -8 -15   -0.92    1.59
  -1  -8 -14    3.34    2.20
   1  -8 -14    1.64    1.67
  -1  -8 -13    3.58    1.71
   1  -8 -13    3.93    1.76
   1  -8 -12    3.44    2.49
   1   8 -12   -1.74    1.87
  -1  -8 -12    0.77    2.29
   1   8 -11    6.04    2.03
  -1  -8 -11   11.97    3.07
   1  -8 -11    6.66    2.16
   1  -8 -11   10.07    2.86
  -1   8 -11    6.21    3.14
   1   8 -10    1.04    1.24
   1  -8 -10   -1.33    2.22
  -1   8 -10    1.17    1.15
   1  -8 -10    2.37    1.96
  -1  -8 -10    0.47    1.33
  -1   8  -9    0.52    1.92
   1  -8  -9    1.05    1.58
  -1  -8  -9    1.23    1.31
   1  -8  -9    2.30    1.19
   1   8  -9    1.96    1.74
   1  -8  -8    5.22    2.34
   1  -8  -8    5.46    2.31
   1   8  -8    5.31    1.99
  -1  -8  -8    5.58    2.70
  -1   8  -8    5.37    2.41
   1   8  -7    0.55    1.25
  -1  -8  -7   -0.30    1.16
  -1   8  -7    4.17    2.30
   1  -8  -7    0.53    1.32
   1  -8  -7   -0.17    1.96
   1  -8  -6   50.02    5.79
   1  -8  -6   49.08    5.87
   1   8  -6   43.11    5.71
  -1  -8  -6   47.54    5.11
   1  -8  -5    7.96    1.65
  -1  -8  -5   12.83    3.00
   1   8  -5    8.39    2.77
   1  -8  -5   14.75    3.20
  -1   8  -5   12.30    3.18
   1  -8  -4   10.07    2.89
   1  -8  -4    7.86    2.61
  -1   8  -4   11.02    2.77
   1   8  -4    8.23    2.80
  -1   8  -3   14.24    3.54
   1  -8  -3    6.82    2.12
   1  -8  -3   11.61    3.16
   1   8  -3   12.32    2.95
  -1   8  -2   49.10    6.04
  -1  -8  -2   36.04    5.14
   1   8  -2   42.79    5.80
   1  -8  -2   35.53    4.80
  -1  -8  -1    3.20    1.98
   1  -8  -1    2.70    1.44
  -1   8  -1    5.67    1.85
   1   8  -1    8.73    3.13
   1   8   0   15.51    3.65
  -1   8   0   12.63    2.98
   1  -8   0   13.37    3.13
  -1  -8   0   18.29    3.65
   1  -8   1    2.41    1.83
   1   8   1    9.37    2.89
  -1  -8   1    3.72    2.20
  -1   8   1    8.96    3.18
  -1   8   2   34.83    5.22
   1  -8   2   39.05    5.26
  -1  -8   2   48.25    5.60
   1   8   2   42.00    5.54
  -1  -8   3   13.05    2.76
   1   8   3    4.91    2.10
  -1   8   3   15.47    3.43
   1  -8   3   16.24    3.59
   1  -8   4   10.41    2.88
  -1   8   4   10.42    2.77
  -1  -8   4    7.31    1.91
   1   8   4    7.93    2.69
   1  -8   5    9.01    2.78
   1   8   5   15.84    4.02
  -1   8   5   14.94    3.49
  -1  -8   5   12.92    2.86
  -1   8   6   52.69    6.39
   1  -8   6   47.75    5.68
  -1  -8   6   47.37    5.61
   1   8   6   55.45    6.52
  -1  -8   7    0.09    0.93
  -1   8   7   -0.08    1.06
   1   8   7    0.25    1.75
  -1   8   8    0.58    1.52
  -1  -8   8    4.05    1.68
   1   8   8    3.70    2.20
   1  -8   8    6.50    2.48
  -1   8   9    1.96    2.14
   1   8   9    2.58    1.33
   1  -8   9    2.35    1.82
  -1   8  10    1.42    1.48
   1   8  10    1.69    1.94
   1   8  11    5.18    1.62
   1   8  11    4.46    1.95
  -1   8  11    7.63    2.60
   1   8  12   -0.42    1.29
   1   8  12    3.50    2.21
  -1   8  12    1.80    2.01
   1   8  13    7.04    2.88
   1   8  13    7.17    2.86
  -1   8  13    5.69    2.91
   1   8  14    1.30    1.49
   1   8  14    1.69    2.20
  -1   8  14    0.74    1.28
  -1   8  15   -2.43    2.23
   1   8  15    1.06    2.02
   1   8  15    0.46    1.74
   1   8  16    0.53    2.05
  -1   8  16    1.88    2.07
   1   8  16   -0.73    1.72
  -1   8  16   -1.41    1.28
  -1   8  17    0.12    1.45
  -1   8  17    3.05    1.88
   1   8  17   -0.77    1.35
   1   8  17   -0.86    1.45
  -1   8  18    0.88    2.45
  -1   8  18    0.92    1.41
   1   8  18    0.15    1.59
   1   8  18    1.81    1.92
  -1   8  19   -1.89    2.49
  -1   8  19   -1.71    1.91
   1   8  19    1.33    1.74
   1   8  19    1.49    1.82
  -1   8  20    1.35    1.75
   1   8  20    0.74    1.26
  -1   8  20    0.56    1.84
   1   8  21    2.19    2.26
  -1   8  21    0.15    1.84
  -1   8  21   -3.00    2.68
   1   8  21   -0.38    1.59
  -1   8  22   -0.15    2.15
   1   8  22    2.19    2.30
  -1   8  22    1.55    1.09
  -1  -9 -20   14.06    4.27
   1  -9 -20   14.69    4.40
   1  -9 -19   12.65    4.21
  -1  -9 -19    8.29    3.14
  -1  -9 -18    3.39    2.08
   1  -9 -18    4.30    2.89
   1  -9 -17   16.94    3.68
  -1  -9 -17    9.33    3.64
  -1  -9 -16   20.23    4.43
   1  -9 -16   18.09    4.44
   1  -9 -15    3.75    2.71
  -1  -9 -15    7.40    2.82
  -1  -9 -14   10.41    2.86
   1  -9 -14   11.15    3.21
  -1  -9 -13   18.00    4.14
   1  -9 -13   18.32    3.53
   1  -9 -12    7.92    2.68
  -1  -9 -12    5.00    2.91
   1   9 -11    4.80    2.14
  -1   9 -11   -2.82    1.35
  -1   9 -10   26.87    5.04
   1  -9 -10   32.90    5.47
   1   9 -10   41.47    6.12
  -1   9  -9   14.08    4.16
   1  -9  -9   12.92    3.01
   1   9  -9   10.25    3.85
   1  -9  -9   13.48    3.57
   1  -9  -8    1.70    1.07
   1   9  -8   -0.52    1.68
  -1   9  -8    0.85    2.24
   1  -9  -7   33.18    5.25
   1   9  -7   29.80    5.03
  -1   9  -7   25.75    4.66
   1  -9  -6   45.12    6.03
  -1   9  -6   60.16    6.96
   1   9  -5   -1.05    1.11
   1  -9  -5    0.08    1.73
  -1   9  -5    1.56    1.06
   1  -9  -4   36.62    5.13
  -1   9  -4   47.10    6.30
   1   9  -4   30.35    4.98
   1  -9  -3   45.15    5.86
  -1   9  -3   49.61    6.63
   1   9  -3   34.41    5.25
   1   9  -2   26.63    5.17
  -1   9  -2   27.01    4.80
   1  -9  -2   21.80    3.95
   1   9  -1   10.11    3.56
   1  -9  -1    3.74    1.69
  -1   9  -1    4.99    2.84
   1   9   0   33.58    5.08
  -1   9   0   37.53    5.81
   1  -9   0   26.19    4.40
  -1   9   1   11.29    2.93
   1  -9   1    5.39    2.62
   1   9   1    8.31    3.06
   1   9   2   21.09    4.44
  -1   9   2   22.32    4.32
   1  -9   2   17.00    3.20
   1   9   3   42.96    5.69
   1  -9   3   42.70    5.65
  -1   9   3   45.40    6.37
   1   9   4   38.33    5.49
   1  -9   4   24.93    4.36
  -1   9   4   33.68    5.32
  -1   9   5    2.99    1.59
   1  -9   5    3.03    2.72
   1   9   5    3.34    1.64
  -1   9   6   54.76    6.79
   1  -9   6   65.49    7.15
   1   9   6   57.10    7.03
   1   9   7   36.25    5.69
  -1   9   7   31.23    5.25
   1  -9   7   31.59    5.03
   1  -9   8    2.01    1.64
  -1   9   8    2.96    2.30
   1   9   8    2.96    2.17
   1   9   9   17.71    3.82
   1   9   9   14.32    3.71
  -1   9   9   12.67    3.48
   1   9  10   34.21    5.78
   1   9  10   46.17    6.44
  -1   9  10   28.26    4.96
  -1   9  11   12.88    3.78
   1   9  11    8.40    2.84
   1   9  11    7.51    2.48
   1   9  12    8.39    2.66
   1   9  12   10.90    3.32
  -1   9  12    8.05    2.71
   1   9  13   27.09    4.90
   1   9  13   22.69    4.71
  -1   9  13   20.24    4.26
   1   9  14    3.09    1.33
   1   9  14    3.26    1.52
  -1   9  14    6.18    2.78
   1   9  15    2.35    1.82
   1   9  15    3.90    2.88
  -1   9  15    0.58    1.41
  -1   9  15    5.09    2.32
   1   9  16   14.87    3.70
  -1   9  16   14.87    4.05
   1   9  16   10.81    3.60
  -1   9  16   13.77    3.30
   1   9  17   20.30    4.73
  -1   9  17   12.33    3.44
  -1   9  17   12.99    3.60
   1   9  17    9.79    3.70
   1   9  18    3.29    2.49
  -1   9  18    0.71    1.54
   1   9  18    2.37    1.38
  -1   9  18   -0.64    1.86
  -1   9  19    4.37    2.00
   1   9  19   11.88    4.08
   1   9  19   14.38    3.82
  -1   9  19    5.74    2.27
  -1   9  20    6.96    3.41
   1   9  20   12.81    3.71
   1  10 -11   -1.43    1.71
   1  10 -10   13.24    3.80
  -1  10  -9   14.83    3.76
   1  10  -9   15.35    3.87
  -1  10  -8   -0.46    1.28
   1  10  -8   -1.13    1.61
  -1  10  -7    2.99    1.47
   1  10  -7    4.74    2.88
   1 -10  -6   13.22    3.06
   1  10  -6   22.60    4.82
  -1  10  -6   25.60    4.92
   1  10  -5    1.41    2.19
  -1  10  -5    4.89    2.77
   1 -10  -5    6.47    3.43
  -1  10  -4   10.69    3.47
   1  10  -4    9.59    2.95
   1  10  -3   10.39    2.72
  -1  10  -3    5.66    2.67
   1 -10  -3    7.46    2.56
   1  10  -2    9.72    3.43
   1 -10  -2    6.83    2.47
  -1  10  -2    2.37    2.09
  -1  10  -1    2.45    2.10
   1  10  -1    2.08    1.70
   1 -10  -1    3.85    2.74
   1  10   0    5.88    2.68
   1 -10   0    4.70    2.17
  -1  10   0    5.36    2.57
   1 -10   1    1.84    1.65
   1  10   1    5.77    2.12
  -1  10   1    3.20    1.48
  -1  10   2    5.69    1.69
   1  10   2    5.42    1.63
   1 -10   2    4.81    2.37
   1  10   3    6.05    1.95
  -1  10   3    3.82    2.39
   1 -10   3    8.73    3.37
  -1  10   4   21.43    4.84
   1 -10   4   13.56    3.71
   1  10   4   16.09    3.62
   1  10   5    3.71    2.38
  -1  10   5    2.32    1.22
   1 -10   5    4.00    1.74
  -1  10   6   21.67    4.58
   1 -10   6   21.50    4.29
   1  10   6   19.58    4.12
   1  10   7    9.60    3.31
   1  10   7    5.88    3.09
  -1  10   7    7.30    3.11
   1 -10   7    5.71    2.91
  -1  10   8    0.99    1.47
   1  10   8   -0.09    1.62
   1  10   8   -1.49    2.52
  -1  10   9    4.39    2.38
   1  10   9    5.39    1.50
   1  10   9    9.06    3.58
  -1  10  10    0.33    2.09
   1  10  10    6.22    2.79
   1  10  10    7.65    2.43
   1  10  11    5.63    3.04
   1  10  11    2.41    1.38
  -1  10  11    0.02    1.80
  -1  10  12   13.96    3.65
   1  10  12    9.47    3.06
   1  10  12   13.49    3.17
   1  10  13    4.51    2.86
   1  10  13    6.73    3.09
  -1  10  13    7.70    2.39
  -1  10  14    5.26    2.79
  -1  10  14    5.66    2.39
   1  10  14    3.62    2.77
   1  10  14    7.23    3.05
  -1  10  15    4.60    2.78
  -1  10  15    3.76    2.16
   1  10  15    5.51    2.27
   1  10  15    6.59    1.58
  -1  10  16   -3.13    2.85
   1  10  16   -1.11    1.36
   1  10  16   -1.96    2.15
  -1  10  16    3.06    2.37
   1  11 -10    4.94    2.37
   1  11  -9    1.39    1.83
  -1  11  -8    5.16    3.63
   1  11  -8    1.78    1.81
  -1  11  -7    5.47    2.41
   1  11  -7    1.43    2.00
  -1  11  -6   10.67    3.35
   1  11  -6   11.28    2.98
   1  11  -5    2.87    1.54
  -1  11  -5    3.93    2.92
   1  11  -4    9.09    3.71
  -1  11  -4   14.12    4.32
   1  11  -3    5.72    2.71
  -1  11  -3    8.33    3.35
  -1  11  -2    3.95    1.80
   1  11  -2    4.21    1.88
   1  11  -1   14.97    3.99
   1 -11  -1   10.81    3.68
  -1  11  -1    6.99    2.96
   1  11  -1    4.89    2.78
   1  11   0   11.44    3.39
   1 -11   0   13.64    4.10
   1  11   0   12.27    4.19
  -1  11   0   12.05    3.81
   1  11   1    5.66    3.36
   1 -11   1    4.92    2.20
   1  11   1    6.04    3.02
  -1  11   1    6.82    1.94
   1  11   2    3.55    1.51
   1 -11   2    6.00    2.93
  -1  11   2    3.66    2.40
   1 -11   3   12.03    3.53
  -1  11   3   10.43    3.52
   1  11   3    5.27    2.89
   1  11   3    3.40    2.27
  -1  11   4    5.27    2.30
   1  11   4    3.76    2.34
   1 -11   4    6.39    3.50
   1  11   4    6.02    3.01
   1  11   5    1.51    1.44
   1  11   5    6.68    2.52
   1 -11   5    0.50    2.38
  -1  11   5   -0.34    1.75
  -1  11   6   19.49    4.36
   1  11   6   11.42    3.62
   1  11   6   13.72    3.46
   1  11   7    5.15    2.79
  -1  11   7    9.43    2.69
   1  11   8    5.77    2.67
   1  11   8   -3.43    2.58
  -1  11   8    3.50    3.19
   1  11   9    5.84    2.19
  -1  11   9    4.73    2.46
   1  11   9    8.53    2.93
  -1  11  10   13.16    3.73
   1  11  10   17.69    3.78
   1  11  10   13.98    3.87
   2   0 -31    3.25    2.03
   2   0 -30   29.02    5.39
   2   0 -29   34.52    5.66
   2   0 -28   18.21    4.05
   2   0 -27    9.78    2.72
   2   0 -26    1.95    1.18
   2   0 -25   48.31    6.34
   2   0 -24   47.85    6.08
   2   0 -23  129.95    9.79
   2   0 -22   27.69    4.48
  -2   0 -22   22.59    4.02
   2   0 -21   96.58    7.84
  -2   0 -21   84.76    7.59
  -2   0 -20   31.54    4.62
   2   0 -20   35.30    4.78
  -2   0 -19  429.40   16.12
   2   0 -19  406.09   15.50
  -2   0 -18    9.79    2.51
   2   0 -18   15.70    2.96
   2   0 -17  175.12    9.59
  -2   0 -17  207.40   10.61
  -2   0 -16   31.48    4.08
   2   0 -16   16.70    2.83
   2   0 -15  363.53   13.07
  -2   0 -15  360.81   13.38
  -2   0 -14   26.60    3.60
   2   0 -14   20.99    3.12
   2   0 -13 3239.58   36.23
  -2   0 -13 3160.82   36.92
  -2   0 -12   36.90    3.83
   2   0 -12   44.28    4.26
  -2   0 -11  220.61    9.17
   2   0 -11  222.99    8.89
  -2   0 -10 1764.97   24.60
   2   0 -10 1778.79   23.73
  -2   0  -9 1288.51   19.92
   2   0  -9 1330.43   13.61
   2   0  -9 1287.28   19.64
   2   0  -8  364.09    6.79
   2   0  -8  355.35    9.75
  -2   0  -8  365.78   10.07
  -2   0  -7 5496.50   37.42
   2   0  -7 5467.48   36.55
   2   0  -6  439.64    6.74
   2   0  -6  427.74    9.52
   2   0  -5 1594.59   15.99
   2   0  -5 1591.76   17.15
   2   0  -4 6171.65   31.59
   2   0  -3 4767.23   20.70
   2   0  -3 4707.24   25.97
   2   0  -1  308.38    5.44
   2   0  -1  325.38    5.94
   2   0  -1  319.79    5.99
   2   0   0    4.42    0.68
   2   0   0    2.91    0.69
   2   0   1  298.26    5.83
   2   0   1  309.02    5.27
   2   0   5 1619.60   16.52
   2   0   5 1634.56    9.78
   2   0   6  389.80    8.88
   2   0   7 5499.45   33.46
   2   0   8  356.48    8.90
   2   0   9 1289.60   17.80
   2   0  10 1769.25   21.48
   2   0  11  217.94    7.74
  -2   0  11  226.96    6.19
  -2   0  12   48.06    2.97
   2   0  12   43.04    3.63
   2   0  13 2938.47   31.52
  -2   0  13 3123.09   25.15
   2   0  14   19.85    2.66
  -2   0  14   24.78    2.33
   2   0  15  383.15   11.65
  -2   0  15  369.30    9.29
   2   0  16   15.32    2.39
  -2   0  16   15.32    1.98
   2   0  17  165.75    8.47
  -2   0  17  164.30    6.71
   2   0  18    8.68    2.01
  -2   0  18   11.27    1.82
   2   0  19  436.67   14.26
   2   0  20   23.51    3.51
   2  -1 -31    6.83    3.60
   2  -1 -30   -0.26    2.15
   2   1 -29    1.66    1.31
   2  -1 -29    1.90    2.64
   2   1 -28    3.04    1.99
   2  -1 -28    3.61    2.23
   2  -1 -27    1.79    2.18
   2   1 -27   -2.91    2.70
  -2  -1 -26    2.34    1.88
   2   1 -26    0.94    2.07
   2  -1 -26    0.57    1.28
  -2  -1 -25    4.45    1.92
   2  -1 -25    3.21    2.40
   2   1 -25    0.13    1.55
   2  -1 -24    2.68    1.62
   2   1 -24    2.63    1.87
  -2  -1 -24    0.96    1.07
  -2  -1 -23    1.36    1.30
   2  -1 -23    1.29    1.41
   2   1 -23    0.71    1.23
  -2  -1 -22   13.66    3.33
   2  -1 -22   10.90    2.91
   2   1 -22   10.45    2.64
  -2  -1 -21    3.65    0.87
   2   1 -21    6.61    2.25
   2  -1 -20   24.46    4.04
  -2  -1 -20   25.17    3.79
   2   1 -20   27.67    4.18
   2   1 -19    3.65    1.64
   2  -1 -19    5.24    1.94
  -2  -1 -19    7.11    2.47
   2   1 -18   27.47    3.85
  -2  -1 -18   33.82    4.56
   2  -1 -18   37.61    4.80
   2   1 -17    5.56    1.33
  -2  -1 -17    3.37    1.07
   2  -1 -17    2.18    1.04
   2  -1 -16   22.36    3.54
   2   1 -16   20.48    3.06
  -2  -1 -16   26.13    3.83
   2  -1 -15   28.12    3.64
   2   1 -15   31.45    3.79
  -2  -1 -15   28.50    3.68
   2   1 -14   95.31    6.21
  -2  -1 -14   97.57    6.80
   2  -1 -14  101.98    7.11
   2  -1 -13   32.79    3.88
  -2  -1 -13   32.18    3.89
   2   1 -13   21.06    2.90
   2   1 -12  403.42   11.85
  -2  -1 -12  404.52   13.11
   2  -1 -12  388.12   12.73
   2   1 -11   18.19    2.45
   2  -1 -11   22.24    2.48
   2  -1 -11   24.69    3.09
  -2  -1 -11   19.40    2.74
   2   1 -11   22.10    2.27
   2  -1 -10   23.87    2.41
  -2  -1 -10   26.69    3.18
   2   1 -10   21.90    2.44
   2   1 -10   26.92    2.38
   2  -1 -10   19.14    2.83
  -2  -1  -9   71.04    4.90
   2   1  -9   64.60    4.12
   2   1  -9   69.14    3.69
   2  -1  -9   66.21    3.96
   2  -1  -9   66.63    4.80
   2  -1  -8  121.70    5.24
   2   1  -8  116.87    4.75
  -2  -1  -8  115.58    5.91
   2   1  -8  108.96    4.86
   2  -1  -8  122.20    6.16
  -2  -1  -7   65.15    4.19
   2  -1  -7   67.47    3.76
   2   1  -7   66.05    3.56
   2  -1  -7   66.88    4.34
   2   1  -7   65.98    3.44
  -2  -1  -6  609.92   12.19
   2   1  -6  579.00    9.94
   2   1  -6  584.15   10.02
   2  -1  -6  595.59   10.76
   2  -1  -6  576.00   12.32
   2   1  -5   14.87    1.42
  -2  -1  -5   12.91    1.66
   2  -1  -5   14.48    1.68
   2   1  -5   15.68    1.64
   2  -1  -5   14.46    1.84
   2   1  -4   83.36    3.66
   2   1  -4   81.50    2.98
   2  -1  -4   86.54    4.24
  -2  -1  -4   85.35    3.99
   2   1  -3  786.15   11.05
   2  -1  -3  761.47   12.10
   2   1  -3  770.21    7.43
  -2  -1  -3  746.72   11.01
   2   1  -3  775.85    8.30
   2  -1  -3  754.30   11.19
   2  -1  -2   93.28    4.03
   2  -1  -2   93.86    3.86
   2   1  -2   86.45    3.63
   2   1  -2   98.25    2.91
   2   1  -2  105.21    2.85
   2   1  -1   23.24    1.58
   2   1  -1   21.16    1.75
   2  -1  -1   21.07    1.77
   2  -1  -1   20.91    1.86
   2  -1   0    0.13    0.21
   2  -1   0    0.74    0.37
   2   1   0    0.04    0.39
   2   1   0    0.18    0.21
   2   1   1   16.63    1.55
   2   1   1   20.69    1.73
   2   1   2   89.90    3.62
   2  -1   2   93.98    3.70
   2   1   2   95.29    3.91
   2   1   3  785.24   11.78
   2  -1   3  809.39   10.90
   2   1   3  774.49   10.51
   2   1   4   83.03    4.05
   2   1   4   81.77    3.43
   2  -1   4   81.03    3.55
   2   1   5   15.85    1.85
   2  -1   5   15.84    1.65
   2   1   5   14.43    1.44
   2   1   6  587.55   11.80
   2  -1   6  580.93    9.93
   2   1   6  610.11    9.53
   2  -1   7   71.47    3.58
   2   1   7   67.07    3.20
   2   1   7   69.37    4.20
   2  -1   8  112.81    4.73
   2   1   8  108.81    4.21
   2   1   8  124.02    5.78
   2   1   9   68.10    3.33
   2  -1   9   71.45    3.89
   2   1   9   65.26    4.34
   2   1  10   22.43    2.01
   2  -1  10   22.43    2.27
   2   1  10   19.29    2.47
   2   1  11   17.72    1.75
   2   1  11   18.98    2.48
   2  -1  11   17.57    2.07
   2   1  12  440.38   12.40
   2   1  12  416.97    8.76
   2  -1  12  418.08   10.39
   2   1  13   32.11    2.48
   2   1  13   27.17    3.27
  -2  -1  13   24.04    1.37
   2  -1  13   27.81    2.71
  -2   1  14  100.94    5.78
   2   1  14   93.81    4.38
   2   1  14  111.26    6.55
   2  -1  14  103.38    5.56
   2   1  15   30.23    2.49
   2  -1  15   30.17    3.16
  -2   1  15   34.23    3.45
   2   1  15   25.76    3.41
  -2   1  16   19.55    2.69
   2  -1  16   24.10    2.97
   2   1  16   23.20    3.30
   2   1  16   21.68    2.14
   2   1  17    1.36    0.60
  -2   1  17    3.31    1.44
   2  -1  17    2.26    1.11
   2   1  18   29.64    3.93
  -2   1  18   24.34    3.15
   2  -1  18   28.30    3.16
   2  -1  19    2.24    1.29
  -2   1  19    1.42    1.19
   2   1  19    5.34    1.51
   2   1  20   32.37    4.29
   2   1  21    6.05    2.11
   2   1  22   11.01    2.78
   2  -2 -30   -1.13    1.45
   2  -2 -29   52.69    7.03
  -2  -2 -28   13.18    3.51
   2  -2 -28   13.72    3.54
  -2  -2 -27    4.81    2.43
   2  -2 -27    7.38    2.59
   2  -2 -26    1.51    1.09
  -2  -2 -26    8.31    2.53
  -2  -2 -25   69.18    7.47
   2  -2 -25   66.55    7.36
   2   2 -24   10.35    2.82
  -2  -2 -24    4.61    2.07
   2  -2 -24    8.89    2.65
  -2  -2 -23  146.39   10.47
   2   2 -23  136.00    9.89
   2  -2 -23  136.80   10.19
   2  -2 -22    2.75    1.54
   2   2 -22    2.76    1.81
  -2  -2 -22    2.77    2.39
   2   2 -21    0.27    1.17
   2  -2 -21   -1.15    1.20
  -2  -2 -21    1.57    1.61
   2   2 -20   14.95    3.21
   2  -2 -20   10.26    2.93
  -2  -2 -20   14.96    3.15
   2  -2 -19  163.37   10.35
  -2  -2 -19  156.09    9.99
   2   2 -19  140.01    9.02
   2  -2 -18   34.96    4.61
   2   2 -18   33.60    4.39
  -2  -2 -18   36.77    4.71
   2  -2 -17  190.05   10.49
  -2  -2 -17  205.16   11.01
   2   2 -17  183.99    9.50
   2  -2 -16    2.17    1.46
  -2  -2 -16    0.98    1.21
   2   2 -15   32.37    3.76
  -2  -2 -15   28.20    4.00
   2   2 -15   25.50    2.73
   2  -2 -15   34.86    4.38
  -2  -2 -14    7.72    1.86
   2   2 -14    5.80    1.62
   2  -2 -14    8.68    2.06
   2   2 -14    4.24    1.24
   2  -2 -13  615.87   15.52
   2   2 -13  614.99   14.53
  -2  -2 -13  644.07   17.41
   2   2 -13  613.13   12.82
   2  -2 -13  606.69   17.03
   2   2 -12  141.26    6.03
   2  -2 -12  140.40    7.22
   2   2 -12  148.31    6.74
  -2  -2 -12  152.26    8.12
   2  -2 -12  161.89    8.55
   2   2 -11    2.83    0.98
  -2  -2 -11    3.40    1.34
   2   2 -11    2.72    1.10
   2  -2 -11    4.74    1.64
   2  -2 -11    3.19    1.18
  -2   2 -11    1.81    0.42
  -2   2 -10   81.93    2.82
  -2  -2 -10   86.78    5.85
   2   2 -10   86.63    4.71
   2  -2 -10   86.01    5.37
   2  -2 -10  101.63    6.46
   2   2 -10   85.19    4.50
   2   2  -9  476.89   10.09
   2   2  -9  440.77   10.53
  -2  -2  -9  454.07   12.73
  -2   2  -9  458.38    7.28
   2  -2  -9  472.71   12.25
   2  -2  -9  479.03   13.54
  -2   2  -8   29.98    1.97
  -2  -2  -8   31.67    3.16
   2   2  -8   26.11    2.12
   2  -2  -8   31.38    3.13
   2   2  -8   34.21    2.83
   2  -2  -8   32.00    3.46
   2  -2  -7  418.44   11.05
  -2   2  -7  451.82    7.86
   2   2  -7  439.46   10.10
   2  -2  -7  436.13   11.89
   2   2  -7  449.91    7.96
  -2  -2  -7  420.21   11.10
   2  -2  -6   21.01    2.51
  -2  -2  -6   21.14    2.41
   2   2  -6   21.48    2.23
   2   2  -6   23.64    1.34
   2  -2  -6   25.77    2.71
  -2   2  -6   23.41    1.91
   2   2  -6   25.25    1.68
  -2   2  -5   57.56    3.05
   2   2  -5   64.87    2.47
   2   2  -5   54.75    2.10
   2   2  -5   54.80    3.54
  -2  -2  -5   58.74    3.77
   2  -2  -5   61.62    4.06
   2  -2  -5   47.50    3.68
   2   2  -4  147.92    4.16
  -2   2  -4  143.01    5.01
   2  -2  -4  139.43    5.97
  -2  -2  -4  142.26    5.46
   2  -2  -4  140.12    6.03
   2   2  -4  144.15    5.74
   2   2  -3 2110.00   16.95
   2  -2  -3 2090.83   22.47
   2   2  -3 2034.72   21.49
  -2  -2  -3 2096.39   19.49
   2   2  -2  260.15    7.62
   2  -2  -2  264.94    7.97
  -2  -2  -2  283.98    6.48
   2   2  -2  271.10    6.51
   2  -2  -2  263.37    7.69
   2   2  -1  691.20   11.10
   2   2  -1  706.92   12.74
  -2  -2  -1  745.28    9.34
   2  -2  -1  773.17   12.56
   2  -2  -1  714.12   12.79
   2  -2   0  129.58    5.06
   2   2   0  130.47    5.05
   2   2   0  142.01    5.62
   2  -2   1  719.59   11.48
   2  -2   1  716.54   12.38
   2   2   1  745.34   13.03
   2   2   1  717.24   12.27
   2  -2   2  256.62    6.89
   2  -2   2  254.34    7.30
   2   2   2  261.68    7.79
   2   2   2  278.87    7.98
   2   2   3 2077.40   21.91
   2   2   3 2048.21   22.27
   2  -2   3 2070.49   20.36
   2   2   4  143.54    6.18
   2   2   4  135.59    5.72
   2  -2   4  135.54    5.28
   2   2   5   51.06    3.78
   2  -2   5   56.64    3.40
   2   2   5   50.58    3.50
   2   2   6   24.20    2.41
   2  -2   6   23.69    2.20
   2   2   6   25.16    2.71
   2   2   7  415.66   10.38
   2   2   7  428.82   11.66
   2  -2   7  436.75    9.52
   2  -2   8   31.10    2.66
   2   2   8   31.92    3.19
   2   2   8   28.03    2.84
   2  -2   9  473.03   10.24
   2   2   9  442.21   12.45
   2   2   9  471.16   11.12
   2   2  10   88.41    4.96
   2   2  10   97.71    5.92
   2  -2  10   88.25    4.49
   2   2  11    0.51    0.60
   2   2  11    1.68    0.92
   2  -2  11    1.98    0.88
   2  -2  12  146.59    6.07
   2   2  12  146.02    6.58
   2   2  12  144.43    7.69
   2   2  13  619.46   13.64
   2   2  13  617.38   16.27
   2  -2  13  604.25   12.63
   2   2  14    4.85    1.27
   2   2  14    5.57    1.38
   2  -2  14    4.06    1.19
   2  -2  15   31.74    3.12
   2   2  15   25.55    2.93
   2   2  15   27.84    3.55
   2   2  16    1.27    0.51
   2  -2  16    3.88    1.29
   2   2  16    4.03    1.53
  -2   2  16    3.98    1.41
   2  -2  17  158.99    7.36
  -2   2  17  177.76    9.34
   2   2  17  174.68    7.99
  -2   2  18   32.67    3.94
   2   2  18   37.98    4.58
   2   2  19  139.36    8.89
  -2   2  19  136.10    8.53
   2   2  20   13.53    3.04
  -2   2  20   10.77    2.32
   2   2  21    0.18    1.18
  -2   2  21    0.70    1.04
   2   2  22    2.24    1.40
   2   2  23  134.54    9.68
   2  -3 -30   -1.07    1.24
  -2  -3 -30    3.48    2.83
   2  -3 -29    7.43    2.62
  -2  -3 -29   11.01    2.74
   2  -3 -28    2.52    1.97
  -2  -3 -28   -2.02    1.77
   2  -3 -27    0.81    1.53
  -2  -3 -27    2.13    2.36
   2  -3 -26   -0.97    1.84
  -2  -3 -26   -1.23    1.84
  -2  -3 -25    6.90    2.32
   2  -3 -25   10.19    3.36
  -2  -3 -24    1.26    1.18
   2  -3 -24    0.68    1.32
  -2  -3 -23    4.18    2.29
   2  -3 -23    1.44    0.91
  -2  -3 -22   -0.31    1.01
   2  -3 -22    2.45    2.08
   2  -3 -21   11.28    3.02
  -2  -3 -21    9.26    2.76
  -2  -3 -20    2.77    1.62
   2  -3 -20    1.66    0.95
   2   3 -19    3.16    1.99
  -2  -3 -19    1.41    1.23
   2  -3 -19    1.11    1.28
  -2  -3 -18    4.71    1.31
   2  -3 -18    4.73    1.90
   2   3 -18    0.86    1.05
   2   3 -17    0.51    0.64
  -2  -3 -17    0.74    0.93
   2  -3 -17    1.13    1.61
  -2  -3 -16    7.62    2.07
   2  -3 -16    4.60    1.79
   2   3 -16    4.38    1.70
   2   3 -15    3.92    1.16
   2  -3 -15    4.63    1.91
  -2  -3 -15    8.31    2.53
   2   3 -15    4.11    1.42
   2   3 -14    7.39    1.64
   2  -3 -14    5.26    1.86
   2  -3 -14    6.59    1.94
  -2  -3 -14    7.95    2.34
   2   3 -14    8.03    1.89
   2  -3 -13    1.22    0.76
   2   3 -13    2.69    1.17
  -2   3 -13    5.35    1.20
  -2  -3 -13    1.64    1.26
   2   3 -13    3.13    1.24
   2  -3 -13    0.85    1.03
  -2   3 -12   35.27    2.61
   2   3 -12   35.11    3.16
  -2  -3 -12   33.52    3.89
   2  -3 -12   35.44    4.30
   2   3 -12   33.58    3.37
   2  -3 -12   39.09    4.15
   2  -3 -11   39.70    4.43
   2  -3 -11   44.04    4.46
  -2  -3 -11   42.44    4.26
   2   3 -11   33.62    2.90
   2   3 -11   36.50    3.39
  -2  -3 -10   39.04    4.02
   2  -3 -10   29.39    3.52
  -2   3 -10   33.37    2.64
   2   3 -10   32.01    3.18
   2   3 -10   32.46    2.57
   2  -3 -10   35.93    4.14
   2   3  -9   42.29    2.03
   2   3  -9   37.59    2.54
   2   3  -9   42.99    3.64
  -2  -3  -9   34.55    3.67
  -2   3  -9   45.37    3.26
   2  -3  -9   39.23    4.09
   2  -3  -9   41.63    4.13
  -2   3  -8    3.07    0.96
  -2  -3  -8    3.35    1.10
   2   3  -8    2.19    1.05
   2   3  -8    4.32    0.84
   2  -3  -8    3.01    1.21
   2  -3  -8    2.93    1.40
   2  -3  -7   26.35    3.12
  -2   3  -7   28.16    2.60
   2  -3  -7   26.61    3.16
   2   3  -7   27.37    3.00
   2   3  -7   32.07    2.18
  -2  -3  -7   29.49    3.11
   2  -3  -6    2.22    1.09
  -2  -3  -6    0.48    0.58
   2  -3  -6    2.22    0.85
  -2   3  -6    2.48    0.92
   2   3  -6    2.28    1.10
  -2   3  -5  151.31    6.32
   2  -3  -5  168.22    7.60
   2   3  -5  149.47    6.89
   2  -3  -5  157.52    7.13
  -2  -3  -5  150.88    6.42
  -2   3  -4   15.42    2.03
  -2  -3  -4   13.13    1.85
   2  -3  -4   16.41    2.22
   2   3  -4   16.42    2.29
   2  -3  -4   11.42    1.89
   2   3  -3   12.16    2.10
  -2  -3  -3   15.20    1.84
   2  -3  -3   11.83    1.91
   2  -3  -3   12.47    1.98
  -2   3  -3   11.44    1.87
  -2   3  -2   51.85    3.86
   2   3  -2   56.16    4.21
  -2  -3  -2   48.10    2.95
   2  -3  -2   60.88    4.41
   2  -3  -2   61.67    4.14
  -2  -3  -1 1072.74   12.46
  -2   3  -1 1055.73   17.49
   2  -3  -1 1030.62   16.17
   2   3  -1 1030.74   17.86
   2  -3  -1 1017.24   17.64
   2   3   0  119.16    6.05
   2  -3   0  109.88    5.75
   2  -3   0  113.40    5.25
  -2  -3   0  119.55    3.64
   2  -3   1 1024.66   17.34
   2  -3   1 1062.58   15.56
   2   3   2   54.21    4.15
   2  -3   2   58.80    4.14
   2  -3   2   63.86    3.73
   2  -3   3   12.98    1.92
   2   3   3   10.31    1.84
   2   3   3   13.65    2.24
   2  -3   3   12.24    1.71
   2   3   4   15.40    2.20
   2  -3   4   13.88    1.79
   2   3   4   18.47    2.47
   2  -3   4   12.62    1.89
   2  -3   5  139.96    6.20
   2   3   5  155.04    7.15
   2   3   5  155.35    7.45
   2  -3   6    1.65    0.43
   2   3   6    0.95    0.83
   2   3   6    0.32    0.55
   2   3   7   24.33    2.88
   2  -3   7   28.77    2.70
   2   3   7   22.61    2.97
   2   3   8    1.04    0.82
   2  -3   8    2.51    0.89
   2   3   9   37.15    4.16
   2   3   9   45.80    4.08
   2  -3   9   43.38    3.39
   2  -3  10   34.28    3.10
   2   3  10   37.34    3.74
   2   3  10   32.75    3.78
   2  -3  11   36.71    3.18
   2   3  11   35.98    3.70
   2   3  11   38.69    4.32
   2   3  12   33.72    4.02
   2   3  12   32.62    3.49
   2  -3  12   28.00    2.86
   2   3  13    2.39    1.12
   2   3  13    1.62    1.41
   2  -3  13    1.49    0.46
   2  -3  14    6.29    1.30
   2   3  14    4.59    1.46
   2   3  15    5.03    1.62
   2  -3  15    2.74    1.13
   2   3  16    4.30    1.66
   2   3  16    3.04    1.12
   2  -3  16    4.15    1.03
   2   3  17    0.81    1.13
   2   3  17    0.12    0.75
  -2   3  18    5.20    2.06
   2   3  18    5.55    2.20
  -2   3  18    7.22    2.26
   2   3  18    7.73    2.53
  -2   3  19   -0.54    1.06
  -2   3  19    0.85    0.77
   2   3  19    0.87    1.46
  -2   3  20    3.03    1.86
  -2   3  20    5.21    1.59
   2   3  20    2.81    1.30
  -2   3  21    9.63    2.84
   2   3  21   11.05    3.21
   2   3  22    0.60    0.94
  -2   3  22    0.51    1.33
   2   3  23    0.36    1.14
   2   3  24    2.35    1.15
   2  -4 -29   28.42    5.17
  -2  -4 -29   33.18    5.50
   2  -4 -28    4.38    2.81
  -2  -4 -28    4.26    3.06
   2  -4 -27    2.70    1.83
  -2  -4 -27    1.34    1.60
  -2  -4 -26    3.14    2.58
   2  -4 -26   -0.72    1.01
  -2  -4 -25   60.00    7.38
   2  -4 -25   46.13    6.16
  -2  -4 -24    3.34    1.97
   2  -4 -24    4.62    1.54
   2  -4 -23   46.57    6.07
  -2  -4 -23   35.17    5.49
  -2  -4 -22    5.73    2.95
   2  -4 -22    0.57    1.93
  -2  -4 -21    0.29    1.04
   2  -4 -21    0.86    1.08
   2  -4 -20    8.22    2.43
  -2  -4 -20    6.54    2.70
   2  -4 -19  161.77   10.68
  -2  -4 -19  155.05   10.47
  -2  -4 -18   46.05    5.49
   2  -4 -18   41.87    5.35
  -2  -4 -17  141.92    9.51
   2  -4 -17  148.94    9.82
  -2  -4 -16    2.40    1.50
   2  -4 -16    2.56    1.18
   2  -4 -15   34.72    4.60
   2   4 -15   36.82    4.04
   2  -4 -15   45.15    5.13
  -2  -4 -15   37.54    4.56
  -2  -4 -14   58.82    6.03
   2  -4 -14   46.19    5.00
   2  -4 -13  394.28   14.95
  -2  -4 -13  383.24   14.36
   2   4 -13  376.18   12.41
   2  -4 -13  374.24   14.28
   2  -4 -12  109.49    7.58
  -2   4 -12  123.41    6.25
   2   4 -12  113.72    6.83
   2  -4 -12  112.00    7.78
  -2  -4 -12  123.28    8.03
   2  -4 -11   43.72    4.78
  -2  -4 -11   42.93    4.59
   2  -4 -11   46.61    4.97
  -2   4 -11   51.96    4.11
   2   4 -11   56.39    4.79
  -2  -4 -10    5.70    1.80
  -2   4 -10    1.95    0.51
   2  -4 -10    3.54    1.72
   2   4 -10    3.27    0.76
   2  -4 -10    5.74    1.49
   2   4 -10    2.29    1.07
  -2  -4  -9  383.45   12.92
   2  -4  -9  408.22   13.91
  -2   4  -9  415.43   11.87
   2  -4  -9  425.61   14.25
   2   4  -9  412.53   12.81
   2   4  -8   57.00    4.73
  -2  -4  -8   53.51    4.62
  -2   4  -8   50.12    4.14
   2  -4  -8   50.37    4.89
   2  -4  -8   47.77    4.61
   2  -4  -7  111.72    7.19
   2  -4  -7  117.84    7.08
   2   4  -7  109.58    6.58
  -2   4  -7  112.74    6.27
  -2  -4  -7  108.95    6.37
   2  -4  -6   57.97    4.88
  -2   4  -6   56.44    4.42
   2  -4  -6   57.65    5.08
   2   4  -6   58.11    4.82
  -2  -4  -6   58.16    4.51
   2   4  -5   36.15    3.85
  -2   4  -5   36.82    3.70
  -2  -4  -5   35.61    3.39
   2  -4  -5   36.52    4.01
   2  -4  -5   40.03    3.95
   2  -4  -4  121.23    7.13
  -2  -4  -4  122.67    5.91
   2  -4  -4  136.61    6.98
  -2   4  -4  124.13    6.71
   2   4  -4  115.72    6.77
   2  -4  -3  337.58   10.65
  -2   4  -3  315.60   11.11
   2   4  -3  327.52   11.31
  -2  -4  -3  312.52    8.82
   2  -4  -3  329.33   11.67
   2  -4  -2   35.42    3.37
  -2   4  -2   36.60    3.73
  -2  -4  -2   35.92    2.83
   2   4  -2   35.38    3.75
   2  -4  -2   37.76    3.97
   2  -4  -1 1535.31   24.16
   2   4  -1 1514.80   24.73
  -2  -4  -1 1574.88   16.81
  -2   4  -1 1560.89   24.34
   2  -4  -1 1508.46   21.34
   2  -4   0  166.23    7.87
   2  -4   0  172.22    7.03
   2   4   0  165.50    8.19
  -2  -4   0  155.66    4.88
  -2   4   0  162.92    8.01
  -2  -4   1 1537.77   13.18
   2   4   1 1532.42   24.93
   2  -4   1 1563.95   20.61
  -2   4   1 1541.80   24.73
   2  -4   1 1509.24   23.50
   2  -4   2   38.46    3.62
   2   4   2   40.21    4.00
  -2   4   2   32.23    3.72
   2  -4   2   37.85    3.21
  -2  -4   3  321.44    9.71
   2  -4   3  323.76   10.59
   2  -4   3  336.68    9.51
   2   4   3  346.30   11.96
  -2   4   3  315.57   11.53
   2  -4   4  127.86    5.72
  -2   4   4  119.81    7.13
   2  -4   4  124.20    6.49
   2   4   4  139.00    7.66
  -2  -4   4  117.86    5.80
   2  -4   5   36.41    3.48
   2  -4   5   31.34    2.81
  -2   4   5   34.20    3.87
   2   4   5   29.39    3.64
   2   4   6   62.41    5.30
   2  -4   6   61.13    4.66
   2   4   6   49.78    4.73
  -2   4   6   58.38    5.03
   2  -4   6   57.40    3.89
  -2   4   7  103.07    6.77
   2   4   7  112.62    7.41
   2   4   7   99.64    6.62
   2  -4   7  108.45    6.07
  -2   4   8   56.47    5.14
   2   4   8   54.07    5.16
   2   4   8   50.74    4.75
   2  -4   8   56.08    4.36
  -2   4   9  409.20   13.91
   2   4   9  386.20   14.09
   2   4   9  411.47   13.65
   2  -4   9  437.19   12.01
   2   4  10    4.09    1.54
   2  -4  10    5.50    1.52
   2   4  10    2.52    0.85
  -2   4  10    4.29    1.53
   2   4  11   46.65    5.20
   2   4  11   52.09    4.92
   2  -4  11   55.93    4.40
  -2   4  11   48.44    5.01
   2   4  12  130.95    7.93
  -2   4  12  120.19    7.93
   2  -4  12  115.56    6.21
   2   4  13  396.66   15.02
   2   4  13  375.45   13.71
  -2   4  13  365.93   13.98
   2  -4  13  388.93   11.52
  -2   4  14   56.85    5.58
   2  -4  14   55.83    4.29
   2   4  14   63.59    5.77
   2   4  14   67.73    6.38
  -2   4  15   28.08    3.94
   2  -4  15   32.22    3.31
   2   4  15   27.89    3.92
   2   4  15   37.34    4.38
   2   4  16    2.05    0.85
  -2   4  16    4.84    1.87
   2   4  16    4.02    1.27
   2   4  17  147.58    9.63
   2   4  17  141.10    9.11
  -2   4  17  147.52    9.48
   2   4  18   47.62    5.63
   2   4  18   34.10    4.55
  -2   4  18   39.79    5.21
  -2   4  18   39.80    5.19
   2   4  19  132.82    9.10
  -2   4  19  150.14   10.32
   2   4  19  132.62    9.77
  -2   4  19  124.46    9.06
   2   4  20    3.51    1.62
  -2   4  20    2.39    1.07
  -2   4  20    3.64    1.46
  -2   4  21    1.93    2.48
  -2   4  21    0.88    1.15
   2   4  21    2.41    1.28
  -2   4  22   -0.05    1.43
   2   4  22    1.05    1.94
  -2   4  23   38.90    5.51
   2   4  23   35.92    5.50
   2   4  24    5.68    3.21
   2   4  25   54.62    7.09
   2  -5 -28    2.06    1.59
  -2  -5 -28   -1.69    1.51
  -2  -5 -27    4.51    2.67
   2  -5 -27    4.83    2.31
   2  -5 -26   -2.16    2.36
  -2  -5 -26    2.57    2.22
   2  -5 -25   11.38    3.01
  -2  -5 -25    7.27    2.47
   2  -5 -24    1.70    1.22
  -2  -5 -24    2.73    1.83
   2  -5 -23    4.14    2.06
  -2  -5 -23    6.23    3.01
  -2  -5 -22    5.25    1.87
   2  -5 -22   17.66    3.95
   2  -5 -21   -1.01    2.14
  -2  -5 -21    4.87    1.95
   2  -5 -20    1.99    1.64
  -2  -5 -20   -1.06    1.90
   2  -5 -19    5.00    2.20
  -2  -5 -19   10.02    3.22
   2  -5 -18    1.05    1.32
  -2  -5 -18    2.26    2.04
  -2  -5 -17    6.39    2.20
   2  -5 -17    0.45    1.50
  -2  -5 -16    8.26    2.50
   2  -5 -16    8.94    2.29
   2  -5 -15    0.43    1.07
  -2  -5 -15    1.57    1.02
   2  -5 -14    6.19    2.07
  -2  -5 -14    3.09    1.41
   2  -5 -14   10.37    2.96
   2   5 -14    7.33    2.30
   2  -5 -13   74.86    6.73
   2  -5 -13   70.57    6.67
   2   5 -13   58.42    5.35
  -2  -5 -13   61.58    6.11
   2   5 -12   27.40    3.66
  -2   5 -12   27.56    3.56
   2  -5 -12   30.24    4.30
  -2  -5 -12   28.94    4.00
   2  -5 -12   25.31    3.90
   2   5 -11    3.88    1.22
   2  -5 -11    1.36    1.49
  -2  -5 -11    2.59    1.63
   2  -5 -11    1.42    1.19
  -2   5 -11    3.20    1.21
   2  -5 -10   15.33    3.02
  -2   5 -10   21.73    3.25
   2  -5 -10   19.29    3.21
  -2  -5 -10   16.97    2.88
   2   5 -10   18.41    2.95
  -2  -5  -9   12.88    2.61
   2   5  -9   19.24    3.27
  -2   5  -9   12.66    2.58
   2  -5  -9   18.94    3.30
   2  -5  -9   15.81    3.04
   2  -5  -8    1.46    0.89
   2  -5  -8    5.51    1.71
  -2   5  -8    5.35    1.79
   2   5  -8    3.23    1.29
  -2  -5  -8    2.04    1.15
   2   5  -7    0.22    0.82
  -2  -5  -7    0.04    0.51
  -2   5  -7    0.77    0.83
   2  -5  -7    1.19    1.07
   2  -5  -7    0.26    0.62
   2   5  -6    6.82    1.79
   2  -5  -6    4.68    2.01
  -2   5  -6    5.01    1.73
  -2  -5  -6    9.32    2.12
   2  -5  -6    5.28    1.51
   2  -5  -5   23.57    3.46
  -2  -5  -5   22.14    2.89
   2   5  -5   20.22    3.25
   2  -5  -5   22.01    3.21
  -2   5  -5   22.04    3.17
   2  -5  -4   71.95    5.90
   2   5  -4   71.62    5.82
  -2   5  -4   61.03    5.30
  -2  -5  -4   75.05    4.96
   2  -5  -4   72.03    5.37
   2   5  -3   73.70    5.99
  -2  -5  -3   80.27    4.81
  -2   5  -3   75.94    6.09
   2  -5  -3   73.72    6.23
   2  -5  -3   75.37    5.40
   2   5  -2    6.62    1.78
  -2  -5  -2    5.47    1.17
   2  -5  -2    5.46    1.50
  -2   5  -2    9.08    2.11
   2  -5  -2    4.54    1.43
   2   5  -1  314.65   12.36
  -2  -5  -1  315.99    8.39
   2  -5  -1  323.67   10.63
  -2   5  -1  319.20   12.23
   2  -5  -1  300.76   11.84
   2  -5   0   34.35    3.95
   2   5   0   31.89    4.08
   2  -5   0   29.58    3.16
  -2   5   0   38.44    4.21
  -2  -5   0   33.07    2.57
   2   5   1  286.76   12.05
   2  -5   1  310.28    9.97
  -2  -5   1  299.32    6.72
  -2  -5   1  285.86   10.75
   2  -5   1  309.59   11.74
  -2   5   1  321.67   12.36
   2  -5   2    4.96    1.47
  -2   5   2    6.23    1.92
   2   5   2    4.16    1.68
   2  -5   2    6.27    1.93
  -2  -5   2    6.95    0.90
  -2   5   3   75.19    6.19
   2  -5   3   72.89    4.80
  -2  -5   3   77.88    5.45
   2  -5   3   71.19    5.57
   2   5   3   76.93    6.19
  -2   5   4   80.67    6.48
  -2  -5   4   79.74    5.40
   2  -5   4   79.07    5.76
   2   5   4   80.19    6.40
   2  -5   4   73.87    4.65
   2   5   5   18.08    3.15
  -2  -5   5   26.95    3.10
   2  -5   5   18.50    2.50
   2  -5   5   14.83    2.60
  -2   5   5   19.59    3.20
  -2   5   6    6.69    1.92
  -2  -5   6   10.56    1.95
   2   5   6    7.06    2.31
   2  -5   6    6.49    1.57
   2  -5   6    9.06    2.12
   2   5   7   -0.90    1.48
   2  -5   7    0.36    0.48
  -2   5   7   -0.75    1.06
   2  -5   7    1.46    1.19
   2  -5   8    5.06    1.47
  -2   5   8    0.69    1.19
   2   5   8    5.52    1.37
   2  -5   8    1.81    0.89
   2   5   8    4.40    1.59
   2  -5   9   13.07    2.13
   2   5   9   10.78    2.65
  -2   5   9   15.02    3.24
   2  -5   9   15.36    2.59
   2   5   9   14.76    2.85
   2  -5  10   18.89    2.80
   2   5  10   23.94    3.90
  -2   5  10   20.43    3.51
   2   5  10   14.92    3.08
   2   5  11    2.60    0.93
  -2   5  11    2.71    1.36
   2  -5  11    4.67    1.56
   2  -5  12   21.22    3.00
   2   5  12   34.25    4.61
   2   5  12   23.88    4.04
  -2   5  12   30.06    4.51
   2   5  13   73.13    6.71
  -2   5  13   60.51    6.18
   2   5  13   72.32    6.89
   2  -5  13   60.48    4.95
   2   5  14    3.54    1.77
   2  -5  14    4.34    1.60
  -2   5  14    4.79    1.59
   2   5  14    5.18    2.18
   2   5  15    2.60    1.73
   2   5  15    5.45    2.05
  -2   5  15    4.06    1.88
  -2   5  16    9.73    3.14
   2   5  16    5.58    2.17
   2   5  16    5.51    1.98
  -2   5  17    3.77    2.37
   2   5  17    4.69    2.74
   2   5  17    6.63    2.56
   2   5  18   -0.17    1.02
   2   5  18    2.51    1.69
  -2   5  18   -0.50    1.17
   2   5  19    8.29    2.58
  -2   5  19    8.57    3.11
   2   5  19   11.05    3.23
  -2   5  19   18.81    3.97
  -2   5  20    0.93    1.83
   2   5  20    1.18    1.59
  -2   5  20    1.59    2.30
   2   5  20    0.51    1.34
  -2   5  21    1.95    1.99
  -2   5  21    1.95    1.27
   2   5  21    0.49    1.19
   2   5  22    6.23    2.44
  -2   5  22    9.65    3.30
  -2   5  23    4.81    2.77
   2   5  23    8.71    3.31
   2   5  24    1.11    1.06
  -2   5  24   -1.03    1.57
   2   5  25    6.16    2.76
   2   5  26    0.44    1.87
  -2  -6 -26    2.23    2.44
   2  -6 -26   -0.24    1.80
  -2  -6 -25   23.32    4.82
   2  -6 -25   29.78    5.24
   2  -6 -24   11.39    3.56
  -2  -6 -24   11.66    3.65
  -2  -6 -23   12.87    3.68
   2  -6 -23   17.75    4.08
   2  -6 -22   13.03    3.27
  -2  -6 -22   11.97    3.66
  -2  -6 -21    6.90    2.49
   2  -6 -21    6.77    2.60
   2  -6 -20    6.72    3.00
  -2  -6 -20    2.34    1.48
  -2  -6 -19  112.86    9.08
   2  -6 -19   87.97    8.34
  -2  -6 -18    3.74    2.35
   2  -6 -18    6.47    2.44
   2  -6 -17   57.45    6.54
  -2  -6 -17   50.03    6.01
  -2  -6 -16    9.92    3.06
   2  -6 -16    8.76    2.68
  -2  -6 -15   75.79    7.02
   2  -6 -15   85.78    7.93
   2  -6 -15   86.96    7.99
   2   6 -14   25.00    3.73
   2  -6 -14   41.51    5.65
   2  -6 -14   32.74    4.95
  -2  -6 -14   31.78    4.75
   2  -6 -13  412.07   16.65
   2  -6 -13  386.70   16.20
  -2  -6 -13  417.90   16.12
  -2   6 -12    8.25    2.74
   2  -6 -12    8.84    2.75
  -2  -6 -12    5.10    2.13
   2   6 -12    6.80    2.30
   2  -6 -12    9.90    2.85
   2  -6 -11   70.17    6.53
  -2   6 -11   57.04    5.78
   2  -6 -11   56.73    6.20
  -2  -6 -11   63.13    6.03
   2   6 -11   45.30    5.30
  -2   6 -10   27.29    3.82
   2   6 -10   26.07    4.10
   2  -6 -10   30.97    4.18
  -2  -6 -10   27.23    3.90
   2  -6 -10   34.41    4.55
   2  -6  -9  324.27   14.09
   2   6  -9  275.37   12.76
  -2   6  -9  286.65   12.64
   2  -6  -9  324.17   14.22
  -2  -6  -9  306.27   12.85
  -2   6  -8  170.43    9.82
  -2  -6  -8  195.83    9.94
   2  -6  -8  176.62   10.41
   2   6  -8  164.98    9.83
   2  -6  -8  180.73    9.94
   2  -6  -7  287.76   12.42
   2   6  -7  288.83   12.99
  -2   6  -7  277.05   12.35
  -2  -6  -7  280.52   11.63
   2  -6  -7  303.40   13.42
   2  -6  -6    6.74    1.96
   2   6  -6    5.55    2.00
  -2   6  -6    9.62    2.35
   2  -6  -6    6.89    2.08
  -2  -6  -6    8.12    2.03
  -2   6  -5   41.35    4.73
   2  -6  -5   34.77    4.41
   2   6  -5   39.73    4.74
  -2  -6  -5   44.66    4.28
   2  -6  -5   42.67    5.34
   2  -6  -4  374.35   13.07
  -2   6  -4  334.45   13.56
  -2  -6  -4  335.86   11.41
   2   6  -4  362.11   14.61
   2  -6  -4  326.81   13.71
   2  -6  -3  246.49   10.72
   2  -6  -3  218.15   11.27
   2   6  -3  267.50   12.28
  -2   6  -3  250.03   11.87
  -2  -6  -3  257.84    9.46
  -2  -6  -2  140.55    6.64
   2   6  -2  136.17    8.77
  -2   6  -2  143.20    8.99
   2  -6  -2  131.33    7.55
   2  -6  -2  140.80    8.93
  -2   6  -1  249.56   11.87
   2   6  -1  275.84   12.65
   2  -6  -1  260.81   11.89
   2  -6  -1  292.67   10.94
  -2  -6  -1  299.44    8.91
  -2   6   0   25.04    3.73
   2   6   0   26.95    4.09
  -2  -6   0   23.40    2.45
   2  -6   0   20.59    2.95
   2  -6   0   23.56    3.58
   2  -6   1  293.78   12.50
   2   6   1  259.41   12.29
  -2   6   1  294.19   12.90
   2  -6   1  299.14   10.50
  -2  -6   1  262.51    7.05
   2  -6   2  134.93    8.45
   2  -6   2  146.19    7.28
  -2   6   2  132.11    8.77
  -2  -6   2  120.80    4.09
   2   6   2  152.23    9.37
   2   6   3  248.43   12.14
   2  -6   3  232.04    8.99
   2  -6   3  243.40   11.21
  -2  -6   3  238.28   10.49
  -2   6   3  245.29   11.93
   2  -6   4  361.49   11.10
   2  -6   4  352.66   13.64
   2   6   4  354.17   14.64
  -2  -6   4  361.27   12.76
  -2   6   4  335.16   14.24
   2   6   5   43.33    5.25
   2  -6   5   44.33    4.80
  -2   6   5   41.18    4.92
   2  -6   5   39.76    3.74
   2   6   6    7.78    2.35
   2  -6   6    7.79    1.81
  -2   6   6    5.15    2.07
   2  -6   6    8.84    2.05
   2  -6   7  298.32   12.22
   2  -6   7  283.63    9.87
  -2   6   7  296.62   13.63
   2   6   7  288.02   13.42
   2  -6   8  184.56    9.54
  -2   6   8  188.64   10.77
   2  -6   8  162.70    7.68
   2   6   8  188.14   11.00
   2   6   8  182.33   10.59
   2   6   9  321.19   14.58
   2   6   9  332.05   14.47
   2  -6   9  308.91   12.59
  -2   6   9  315.26   14.26
   2   6  10   23.69    4.01
   2   6  10   31.43    4.74
   2  -6  10   25.96    3.55
  -2   6  10   24.20    3.97
   2  -6  11   69.17    5.85
   2   6  11   70.14    6.76
   2   6  11   60.86    6.55
  -2   6  11   63.26    6.52
   2   6  12    7.75    2.68
   2   6  12   10.08    2.63
  -2   6  12   10.21    2.69
   2  -6  12    9.59    2.21
   2   6  13  383.78   16.43
   2   6  13  427.65   17.16
  -2   6  13  402.14   16.37
   2   6  14   25.81    4.41
   2   6  14   30.42    5.03
  -2   6  15   78.31    7.84
   2   6  15   72.82    7.35
   2   6  15   96.83    8.33
  -2   6  16    3.36    1.65
   2   6  16    4.07    2.03
   2   6  16    4.00    1.78
  -2   6  17   45.62    5.68
   2   6  17   63.48    6.91
   2   6  17   51.67    6.32
  -2   6  18    4.80    2.43
   2   6  18    6.86    2.87
   2   6  18    5.62    2.07
  -2   6  19   96.23    8.66
  -2   6  19  107.26    9.53
   2   6  19   96.44    8.62
   2   6  19   96.00    8.89
  -2   6  20    4.53    1.76
  -2   6  20   14.47    3.83
   2   6  20   10.50    3.40
   2   6  20    6.72    2.97
  -2   6  21    6.15    3.19
   2   6  21    7.37    2.31
  -2   6  21    8.52    3.51
  -2   6  22   12.24    3.23
  -2   6  22   18.83    4.59
   2   6  22   11.54    3.33
  -2   6  23   11.28    3.63
   2   6  23   10.37    3.11
   2   6  24   14.75    4.02
  -2   6  24    3.73    1.52
   2   6  25   26.15    4.91
  -2   6  25   21.68    5.41
   2   6  26    0.03    1.70
  -2  -7 -24   -1.50    1.77
   2  -7 -24    2.70    2.42
   2  -7 -23   -0.11    1.57
  -2  -7 -23    1.39    1.41
   2  -7 -22    4.07    2.73
  -2  -7 -22    1.00    1.75
   2  -7 -21    9.86    3.11
  -2  -7 -21    4.15    2.49
   2  -7 -20   30.08    5.27
  -2  -7 -20   22.81    4.40
   2  -7 -19    6.57    2.67
  -2  -7 -19    4.83    1.57
   2  -7 -18   11.60    3.64
  -2  -7 -18   17.14    3.81
  -2  -7 -17    1.96    1.50
   2  -7 -17    6.12    2.17
  -2  -7 -16    8.02    2.86
   2  -7 -16   13.34    3.28
  -2  -7 -15   -0.09    1.14
   2  -7 -15   -0.68    1.63
   2  -7 -14   40.27    5.45
   2  -7 -14   55.57    6.59
  -2  -7 -14   59.79    6.59
   2   7 -13    8.10    2.65
  -2  -7 -13   13.17    3.24
   2  -7 -13   10.95    3.11
   2  -7 -13    8.80    2.62
   2  -7 -12   50.99    6.07
   2  -7 -12   48.13    6.19
  -2  -7 -12   60.10    6.38
   2   7 -12   58.29    6.52
  -2  -7 -11   45.06    5.38
   2  -7 -11   48.19    6.07
   2  -7 -11   39.87    5.13
  -2   7 -11   43.48    5.19
   2   7 -11   42.84    5.72
   2  -7 -10   41.93    5.49
  -2   7 -10   31.69    4.90
   2  -7 -10   38.58    5.10
  -2  -7 -10   32.60    4.53
   2   7 -10   29.33    4.59
  -2   7  -9   41.67    5.34
   2  -7  -9   31.70    4.91
   2  -7  -9   47.13    5.49
  -2  -7  -9   35.53    4.98
   2   7  -9   41.08    5.30
  -2   7  -8   97.82    8.00
   2  -7  -8  102.85    8.05
   2  -7  -8   95.53    8.23
  -2  -7  -8   99.66    7.42
   2   7  -8  110.94    8.59
   2   7  -7    1.78    1.90
  -2   7  -7    1.18    1.13
  -2  -7  -7    1.64    1.32
   2  -7  -7    1.30    1.42
   2  -7  -7    1.21    1.43
  -2  -7  -6  122.54    7.86
   2  -7  -6  123.01    9.13
   2  -7  -6  102.79    7.70
  -2   7  -6  114.13    8.47
   2   7  -6  109.41    8.48
   2  -7  -5   90.60    7.14
   2  -7  -5   93.61    8.04
   2   7  -5   96.27    8.07
  -2   7  -5   96.70    8.02
  -2  -7  -5  103.74    7.03
  -2  -7  -4    7.28    2.07
   2  -7  -4    7.46    2.51
   2   7  -4    8.01    3.13
   2  -7  -4    3.71    2.05
  -2   7  -4    6.07    1.89
  -2  -7  -3  205.42    9.13
   2  -7  -3  210.35   11.62
   2   7  -3  218.69   12.05
  -2   7  -3  227.66   11.97
   2  -7  -3  216.91   10.60
  -2  -7  -2   12.81    2.12
   2   7  -2   14.57    3.19
   2  -7  -2    9.22    2.38
   2  -7  -2   10.56    2.68
   2  -7  -1   15.72    2.92
  -2   7  -1   15.37    3.43
   2  -7  -1   13.34    2.95
   2   7  -1   18.84    3.59
  -2   7   0    1.72    1.45
   2  -7   0    3.79    0.95
   2   7   0    5.08    1.96
   2  -7   0    2.60    1.04
   2  -7   1   19.26    3.39
  -2   7   1   18.41    3.38
   2   7   1   12.15    3.02
   2  -7   1   20.89    3.14
   2  -7   2   13.67    2.51
  -2   7   2   14.78    3.10
   2   7   2   12.64    3.45
   2  -7   2   13.71    3.14
  -2   7   3  243.18   12.82
   2   7   3  220.56   12.17
   2  -7   3  202.00    8.96
   2  -7   3  212.53   11.25
  -2   7   4    7.30    3.05
   2  -7   4    8.20    2.27
   2   7   4    2.69    0.93
   2   7   5   93.75    7.97
  -2   7   5  114.07    8.79
   2  -7   5  106.36    8.03
   2   7   6  113.93    8.90
   2  -7   6  104.98    8.01
  -2   7   6  125.45    9.11
   2  -7   7    0.08    1.21
  -2   7   7    0.25    1.99
   2   7   7    3.95    2.13
   2   7   8  106.52    8.79
   2   7   8   86.44    7.77
   2  -7   8   90.12    7.50
  -2   7   8  105.87    8.67
   2   7   9   33.27    4.98
  -2   7   9   45.97    5.57
   2   7   9   42.57    5.47
   2  -7   9   37.27    4.63
  -2   7  10   35.80    5.24
   2   7  10   29.47    4.84
   2  -7  10   35.61    4.59
   2   7  10   34.43    4.96
  -2   7  11   35.81    5.09
   2   7  11   42.04    6.00
   2   7  11   37.47    5.16
   2  -7  11   42.29    5.08
   2   7  12   51.07    6.32
  -2   7  12   51.26    6.18
   2   7  12   52.27    6.38
   2   7  13   13.21    3.56
  -2   7  13    9.66    2.84
   2   7  13   11.36    3.58
   2   7  14   52.71    6.57
  -2   7  14   53.89    6.50
   2   7  15    0.80    1.74
   2   7  15   -0.78    1.23
  -2   7  15    0.85    1.07
  -2   7  16    4.50    2.16
   2   7  16   11.10    3.32
   2   7  16    7.16    2.98
   2   7  17    1.65    1.50
   2   7  17    3.43    2.22
  -2   7  17    5.12    1.64
   2   7  18   14.56    3.39
  -2   7  18   11.09    3.03
   2   7  18   17.92    4.07
   2   7  19    3.96    2.61
  -2   7  19    1.22    2.32
   2   7  19    4.75    2.11
  -2   7  19    7.75    3.03
  -2   7  20   23.98    4.78
   2   7  20   21.71    4.76
   2   7  20   22.48    4.69
  -2   7  20   30.88    5.16
  -2   7  21    1.46    1.53
   2   7  21    2.07    1.89
  -2   7  22   -0.22    1.45
  -2   7  22   -3.43    3.55
   2   7  22    0.62    1.34
   2   7  23    1.03    1.39
  -2   7  23    1.57    1.11
  -2   7  24    0.60    2.20
   2   7  24    0.41    2.12
   2  -8 -22    6.35    2.40
  -2  -8 -22    3.79    2.61
  -2  -8 -21    3.31    1.61
   2  -8 -21   -0.47    2.11
  -2  -8 -20    2.24    1.60
   2  -8 -20    3.49    1.38
   2  -8 -19    3.24    2.17
  -2  -8 -19    8.22    1.97
   2  -8 -18    0.28    1.48
  -2  -8 -18   -1.65    1.75
   2  -8 -17   18.31    3.83
  -2  -8 -17   18.65    4.27
   2  -8 -16   12.39    3.27
  -2  -8 -16   10.14    2.50
   2  -8 -15    1.38    2.05
  -2  -8 -15    3.19    1.62
  -2  -8 -14    1.07    1.65
   2  -8 -14    0.87    1.32
  -2  -8 -13   19.43    4.14
   2  -8 -13   11.00    2.83
   2  -8 -13   17.24    3.59
   2  -8 -12    0.77    1.82
   2   8 -12    3.37    2.38
  -2  -8 -12    2.80    1.74
   2  -8 -12    1.06    1.26
   2  -8 -11    4.80    2.17
   2   8 -11   -0.12    1.15
  -2  -8 -11    0.49    1.53
  -2   8 -11    5.06    3.05
   2  -8 -11   -1.95    1.77
  -2   8 -10    9.83    3.19
   2   8 -10    4.17    2.22
  -2  -8 -10    5.74    2.62
   2  -8 -10    8.64    3.03
   2  -8 -10    6.82    2.31
  -2  -8  -9   35.77    4.71
   2  -8  -9   31.25    4.90
   2   8  -9   36.05    5.30
   2  -8  -9   28.85    4.52
  -2   8  -9   39.11    5.60
   2  -8  -8    4.71    1.68
   2  -8  -8    1.64    1.39
   2   8  -8    3.68    1.55
  -2  -8  -8    1.60    1.21
  -2   8  -8    4.25    2.16
   2  -8  -7   38.41    5.49
   2   8  -7   37.37    5.48
  -2   8  -7   45.92    5.98
  -2  -8  -7   48.40    5.69
   2  -8  -7   40.70    5.20
  -2   8  -6   15.80    3.96
   2  -8  -6    8.20    2.50
   2  -8  -6   13.17    3.49
   2   8  -6   12.25    3.20
   2  -8  -5   15.94    3.47
  -2   8  -5    9.59    3.14
   2   8  -5   18.05    3.98
   2  -8  -5   16.71    3.27
   2   8  -4   49.48    6.09
  -2   8  -4   41.40    5.37
   2  -8  -4   48.53    5.94
   2  -8  -4   39.06    4.81
   2   8  -3  136.33   10.01
  -2   8  -3  146.98   10.49
   2  -8  -3  117.57    8.42
   2  -8  -3  131.61    9.81
  -2   8  -2    2.23    2.44
   2   8  -2    2.93    1.42
   2  -8  -2    1.81    1.19
   2  -8  -2    2.29    1.12
  -2   8  -1    5.08    2.11
   2   8  -1   12.50    3.16
   2  -8  -1    5.57    3.04
   2   8   0    9.34    2.83
  -2   8   0    3.94    1.97
   2  -8   0    5.77    2.02
  -2   8   1    9.43    3.10
   2  -8   1    6.13    2.24
   2   8   1   11.61    2.76
   2  -8   2   -0.34    0.99
  -2   8   2    3.01    1.31
   2   8   2    3.24    1.36
   2   8   3  130.43   10.12
   2  -8   3  129.70    9.40
  -2   8   3  147.39   10.47
  -2   8   4   51.47    6.08
   2  -8   4   46.31    5.81
   2   8   4   50.79    6.30
  -2   8   5   15.10    3.81
   2   8   5   11.81    3.07
   2  -8   5   17.55    3.52
  -2   8   6   10.19    2.92
   2   8   6   10.43    2.81
   2   8   6    9.74    3.09
   2  -8   6   11.46    2.88
  -2   8   7   33.29    5.37
   2   8   7   32.73    5.18
   2   8   7   31.10    4.92
   2  -8   7   34.18    5.12
  -2   8   8    1.22    1.65
   2   8   8    0.64    1.51
   2  -8   8    3.63    1.92
   2   8   8    1.07    1.27
   2   8   9   33.74    5.56
   2   8   9   29.04    4.68
  -2   8   9   32.10    5.41
   2  -8   9   22.84    3.94
   2   8  10    7.92    2.23
  -2   8  10    5.30    1.73
   2   8  10    6.44    2.66
   2  -8  10    5.41    2.38
   2   8  11    3.51    2.06
  -2   8  11    1.19    1.71
   2   8  11    4.46    2.73
  -2   8  12    1.23    1.71
   2   8  12   -0.71    1.77
   2   8  12   -1.26    1.72
   2   8  13   14.04    3.69
  -2   8  13   18.51    3.94
   2   8  13   18.91    3.94
  -2   8  14    4.03    1.07
   2   8  14    1.21    1.44
   2   8  14    3.01    1.59
   2   8  15    1.45    2.60
  -2   8  15   -1.00    1.82
   2   8  15   -0.02    1.51
   2   8  16   15.76    3.88
   2   8  16   14.22    3.59
  -2   8  16   15.52    3.53
  -2   8  17   11.78    3.06
   2   8  17   16.03    3.90
   2   8  17   17.63    4.55
  -2   8  18    0.60    1.38
   2   8  18   -0.36    1.50
  -2   8  18   -0.96    2.08
   2   8  18   -2.48    2.69
  -2   8  19    9.82    3.12
   2   8  19    5.92    2.40
  -2   8  19    7.23    3.08
   2   8  19    7.29    3.24
   2   8  20    3.56    2.40
  -2   8  20    2.19    1.52
   2   8  20    4.06    2.63
  -2   8  20   -0.26    1.22
  -2   8  21    2.31    1.57
   2   8  21    0.57    1.91
  -2   8  22   14.22    4.98
   2   8  22    7.05    3.25
  -2   8  22    6.52    2.96
  -2  -9 -19    2.86    2.29
   2  -9 -19    2.59    2.78
   2  -9 -18    2.61    2.05
  -2  -9 -18    1.71    1.46
   2  -9 -17   -1.33    1.62
  -2  -9 -17    0.21    2.49
  -2  -9 -16    3.20    2.90
   2  -9 -16    6.59    2.89
  -2  -9 -15    3.92    2.80
   2  -9 -15    1.39    1.76
   2  -9 -14   -0.10    2.33
  -2  -9 -14    5.58    3.02
  -2  -9 -13    2.39    2.37
   2  -9 -13    2.20    2.47
   2   9 -12    2.27    2.35
   2  -9 -12    2.48    2.26
   2  -9 -12   -0.80    1.91
   2  -9 -11   -1.12    1.73
   2  -9 -11    1.93    1.52
   2   9 -11    1.81    1.40
   2   9 -10    1.27    2.06
   2  -9 -10    2.17    1.78
   2   9  -9   -0.30    2.07
   2  -9  -9    3.37    2.86
  -2   9  -9    3.34    2.31
   2  -9  -9    1.25    2.16
   2  -9  -8    0.90    1.35
   2   9  -8    2.62    2.40
  -2   9  -8   -1.46    1.75
   2  -9  -8    4.40    2.57
   2   9  -7    1.00    2.09
   2  -9  -7    1.45    1.23
  -2   9  -7   -0.06    1.00
  -2   9  -6    8.61    2.74
   2  -9  -6   12.94    3.08
   2   9  -6    9.70    3.01
   2  -9  -5    8.31    2.85
  -2   9  -5    4.24    2.21
   2   9  -5    9.89    3.23
  -2   9  -4    8.68    3.15
   2  -9  -4    5.33    2.55
   2   9  -4   10.86    3.10
  -2   9  -3   18.14    4.12
   2  -9  -3   12.68    3.22
   2   9  -3   13.72    3.03
   2   9  -2    5.60    2.25
  -2   9  -2    1.32    1.41
  -2   9  -1    2.91    2.29
   2   9  -1   -0.61    1.25
   2  -9   0    4.11    1.48
  -2   9   0    7.57    2.13
   2   9   1    2.04    1.08
   2  -9   1    2.73    1.46
  -2   9   1    5.81    1.99
  -2   9   2    4.04    1.74
   2   9   2    3.66    1.69
   2  -9   2    8.95    2.90
  -2   9   3   11.20    3.11
   2   9   3   10.85    2.78
   2  -9   3   12.31    2.97
  -2   9   4    6.15    2.17
   2   9   4    9.50    3.28
   2   9   4    4.16    2.49
   2  -9   4   12.99    3.45
   2   9   5   12.65    3.80
   2   9   5    9.30    3.44
  -2   9   5    8.05    2.83
   2  -9   5    9.94    2.55
   2  -9   6   10.61    2.94
  -2   9   6    6.89    2.61
   2   9   6    6.87    2.75
   2   9   6   11.43    3.50
  -2   9   7   -1.96    1.31
   2  -9   7    1.09    1.28
   2   9   7   -0.26    1.90
   2   9   7    1.59    1.61
   2  -9   8    0.55    1.07
   2   9   8    1.03    0.90
  -2   9   8    0.43    1.85
   2   9   8    0.07    1.38
   2   9   9    0.30    1.59
   2   9   9    1.03    1.86
  -2   9   9   -0.02    1.50
   2  -9   9    0.39    1.66
  -2   9  10   11.19    3.53
   2   9  10    5.12    1.98
   2   9  10    9.89    3.23
  -2   9  11    3.98    2.50
   2   9  11    3.53    2.44
   2   9  11    2.32    2.69
   2   9  12    0.36    2.14
  -2   9  12    3.38    2.64
   2   9  12    1.49    1.69
   2   9  13    5.05    2.58
   2   9  13   -0.81    1.49
  -2   9  13    4.65    1.73
   2   9  14    5.01    2.25
  -2   9  14    8.58    3.43
   2   9  14    4.81    2.48
   2   9  15    3.93    2.83
   2   9  15   -0.40    1.28
  -2   9  15   -0.09    1.54
   2   9  16    2.20    1.60
  -2   9  16    0.39    1.38
   2   9  16    0.86    1.84
   2   9  17   -0.57    1.89
  -2   9  17   -2.28    2.58
  -2   9  17    1.56    2.13
   2   9  17    2.27    3.25
   2   9  18    1.39    1.16
   2   9  18    1.25    2.27
  -2   9  18    0.41    1.23
  -2   9  18    1.21    2.02
  -2   9  19    6.12    3.25
   2   9  19    5.28    1.98
  -2   9  19    2.38    2.34
   2 -10 -16    0.03    2.22
   2  10 -11   14.58    4.30
   2  10 -10    7.40    3.03
  -2  10  -9   12.38    4.06
   2  10  -9   13.30    3.58
   2 -10  -9   11.40    3.33
   2 -10  -8    5.06    2.82
   2  10  -8    3.36    1.32
  -2  10  -8    5.75    2.00
  -2  10  -7   42.19    6.04
   2  10  -7   36.64    5.95
   2 -10  -7   35.46    5.47
  -2  10  -6    2.87    1.94
   2 -10  -6    6.57    2.39
   2  10  -6    7.80    2.60
  -2  10  -5    2.96    1.97
   2  10  -5    3.60    2.24
   2 -10  -5    5.78    2.63
   2  10  -4   10.39    3.41
   2 -10  -4   12.21    3.38
  -2  10  -4   11.48    3.41
   2  10  -3   20.96    4.50
  -2  10  -3   23.53    4.33
   2  10  -3   18.22    4.11
   2 -10  -3   30.66    5.24
   2  10  -2   10.36    3.67
  -2  10  -2   14.47    3.72
   2 -10  -2    7.79    2.95
   2  10  -2   13.10    3.36
   2 -10  -1    3.25    2.19
   2  10  -1    5.21    2.48
   2  10  -1    3.19    2.23
  -2  10  -1    2.23    2.40
   2  10   0    1.85    1.71
  -2  10   0   -0.32    1.63
   2 -10   0    1.38    1.67
   2  10   0    2.33    1.34
   2 -10   1    3.39    2.44
  -2  10   1    0.71    1.70
   2  10   1    3.67    2.92
   2  10   1    5.85    3.50
   2  10   2    6.86    2.52
   2 -10   2    4.96    2.11
   2  10   2   10.49    3.24
  -2  10   2    4.74    2.40
  -2  10   3   23.63    4.54
   2  10   3   20.94    4.49
   2  10   3   23.63    4.83
   2 -10   3   16.08    4.25
  -2  10   4    9.28    3.11
   2  10   4   17.19    4.44
   2  10   4    6.22    1.82
   2 -10   4   10.22    3.43
   2 -10   5    5.86    2.66
   2  10   5    5.39    2.83
  -2  10   5    5.66    3.16
   2  10   5    3.91    2.68
   2  10   6   12.52    3.65
   2  10   6    6.33    2.57
   2 -10   6    4.28    1.99
  -2  10   6   11.05    3.39
   2 -10   7   34.48    5.74
  -2  10   7   47.90    6.60
   2  10   7   42.04    6.33
  -2  10   8    3.56    2.70
   2  10   8    5.97    2.88
   2  10   8    6.47    3.26
   2  10   9   10.09    3.29
   2  10   9    6.42    2.70
  -2  10   9   13.28    3.40
   2  10  10    6.16    2.89
  -2  10  10    3.99    3.54
   2  10  10    4.91    2.08
  -2  10  11   10.52    3.54
   2  10  11    8.75    2.77
   2  10  11    8.93    2.84
  -2  10  12    4.53    2.57
   2  10  12    2.83    1.84
   2  10  12    2.03    1.92
   2  10  13   16.26    3.72
  -2  10  13   14.55    3.70
   2  10  13   18.57    4.17
  -2  10  14    5.08    2.79
   2  10  14    5.15    2.26
   2  10  14    3.23    1.92
   2  10  15    6.72    2.23
   2  10  15    3.50    2.03
  -2  10  15    3.94    1.50
  -2  10  16    1.73    1.76
   2  10  16    1.25    1.34
  -2  10  16    6.20    3.02
   2  10  16    0.70    2.41
   2  11 -10    2.33    1.62
   2  11  -9    2.68    3.12
  -2  11  -8   -2.25    1.91
   2  11  -8    4.11    2.35
  -2  11  -7    1.31    2.79
   2  11  -7    0.59    2.76
  -2  11  -6    0.39    1.57
   2  11  -6    1.68    1.71
   2 -11  -6    5.08    2.39
   2  11  -5   -0.97    1.95
  -2  11  -5    0.60    2.06
   2 -11  -5    1.21    1.19
  -2  11  -4    2.11    1.40
   2  11  -4    1.16    2.65
   2 -11  -4    2.54    1.51
   2 -11  -3    2.38    1.50
  -2  11  -3    1.17    1.87
   2  11  -3    4.14    2.11
   2  11  -2    6.74    4.30
   2 -11  -2    1.44    1.80
   2  11  -2   -0.84    1.73
  -2  11  -2    3.77    2.61
   2 -11  -1    6.46    3.18
   2  11  -1    0.17    1.38
   2  11  -1    7.05    3.41
  -2  11  -1    4.89    2.75
   2  11   0   -1.18    1.57
  -2  11   0   -1.72    2.22
   2 -11   0    1.39    2.19
   2  11   0    0.08    1.48
  -2  11   1    2.38    3.05
   2  11   1    4.10    2.18
   2  11   1    3.23    1.25
   2 -11   1    3.90    2.99
   2  11   2    1.03    1.99
   2 -11   2   -2.60    2.40
   2  11   2   -1.42    1.94
  -2  11   2    2.41    1.58
   2 -11   3    4.84    2.74
   2  11   3    3.33    1.20
   2  11   3    1.91    1.65
  -2  11   3    5.71    3.01
  -2  11   4   -1.02    1.27
   2  11   4    1.83    2.21
   2 -11   4    3.97    2.51
   2  11   4    3.10    1.91
   2 -11   5    2.31    2.50
   2  11   5    0.02    1.62
  -2  11   5   -2.34    2.63
   2  11   5   -3.74    2.50
  -2  11   6    4.93    2.60
   2  11   6    2.74    2.59
   2  11   6    3.34    2.34
   2  11   7   -0.65    1.40
  -2  11   7    1.68    1.97
   2  11   7    2.29    1.88
   2  11   8    4.01    2.82
  -2  11   8    3.68    2.57
   2  11   8    0.33    1.59
   2  11   9    4.85    3.15
   2  11   9   -1.52    1.89
  -2  11   9   -2.87    2.62
   2  11  10    4.09    2.22
   2  11  10    1.58    1.70
  -2  11  10    0.93    2.84
   3   0 -30   -2.07    2.34
   3   0 -29   -0.69    1.59
   3   0 -28   -1.65    1.90
   3   0 -27   -1.26    1.20
   3   0 -26    0.44    1.97
   3   0 -25    1.25    1.56
   3   0 -24   -0.27    0.98
   3   0 -23   -1.06    0.93
   3   0 -22    1.33    1.16
   3   0 -21   -1.19    1.23
   3   0 -20    1.16    1.74
   3   0 -19    0.89    0.76
   3   0 -18   -0.05    0.82
   3   0 -17    0.08    1.27
   3   0 -16   -0.41    1.06
   3   0 -15    0.29    0.81
   3   0 -14    0.46    0.95
   3   0 -13    0.15    0.55
   3   0 -12   -0.14    0.68
   3   0 -12   -0.04    0.41
   3   0 -11   -0.39    0.40
   3   0 -11    1.15    0.71
   3   0 -10   -0.02    0.66
   3   0 -10    0.35    0.51
   3   0  -9    0.50    0.69
   3   0  -9   -0.20    0.26
   3   0  -8   -0.18    0.40
   3   0  -8    0.32    0.50
   3   0  -7    0.28    0.25
   3   0  -7   -0.06    0.42
   3   0  -6   -0.39    0.60
   3   0  -6    0.25    0.47
   3   0  -6    0.02    0.27
   3   0  -5    0.39    0.30
   3   0  -5   -0.42    0.37
   3   0  -5   -0.83    0.64
   3   0  -4   -0.10    0.62
   3   0  -4    0.44    0.49
   3   0  -4    0.80    0.39
   3   0  -3    0.24    0.29
   3   0  -3   -0.17    0.45
   3   0  -3    0.25    0.54
   3   0  -2   -0.29    0.39
   3   0  -2    0.51    0.46
   3   0  -2    0.54    0.45
   3   0  -1   -0.30    0.36
   3   0  -1    0.14    0.37
   3   0  -1    0.03    0.33
   3   0   0    0.03    0.19
   3   0   0    0.16    0.33
   3   0   1    0.39    0.41
   3   0   1    0.58    0.32
   3   0   2   -0.20    0.26
   3   0   2   -0.13    0.39
   3   0   3    0.60    0.44
   3   0   3   -0.24    0.24
   3   0   4   -0.22    0.27
   3   0   4    0.05    0.18
   3   0   5    0.25    0.22
   3   0   5    0.18    0.32
   3   0   6    0.11    0.29
   3   0   6    0.24    0.29
   3   0   7    0.25    0.62
   3   0   7   -0.16    0.28
   3   0   8    0.09    0.20
   3   0   8    0.52    0.56
   3   0   9   -0.12    0.21
   3   0   9    0.08    0.55
   3   0  10   -0.09    0.84
   3   0  11   -0.30    0.51
   3   0  12    0.43    0.98
   3   0  13    0.04    0.61
  -3   0  14    0.37    0.56
   3   0  14   -0.23    0.37
   3   0  15    0.01    0.43
  -3   0  15   -0.05    0.47
  -3   0  16   -0.17    0.53
   3   0  16   -0.12    0.72
   3   0  17   -0.09    0.60
  -3   0  17    0.32    0.54
   3   0  18    0.46    1.01
   3   0  19   -0.14    0.95
   3   0  20   -0.17    0.98
   3   0  21    0.14    0.69
   3  -1 -30    4.31    2.90
   3  -1 -29   13.01    3.61
   3  -1 -28   13.24    4.06
   3   1 -28   12.88    4.01
   3  -1 -27   16.28    3.83
   3   1 -27   13.38    3.70
   3   1 -26    9.77    3.22
   3  -1 -26    8.57    3.10
   3  -1 -25   17.27    3.84
   3   1 -25   11.85    2.84
   3   1 -24   14.55    3.34
   3  -1 -24   16.81    3.74
   3   1 -23   89.31    8.28
   3  -1 -23   87.88    7.97
   3  -1 -22   19.50    3.85
  -3  -1 -22   23.19    3.99
   3   1 -22   21.78    4.13
  -3  -1 -21    6.03    2.31
   3   1 -21    5.22    1.82
   3  -1 -21    3.65    1.82
   3  -1 -20   34.69    4.62
  -3  -1 -20   37.15    5.12
   3   1 -20   26.42    3.89
   3   1 -19   85.09    6.95
  -3  -1 -19   80.22    7.32
   3  -1 -19   88.82    7.65
   3   1 -18   10.32    2.49
  -3  -1 -18    9.28    2.43
   3  -1 -18    9.06    2.09
   3   1 -17  107.92    7.31
   3  -1 -17  114.49    8.08
  -3  -1 -17  118.17    8.27
  -3  -1 -16   40.71    4.67
   3   1 -16   33.43    4.17
   3  -1 -16   39.15    4.59
  -3  -1 -15   17.04    3.14
   3   1 -15   19.40    3.11
   3  -1 -15   12.93    2.67
   3   1 -14   44.75    4.31
   3  -1 -14   46.68    4.95
   3  -1 -14   55.59    4.22
  -3  -1 -14   55.23    5.13
   3   1 -13  334.40   11.39
   3  -1 -13  323.82   12.19
   3  -1 -13  338.10   10.24
  -3  -1 -13  343.96   12.59
  -3  -1 -12  248.29   10.39
   3  -1 -12  244.98    8.59
   3   1 -12  221.52    8.08
   3  -1 -12  229.07   10.29
   3   1 -12  249.42    9.57
   3  -1 -11   48.32    4.46
  -3  -1 -11   46.61    4.26
   3   1 -11   51.29    3.77
   3   1 -11   46.66    3.94
   3  -1 -11   47.77    3.68
   3  -1 -10  153.13    6.41
   3  -1 -10  147.32    7.55
  -3  -1 -10  144.24    7.41
   3   1 -10  132.12    5.97
   3   1 -10  138.92    6.51
  -3  -1  -9  418.79   12.22
   3  -1  -9  430.92   12.48
   3   1  -9  450.38   11.05
   3   1  -9  462.53   10.78
   3  -1  -9  434.70   10.54
  -3  -1  -8  129.08    6.49
   3  -1  -8  118.61    6.30
   3  -1  -8  129.42    5.66
   3   1  -8  135.93    5.78
   3   1  -8  130.16    5.68
   3   1  -7  269.28    4.37
   3   1  -7  248.67    7.55
   3  -1  -7  267.61    7.85
   3  -1  -7  260.20    8.99
   3   1  -7  260.19    7.80
   3   1  -6  745.80    7.84
   3   1  -6  772.19   12.10
   3  -1  -6  773.97   13.11
   3   1  -6  751.34   12.90
   3  -1  -5   46.81    3.62
   3   1  -5   46.28    3.17
   3   1  -5   51.76    2.17
   3   1  -5   42.86    2.74
   3  -1  -5   48.27    3.22
   3   1  -4  528.18    8.94
   3  -1  -4  474.42   11.01
   3  -1  -4  514.78   10.28
   3   1  -4  485.71   10.48
   3   1  -4  515.11    7.32
   3   1  -3 2442.24   18.69
   3   1  -3 2493.52   22.38
   3   1  -3 2519.49   17.34
   3  -1  -3 2460.82   23.86
   3  -1  -3 2493.24   22.13
   3   1  -2  982.70   11.35
   3   1  -2  956.09   13.76
   3  -1  -2  962.55   13.90
   3   1  -2  979.37   11.46
   3  -1  -1  547.75   10.16
   3   1  -1  561.79    9.18
   3   1  -1  530.02   10.03
   3  -1  -1  558.26   10.85
   3  -1   0  535.58   10.10
   3   1   0  527.71    9.43
   3   1   0  539.99    9.92
   3  -1   0  540.12   10.45
   3  -1   1  561.61   10.38
   3   1   1  572.56   10.22
   3   1   1  563.64   10.10
   3  -1   2  999.19   13.98
   3   1   2  968.73   13.04
   3   1   2  976.06   13.83
   3   1   3 2504.55   20.96
   3  -1   3 2496.92   22.61
   3  -1   4  510.29   10.33
   3   1   4  480.54    9.28
   3   1   4  515.09   10.86
   3  -1   5   53.22    3.34
   3   1   5   55.78    3.09
   3   1   5   45.93    3.40
   3   1   6  734.00   14.15
   3   1   6  763.62   11.57
   3  -1   6  769.65   13.03
   3   1   7  275.78    8.85
   3   1   7  257.97    6.73
   3  -1   7  263.69    7.96
   3  -1   8  124.11    5.57
   3   1   8  135.37    4.87
   3   1   8  124.79    6.07
   3   1   9  457.68    8.97
   3  -1   9  444.05   10.82
   3   1   9  434.80   11.80
   3   1  10  136.61    6.89
   3  -1  10  142.39    6.25
   3   1  10  130.64    4.97
   3   1  11   46.54    2.91
   3   1  11   50.57    4.17
   3  -1  11   44.10    3.66
   3  -1  12  246.20    8.78
   3   1  12  243.42    9.62
   3   1  12  237.56    6.61
   3   1  13  322.72    7.85
   3  -1  13  313.58   10.32
   3   1  13  315.26   11.31
   3   1  14   53.17    4.85
   3   1  14   53.77    3.18
   3  -1  14   52.39    4.32
   3  -1  15   17.94    2.54
   3   1  15   14.33    1.67
   3   1  15   15.37    2.53
   3  -1  16   40.43    3.99
  -3   1  16   32.22    3.52
   3   1  16   38.99    4.35
   3   1  17  109.58    7.33
   3  -1  17   90.71    6.30
  -3   1  17  115.45    6.74
   3   1  18    7.67    2.14
   3  -1  18    7.92    1.71
  -3   1  18    6.58    1.57
  -3   1  19   81.71    5.77
   3   1  19   81.71    6.85
   3  -1  19   76.34    5.84
   3   1  20   35.51    4.71
   3   1  21    2.48    1.49
   3   1  22   25.27    4.24
   3  -2 -30    0.21    1.98
   3  -2 -29    8.45    2.72
   3  -2 -28   -1.54    1.54
   3  -2 -27   10.44    3.31
   3  -2 -26    3.25    2.57
  -3  -2 -25    2.99    1.00
   3  -2 -25   -0.95    0.99
  -3  -2 -24    5.21    2.46
   3   2 -24    4.52    2.62
   3  -2 -24    4.23    1.90
   3  -2 -23   11.33    3.02
  -3  -2 -23   13.67    3.20
   3   2 -23   11.75    3.10
  -3  -2 -22    2.62    1.06
   3   2 -22    3.91    1.80
   3  -2 -22    3.32    1.62
  -3  -2 -21   24.49    4.30
   3   2 -21   24.95    3.95
   3  -2 -21   17.42    3.44
   3   2 -20    8.33    2.72
  -3  -2 -20    5.58    1.74
   3  -2 -20   12.30    3.05
   3  -2 -19    9.19    2.13
  -3  -2 -19   11.61    2.85
   3   2 -19   13.11    2.83
  -3  -2 -18    2.05    0.91
   3   2 -18    2.95    0.78
   3   2 -17    0.85    1.17
  -3  -2 -17    0.92    1.78
   3  -2 -17   -0.13    0.98
  -3  -2 -16   12.17    2.52
   3   2 -16   13.31    2.56
   3  -2 -16   13.57    2.70
   3   2 -16   14.36    2.41
   3   2 -15   27.72    3.46
   3   2 -15   25.61    3.09
   3  -2 -15   23.07    3.33
   3  -2 -15   31.07    4.21
  -3  -2 -15   23.96    3.71
   3  -2 -14    1.87    1.10
   3  -2 -14    2.12    0.90
  -3  -2 -14    0.86    1.23
   3   2 -14    2.62    1.30
   3   2 -14    2.18    1.05
   3   2 -13    0.81    0.66
  -3  -2 -13   -0.04    0.97
   3  -2 -13    3.10    1.69
   3   2 -13    0.93    0.81
   3  -2 -13    0.34    0.51
   3   2 -12   28.44    3.01
   3  -2 -12   32.56    3.92
   3   2 -12   29.54    3.02
   3  -2 -12   29.32    3.34
  -3  -2 -12   29.91    3.79
   3  -2 -11  142.47    7.39
  -3  -2 -11  150.10    8.07
   3   2 -11  160.77    6.74
   3  -2 -11  141.18    8.23
   3   2 -11  155.47    6.85
  -3   2 -10   40.79    2.08
   3   2 -10   46.69    3.52
  -3  -2 -10   47.51    4.36
   3   2 -10   51.19    3.88
   3  -2 -10   48.77    4.64
   3  -2 -10   45.03    3.95
   3  -2  -9   10.27    2.14
   3   2  -9   13.57    1.62
  -3  -2  -9   13.90    2.37
  -3   2  -9   14.14    1.30
   3   2  -9   14.62    2.07
   3  -2  -9   15.30    2.38
   3  -2  -8   43.52    3.74
  -3   2  -8   48.47    2.63
   3  -2  -8   46.20    4.14
   3   2  -8   48.36    3.10
  -3  -2  -8   48.29    4.18
   3   2  -8   47.94    3.67
  -3  -2  -7   28.68    3.07
  -3   2  -7   27.42    2.09
   3  -2  -7   28.25    3.03
   3   2  -7   30.77    2.27
   3  -2  -7   32.08    3.39
   3   2  -7   25.98    1.43
   3   2  -7   30.11    2.97
   3   2  -6  148.87    6.29
   3   2  -6  140.31    3.82
   3  -2  -6  146.40    6.67
  -3  -2  -6  134.66    6.28
   3   2  -6  149.69    4.56
   3  -2  -6  145.85    7.02
   3  -2  -5  158.11    7.13
   3   2  -5  175.93    6.84
   3   2  -5  184.25    4.75
   3   2  -5  181.94    4.49
  -3  -2  -5  179.96    6.79
   3  -2  -5  175.13    7.12
   3   2  -4   29.46    2.07
  -3  -2  -4   32.02    2.71
   3   2  -4   32.84    2.93
   3   2  -4   29.45    1.75
   3  -2  -4   28.91    2.95
   3  -2  -4   28.65    2.83
   3   2  -3 1069.19   10.18
   3   2  -3 1065.23   13.18
   3   2  -3 1068.20   16.44
   3  -2  -3 1059.36   17.21
   3  -2  -3 1053.77   17.30
   3   2  -2  507.63   11.55
   3  -2  -2  527.08   11.91
   3  -2  -2  526.11   11.92
   3   2  -2  528.95    9.78
   3  -2  -1  216.77    7.50
   3  -2  -1  227.91    7.65
   3   2  -1  227.28    6.71
   3  -2   0  207.10    7.28
   3   2   0  210.22    6.83
   3   2   0  218.89    7.52
   3  -2   0  208.69    7.24
   3  -2   1  219.24    7.26
   3   2   1  209.98    7.34
   3   2   1  218.19    7.19
   3  -2   1  221.87    7.43
   3   2   2  515.43   11.37
   3  -2   2  511.31   11.35
   3  -2   2  531.79   11.21
   3   2   2  525.75   11.66
   3  -2   3 1060.55   16.30
   3   2   3 1035.71   16.86
   3   2   3 1068.74   16.56
   3   2   4   31.69    2.83
   3   2   4   32.10    3.02
   3  -2   4   33.87    2.92
   3  -2   5  175.45    6.68
   3   2   5  169.21    7.18
   3   2   5  181.92    6.85
   3  -2   6  145.60    6.18
   3   2   6  144.22    6.82
   3   2   6  137.45    5.99
   3   2   7   25.49    2.97
   3   2   7   25.45    2.58
   3  -2   7   28.40    2.81
   3   2   8   53.12    3.75
   3   2   8   45.06    3.95
   3  -2   8   49.49    3.66
   3  -2   9   13.68    1.96
   3   2   9   10.27    1.76
   3   2   9   12.48    2.14
   3   2  10   49.00    4.44
   3  -2  10   47.35    3.72
   3   2  10   49.94    3.75
   3   2  11  153.81    6.73
   3  -2  11  153.76    6.83
   3  -2  12   26.70    2.97
   3   2  12   23.47    2.59
   3   2  12   28.82    3.48
   3  -2  13    0.79    0.51
   3   2  13    0.69    0.59
   3   2  13    0.52    0.92
   3  -2  14    2.20    0.65
   3   2  14    1.85    1.09
   3   2  14    2.27    1.47
   3   2  15   22.89    2.67
   3  -2  15   19.74    2.70
   3   2  16   10.69    1.94
   3  -2  16   15.14    2.47
   3   2  16   12.72    2.64
   3   2  17    0.14    0.68
   3   2  17    2.79    1.15
   3  -2  17    0.95    1.07
   3   2  18    0.80    0.74
   3  -2  18    1.95    1.28
  -3   2  18   -0.10    0.79
  -3   2  19   13.97    2.78
   3   2  19   12.93    2.83
  -3   2  20    5.37    1.83
   3   2  20    7.54    2.36
   3   2  21   25.56    4.13
   3   2  22   -0.11    1.47
   3   2  23   13.07    3.13
   3  -3 -29   38.79    6.01
   3  -3 -28   22.03    4.52
   3  -3 -27   36.01    5.44
  -3  -3 -27   23.13    4.19
   3  -3 -26   32.23    5.28
  -3  -3 -26   17.18    3.82
  -3  -3 -25   31.21    5.09
   3  -3 -25   25.12    4.59
   3  -3 -24    6.83    3.04
  -3  -3 -24    1.35    0.87
  -3  -3 -23   41.53    5.57
   3  -3 -23   55.59    6.70
   3  -3 -22   11.18    2.94
  -3  -3 -22    8.88    2.96
   3  -3 -21    5.11    2.65
  -3  -3 -21    1.72    1.21
   3  -3 -20    5.48    2.13
  -3  -3 -20    4.62    1.85
  -3  -3 -19   42.36    5.41
   3  -3 -19   42.99    5.33
   3  -3 -18   62.20    6.31
  -3  -3 -18   58.99    6.23
   3   3 -18   70.06    6.24
   3  -3 -17   47.05    5.61
  -3  -3 -17   50.82    5.79
   3   3 -17   48.25    4.82
   3  -3 -16   31.95    4.27
  -3  -3 -16   40.17    4.69
   3   3 -16   40.25    4.28
   3  -3 -16   39.04    4.98
   3   3 -16   28.84    3.65
   3  -3 -15   72.37    6.13
  -3  -3 -15   69.33    6.49
   3   3 -15   70.44    5.20
   3   3 -15   76.26    5.45
   3  -3 -15   75.05    6.54
   3  -3 -14   19.27    3.09
   3   3 -14   19.92    2.81
  -3  -3 -14   12.56    2.90
   3   3 -14   13.01    2.13
   3  -3 -14   19.68    3.37
   3  -3 -13  271.01   11.37
   3   3 -13  271.81   10.15
   3  -3 -13  301.58   12.70
   3   3 -13  292.59    9.47
  -3  -3 -12  464.22   14.97
   3   3 -12  483.26   11.50
   3  -3 -12  473.51   15.76
  -3   3 -12  438.74    8.93
   3  -3 -12  452.25   14.73
   3   3 -12  492.05   13.65
  -3   3 -11   47.72    3.10
   3   3 -11   43.27    3.25
   3  -3 -11   50.39    4.77
   3  -3 -11   37.97    4.53
  -3  -3 -11   52.35    4.78
   3   3 -11   46.79    4.14
  -3   3 -10  153.90    5.87
   3   3 -10  158.26    7.51
  -3  -3 -10  156.01    8.26
   3   3 -10  155.66    5.57
   3  -3 -10  170.92    8.55
   3  -3 -10  156.74    8.63
  -3   3  -9  741.05   13.23
   3   3  -9  746.43   11.07
   3  -3  -9  766.73   18.43
   3   3  -9  722.38   16.15
  -3  -3  -9  731.51   17.14
   3  -3  -9  736.94   17.53
   3   3  -8   21.99    2.83
  -3   3  -8   21.92    2.37
   3   3  -8   24.15    1.79
   3   3  -8   24.15    1.76
  -3  -3  -8   22.41    2.89
   3  -3  -8   26.11    3.30
   3  -3  -8   27.80    3.41
   3  -3  -7  554.19   14.96
  -3  -3  -7  553.87   13.93
   3   3  -7  526.21   13.31
  -3   3  -7  568.06   11.99
   3  -3  -7  531.53   14.71
   3   3  -7  528.60    7.16
   3   3  -7  537.47    9.18
  -3   3  -6  652.80   13.10
  -3  -3  -6  635.40   14.24
   3  -3  -6  621.62   15.57
   3   3  -6  623.52   14.55
   3   3  -6  638.75   10.55
   3   3  -5   76.70    3.86
  -3   3  -5   74.14    4.51
   3   3  -5   79.11    5.20
  -3  -3  -5   74.54    4.63
   3  -3  -5   76.42    5.31
   3  -3  -5   80.05    5.51
   3   3  -4 1139.85   19.47
   3   3  -4 1100.68   15.52
   3  -3  -4 1143.26   19.96
  -3  -3  -4 1108.26   17.02
   3  -3  -4 1082.98   19.78
   3  -3  -3 2091.15   26.27
   3  -3  -3 2159.41   27.26
   3   3  -3 2185.90   27.01
  -3  -3  -3 2155.74   22.48
   3   3  -3 2155.56   22.91
   3   3  -2  380.97   11.35
   3  -3  -2  389.41   11.08
   3  -3  -2  381.67   11.35
   3   3  -2  371.74    9.77
   3  -3  -1  610.15   14.29
   3   3  -1  608.78   12.84
   3  -3  -1  582.24   13.25
   3  -3   0  455.54   11.55
   3   3   0  467.03   11.61
   3  -3   0  440.99   12.00
   3   3   0  473.89   12.65
   3   3   1  594.18   14.23
   3  -3   1  591.25   13.77
   3  -3   1  604.90   13.23
   3   3   1  582.03   13.33
   3  -3   2  366.40   10.72
   3   3   2  380.82   11.46
   3  -3   2  352.91   10.04
   3   3   2  352.40   10.74
   3  -3   3 2203.27   26.06
   3   3   3 2117.95   27.08
   3   3   3 2203.64   27.21
   3  -3   3 2210.97   24.95
   3   3   4 1177.87   20.09
   3  -3   4 1136.78   17.70
   3   3   4 1112.81   19.94
   3  -3   4 1127.12   18.72
   3   3   5   82.99    5.39
   3  -3   5   81.73    5.05
   3   3   5   83.84    5.55
   3   3   6  623.44   15.63
   3   3   6  605.11   14.69
   3  -3   6  647.40   14.17
   3  -3   7  553.30   13.09
   3   3   7  552.64   14.12
   3  -3   8   23.21    2.68
   3   3   8   19.61    2.90
   3   3   8   22.36    2.87
   3   3   9  721.56   17.72
   3   3   9  757.66   16.75
   3  -3   9  747.09   15.83
   3   3  10  169.70    8.76
   3  -3  10  150.45    7.01
   3   3  10  164.32    7.88
   3   3  11   48.17    4.42
   3   3  11   38.80    4.17
   3  -3  11   52.98    4.23
   3   3  12  493.19   15.41
   3  -3  12  489.36   12.97
   3   3  12  446.97   13.56
   3  -3  13  258.14    9.48
   3   3  13  286.75   10.82
   3   3  13  273.71   11.89
   3  -3  14   13.02    2.24
   3   3  14   11.33    2.63
   3   3  14   15.24    2.71
   3  -3  15   64.63    4.86
   3   3  15   80.48    6.79
   3   3  15   82.29    6.06
   3  -3  16   35.95    3.84
   3   3  16   32.43    3.75
   3   3  17   46.94    4.69
   3  -3  17   41.92    4.08
   3   3  17   46.28    5.37
   3   3  18   59.39    5.30
   3   3  18   60.08    6.17
  -3   3  19   36.70    4.92
   3   3  19   53.84    5.99
  -3   3  20   10.57    2.91
   3   3  20    4.09    2.00
  -3   3  21    0.78    1.54
   3   3  21    3.35    2.49
  -3   3  22    9.52    2.76
   3   3  22    9.81    2.21
   3   3  23   49.63    6.23
   3   3  24    2.64    2.21
   3   3  25   23.94    4.48
   3  -4 -29    6.23    3.17
  -3  -4 -28    3.30    1.80
   3  -4 -28    6.42    2.63
  -3  -4 -27   21.75    4.33
   3  -4 -27   14.79    3.85
   3  -4 -26    3.64    1.53
  -3  -4 -26   11.59    3.63
  -3  -4 -25   14.80    3.59
   3  -4 -25   10.94    3.14
   3  -4 -24    2.02    1.33
  -3  -4 -24   -0.68    1.81
   3  -4 -23    6.08    2.60
  -3  -4 -23    2.86    2.03
  -3  -4 -22    5.69    2.37
   3  -4 -22    9.09    2.84
  -3  -4 -21    6.82    2.35
   3  -4 -21   11.68    3.11
   3  -4 -20    5.71    1.91
  -3  -4 -20    3.03    1.64
   3  -4 -19   34.28    4.89
  -3  -4 -19   31.27    4.78
   3  -4 -18    4.19    2.31
  -3  -4 -18    9.09    2.70
  -3  -4 -17   -0.17    1.46
   3  -4 -17   -0.16    0.95
   3  -4 -17   -0.56    1.87
   3  -4 -16    6.25    2.68
  -3  -4 -16    5.39    1.79
   3  -4 -16    2.03    1.44
   3  -4 -15   17.91    3.26
  -3  -4 -15   18.93    3.55
   3  -4 -15   22.49    3.60
   3   4 -15   20.01    3.18
  -3  -4 -14   -0.29    1.34
   3  -4 -14    0.02    0.81
   3  -4 -14    2.06    1.46
   3   4 -14   -0.08    1.02
   3   4 -13   17.64    2.85
   3  -4 -13   11.50    2.64
  -3  -4 -13   19.06    3.27
   3  -4 -13   15.44    3.43
   3   4 -12    8.37    1.95
  -3  -4 -12   13.35    2.69
  -3   4 -12    9.92    1.72
   3  -4 -12    7.52    2.33
   3  -4 -12    8.87    2.08
  -3   4 -11   39.72    3.58
  -3  -4 -11   44.00    4.76
   3   4 -11   46.86    4.46
   3  -4 -11   38.25    4.45
   3  -4 -11   31.34    4.33
   3   4 -10   70.47    5.64
  -3  -4 -10   83.20    6.19
  -3   4 -10   74.23    5.05
   3  -4 -10   81.19    6.44
   3  -4 -10   91.35    6.98
   3   4 -10   80.73    3.68
   3   4  -9   42.18    2.88
   3   4  -9   40.99    4.18
  -3  -4  -9   40.82    4.31
   3  -4  -9   35.17    4.23
   3  -4  -9   36.43    4.37
  -3   4  -9   42.02    3.82
   3   4  -8   48.10    3.26
   3  -4  -8   48.63    4.76
  -3  -4  -8   49.21    4.65
   3   4  -8   53.47    4.81
  -3   4  -8   41.30    3.85
   3  -4  -8   46.45    4.80
  -3  -4  -7   44.19    4.04
  -3   4  -7   40.10    3.77
   3   4  -7   45.65    3.34
   3  -4  -7   33.05    3.83
   3  -4  -7   39.57    4.30
   3   4  -7   36.16    3.88
   3   4  -6   54.46    4.68
   3   4  -6   54.91    3.88
  -3   4  -6   45.97    4.12
  -3  -4  -6   46.49    4.02
   3  -4  -6   51.36    4.74
   3  -4  -6   53.19    5.07
   3   4  -5  206.74    9.60
   3   4  -5  221.15    7.93
  -3   4  -5  207.46    8.81
   3  -4  -5  233.08   10.12
  -3  -4  -5  201.46    8.26
   3  -4  -5  208.24    9.34
   3   4  -4  135.84    6.40
  -3  -4  -4  131.87    6.16
   3  -4  -4  133.92    7.20
   3   4  -4  142.90    7.77
   3  -4  -4  135.40    7.76
  -3   4  -4  136.96    7.23
  -3  -4  -3   94.19    5.04
  -3   4  -3  110.21    6.46
   3  -4  -3  107.02    6.39
   3  -4  -3  102.53    6.58
   3   4  -3  110.37    5.92
  -3   4  -2  232.68    9.62
  -3  -4  -2  264.94    7.78
   3  -4  -2  258.86    9.72
   3   4  -2  255.80    9.37
   3  -4  -2  233.19    9.98
   3   4  -2  255.55   10.38
  -3   4  -1  322.45   11.26
   3   4  -1  300.34   11.18
   3  -4  -1  312.16   10.50
  -3  -4  -1  314.44    7.76
   3  -4  -1  296.35   10.92
   3   4  -1  313.79   10.57
   3   4   0  116.37    6.93
   3  -4   0  117.96    6.32
   3  -4   0  110.43    6.60
   3   4   0  103.44    6.17
   3   4   1  303.27   11.39
   3   4   1  302.65   10.95
   3  -4   1  322.29   10.38
   3  -4   1  298.81   10.90
   3   4   2  257.64   10.18
   3   4   2  257.70   10.59
   3  -4   2  263.18   10.16
   3  -4   2  241.94    8.93
   3   4   3  100.84    6.54
   3  -4   3  100.54    6.21
   3  -4   3   97.06    5.52
   3   4   3   92.90    6.21
   3  -4   4  155.69    7.05
   3   4   4  149.23    8.06
   3   4   4  133.18    7.53
   3  -4   4  133.33    7.11
   3   4   5  235.64   10.30
   3  -4   5  229.63    9.29
   3  -4   5  214.21    8.36
   3   4   5  212.59    9.69
   3   4   6   51.84    4.79
   3  -4   6   51.14    4.36
   3   4   6   50.10    4.80
   3  -4   6   49.06    4.01
   3   4   7   41.78    4.24
   3   4   7   31.09    3.86
   3  -4   7   41.99    4.00
   3  -4   8   46.14    4.22
   3   4   8   47.55    4.71
   3   4   8   49.98    4.94
   3   4   9   41.43    4.46
   3   4   9   43.12    4.46
   3   4  10   87.73    6.46
   3   4  10   78.56    6.53
   3  -4  10   81.89    5.60
   3  -4  11   38.52    3.95
   3   4  11   34.69    4.47
   3   4  11   39.76    4.34
   3   4  12   10.04    2.19
   3  -4  12    5.57    1.80
   3   4  12    9.97    2.52
   3  -4  13   15.61    2.40
   3   4  13   20.48    3.40
   3   4  13   20.59    3.50
   3   4  14    0.91    1.41
   3   4  14    1.52    1.17
   3  -4  14   -0.13    0.90
   3  -4  15   21.00    3.07
   3   4  15   19.61    3.49
   3   4  15   15.94    2.66
   3   4  16    5.00    1.83
   3   4  16    6.95    2.40
   3   4  17    0.74    0.77
   3   4  17   -0.05    1.11
   3   4  18    6.54    2.71
   3   4  18    8.68    2.53
  -3   4  18    5.54    2.28
   3   4  19   28.75    4.71
  -3   4  19   31.05    4.65
   3   4  19   21.83    3.54
  -3   4  20    1.98    1.52
  -3   4  20   -0.85    1.51
  -3   4  21   11.02    2.61
   3   4  21   13.71    3.37
  -3   4  21    8.61    2.66
  -3   4  22    6.39    2.95
   3   4  22    3.85    1.28
  -3   4  23    3.21    1.08
   3   4  23    5.85    2.11
   3   4  24    1.40    1.68
   3   4  25   12.18    3.13
  -3  -5 -27    7.07    2.35
   3  -5 -27    8.30    3.01
  -3  -5 -26    9.72    3.21
   3  -5 -26   12.50    3.37
  -3  -5 -25   13.78    3.28
   3  -5 -25   28.95    5.53
   3  -5 -24   11.65    3.48
  -3  -5 -24    8.07    3.30
  -3  -5 -23   11.26    3.16
   3  -5 -23   12.78    2.58
   3  -5 -22    7.78    3.28
  -3  -5 -22    8.45    2.81
  -3  -5 -21    6.33    1.77
   3  -5 -21    4.50    2.59
   3  -5 -20   25.33    4.63
  -3  -5 -20   19.64    3.95
   3  -5 -19   36.09    5.14
  -3  -5 -19   54.04    6.42
  -3  -5 -18   26.47    4.55
   3  -5 -18   17.78    3.86
   3  -5 -17   47.71    5.79
  -3  -5 -17   38.08    4.96
   3  -5 -17   48.11    5.88
   3  -5 -16   26.94    4.17
   3  -5 -16   28.73    4.40
  -3  -5 -16   27.51    4.43
   3   5 -15   47.18    5.15
  -3  -5 -15   45.60    5.58
   3  -5 -15   42.08    5.54
   3  -5 -15   48.40    5.44
   3   5 -14   54.54    5.55
   3  -5 -14   68.65    6.57
   3  -5 -14   59.19    6.29
  -3  -5 -14   46.45    5.57
   3   5 -13  162.27    9.19
   3  -5 -13  162.74   10.01
  -3  -5 -13  177.61   10.31
   3  -5 -12   92.39    7.47
  -3   5 -12   83.48    6.17
   3  -5 -12   85.73    7.38
   3   5 -12   89.08    6.84
  -3  -5 -12   87.32    6.92
   3  -5 -11   37.39    4.81
  -3  -5 -11   32.93    4.22
  -3   5 -11   29.13    3.52
   3  -5 -11   34.94    4.52
   3   5 -11   37.55    4.54
   3   5 -10   32.04    4.20
   3  -5 -10   45.27    5.17
  -3   5 -10   38.41    4.18
   3  -5 -10   31.04    4.52
  -3  -5 -10   40.37    4.55
   3   5  -9  151.58    6.84
   3   5  -9  148.63    8.75
   3  -5  -9  147.38    9.16
  -3   5  -9  156.17    8.38
  -3  -5  -9  150.81    8.62
   3  -5  -9  151.06    9.10
   3  -5  -8   15.01    2.70
   3  -5  -8   21.05    3.34
  -3  -5  -8   19.80    2.99
   3   5  -8   23.35    3.71
  -3   5  -8   20.87    2.98
   3   5  -8   21.69    2.65
   3   5  -7   82.85    6.41
  -3   5  -7   79.25    5.98
  -3  -5  -7   76.02    5.74
   3  -5  -7   70.67    6.30
   3   5  -7   74.96    5.16
   3  -5  -7   80.91    6.43
   3  -5  -6   63.62    5.62
  -3  -5  -6   54.72    4.65
  -3   5  -6   64.36    5.37
   3   5  -6   64.93    5.77
   3  -5  -6   58.82    5.75
   3   5  -6   58.49    4.69
  -3  -5  -5    3.19    1.16
   3   5  -5    5.96    1.83
  -3   5  -5    4.63    1.40
   3   5  -5    4.72    1.53
   3  -5  -5    5.90    1.92
  -3   5  -4   41.81    4.43
  -3  -5  -4   41.18    3.74
   3  -5  -4   45.09    4.93
   3  -5  -4   48.88    4.64
   3   5  -4   44.15    4.17
   3   5  -4   54.98    5.26
   3  -5  -3  159.08    8.97
   3  -5  -3  153.54    8.14
   3   5  -3  161.37    8.23
   3   5  -3  159.49    9.02
  -3   5  -3  159.03    8.65
  -3  -5  -3  161.61    6.91
   3   5  -2   10.13    2.15
  -3  -5  -2    8.17    1.63
   3  -5  -2   12.83    2.40
   3  -5  -2    8.57    2.12
   3   5  -2   13.42    3.02
  -3   5  -2   10.52    2.52
   3   5  -1  186.28    9.65
  -3  -5  -1  191.93    6.66
  -3   5  -1  195.00    9.77
   3  -5  -1  191.62    8.81
   3   5  -1  195.70    9.32
   3  -5  -1  171.93    9.14
   3   5   0  108.20    7.14
   3   5   0   89.92    6.51
   3  -5   0   92.32    6.04
  -3   5   0   81.84    6.36
   3  -5   0   99.95    6.98
   3  -5   1  177.03    8.24
   3   5   1  185.50    9.61
   3   5   1  188.24    9.44
   3  -5   1  206.29    9.84
   3  -5   2    6.88    1.95
  -3   5   2   12.14    2.67
   3  -5   2    7.77    1.86
   3   5   2    7.50    2.28
   3   5   2   12.88    2.59
   3   5   3  163.14    8.94
   3   5   3  150.91    8.87
   3  -5   3  146.84    7.41
  -3   5   3  175.91    9.51
   3  -5   3  158.64    8.44
   3  -5   4   45.37    4.52
   3   5   4   57.39    5.41
   3  -5   4   61.81    4.71
   3   5   4   39.75    4.56
  -3   5   4   56.18    5.48
  -3   5   5    4.15    1.37
   3  -5   5    5.19    1.51
   3   5   5    6.99    1.97
   3  -5   5    6.98    1.53
   3   5   5    3.84    1.57
  -3   5   6   70.57    6.25
   3  -5   6   58.93    5.18
   3   5   6   60.78    5.73
   3  -5   6   60.32    4.70
   3   5   6   55.30    5.51
   3   5   7   70.37    6.15
  -3   5   7   80.45    6.50
   3  -5   7   71.52    5.18
   3   5   7   73.26    6.48
   3  -5   7   81.96    6.14
   3   5   8   21.51    3.72
   3  -5   8   20.19    2.83
   3   5   8   20.18    3.38
   3  -5   8   21.81    3.14
  -3   5   8   23.77    3.83
  -3   5   9  164.59    9.71
   3  -5   9  154.15    7.87
   3   5   9  162.50    9.78
   3   5   9  140.52    8.80
   3  -5   9  154.35    8.41
  -3   5  10   35.63    4.66
   3   5  10   37.85    4.37
   3  -5  10   41.32    4.44
   3   5  10   37.53    4.90
  -3   5  11   33.82    4.70
   3   5  11   36.11    4.74
   3   5  11   34.32    4.46
   3  -5  11   34.20    3.92
   3   5  12   91.90    7.31
  -3   5  12   88.02    7.43
   3   5  12   89.45    7.60
   3  -5  12   93.19    6.58
   3   5  13  184.86   10.61
   3   5  13  158.75   10.01
   3  -5  13  173.77    9.00
  -3   5  13  181.82   10.55
   3   5  14   55.94    5.72
   3   5  14   57.17    6.18
  -3   5  14   47.98    5.63
   3  -5  14   57.76    5.11
   3   5  15   46.42    5.72
   3   5  15   44.65    5.40
  -3   5  15   45.54    5.57
   3   5  16   35.51    4.77
   3   5  16   31.05    4.66
  -3   5  16   25.96    4.43
   3   5  17   27.45    4.44
  -3   5  17   44.30    5.83
   3   5  17   35.94    4.54
   3   5  18   22.77    4.25
  -3   5  18   15.94    3.35
   3   5  18   22.92    3.80
   3   5  19   44.07    5.72
   3   5  19   47.94    5.85
  -3   5  19   41.45    5.71
  -3   5  20   15.50    3.55
   3   5  20   17.29    3.41
  -3   5  21    3.60    1.84
  -3   5  21    3.92    2.45
   3   5  21    8.79    3.16
  -3   5  22    3.86    1.53
   3   5  22    5.33    0.93
   3   5  23   14.57    3.50
  -3   5  23   14.13    3.96
  -3   5  24    1.32    1.84
   3   5  24    8.30    2.80
   3   5  25   21.19    4.91
   3   5  26    6.78    2.86
  -3  -6 -26    1.56    1.96
   3  -6 -26    1.94    1.97
  -3  -6 -25    7.07    2.57
   3  -6 -25    4.67    2.15
  -3  -6 -24    4.67    2.55
   3  -6 -24    8.36    3.61
  -3  -6 -23    2.41    2.42
   3  -6 -23    3.92    2.29
  -3  -6 -22    2.58    2.30
   3  -6 -22    4.10    1.70
  -3  -6 -21    8.83    2.86
   3  -6 -21    4.64    2.63
  -3  -6 -20   -1.06    2.01
   3  -6 -20   -0.07    1.28
  -3  -6 -19   26.53    4.78
   3  -6 -19   22.73    4.42
  -3  -6 -18   12.36    3.72
   3  -6 -18   15.25    3.37
   3  -6 -17    1.95    2.45
  -3  -6 -17    5.14    2.27
   3  -6 -17    9.34    2.69
   3  -6 -16   14.68    3.04
  -3  -6 -16   11.71    3.14
   3  -6 -16   13.85    3.47
   3  -6 -15   41.50    5.77
   3  -6 -15   36.96    5.03
  -3  -6 -15   47.59    5.79
  -3  -6 -14    3.43    1.17
   3  -6 -14    8.62    2.68
   3  -6 -14    7.44    2.65
   3   6 -14    7.15    2.36
   3   6 -13   91.15    7.50
  -3  -6 -13   97.74    7.84
   3  -6 -13  103.74    8.58
   3  -6 -13  101.42    8.27
   3   6 -12    8.77    2.49
  -3  -6 -12    6.38    2.26
   3  -6 -12    5.28    2.06
   3  -6 -12    7.74    2.57
  -3   6 -11   47.73    5.29
   3  -6 -11   50.58    5.80
   3   6 -11   56.98    5.84
   3  -6 -11   54.09    6.18
  -3  -6 -11   42.12    5.10
   3  -6 -10   22.02    3.68
   3   6 -10   20.60    3.72
  -3   6 -10   19.40    3.42
   3  -6 -10   19.01    3.52
  -3  -6 -10   18.06    3.20
   3  -6  -9   18.05    3.23
   3   6  -9   16.98    3.06
   3  -6  -9   18.07    3.62
  -3  -6  -9   23.10    3.66
  -3   6  -9   14.89    3.04
  -3  -6  -8   23.88    3.52
   3   6  -8   25.46    4.01
   3  -6  -8   27.23    4.47
   3  -6  -8   24.94    4.14
   3   6  -8   27.95    3.46
  -3   6  -8   26.00    3.85
   3  -6  -7   56.49    6.12
   3   6  -7   74.73    6.69
  -3   6  -7   56.44    5.62
  -3  -6  -7   55.49    5.14
   3   6  -7   63.96    5.43
   3  -6  -7   69.26    6.21
   3   6  -6   14.69    2.91
  -3   6  -6    9.16    2.54
  -3  -6  -6    8.01    1.73
   3  -6  -6   10.02    2.30
   3   6  -6   13.15    3.01
   3  -6  -6    8.95    2.10
   3   6  -5   53.63    5.17
   3   6  -5   56.59    5.94
  -3   6  -5   59.55    5.72
  -3  -6  -5   54.53    4.69
   3  -6  -5   47.96    5.37
   3  -6  -5   49.86    5.17
   3  -6  -4    9.11    2.62
   3   6  -4    9.88    2.58
   3   6  -4    9.83    2.16
  -3  -6  -4   10.57    2.01
  -3   6  -4   10.13    2.55
   3  -6  -4    8.59    2.64
   3  -6  -3   52.35    5.10
   3   6  -3   68.86    6.37
   3   6  -3   67.59    5.76
  -3  -6  -3   65.98    4.73
  -3   6  -3   64.49    5.98
   3  -6  -3   69.34    6.27
   3   6  -2   75.00    6.68
   3  -6  -2   82.19    6.10
  -3   6  -2   71.51    6.33
   3   6  -2   83.81    6.71
  -3  -6  -2   79.30    4.99
   3  -6  -2   87.24    7.21
   3  -6  -1   65.90    5.47
   3   6  -1   76.10    6.31
  -3  -6  -1   60.47    4.05
  -3   6  -1   64.47    6.09
   3  -6  -1   68.52    6.38
   3   6  -1   77.10    6.67
   3   6   0    0.98    1.08
  -3   6   0    1.18    0.73
   3   6   0    0.04    1.03
   3  -6   0    0.47    0.82
   3  -6   0    1.84    1.43
   3   6   1   67.78    6.40
   3   6   1   75.27    6.47
   3  -6   1   65.13    5.34
   3  -6   1   61.01    5.64
  -3   6   1   69.33    6.42
   3  -6   2   82.20    5.91
   3   6   2   77.48    6.50
   3   6   2   78.56    6.79
  -3   6   2   85.15    7.15
   3  -6   2   77.28    6.36
  -3   6   3   67.61    6.51
   3   6   3   57.72    5.79
   3   6   3   76.45    6.89
   3  -6   3   59.36    4.95
   3  -6   3   58.37    5.60
   3  -6   4   10.59    2.39
   3  -6   4    9.11    1.84
  -3   6   4   10.34    2.43
   3   6   4   12.72    3.33
   3   6   4    7.75    2.16
  -3   6   5   58.18    6.15
   3  -6   5   58.28    4.94
   3   6   5   61.59    6.36
   3   6   5   67.04    6.29
   3  -6   5   57.31    5.49
   3  -6   6   10.33    2.38
   3   6   6    9.19    2.70
  -3   6   6   14.06    2.93
   3  -6   6    9.98    2.00
   3   6   6   10.13    2.32
   3   6   7   56.91    6.12
   3   6   7   57.08    6.12
   3  -6   7   62.70    5.77
   3  -6   7   66.48    5.23
  -3   6   7   63.87    6.40
  -3   6   8   19.44    3.83
   3   6   8   25.76    3.85
   3   6   8   24.74    4.03
   3  -6   8   25.24    3.66
   3  -6   8   27.60    3.44
   3   6   9   17.92    3.16
   3   6   9   25.74    4.35
   3  -6   9   23.99    3.42
   3  -6   9   22.23    3.40
  -3   6   9   13.31    3.04
   3  -6  10   21.81    3.27
   3   6  10   24.21    4.09
  -3   6  10   21.55    4.23
   3   6  10   21.61    3.94
   3  -6  10   23.01    3.41
  -3   6  11   51.22    6.11
   3   6  11   46.47    5.59
   3   6  11   55.95    5.97
   3  -6  11   55.86    5.39
  -3   6  12    5.10    1.88
   3  -6  12    3.28    1.27
   3   6  12    5.55    1.84
   3  -6  13   97.02    7.33
   3   6  13  101.48    8.45
   3   6  13   89.10    7.91
  -3   6  13   97.23    8.17
   3   6  14    5.85    1.97
   3   6  14    7.60    3.10
  -3   6  14    8.21    2.56
   3   6  15   49.24    5.78
   3   6  15   35.10    5.13
  -3   6  15   38.26    5.27
   3   6  16   18.94    3.80
   3   6  16   16.60    3.62
  -3   6  16   11.93    3.52
   3   6  17   11.91    3.14
  -3   6  17    8.97    2.74
   3   6  17   11.01    3.35
  -3   6  18   12.96    3.55
   3   6  18   13.95    3.73
   3   6  18   12.44    3.25
   3   6  19   24.13    4.49
  -3   6  19   23.36    4.35
   3   6  19   26.72    4.88
   3   6  20    3.24    2.56
  -3   6  20    2.97    2.05
   3   6  20    1.80    1.92
   3   6  21    8.29    3.45
  -3   6  21    3.76    2.38
  -3   6  21    5.56    2.82
   3   6  22    0.05    1.40
  -3   6  22   -0.58    2.50
  -3   6  22    1.40    1.50
  -3   6  23    2.64    1.44
   3   6  23    1.34    2.05
   3   6  24    1.45    2.20
  -3   6  24    1.43    2.26
   3   6  25    9.65    3.34
  -3   6  25    4.53    2.96
   3   6  26    0.49    1.83
  -3  -7 -24   11.09    3.22
   3  -7 -24    5.85    2.67
   3  -7 -23    9.49    3.86
  -3  -7 -23   17.51    3.67
  -3  -7 -22   16.18    4.05
   3  -7 -22   18.47    4.16
   3  -7 -21    6.28    3.09
  -3  -7 -21    5.29    2.97
   3  -7 -20   10.00    3.05
  -3  -7 -20    9.02    3.16
  -3  -7 -19   21.21    4.11
   3  -7 -19   20.89    4.38
  -3  -7 -18    1.90    1.64
   3  -7 -18   -2.17    2.16
  -3  -7 -17   10.63    3.19
   3  -7 -17   26.06    4.74
   3  -7 -16   34.61    5.50
   3  -7 -16   28.33    4.81
  -3  -7 -16   39.58    5.93
  -3  -7 -15   11.12    3.09
   3  -7 -15    4.95    2.09
   3  -7 -15   14.77    3.26
  -3  -7 -14   14.63    3.65
   3   7 -14    9.74    2.72
   3  -7 -14   12.85    3.15
   3  -7 -14   13.32    3.01
   3  -7 -13   39.72    5.47
   3   7 -13   42.20    5.63
   3  -7 -13   49.75    5.84
  -3  -7 -13   60.33    6.41
   3   7 -12   17.62    3.49
  -3  -7 -12   14.84    3.29
   3  -7 -12   16.05    3.24
   3  -7 -12    9.95    2.64
  -3   7 -11    0.13    1.97
   3   7 -11    2.22    1.55
  -3  -7 -11   -1.05    1.32
   3  -7 -11    1.86    1.90
   3  -7 -11    3.04    1.72
   3  -7 -10   23.06    4.28
   3   7 -10   21.71    3.78
  -3   7 -10   33.88    4.81
  -3  -7 -10   28.66    3.91
   3  -7 -10   23.76    4.22
   3   7  -9   77.06    7.24
   3  -7  -9   70.40    6.83
  -3   7  -9   64.89    6.81
  -3  -7  -9   75.56    6.94
   3  -7  -9   55.24    6.29
   3  -7  -8    7.88    2.34
  -3  -7  -8   14.66    2.81
  -3   7  -8   14.53    3.05
   3  -7  -8   10.46    2.73
   3   7  -8   13.08    3.09
   3  -7  -7   16.56    3.25
   3   7  -7   20.22    3.97
  -3   7  -7   22.13    3.98
   3   7  -7   28.31    3.91
   3  -7  -7   17.74    3.77
  -3  -7  -7   25.71    3.67
   3   7  -6   51.02    5.40
   3   7  -6   47.29    5.78
   3  -7  -6   42.50    5.26
  -3   7  -6   45.39    5.67
  -3  -7  -6   42.33    4.67
   3  -7  -6   35.26    4.92
   3  -7  -5   23.18    4.17
   3   7  -5   23.52    3.95
  -3  -7  -5   12.98    2.66
  -3   7  -5   12.03    2.91
   3  -7  -5   14.12    2.94
   3   7  -5   27.97    4.11
   3  -7  -4   93.13    7.19
   3  -7  -4   87.31    7.65
   3   7  -4   78.86    6.81
   3   7  -4   97.25    8.17
  -3   7  -4   84.77    7.53
  -3  -7  -4   85.95    6.08
   3  -7  -3   91.69    7.18
   3   7  -3   87.53    7.20
   3   7  -3   87.04    7.56
  -3   7  -3  103.97    8.33
  -3  -7  -3   79.94    5.78
   3  -7  -3   84.21    7.42
   3  -7  -2   50.11    5.25
   3   7  -2   61.57    6.39
   3  -7  -2   60.07    6.27
   3   7  -2   59.27    6.21
  -3   7  -2   70.36    7.02
   3  -7  -1  202.98   10.22
   3   7  -1  182.78   11.01
   3   7  -1  189.67   10.86
  -3   7  -1  182.67   10.94
   3  -7  -1  182.77   10.77
   3   7   0  136.97    9.34
   3   7   0  131.49    9.37
  -3   7   0  144.72    9.66
   3  -7   0  138.12    8.28
   3  -7   0  124.07    8.93
   3   7   1  176.31   10.88
  -3   7   1  174.67   10.76
   3  -7   1  182.26   10.70
   3   7   1  189.43   10.99
   3  -7   1  154.92    8.70
   3   7   2   57.45    6.03
  -3   7   2   53.21    6.20
   3   7   2   61.82    6.30
   3  -7   2   59.04    6.47
   3  -7   2   51.50    5.14
   3   7   3   96.48    8.11
  -3   7   3   82.42    7.59
   3  -7   3   92.50    7.54
   3   7   3   91.44    7.80
   3  -7   3   85.05    6.29
   3  -7   4   86.10    7.55
   3   7   4  104.92    8.41
   3   7   4   97.99    8.40
   3  -7   4   78.93    5.98
  -3   7   4   80.10    7.41
   3   7   5   18.79    3.80
   3  -7   5   16.23    3.10
   3   7   5   23.70    4.43
   3  -7   5   21.47    3.11
  -3   7   5   18.74    3.69
   3   7   6   36.40    5.04
  -3   7   6   34.21    5.44
   3  -7   6   53.30    5.70
   3   7   6   45.61    5.49
   3   7   7   22.63    4.07
   3  -7   7   28.61    4.32
   3   7   7   26.23    4.12
  -3   7   7   25.62    4.44
   3   7   8   14.19    3.49
   3   7   8    7.63    2.41
  -3   7   8   11.83    3.10
   3  -7   8    8.85    2.49
   3   7   9   67.49    6.80
  -3   7   9   73.36    7.26
   3  -7   9   68.83    6.56
   3   7   9   61.63    6.88
  -3   7  10   29.25    4.38
   3   7  10   33.99    5.14
   3   7  10   27.98    4.54
   3  -7  10   31.34    4.67
  -3   7  11    2.45    2.03
   3   7  11    0.47    1.02
   3   7  11   -1.79    1.77
   3  -7  11    4.41    2.06
   3   7  12    5.74    2.43
   3   7  12    7.21    2.48
  -3   7  12    9.25    2.44
   3  -7  12    8.98    2.64
  -3   7  13   49.56    6.07
   3   7  13   48.11    6.30
   3   7  13   52.34    6.56
  -3   7  14   11.18    3.05
   3   7  14   13.38    3.46
   3   7  14   11.06    3.09
   3   7  15    9.67    3.13
  -3   7  15    8.41    2.35
   3   7  15   10.24    3.01
   3   7  16   33.96    5.53
   3   7  16   38.05    5.48
  -3   7  16   38.99    5.65
  -3   7  17   17.97    4.15
   3   7  17   20.84    4.25
   3   7  17   22.13    4.70
   3   7  18    3.62    2.27
  -3   7  18    4.03    2.03
   3   7  18    1.87    2.02
   3   7  19   19.61    4.71
   3   7  19   17.48    3.80
   3   7  20    8.79    2.56
  -3   7  20    7.12    2.64
   3   7  20    2.62    2.50
  -3   7  21    8.91    3.36
  -3   7  21    4.02    2.52
   3   7  21    2.98    1.86
   3   7  22   20.79    4.47
  -3   7  22   10.47    3.42
  -3   7  22   12.72    4.44
   3   7  23   17.64    4.73
  -3   7  23    7.68    3.04
   3   7  24    8.60    3.27
  -3   7  24    5.44    2.90
  -3  -8 -22    4.62    2.03
   3  -8 -22    4.85    2.57
   3  -8 -21    0.03    1.41
  -3  -8 -21    6.03    2.97
   3  -8 -20    1.51    2.28
  -3  -8 -20    4.02    2.75
   3  -8 -19    4.49    2.07
  -3  -8 -19    2.54    1.82
  -3  -8 -18    4.56    1.63
   3  -8 -18    7.18    2.64
  -3  -8 -17    6.34    2.54
   3  -8 -17    8.50    3.22
  -3  -8 -16    6.64    2.65
   3  -8 -16    1.12    2.03
   3  -8 -15   21.93    4.20
  -3  -8 -15   14.39    2.90
   3  -8 -15   16.25    3.71
   3  -8 -14    5.47    2.46
  -3  -8 -14    9.66    3.18
   3  -8 -14    4.35    1.99
   3  -8 -13   37.97    5.39
  -3  -8 -13   31.04    4.99
   3   8 -13   44.01    6.00
   3  -8 -13   33.99    5.60
   3   8 -12   10.28    2.84
  -3  -8 -12    9.08    3.10
   3  -8 -12    9.54    3.01
   3  -8 -12    5.30    3.32
  -3  -8 -11   -0.58    1.63
   3  -8 -11    2.38    1.73
   3   8 -11    1.21    1.41
   3  -8 -11    1.75    0.89
   3   8 -10    7.90    2.92
   3  -8 -10   10.26    3.22
  -3   8 -10   10.69    3.38
  -3  -8 -10    8.61    3.08
   3  -8 -10   11.45    3.47
   3   8  -9   27.29    4.79
   3  -8  -9   24.99    4.46
  -3  -8  -9   28.34    4.67
  -3   8  -9   17.28    3.85
   3  -8  -9   28.11    4.36
  -3   8  -8    7.49    2.95
   3   8  -8   14.55    3.51
  -3  -8  -8   12.63    2.80
   3  -8  -8   13.54    3.20
   3  -8  -8   13.51    3.14
   3   8  -7    8.59    2.72
   3  -8  -7   13.47    3.26
  -3   8  -7   12.16    3.29
   3  -8  -7    7.61    2.64
  -3   8  -6    2.43    1.14
   3   8  -6    3.57    2.44
   3  -8  -6    2.41    1.40
   3  -8  -6    0.50    1.79
   3   8  -6   -0.59    1.80
  -3   8  -5    8.68    2.78
   3   8  -5   13.95    3.49
   3  -8  -5   10.10    2.75
   3  -8  -5    5.90    1.83
   3   8  -5    9.01    2.41
   3   8  -4   25.93    4.25
   3  -8  -4   28.76    4.28
  -3   8  -4   34.94    5.10
   3  -8  -4   26.26    4.40
   3   8  -4   30.53    5.28
   3   8  -3   16.05    3.66
   3  -8  -3   13.23    3.13
   3  -8  -3   13.46    3.03
   3   8  -3   10.63    3.25
  -3   8  -3   17.44    3.28
   3   8  -2    4.59    2.28
  -3   8  -2    3.51    1.43
   3   8  -2    1.49    1.95
   3  -8  -2    1.04    1.17
   3  -8  -2    2.79    2.10
   3   8  -1   22.10    4.26
  -3   8  -1   15.03    3.41
   3   8  -1   16.00    3.56
   3  -8  -1   16.78    3.83
   3  -8  -1   14.38    3.05
   3   8   0    0.57    2.21
   3   8   0    2.45    2.24
   3  -8   0    1.70    0.95
  -3   8   0    2.10    1.02
   3   8   1   23.10    4.37
   3   8   1   15.14    3.28
  -3   8   1   24.06    4.56
   3  -8   1   18.05    3.69
   3   8   2    3.23    1.93
  -3   8   2    1.88    2.30
   3   8   2    2.76    2.08
   3  -8   2    1.70    1.29
  -3   8   3   16.58    3.81
   3   8   3   14.98    3.71
   3   8   3   12.06    3.18
   3  -8   3   18.41    3.32
   3   8   4   24.91    4.63
   3   8   4   30.90    4.96
  -3   8   4   29.87    4.94
   3  -8   4   26.46    4.50
   3   8   5    7.32    2.07
   3   8   5    7.68    3.14
  -3   8   5   10.53    3.15
   3  -8   5   14.92    3.09
   3   8   6   -0.31    1.16
   3   8   6    1.70    1.23
  -3   8   6    3.70    2.39
   3  -8   6    1.50    1.16
   3   8   7   12.33    3.52
   3   8   7   18.77    4.04
   3  -8   7    8.74    2.63
  -3   8   7   12.31    2.63
   3   8   8   10.70    3.05
   3   8   8   13.05    2.81
  -3   8   8    7.80    1.95
   3  -8   8   14.05    3.51
   3  -8   9   24.61    4.18
   3   8   9   21.24    4.21
  -3   8   9   18.13    3.83
   3   8   9   25.04    4.42
  -3   8  10    2.64    1.64
   3   8  10    3.26    2.07
   3  -8  10    1.36    1.16
   3   8  11    1.30    1.71
  -3   8  11    1.22    1.83
   3   8  11    3.55    2.64
   3  -8  11   -0.41    1.33
   3   8  12    8.68    2.55
  -3   8  12   16.15    3.41
   3   8  12   10.51    3.11
  -3   8  13   22.75    4.27
   3   8  13   37.43    5.88
   3   8  13   34.72    5.36
  -3   8  14    3.60    1.56
   3   8  14    2.28    1.32
   3   8  14    5.93    2.41
  -3   8  15   10.49    3.32
   3   8  15   21.93    4.64
   3   8  15   15.66    3.69
   3   8  16    0.64    1.01
   3   8  16    4.83    1.56
  -3   8  16    2.43    2.13
   3   8  17    4.13    2.36
  -3   8  17    5.86    2.46
   3   8  17    6.08    2.79
   3   8  18    0.84    1.89
   3   8  18    0.39    1.08
  -3   8  18    3.27    1.61
   3   8  19    1.96    1.04
   3   8  19    1.43    1.89
  -3   8  20    1.80    1.98
   3   8  20    5.52    2.46
  -3   8  20   -1.46    3.04
   3   8  20    1.14    1.56
   3   8  21    5.92    3.19
  -3   8  21    4.51    2.52
  -3   8  21   -1.94    2.55
  -3   8  22    2.34    2.45
  -3   8  22    4.38    2.54
   3   8  22    1.70    2.07
  -3  -9 -19    6.42    2.99
   3  -9 -19   17.47    3.86
  -3  -9 -18    5.56    3.15
   3  -9 -18    2.96    2.17
   3  -9 -17    0.49    2.22
  -3  -9 -17    3.62    2.56
  -3  -9 -16    4.85    3.05
   3  -9 -16    2.73    2.02
   3  -9 -15    7.08    2.78
  -3  -9 -15    6.20    3.01
   3  -9 -14    5.40    2.69
   3  -9 -14    2.63    1.55
   3  -9 -13    3.51    2.17
   3  -9 -13   12.28    3.97
   3   9 -12    6.55    3.13
   3  -9 -12    3.27    2.69
   3  -9 -12    1.50    1.14
   3   9 -11    3.96    1.89
   3  -9 -11    7.34    2.61
   3  -9 -11    6.05    3.04
   3   9 -10   14.28    3.87
   3  -9 -10   12.88    3.61
   3  -9 -10   15.08    3.71
  -3   9 -10    2.37    2.91
   3  -9  -9   50.94    6.43
   3  -9  -9   52.35    6.41
   3   9  -9   59.23    7.23
  -3   9  -9   42.99    6.45
   3  -9  -8   16.82    4.15
   3  -9  -8   23.60    4.61
  -3   9  -8   12.77    3.51
   3   9  -8   18.15    4.26
   3   9  -7   41.42    5.52
   3  -9  -7   35.03    5.32
   3  -9  -7   43.16    6.10
  -3   9  -7   39.27    5.53
  -3   9  -6   28.25    5.06
   3   9  -6   31.26    5.23
   3  -9  -6   34.41    5.35
   3  -9  -5   26.52    4.51
   3   9  -5   34.71    5.66
  -3   9  -5   29.02    5.07
  -3   9  -4   44.69    6.09
   3   9  -4   61.56    7.06
   3  -9  -4   56.08    6.83
   3   9  -3   63.32    7.32
  -3   9  -3   56.04    6.83
   3  -9  -3   58.25    6.91
   3   9  -3   50.67    6.34
   3   9  -2   21.67    4.01
   3   9  -2   19.45    4.33
  -3   9  -2   16.10    3.94
   3  -9  -2   12.50    3.49
   3  -9  -1   51.46    6.12
   3   9  -1   49.85    6.86
  -3   9  -1   55.46    6.91
   3   9  -1   53.91    6.65
  -3   9   0   27.74    5.12
   3   9   0   28.34    4.72
   3   9   0   26.25    5.01
   3  -9   0   24.36    4.42
   3   9   1   48.40    6.29
   3   9   1   50.90    6.68
  -3   9   1   36.07    5.74
   3  -9   1   40.37    5.43
   3   9   2   23.62    4.43
   3   9   2   15.73    3.44
  -3   9   2   19.90    4.18
   3  -9   2   16.52    3.76
   3   9   3   80.86    8.07
   3   9   3   71.05    7.58
  -3   9   3   68.59    7.66
   3  -9   3   76.01    7.71
   3   9   4   54.33    6.80
  -3   9   4   53.15    6.57
   3  -9   4   51.57    6.51
   3   9   4   47.57    6.17
   3   9   5   23.35    4.61
   3  -9   5   26.49    4.85
   3   9   5   30.57    5.09
  -3   9   6   26.94    4.65
   3  -9   6   42.40    5.85
   3   9   6   29.74    4.95
   3   9   6   35.03    5.49
   3   9   7   27.32    4.91
  -3   9   7   37.05    5.75
   3   9   7   33.75    5.24
   3  -9   7   27.54    4.74
   3   9   8   23.23    4.71
  -3   9   8   22.12    4.37
   3   9   8   23.86    4.67
   3  -9   8   11.61    3.33
   3  -9   9   54.26    6.78
   3   9   9   50.40    6.82
  -3   9   9   53.64    6.93
   3   9   9   45.11    6.18
   3   9  10   13.88    3.57
   3   9  10   10.03    2.87
  -3   9  10   11.78    3.13
   3   9  11    3.54    2.31
  -3   9  11    2.38    1.27
   3   9  11    2.71    2.33
  -3   9  12    5.02    2.90
   3   9  12    0.91    2.09
   3   9  12    3.82    2.44
   3   9  13   16.79    3.86
   3   9  13    9.16    3.30
  -3   9  13   14.86    3.86
  -3   9  14   10.35    2.88
   3   9  14    7.84    2.88
   3   9  14    7.11    2.25
   3   9  15    4.58    1.71
   3   9  15    3.82    2.41
   3   9  16    4.13    2.72
  -3   9  16    5.25    2.11
   3   9  16   10.44    3.08
   3   9  17    0.19    1.45
   3   9  17    1.20    1.94
  -3   9  17    1.69    1.74
   3   9  18    5.61    2.54
  -3   9  18    2.72    2.77
   3   9  18    0.12    1.01
   3   9  19    8.57    2.92
  -3   9  19    8.87    2.96
   3   9  19    8.83    2.96
   3 -10 -15   -2.01    1.87
   3 -10 -14    0.98    2.05
   3 -10 -12    3.30    2.41
   3  10 -11   14.88    4.25
   3 -10 -11   13.36    3.30
   3  10 -10    7.04    3.79
   3 -10 -10    4.30    2.07
   3 -10  -9    7.36    1.68
   3  10  -9    8.03    3.04
   3  10  -8   15.43    3.84
  -3  10  -8    9.90    3.45
  -3  10  -7    1.58    1.34
   3 -10  -7    0.63    1.58
   3  10  -7   -1.83    1.78
   3  10  -6    3.25    2.10
  -3  10  -6    1.57    2.63
   3 -10  -6    7.90    3.35
  -3  10  -5   19.78    4.92
   3 -10  -5   19.29    4.09
   3  10  -5   17.87    4.55
   3 -10  -4   31.87    5.63
  -3  10  -4   24.16    4.81
   3  10  -4   35.84    5.76
   3 -10  -3   60.26    6.96
   3  10  -3   69.32    8.06
  -3  10  -3   67.83    7.96
   3  10  -3   56.94    7.56
   3  10  -2   10.17    3.42
   3  10  -2    6.28    2.28
  -3  10  -2   15.34    4.02
   3 -10  -2   11.74    3.45
  -3  10  -1    5.59    2.71
   3  10  -1   10.51    3.75
   3 -10  -1    6.51    2.57
   3  10  -1    8.62    3.03
   3  10   0    4.90    2.98
   3  10   0    6.02    2.88
  -3  10   0    4.52    2.35
   3 -10   0    2.99    1.16
   3  10   1    3.25    2.01
   3  10   1    8.13    2.49
   3 -10   1    4.88    1.94
  -3  10   1    8.87    3.12
   3  10   2    9.13    3.37
   3  10   2    6.07    2.62
   3 -10   2    7.82    2.67
  -3  10   2    6.64    2.81
   3  10   3   70.32    8.00
  -3  10   3   51.81    6.81
   3 -10   3   53.98    6.72
   3  10   3   57.80    7.30
  -3  10   4   26.21    4.97
   3  10   4   21.98    4.67
   3  10   4   22.74    4.77
   3 -10   4   30.99    5.36
  -3  10   5   13.20    3.26
   3  10   5   16.04    3.67
   3  10   5   12.26    3.73
   3 -10   5   20.45    4.60
  -3  10   6    0.90    1.57
   3  10   6    0.66    1.40
   3 -10   6   -0.67    2.24
   3  10   6    4.92    2.06
   3  10   7    0.72    1.69
  -3  10   7    3.26    2.49
   3 -10   7    0.10    1.35
   3  10   7    2.12    1.89
  -3  10   8   18.94    3.92
   3  10   8   24.35    4.73
   3  10   8   13.15    3.30
   3  10   9   17.63    3.60
   3  10   9    9.05    3.37
  -3  10   9    8.77    3.84
   3  10  10    8.10    2.93
   3  10  10    8.44    3.49
  -3  10  10    1.23    1.49
   3  10  11   19.92    4.26
   3  10  11   18.72    4.40
  -3  10  11   11.64    3.73
   3  10  12    2.44    1.70
   3  10  12   -0.59    1.29
  -3  10  12   -1.90    2.36
   3  10  13    0.40    2.22
   3  10  13   -1.10    1.82
  -3  10  13   -2.19    2.57
   3  10  14    2.58    1.42
   3  10  14    3.91    2.20
  -3  10  14    0.91    1.75
   3  10  15    1.73    1.47
   3  10  15   -1.25    2.39
  -3  10  15   -1.03    1.74
   3  11  -9    6.01    1.44
   3 -11  -9    3.59    2.47
   3  11  -8   15.87    4.25
   3 -11  -8   24.80    4.74
   3  11  -7   12.42    3.60
  -3  11  -7   18.94    4.54
   3 -11  -7   11.13    2.80
  -3  11  -6    0.43    2.38
   3 -11  -6    6.53    2.23
   3  11  -6    2.75    1.88
   3  11  -5    4.96    2.75
  -3  11  -5   -0.05    1.31
   3 -11  -5    8.48    3.08
  -3  11  -4   -1.31    1.85
   3 -11  -4    2.66    1.91
   3  11  -3    5.00    1.90
  -3  11  -3    2.43    2.30
   3 -11  -3    1.25    1.80
   3  11  -2    4.76    2.33
   3 -11  -2    4.79    2.00
  -3  11  -2    0.03    1.44
  -3  11  -1   -0.25    1.70
   3  11  -1    3.92    2.78
   3  11  -1    0.34    1.49
   3 -11  -1   -0.76    2.11
   3  11   0   -1.04    1.66
   3  11   0    1.36    2.21
  -3  11   0   -1.21    2.01
   3 -11   0    5.09    3.05
   3 -11   1    3.29    2.17
   3  11   1    4.60    3.41
  -3  11   1    3.96    1.71
   3  11   1   -0.02    1.84
  -3  11   2    6.68    2.75
   3 -11   2    4.43    3.15
   3  11   2    3.13    2.72
   3  11   2    4.78    3.41
  -3  11   3    0.35    2.07
   3  11   3    5.60    3.04
   3  11   3    4.78    2.54
   3 -11   3    2.99    2.33
  -3  11   4    3.71    2.56
   3 -11   4    7.43    3.24
   3  11   4   10.45    3.56
   3  11   4    8.83    3.39
   3  11   5    4.08    1.35
   3  11   5    3.39    2.25
   3 -11   5    5.97    3.49
  -3  11   5    5.75    2.62
  -3  11   6    5.55    3.02
   3  11   6    0.06    2.01
   3  11   6    7.13    3.53
   3 -11   6    2.32    2.54
   3  11   7   12.26    3.66
  -3  11   7    6.16    2.71
   3  11   7   13.17    3.71
   3  11   8    9.01    2.57
  -3  11   8   10.95    3.29
   3  11   8   11.52    3.34
   3  11   9   -0.25    2.10
   3  11   9    7.84    2.90
  -3  11   9    4.81    2.65
   4   0 -30    1.50    1.78
   4   0 -29   -1.25    2.49
   4   0 -28    3.49    1.84
   4   0 -27   27.41    5.03
   4   0 -26   79.63    8.19
   4   0 -25    9.80    2.94
   4   0 -24   18.20    3.96
   4   0 -23   39.29    5.38
   4   0 -22   48.33    5.88
   4   0 -21   57.28    6.31
   4   0 -20   65.58    6.51
   4   0 -19   98.26    7.85
   4   0 -18  121.32    8.31
   4   0 -17  438.10   15.76
   4   0 -16   99.22    7.35
   4   0 -15  184.11    9.48
   4   0 -14  125.64    5.43
   4   0 -14  133.45    7.77
   4   0 -13   75.57    4.09
   4   0 -12   67.48    3.84
   4   0 -12   65.54    5.31
   4   0 -11  798.20   12.82
   4   0 -11  819.74   18.08
   4   0 -10   63.43    4.84
   4   0 -10   65.10    3.65
   4   0  -9  761.04   16.48
   4   0  -9  795.48   12.42
   4   0  -8  210.88    8.20
   4   0  -8  212.29    6.42
   4   0  -7   37.03    3.38
   4   0  -7   40.67    3.39
   4   0  -7   32.56    2.56
   4   0  -6   93.31    4.14
   4   0  -6   94.19    5.18
   4   0  -6   94.36    5.00
   4   0  -5  242.78    6.67
   4   0  -5  244.04    7.96
   4   0  -5  259.47    8.30
   4   0  -4   96.87    4.25
   4   0  -4   88.86    4.77
   4   0  -4   90.61    4.72
   4   0  -3 1020.65   13.88
   4   0  -3 1045.16   15.85
   4   0  -3 1031.21   15.37
   4   0  -2  714.50   11.68
   4   0  -2  708.26   12.35
   4   0  -2  688.75   12.65
   4   0  -1  400.91    9.05
   4   0  -1  395.63    8.82
   4   0  -1  383.59    9.37
   4   0   0  481.37    9.91
   4   0   0  460.49    9.71
   4   0   1  415.51    8.86
   4   0   1  394.33    9.23
   4   0   2  696.75   11.26
   4   0   3  946.41   15.35
   4   0   3 1060.66   13.51
   4   0   4   99.88    5.07
   4   0   4   89.82    3.82
   4   0   5  249.76    6.26
   4   0   5  255.01    8.26
   4   0   6   97.62    5.24
   4   0   6   93.95    3.75
   4   0   7   34.30    3.24
   4   0   7   35.64    2.23
   4   0   8  188.69    7.82
   4   0   8  191.80    4.95
   4   0   9  796.25   16.19
   4   0   9  798.66    9.71
   4   0  10   66.36    4.88
   4   0  10   56.96    2.52
   4   0  11  757.82   16.60
   4   0  11  763.80    8.63
   4   0  12   71.59    5.30
   4   0  12   64.90    2.22
   4   0  13   74.05    5.51
   4   0  14  137.21    7.68
   4   0  15  187.25    9.29
   4   0  16  103.00    6.98
  -4   0  16   91.63    4.89
   4   0  17  429.84   14.65
   4   0  18   99.59    7.30
   4   0  19   81.13    6.70
   4   0  20   63.81    6.22
   4   0  21   57.35    5.88
   4  -1 -30    0.63    1.53
   4  -1 -29    0.94    1.31
   4  -1 -28    3.80    1.49
   4  -1 -27    1.56    1.76
   4   1 -27   -0.99    1.22
   4  -1 -26    3.33    1.84
   4   1 -26    0.42    1.50
   4   1 -25    9.17    3.07
   4  -1 -25    3.21    1.87
   4   1 -24   25.67    4.52
   4  -1 -24   19.63    4.05
   4   1 -23    7.73    2.48
   4  -1 -23    1.67    1.34
   4   1 -22   11.22    2.91
   4  -1 -22    8.61    2.57
   4  -1 -21    3.53    1.72
   4   1 -21    2.99    1.50
   4   1 -20    1.51    1.55
   4  -1 -20    1.16    1.06
   4  -1 -19   30.73    4.62
   4   1 -19   29.67    4.25
   4   1 -18   30.67    4.32
   4  -1 -18   34.58    4.50
   4   1 -17   15.00    2.73
   4  -1 -17   11.02    2.61
   4   1 -16  183.69    9.65
   4  -1 -16  174.44    9.91
   4  -1 -16  170.99    8.07
   4   1 -15    3.41    1.42
   4  -1 -15    4.01    1.33
   4  -1 -15    3.69    2.03
   4   1 -14   25.80    3.38
   4  -1 -14   29.23    4.09
   4  -1 -14   31.57    3.31
   4  -1 -13   31.98    4.13
   4   1 -13   25.00    3.21
   4  -1 -13   34.97    3.32
   4   1 -12   40.94    4.13
   4  -1 -12   33.09    3.20
   4  -1 -12   37.00    4.18
   4   1 -12   40.42    3.73
   4   1 -12   31.72    1.78
   4  -1 -11   58.31    5.05
   4   1 -11   66.23    4.78
   4   1 -11   77.49    5.11
   4  -1 -11   72.29    4.67
   4  -1 -10  428.78   13.38
   4  -1 -10  450.32   11.46
   4   1 -10  450.79    6.85
   4   1 -10  452.51   12.17
   4   1 -10  442.46   11.94
   4   1  -9    7.36    1.56
   4  -1  -9    5.25    1.31
   4  -1  -9    6.57    1.56
   4   1  -9    7.61    0.98
   4   1  -9    5.92    1.38
   4   1  -8  135.34    4.03
   4  -1  -8  130.17    6.00
   4   1  -8  141.12    6.19
   4  -1  -8  134.42    7.10
   4   1  -8  133.01    6.25
   4  -1  -7   30.53    2.88
   4   1  -7   28.27    2.65
   4  -1  -7   27.54    3.19
   4   1  -7   30.40    2.91
   4   1  -7   23.74    1.77
   4  -1  -6   87.78    5.32
   4   1  -6   84.33    3.41
   4   1  -6   87.30    4.86
   4   1  -6   92.17    4.64
   4  -1  -6   86.47    4.79
   4  -1  -5   71.74    4.78
   4   1  -5   66.71    3.09
   4  -1  -5   65.40    4.03
   4   1  -5   62.38    3.65
   4   1  -5   60.03    3.98
   4   1  -4  260.33    7.40
   4  -1  -4  248.23    7.71
   4  -1  -4  252.01    8.75
   4   1  -4  269.95    6.55
   4   1  -4  269.53    8.38
   4  -1  -3   27.02    2.86
   4   1  -3   32.94    2.91
   4   1  -3   28.06    2.36
   4   1  -3   29.16    2.23
   4  -1  -3   30.76    2.77
   4   1  -2   51.77    3.59
   4  -1  -2   59.27    4.09
   4   1  -2   55.17    3.23
   4  -1  -2   57.42    3.67
   4  -1  -1   12.33    1.67
   4   1  -1   14.51    1.76
   4  -1  -1   13.93    1.91
   4   1  -1   15.66    1.90
   4  -1   0  157.80    6.15
   4  -1   0  159.93    6.45
   4   1   1   11.52    1.65
   4   1   1   17.30    2.03
   4  -1   1   15.53    2.02
   4   1   2   56.26    3.47
   4   1   2   49.86    3.51
   4  -1   2   52.78    3.63
   4  -1   3   27.18    2.60
   4   1   3   29.74    2.49
   4   1   3   30.86    2.82
   4  -1   4  273.67    8.35
   4   1   4  256.34    8.37
   4   1   4  251.85    7.23
   4  -1   5   65.42    4.16
   4   1   5   71.89    3.82
   4   1   5   68.80    4.43
   4   1   6   93.26    5.30
   4  -1   6   92.88    5.04
   4   1   6   94.50    4.36
   4   1   7   26.11    2.21
   4  -1   7   28.00    2.88
   4   1   7   33.81    3.33
   4   1   8  127.31    5.11
   4   1   8  137.93    6.86
   4  -1   8  143.74    6.54
   4   1   9    5.84    1.33
   4   1   9    6.15    1.08
   4  -1   9    9.25    1.67
   4   1  10  456.52    9.54
   4   1  10  448.75   13.03
   4  -1  10  447.23   12.13
   4   1  11   69.98    3.69
   4   1  11   60.62    4.89
   4  -1  11   62.41    4.62
   4   1  12   39.42    2.82
   4   1  12   43.31    4.26
   4  -1  12   32.70    3.57
   4   1  13   29.35    2.39
   4  -1  13   27.73    3.26
  -4  -1  13   21.29    1.28
   4   1  14   30.96    4.00
   4   1  14   27.51    2.25
   4  -1  15    2.58    0.94
   4   1  15    3.85    0.89
   4   1  15    3.17    1.71
   4   1  16  199.09    9.89
   4  -1  16  173.60    8.91
   4   1  17   16.72    3.21
   4  -1  17   15.76    2.68
  -4   1  18   45.79    4.45
   4   1  18   35.14    4.58
   4  -1  18   32.66    4.18
   4  -1  19   22.92    3.49
   4   1  19   21.28    3.43
   4  -1  20    3.22    1.21
   4   1  20    0.88    1.65
   4   1  21    7.97    2.76
   4   1  22    9.10    2.37
   4   1  23    4.73    2.24
   4  -2 -30    1.85    1.39
   4  -2 -29    2.54    1.87
   4  -2 -28    1.05    1.65
   4  -2 -27   27.06    4.66
   4  -2 -26   32.98    5.24
   4  -2 -25   42.46    5.83
   4  -2 -24    5.23    2.26
   4  -2 -23   -0.75    2.09
   4   2 -23   -2.16    1.74
   4   2 -22   26.02    4.22
   4  -2 -22   29.90    4.81
   4   2 -21   45.18    5.39
   4  -2 -21   40.21    5.50
   4   2 -20    5.84    2.51
   4  -2 -20    3.85    1.44
  -4  -2 -20    6.37    2.08
   4  -2 -19   86.38    7.69
  -4  -2 -19   90.99    7.91
   4   2 -18   10.11    2.39
  -4  -2 -18    7.21    2.45
   4  -2 -18    8.89    2.38
   4  -2 -17    9.32    2.41
   4  -2 -17    5.26    1.70
  -4  -2 -17    7.27    2.29
   4   2 -17    7.13    1.95
  -4  -2 -16  168.45   10.00
   4  -2 -16  145.73    9.30
   4   2 -16  150.91    8.35
   4   2 -16  133.91    7.73
   4  -2 -16  148.51    8.41
   4   2 -15   83.64    5.94
   4   2 -15   92.65    6.02
  -4  -2 -15   87.52    7.01
   4  -2 -15   85.46    6.36
   4  -2 -15   84.60    6.91
  -4  -2 -14   36.22    4.40
   4  -2 -14   36.22    4.51
   4  -2 -14   30.23    3.59
   4   2 -14   33.94    3.68
   4   2 -14   32.91    3.56
   4   2 -13   88.55    5.65
  -4  -2 -13   64.89    5.68
   4  -2 -13   73.07    6.27
   4   2 -13   79.67    5.46
   4  -2 -13   73.21    5.66
   4  -2 -12  155.71    8.88
  -4  -2 -12  146.26    8.41
   4   2 -12  153.35    7.21
   4   2 -12  151.08    7.46
   4  -2 -12  156.86    8.04
  -4  -2 -11   32.38    3.99
   4  -2 -11   29.74    3.53
  -4   2 -11   31.41    1.77
   4   2 -11   35.60    3.64
   4   2 -11   33.83    3.17
   4  -2 -11   28.54    3.77
   4  -2 -10  181.26    9.14
  -4  -2 -10  176.84    8.66
   4   2 -10  185.44    7.21
   4  -2 -10  175.77    8.32
  -4   2 -10  174.64    4.76
   4   2 -10  188.62    7.97
   4  -2  -9   56.52    4.58
   4   2  -9   47.75    3.95
   4   2  -9   64.31    3.98
   4  -2  -9   60.04    5.25
   4   2  -8   13.84    1.17
   4   2  -8   12.64    2.06
   4   2  -8   11.66    1.64
   4  -2  -8   11.99    2.11
   4  -2  -8   11.93    2.30
   4  -2  -7    3.46    1.08
   4  -2  -7    3.24    1.14
   4   2  -7    1.88    1.10
   4   2  -7    4.62    0.74
   4   2  -7    3.13    0.83
   4  -2  -6    4.92    1.27
   4   2  -6    4.06    1.25
   4   2  -6    3.35    0.63
   4  -2  -6    5.18    1.55
   4   2  -6    3.66    0.92
   4   2  -5   22.16    2.66
   4  -2  -5   17.87    2.45
   4   2  -5   22.25    1.99
   4  -2  -5   20.93    2.61
   4   2  -4  572.49   10.33
   4   2  -4  555.54   12.90
   4  -2  -4  559.75   13.87
   4   2  -4  549.09    9.41
   4  -2  -4  558.87   13.34
   4   2  -3  168.08    7.04
   4   2  -3  167.98    5.05
   4   2  -3  158.35    5.69
   4  -2  -3  172.29    7.48
   4  -2  -3  160.45    7.04
   4  -2  -2   74.14    4.67
   4   2  -2   79.92    4.81
   4   2  -2   75.47    4.05
   4  -2  -2   72.65    4.82
   4   2  -1   53.91    3.58
   4  -2  -1   58.83    4.16
   4   2  -1   52.54    3.88
   4  -2  -1   57.00    4.21
   4   2   0   66.50    4.11
   4  -2   0   56.29    4.11
   4   2   0   63.80    4.33
   4  -2   0   60.00    4.16
   4   2   1   51.39    3.78
   4  -2   1   42.10    3.50
   4   2   1   54.73    3.80
   4  -2   1   56.69    4.06
   4  -2   2   77.94    4.76
   4  -2   2   79.12    4.77
   4   2   2   82.24    5.00
   4   2   2   76.24    4.69
   4   2   3  164.10    6.86
   4   2   3  159.00    7.01
   4  -2   3  174.22    7.18
   4   2   4  554.97   12.52
   4  -2   4  592.29   13.27
   4   2   4  561.03   13.39
   4   2   5   22.82    2.76
   4  -2   5   19.10    2.44
   4   2   5   19.83    2.44
   4   2   6    2.79    1.05
   4  -2   6    3.75    1.06
   4   2   6    3.62    1.29
   4   2   7    1.93    0.79
   4   2   7    4.69    1.50
   4  -2   7    3.82    1.11
   4  -2   8   13.86    2.24
   4   2   8   13.63    2.00
   4   2   8   12.71    2.37
   4   2   9   60.69    4.20
   4  -2   9   63.22    4.57
   4   2   9   49.48    4.43
   4  -2  10  169.53    7.67
   4   2  10  174.26    8.64
   4  -2  11   34.09    3.42
   4   2  11   34.31    3.19
   4   2  11   35.93    3.99
   4   2  12  148.10    6.79
   4   2  12  154.09    8.54
   4  -2  12  144.17    7.23
   4   2  13   71.47    4.82
   4   2  13   64.47    5.59
   4   2  14   34.40    3.38
   4  -2  14   34.72    3.68
   4   2  14   41.88    4.55
   4   2  15   87.04    6.67
   4   2  15   91.87    5.45
   4  -2  15   84.30    5.92
   4   2  16  146.50    8.99
   4   2  16  145.76    6.94
   4  -2  16  132.18    7.66
   4  -2  17    9.73    2.28
   4   2  17    6.46    2.11
   4   2  18    9.33    2.59
   4  -2  18    9.82    2.30
   4   2  19   78.20    7.11
   4  -2  19   68.98    5.91
   4   2  20    6.07    2.25
  -4   2  20    2.07    1.52
   4   2  21   41.94    5.53
   4   2  22   38.35    5.45
   4   2  23    3.99    1.56
   4   2  24    0.56    1.18
   4  -3 -29    3.96    2.44
   4  -3 -28   -1.03    2.19
   4  -3 -27    0.31    1.22
   4  -3 -26    2.74    2.54
   4  -3 -25   -0.51    1.23
   4  -3 -24    1.24    1.60
  -4  -3 -23    2.08    1.19
   4  -3 -23    2.26    2.11
  -4  -3 -22    0.14    1.18
   4  -3 -22    0.78    1.60
   4  -3 -21   -0.89    1.41
  -4  -3 -21    0.86    1.46
  -4  -3 -20   -0.38    1.34
   4  -3 -20   -1.27    1.26
   4  -3 -19    7.22    2.16
  -4  -3 -19    2.53    1.51
  -4  -3 -18    8.43    2.53
   4  -3 -18    4.01    1.18
   4  -3 -18    9.32    2.55
   4   3 -17    6.72    2.23
   4  -3 -17   27.84    4.34
  -4  -3 -17   24.92    3.92
   4  -3 -17   14.26    2.91
  -4  -3 -16    7.70    1.92
   4   3 -16    7.26    1.96
   4  -3 -16    8.35    2.18
   4  -3 -16    7.16    2.55
   4   3 -16   10.56    2.15
   4  -3 -15   35.75    4.37
  -4  -3 -15   37.36    4.70
   4   3 -15   38.85    3.86
   4  -3 -15   36.08    4.77
   4   3 -15   34.67    3.94
   4   3 -14    0.94    1.11
  -4  -3 -14    0.72    1.63
   4  -3 -14    0.82    1.08
   4  -3 -14    3.02    1.34
   4   3 -14    0.12    0.52
   4  -3 -13   15.65    3.15
  -4  -3 -13   16.01    2.74
   4   3 -13   18.18    2.43
   4  -3 -13   17.39    2.85
   4   3 -13   14.52    2.55
   4  -3 -12   29.16    3.77
   4  -3 -12   23.44    3.65
  -4   3 -12   24.05    2.27
  -4  -3 -12   26.35    3.65
   4   3 -12   20.84    2.44
   4   3 -12   30.58    3.53
   4  -3 -11    8.99    1.94
   4   3 -11    4.35    1.80
   4   3 -11    9.91    1.51
  -4  -3 -11    7.52    2.04
  -4   3 -11    6.44    1.23
   4  -3 -11    7.97    2.05
  -4   3 -10   15.79    1.90
  -4  -3 -10   16.53    2.87
   4   3 -10   15.39    1.92
   4   3 -10   17.33    2.74
   4  -3 -10   11.84    2.30
   4  -3 -10    8.50    2.08
   4  -3  -9   28.28    3.80
   4   3  -9   24.16    2.16
  -4   3  -9   28.07    2.68
  -4  -3  -9   20.96    3.06
   4   3  -9   27.93    3.34
   4  -3  -9   25.94    3.45
   4   3  -9   28.28    1.84
   4   3  -8    4.12    1.52
   4   3  -8    2.98    0.64
   4  -3  -8    4.13    1.37
  -4   3  -8    2.18    0.78
  -4  -3  -8    1.69    0.92
   4   3  -8    2.71    0.69
   4  -3  -8    4.60    1.49
   4   3  -7   31.98    3.59
   4  -3  -7   36.94    4.05
   4   3  -7   29.70    1.96
  -4   3  -7   31.20    2.94
  -4  -3  -7   35.03    3.55
   4  -3  -7   34.78    3.85
   4   3  -6  257.92    7.21
   4   3  -6  250.37    9.62
   4   3  -6  256.10    5.34
   4  -3  -6  285.36   11.00
   4  -3  -6  267.13   10.48
   4   3  -5   27.77    3.17
   4  -3  -5   32.97    3.62
   4   3  -5   33.06    2.74
   4   3  -5   33.32    1.80
   4  -3  -5   34.15    3.65
   4  -3  -4   10.73    2.14
   4   3  -4   12.15    2.08
   4   3  -4    9.14    1.59
   4  -3  -4   15.02    2.52
   4   3  -3   43.93    3.39
   4  -3  -3   51.05    4.48
   4   3  -3   45.23    4.11
   4   3  -3   46.21    2.28
   4  -3  -3   48.26    4.26
   4   3  -2   37.10    3.70
   4  -3  -2   36.27    3.61
   4  -3  -2   48.41    4.33
   4   3  -2   40.99    3.39
   4   3  -1   81.59    4.85
   4   3  -1   84.64    5.64
   4  -3  -1   83.16    5.54
   4  -3  -1   81.25    5.44
   4   3   0  268.85    9.12
   4   3   0  256.33    9.63
   4  -3   0  248.70    9.37
   4  -3   0  268.71    9.82
   4  -3   1   94.15    5.65
   4  -3   1   79.71    5.25
   4   3   1   86.54    5.32
   4   3   1   75.81    5.33
   4  -3   2   36.89    3.55
   4   3   2   38.78    3.74
   4   3   2   37.43    3.72
   4  -3   2   41.18    3.56
   4  -3   3   46.57    3.91
   4   3   3   38.47    3.68
   4  -3   3   52.42    4.25
   4   3   4   12.51    2.20
   4  -3   4    8.50    1.82
   4   3   4   12.03    2.17
   4  -3   4   10.42    1.90
   4   3   5   31.44    3.46
   4   3   5   36.64    3.83
   4  -3   5   35.00    3.55
   4   3   6  257.38   10.37
   4   3   6  263.68    9.97
   4  -3   6  262.38    9.66
   4   3   7   30.03    3.69
   4  -3   7   28.89    3.11
   4   3   7   32.69    3.46
   4   3   8    3.06    1.53
   4   3   8    3.81    1.29
   4  -3   8    3.70    1.31
   4   3   9   25.42    3.36
   4   3   9   31.41    3.53
   4  -3   9   30.45    3.41
   4  -3  10   16.11    2.50
   4   3  10   10.31    2.33
   4   3  10   13.97    2.35
   4   3  11    6.39    2.06
   4   3  11    4.72    1.31
   4  -3  11    6.90    1.93
   4  -3  12   25.90    3.25
   4   3  12   25.00    3.18
   4   3  12   30.80    3.96
   4   3  13   17.97    2.67
   4  -3  13   15.40    2.51
   4   3  13   17.21    2.89
   4   3  14   -0.96    1.57
   4   3  14    1.33    1.30
   4  -3  14   -0.37    1.07
   4   3  15   30.83    3.62
   4  -3  15   33.61    3.76
   4   3  15   31.67    4.36
   4   3  16    8.86    1.83
   4   3  16    6.89    2.23
   4  -3  16    8.11    1.75
   4   3  17   21.28    3.01
   4  -3  17   22.33    3.19
   4   3  17   21.80    3.98
   4   3  18    6.20    2.03
   4   3  19   -0.39    0.95
   4   3  20   -0.63    1.66
  -4   3  21    1.75    1.82
   4   3  21   -0.24    1.29
   4   3  22   -0.41    1.64
   4   3  23    0.27    1.26
   4   3  24   -0.12    1.47
   4   3  25    1.14    2.30
   4  -4 -28   -1.95    2.05
   4  -4 -27   15.08    3.94
   4  -4 -26   22.60    4.63
   4  -4 -25    9.09    2.12
  -4  -4 -25   12.19    3.59
  -4  -4 -24    7.48    2.38
   4  -4 -24    5.24    2.16
  -4  -4 -23   14.53    3.79
   4  -4 -23    8.95    2.78
  -4  -4 -22   14.15    3.20
   4  -4 -22   11.53    3.17
   4  -4 -21   43.64    5.75
  -4  -4 -21   51.24    6.57
   4  -4 -20   37.80    5.67
  -4  -4 -20   28.08    4.65
   4  -4 -19    4.62    2.21
  -4  -4 -19    7.76    2.41
   4  -4 -18   12.35    2.90
   4  -4 -18    8.32    2.18
  -4  -4 -18    8.74    2.74
  -4  -4 -17    1.62    1.50
   4  -4 -17    3.08    2.16
   4  -4 -17    2.86    1.40
  -4  -4 -16   71.34    6.63
   4  -4 -16   63.86    6.42
   4   4 -16   69.92    6.27
   4  -4 -16   61.26    6.34
   4  -4 -15  381.53   15.97
  -4  -4 -15  390.76   15.55
   4  -4 -15  400.81   15.77
   4   4 -15  381.49   13.93
   4  -4 -14   70.01    6.43
  -4  -4 -14   67.04    6.44
   4  -4 -14   64.60    6.85
   4   4 -14   69.81    5.99
   4   4 -13   30.28    3.89
   4  -4 -13   31.56    4.63
  -4  -4 -13   33.03    4.44
   4  -4 -13   33.50    4.31
   4   4 -12  110.69    7.22
   4  -4 -12  103.18    7.61
  -4  -4 -12  113.23    7.89
   4  -4 -12  122.55    8.54
   4   4 -11  124.89    7.52
   4  -4 -11  131.55    8.42
  -4   4 -11  105.70    5.92
   4  -4 -11  100.20    7.59
  -4  -4 -11  116.37    7.63
   4   4 -10  108.03    7.05
   4  -4 -10  119.68    7.87
  -4   4 -10  108.97    6.09
  -4  -4 -10  103.15    7.00
   4  -4 -10  112.47    7.78
  -4   4  -9   61.58    4.69
  -4  -4  -9   64.34    5.39
   4  -4  -9   73.10    6.11
   4   4  -9   70.76    5.69
   4  -4  -9   77.25    6.40
   4   4  -9   71.10    3.83
   4   4  -8   13.30    2.71
  -4  -4  -8    9.06    2.02
   4  -4  -8   10.92    2.66
   4  -4  -8   11.20    2.50
   4   4  -8   10.10    1.53
  -4   4  -8   10.08    1.96
   4   4  -7  125.06    7.39
  -4  -4  -7  137.12    7.36
  -4   4  -7  116.92    6.55
   4  -4  -7  134.29    8.07
   4  -4  -7  125.12    7.86
   4   4  -7  115.38    5.55
   4   4  -6   13.93    2.03
   4   4  -6   13.60    2.63
  -4  -4  -6   10.41    1.97
   4  -4  -6   15.09    2.73
   4  -4  -6   13.77    2.72
  -4   4  -6   14.36    2.43
   4  -4  -5   70.47    5.62
   4   4  -5   71.08    4.54
   4   4  -5   63.13    5.34
  -4   4  -5   67.63    5.06
   4  -4  -5   60.79    5.40
  -4  -4  -5   72.62    4.94
  -4   4  -4  251.82    9.95
   4   4  -4  234.59   10.24
   4  -4  -4  242.54   10.38
   4   4  -4  246.05    8.81
   4  -4  -4  223.37   10.20
   4   4  -3   88.86    5.48
   4   4  -3   88.80    6.28
   4  -4  -3  100.37    6.52
   4  -4  -3   90.85    6.40
   4   4  -2    9.04    2.11
   4   4  -2    7.06    1.44
   4  -4  -2    6.20    1.76
   4  -4  -2    7.95    1.92
   4   4  -1    8.12    1.74
   4  -4  -1    1.92    1.27
   4   4  -1    5.34    1.45
   4  -4  -1    5.72    1.52
   4   4   0   10.65    2.37
   4   4   0   10.75    2.05
   4  -4   0    6.47    1.62
   4   4   1    3.16    1.39
   4  -4   1    1.81    0.91
   4   4   1    0.88    0.75
   4  -4   1    3.51    1.04
   4   4   2    6.53    1.81
   4  -4   2    7.13    1.87
   4   4   2    9.13    2.11
   4  -4   2   10.26    1.97
   4  -4   3   88.45    5.75
   4   4   3   84.65    6.01
   4  -4   3   92.62    6.23
   4   4   3   79.38    5.96
   4   4   4  255.16   10.69
   4   4   4  226.52   10.03
   4  -4   4  234.40    9.32
   4  -4   4  230.94    9.92
   4  -4   5   65.42    5.32
   4   4   5   60.77    5.22
   4   4   5   61.46    5.28
   4  -4   5   67.19    5.06
   4   4   6   13.87    2.70
   4  -4   6    9.95    2.09
   4  -4   6   15.22    2.62
   4   4   6    9.78    2.20
   4  -4   7  118.02    7.04
   4   4   7  123.49    7.53
   4   4   7  108.28    7.21
   4   4   8   15.05    2.60
   4  -4   8   12.56    2.44
   4   4   8   12.78    2.74
   4   4   9   72.73    5.88
   4   4   9   67.23    5.89
   4  -4   9   65.26    5.22
   4  -4  10  111.06    6.81
   4   4  10   87.15    6.89
   4   4  10  100.97    7.07
   4  -4  11  111.29    7.11
   4   4  11  125.59    8.47
   4   4  11  116.70    7.60
   4   4  12  102.82    7.86
   4   4  12  113.17    7.57
   4  -4  12   99.21    6.71
   4   4  13   31.21    4.33
   4   4  13   35.93    4.47
   4  -4  13   32.92    3.78
   4   4  14   56.28    6.12
   4   4  14   69.69    6.06
   4  -4  14   65.38    5.38
   4   4  15  399.74   14.75
   4   4  15  387.55   15.73
   4  -4  15  370.63   13.53
   4  -4  16   53.83    5.25
   4   4  16   69.58    6.22
   4   4  16   66.80    6.53
   4   4  17    2.17    1.44
   4   4  17    0.89    1.10
   4   4  18    9.76    2.68
   4   4  18    9.49    2.69
   4   4  19    5.23    2.66
   4   4  20   28.33    4.52
   4   4  21   46.55    5.96
  -4   4  21   60.63    6.53
   4   4  22   12.46    2.83
  -4   4  22   13.04    3.66
  -4   4  22    6.61    2.36
   4   4  23    9.46    2.96
   4   4  24    6.43    2.23
   4   4  25    7.02    2.41
   4   4  26   23.27    4.27
   4  -5 -27    5.37    2.21
   4  -5 -26    1.07    1.89
  -4  -5 -26    0.47    2.15
  -4  -5 -25    4.35    2.46
   4  -5 -25    0.50    1.67
  -4  -5 -24   12.00    3.37
   4  -5 -24   13.80    4.06
  -4  -5 -23   -1.11    1.07
   4  -5 -23    1.91    1.51
  -4  -5 -22    2.28    2.21
   4  -5 -22    6.84    2.31
  -4  -5 -21    2.01    1.39
   4  -5 -21    2.88    2.26
  -4  -5 -20    6.69    2.84
   4  -5 -20    4.87    2.42
  -4  -5 -19    4.14    1.96
   4  -5 -19    1.26    2.08
   4  -5 -18   12.85    2.73
   4  -5 -18    6.18    1.93
   4  -5 -17   44.31    5.71
   4  -5 -17   45.80    5.71
  -4  -5 -17   46.88    5.87
  -4  -5 -16   57.25    6.52
   4  -5 -16   48.69    6.00
   4  -5 -16   50.58    5.83
  -4  -5 -15   84.84    7.56
   4  -5 -15   81.07    7.50
   4  -5 -15   88.58    7.96
   4   5 -15   91.86    7.32
   4   5 -14    5.17    2.15
   4  -5 -14    7.32    2.52
  -4  -5 -14    5.88    2.33
   4  -5 -14    4.49    1.96
   4  -5 -13   53.92    5.85
   4  -5 -13   60.47    6.35
   4   5 -13   57.96    5.77
  -4  -5 -13   67.56    6.58
   4   5 -12   69.18    6.25
   4  -5 -12   72.05    6.89
  -4  -5 -12   68.68    6.44
   4  -5 -12   64.60    6.37
   4   5 -11    1.73    0.94
  -4   5 -11    0.76    1.18
   4  -5 -11    1.25    1.66
   4  -5 -11    0.62    1.00
  -4  -5 -11    0.98    1.35
   4   5 -10   41.84    4.69
  -4   5 -10   29.67    3.63
   4  -5 -10   35.81    4.83
  -4  -5 -10   31.22    4.19
   4  -5 -10   38.30    4.82
   4  -5  -9   23.53    3.76
  -4   5  -9   23.82    3.36
  -4  -5  -9   26.91    3.62
   4  -5  -9   18.99    3.55
   4   5  -9   26.83    3.75
   4   5  -9   25.98    2.95
   4   5  -8   12.74    2.06
   4   5  -8   11.65    2.46
  -4   5  -8    9.58    2.27
   4  -5  -8    7.84    1.75
   4  -5  -8   13.46    2.41
  -4  -5  -8   11.85    2.45
   4   5  -7   18.18    3.20
   4   5  -7   15.36    2.34
  -4  -5  -7   23.72    3.31
  -4   5  -7   18.66    2.97
   4  -5  -7   20.65    3.47
   4  -5  -7   17.28    3.21
  -4   5  -6   10.99    2.68
   4  -5  -6    8.09    2.65
  -4  -5  -6    7.54    1.64
   4   5  -6    5.29    1.68
   4  -5  -6    3.97    1.84
   4   5  -6    8.84    1.90
   4   5  -5   11.21    2.17
   4  -5  -5   18.74    3.28
  -4   5  -5   11.10    2.36
  -4  -5  -5   13.36    2.30
   4  -5  -5   10.38    2.57
   4   5  -5    9.20    2.12
   4   5  -4   58.67    4.93
   4   5  -4   48.15    5.13
  -4   5  -4   54.80    5.11
   4  -5  -4   49.06    4.93
   4  -5  -4   55.21    5.46
  -4  -5  -4   60.87    4.56
   4  -5  -3   12.91    2.65
   4   5  -3   16.17    2.91
   4   5  -3   21.19    3.04
   4  -5  -3   18.70    3.05
  -4   5  -3   13.94    2.55
   4  -5  -2    1.49    0.81
   4  -5  -2    0.71    0.85
  -4   5  -2    2.19    1.18
   4   5  -2   -0.40    0.60
   4   5  -2    1.73    1.24
   4  -5  -1   47.64    4.58
   4  -5  -1   44.79    4.95
   4   5  -1   44.39    4.87
  -4   5  -1   48.81    4.98
   4   5  -1   51.85    4.89
  -4   5   0   19.75    3.16
   4  -5   0   17.10    2.71
   4   5   0   19.81    3.26
   4   5   0   22.12    3.15
   4  -5   0   14.09    2.85
   4   5   1   39.15    4.65
  -4   5   1   45.95    4.89
   4   5   1   36.29    4.26
   4  -5   1   38.33    4.10
   4  -5   1   42.48    4.56
   4  -5   2    1.72    1.21
   4   5   2    0.52    0.67
   4   5   2    1.53    1.20
   4  -5   2    0.88    0.51
   4   5   3   17.69    3.11
   4   5   3   15.57    2.94
   4  -5   3   14.19    2.81
   4  -5   3   17.74    2.83
   4   5   4   52.44    5.11
   4   5   4   53.46    5.25
   4  -5   4   61.91    5.14
   4  -5   4   55.98    5.36
   4  -5   5   12.00    2.57
   4   5   5   11.27    2.62
   4   5   5   20.65    3.54
   4  -5   5   14.29    2.67
   4   5   6    8.53    2.29
   4  -5   6    8.29    1.99
   4   5   6    7.29    2.15
   4  -5   6    7.18    1.97
   4  -5   7   19.69    3.16
   4  -5   7   19.13    3.01
   4   5   7   17.75    3.08
   4   5   7   21.27    3.60
   4   5   8   14.26    2.85
   4  -5   8   14.43    2.67
   4   5   8   10.02    1.99
   4  -5   8   10.92    2.26
   4  -5   9   29.64    3.70
   4   5   9   20.26    3.23
   4   5   9   19.39    3.41
   4  -5   9   27.17    3.63
   4  -5  10   33.24    4.08
   4   5  10   25.73    3.87
   4  -5  11    5.05    1.88
   4   5  11    6.54    2.13
   4   5  11    7.04    2.17
   4   5  12   71.58    6.58
   4   5  12   76.61    7.00
   4  -5  12   67.28    5.81
   4   5  13   61.17    6.17
   4   5  13   63.76    6.17
   4  -5  13   61.51    5.61
   4   5  14    3.06    1.20
   4  -5  14    2.39    1.50
   4   5  14    3.92    2.28
   4   5  15   81.01    7.38
   4   5  15   80.37    7.46
   4  -5  15   70.26    6.12
   4   5  16   49.74    5.86
  -4   5  16   51.55    5.97
   4   5  16   44.60    5.55
   4   5  17   51.49    5.92
  -4   5  17   48.50    5.92
   4   5  17   40.74    5.50
   4   5  18    7.96    2.61
  -4   5  18    7.73    2.17
   4   5  19    4.75    2.31
  -4   5  19    4.08    2.01
   4   5  19    4.29    2.42
   4   5  20    8.38    2.76
  -4   5  20    6.81    2.01
   4   5  21    2.49    1.51
  -4   5  21   -0.17    2.01
  -4   5  22    3.54    1.97
  -4   5  22    9.18    3.74
   4   5  22    4.94    2.58
   4   5  23    2.89    2.17
  -4   5  23    1.60    1.84
   4   5  24   10.73    3.43
   4   5  25    1.00    1.76
   4   5  26    1.67    1.77
   4   5  27    0.81    1.77
  -4  -6 -26    9.98    3.75
   4  -6 -26   17.32    4.50
   4  -6 -25    4.48    2.31
  -4  -6 -25    8.90    2.86
  -4  -6 -24   11.83    3.54
   4  -6 -24    6.30    1.83
  -4  -6 -23   13.72    3.70
   4  -6 -23   17.75    4.29
  -4  -6 -22   11.75    3.80
   4  -6 -22    3.90    1.72
   4  -6 -21   34.81    5.72
  -4  -6 -21   27.51    4.97
  -4  -6 -20   89.33    8.42
   4  -6 -20   82.42    8.11
  -4  -6 -19    8.82    2.61
   4  -6 -19    3.93    3.09
   4  -6 -18    5.89    2.20
  -4  -6 -18    8.23    2.88
   4  -6 -18    5.11    1.37
   4  -6 -17   45.37    5.84
  -4  -6 -17   48.01    6.05
   4  -6 -17   52.78    6.56
   4  -6 -16   13.02    3.09
   4  -6 -16   14.63    3.48
  -4  -6 -16   14.72    3.68
   4   6 -15  246.23   12.79
   4  -6 -15  257.96   13.81
   4  -6 -15  246.47   13.60
  -4  -6 -15  254.25   13.28
   4  -6 -14   61.26    6.78
  -4  -6 -14   60.97    6.52
   4  -6 -14   57.39    6.27
   4   6 -14   64.35    6.54
  -4  -6 -13    9.07    2.81
   4  -6 -13    2.02    2.35
   4   6 -13    8.11    2.32
   4  -6 -13   10.12    3.23
   4   6 -12   17.08    3.80
   4  -6 -12   19.41    3.97
  -4  -6 -12   22.46    4.12
   4  -6 -12   19.09    3.79
   4  -6 -11  242.97   12.93
   4   6 -11  239.24   12.16
  -4  -6 -11  238.48   12.07
  -4   6 -11  208.04   11.09
   4  -6 -11  241.96   12.88
   4   6 -10   44.01    5.11
  -4   6 -10   43.02    5.04
  -4  -6 -10   61.41    5.90
   4  -6 -10   52.54    6.01
   4  -6 -10   45.81    5.44
   4   6  -9  100.41    7.81
  -4   6  -9   88.85    7.14
  -4  -6  -9  105.28    7.66
   4  -6  -9  106.59    8.49
   4  -6  -9   99.18    8.05
   4   6  -8   24.24    3.87
  -4   6  -8   26.47    3.84
  -4  -6  -8   22.37    3.46
   4  -6  -8   17.47    3.21
   4   6  -8   24.68    3.58
   4  -6  -8   28.33    4.30
   4   6  -7    8.76    1.96
  -4   6  -7   12.65    2.86
   4  -6  -7   10.44    2.80
   4   6  -7   14.30    3.09
   4  -6  -7    6.54    2.11
  -4  -6  -7   11.92    2.26
  -4  -6  -6  100.83    6.73
   4  -6  -6  106.35    8.22
  -4   6  -6   88.24    7.17
   4  -6  -6   86.47    7.10
   4   6  -6  101.19    6.93
   4   6  -6  100.74    7.92
  -4   6  -5  150.50    9.29
   4  -6  -5  157.45    9.90
   4   6  -5  171.58   10.17
  -4  -6  -5  156.70    8.16
   4  -6  -5  158.78    9.35
   4   6  -5  165.15    8.90
  -4   6  -4    4.10    1.51
   4   6  -4    1.81    1.49
  -4  -6  -4    4.56    1.29
   4   6  -4    3.21    1.18
   4  -6  -4    1.69    1.50
   4  -6  -4    3.87    2.27
   4   6  -3   68.05    6.49
  -4   6  -3   75.78    6.57
   4  -6  -3   60.86    5.90
   4   6  -3   72.73    6.02
   4  -6  -3   73.84    6.78
   4   6  -2   10.06    2.66
   4  -6  -2   14.21    3.34
  -4   6  -2   13.28    2.96
   4  -6  -2   15.90    3.02
   4   6  -2   17.86    2.97
   4  -6  -1   92.17    6.82
   4   6  -1  100.38    7.68
  -4   6  -1   83.83    7.20
   4   6  -1   88.08    6.86
   4  -6  -1  105.92    7.87
   4   6   0  134.11    8.97
   4  -6   0  109.11    7.32
   4   6   0  123.40    8.28
  -4   6   0  120.55    8.28
   4  -6   0  114.54    8.12
   4   6   1   80.10    6.70
   4   6   1   88.15    7.29
   4  -6   1   82.40    6.39
  -4   6   1   84.89    7.10
   4  -6   1   88.25    7.19
   4  -6   2   15.06    3.10
   4   6   2   12.94    2.86
   4   6   2   15.46    2.80
  -4   6   2   20.75    3.62
   4  -6   2   11.06    2.78
   4   6   3   58.85    6.29
  -4   6   3   68.96    6.44
   4   6   3   75.55    6.63
   4  -6   3   66.87    5.70
   4  -6   3   76.20    6.61
   4   6   4    4.44    1.46
   4  -6   4    4.75    1.81
   4  -6   4    3.06    1.35
  -4   6   4    5.18    2.24
   4   6   4    3.29    1.87
   4  -6   5  147.05    8.47
  -4   6   5  174.24   10.44
   4   6   5  154.34    9.74
   4   6   5  165.67    9.86
   4  -6   5  159.47    9.27
   4   6   6   97.95    7.76
  -4   6   6  115.57    8.45
   4   6   6   95.27    7.67
   4  -6   6  112.40    7.86
   4  -6   6  105.01    7.15
   4  -6   7   14.50    3.01
   4   6   7    8.05    2.32
   4   6   7    9.57    2.73
  -4   6   7    9.33    2.97
   4  -6   7    7.43    2.12
   4   6   8   30.97    4.46
   4   6   8   27.12    3.95
  -4   6   8   29.67    4.57
   4  -6   8   27.82    3.60
   4  -6   9   95.68    6.87
   4   6   9  103.77    8.33
  -4   6   9  103.88    8.36
   4   6   9  105.25    8.21
   4  -6   9  103.81    7.69
  -4   6  10   57.99    6.03
   4  -6  10   41.38    4.68
   4   6  10   53.74    6.04
   4   6  10   57.89    6.21
   4  -6  10   51.99    5.38
  -4   6  11  233.89   12.79
   4   6  11  245.88   12.86
   4   6  11  238.10   12.81
   4  -6  11  238.16   11.33
   4  -6  11  224.25   11.45
  -4   6  12   22.16    3.99
   4  -6  12   17.60    3.40
   4  -6  12   22.22    3.76
   4   6  12   16.66    3.76
   4   6  12   22.55    3.79
   4  -6  13    4.79    1.34
   4   6  13   12.45    3.16
  -4   6  13    5.42    2.83
   4   6  13   17.08    3.64
   4   6  14   67.99    7.04
   4   6  14   61.17    6.77
  -4   6  14   58.22    6.79
   4  -6  14   57.19    5.93
   4   6  15  230.88   12.79
   4   6  15  240.17   13.12
  -4   6  15  249.47   13.75
  -4   6  16   14.28    3.37
   4   6  16   13.50    3.74
   4   6  16   11.05    2.36
   4   6  17   38.89    5.66
   4   6  17   54.08    6.61
  -4   6  17   50.50    6.18
  -4   6  18    4.54    2.72
   4   6  18    5.54    2.93
   4   6  18    6.67    2.27
  -4   6  19    3.85    2.31
   4   6  19    4.34    2.33
   4   6  19    5.10    2.81
  -4   6  20   83.74    8.46
   4   6  20   84.95    8.73
   4   6  21   36.95    5.83
  -4   6  21   32.95    5.79
  -4   6  22    6.32    2.73
  -4   6  22    2.03    2.01
  -4   6  23   20.45    4.73
  -4   6  23   12.82    3.88
   4   6  23   14.60    3.92
  -4   6  24    8.93    3.30
   4   6  24    8.54    3.02
   4   6  25    6.46    2.86
   4   6  26   10.28    3.82
  -4  -7 -24   -1.53    1.59
   4  -7 -24    3.60    2.35
   4  -7 -23   -0.21    1.67
  -4  -7 -23    2.77    2.37
   4  -7 -22    0.55    1.80
  -4  -7 -22    5.10    2.07
  -4  -7 -21   -1.39    1.72
   4  -7 -21    1.90    1.97
   4  -7 -20   11.51    3.33
  -4  -7 -20   11.82    3.37
  -4  -7 -19   12.30    3.33
   4  -7 -19   13.03    4.07
  -4  -7 -18   28.12    4.73
   4  -7 -18   23.68    4.87
   4  -7 -18   22.72    4.83
   4  -7 -17    3.98    2.28
  -4  -7 -17    5.18    2.24
   4  -7 -17    9.52    2.93
  -4  -7 -16   15.28    3.91
   4  -7 -16   12.14    3.21
   4  -7 -16   10.85    2.77
   4  -7 -15    6.94    2.20
  -4  -7 -15    7.01    2.30
   4  -7 -15    3.95    2.36
  -4  -7 -14    6.27    2.57
   4   7 -14    4.85    1.50
   4  -7 -14    7.84    2.58
   4  -7 -14    8.81    3.14
   4   7 -13   34.92    4.92
  -4  -7 -13   32.27    4.93
   4  -7 -13   35.99    5.38
   4  -7 -13   28.70    4.75
   4  -7 -12    6.70    2.29
   4   7 -12    7.86    2.48
   4  -7 -12    5.35    2.72
  -4  -7 -12    4.53    2.13
   4   7 -11   19.27    3.65
  -4  -7 -11   18.00    3.54
   4  -7 -11   24.16    4.40
   4  -7 -11   20.20    3.94
   4   7 -10   55.48    6.33
   4  -7 -10   44.74    5.60
  -4   7 -10   47.66    5.89
  -4  -7 -10   59.98    6.33
   4  -7 -10   52.66    6.32
   4  -7  -9    2.43    2.02
   4   7  -9    0.97    1.13
  -4  -7  -9    3.21    0.97
  -4   7  -9    2.28    1.72
   4  -7  -9    1.54    2.01
   4  -7  -8   40.38    5.21
  -4   7  -8   46.73    5.72
   4  -7  -8   40.17    5.33
  -4  -7  -8   45.75    4.97
   4   7  -8   42.99    5.42
   4   7  -7    2.00    1.62
  -4  -7  -7    0.69    1.21
   4  -7  -7    0.34    1.23
  -4   7  -7    2.49    1.85
   4  -7  -7    1.78    2.21
   4  -7  -6   12.76    2.96
   4   7  -6   16.87    3.27
  -4   7  -6   15.00    3.30
   4  -7  -6   14.35    3.12
   4   7  -6   14.27    3.51
  -4  -7  -6   17.35    3.03
   4   7  -5   10.85    2.96
   4  -7  -5   15.18    3.49
  -4   7  -5   13.19    3.52
   4   7  -5   14.09    2.72
   4  -7  -5   15.44    3.50
  -4  -7  -5   10.12    2.09
  -4   7  -4    4.81    1.92
   4   7  -4    7.77    2.68
   4   7  -4    1.65    1.14
   4  -7  -4    4.58    1.97
   4  -7  -4    4.12    1.85
   4  -7  -3    6.44    2.27
   4   7  -3    7.01    2.40
  -4   7  -3    9.09    2.61
   4   7  -3    8.63    2.44
   4  -7  -3   11.70    3.32
  -4   7  -2    6.48    2.41
   4  -7  -2    5.74    2.08
   4   7  -2    2.10    1.68
   4   7  -2    4.48    1.60
   4  -7  -2    5.66    1.78
  -4   7  -1    6.50    2.30
   4  -7  -1    6.83    2.31
   4  -7  -1    2.18    1.36
   4   7  -1    5.12    2.55
   4   7  -1    3.33    1.37
   4   7   0   16.80    3.70
  -4   7   0   13.73    3.29
   4   7   0   11.86    2.59
   4  -7   0   13.23    2.71
   4  -7   0   12.17    3.31
   4   7   1    9.20    2.96
  -4   7   1    6.64    2.14
   4  -7   1    6.01    1.94
   4  -7   1    5.35    2.10
   4   7   1    4.46    1.93
   4   7   2    7.47    2.41
  -4   7   2    9.90    3.17
   4  -7   2    7.45    1.92
   4   7   2    4.00    1.86
   4  -7   2    4.40    2.36
   4   7   3    4.35    1.57
   4   7   3    8.21    2.37
   4  -7   3    7.63    2.32
  -4   7   3   10.50    2.88
   4  -7   3    7.61    2.09
  -4   7   4    2.46    1.58
   4  -7   4    3.00    0.91
   4   7   4    4.72    1.72
   4  -7   4    1.52    1.02
   4  -7   5   18.03    3.28
   4   7   5   18.30    3.48
   4  -7   5   11.78    2.85
  -4   7   5   16.65    3.59
   4   7   5   14.63    3.35
   4  -7   6   16.21    3.28
   4  -7   6   10.58    2.34
   4   7   6   13.84    3.52
   4   7   6   12.87    2.49
  -4   7   6   16.23    3.56
   4   7   7   -0.03    0.88
  -4   7   7   -0.38    1.79
   4  -7   7    2.77    1.64
   4   7   7    4.32    1.37
  -4   7   8   41.19    5.62
   4   7   8   43.80    5.78
   4   7   8   49.58    5.87
   4  -7   8   46.09    5.49
   4  -7   9    0.97    1.16
   4   7   9    1.36    1.71
  -4   7   9    3.55    2.09
   4   7   9    2.11    1.59
   4   7  10   58.96    6.62
  -4   7  10   57.80    6.42
   4  -7  10   47.32    5.56
   4   7  10   50.57    6.11
   4  -7  11   18.17    3.49
   4   7  11   19.69    3.92
  -4   7  11   24.77    4.93
   4   7  11   20.86    4.05
   4  -7  12    4.97    1.92
   4   7  12    7.36    1.84
   4   7  12    9.35    3.06
  -4   7  12    3.08    1.76
   4   7  13   27.93    4.90
   4   7  13   20.67    4.19
  -4   7  13   35.25    5.57
   4   7  14    6.47    2.04
  -4   7  14    5.72    2.53
   4   7  14    4.66    2.67
   4   7  15    2.81    2.31
   4   7  15    9.02    3.43
  -4   7  15   14.79    3.26
   4   7  16   12.46    3.76
   4   7  16    9.68    2.78
  -4   7  16   12.33    3.38
   4   7  17    3.86    2.49
  -4   7  17    4.68    1.39
   4   7  17    6.10    2.32
   4   7  18   26.93    4.80
   4   7  18   19.21    4.51
  -4   7  18   25.36    4.75
  -4   7  19   11.74    3.42
   4   7  19   17.46    4.45
   4   7  19   11.79    3.72
  -4   7  20   10.01    3.06
   4   7  20    9.30    3.42
   4   7  21    0.26    2.07
  -4   7  21    0.43    1.26
   4   7  22    6.76    1.92
  -4   7  22    1.48    1.75
  -4   7  22    3.41    2.04
  -4   7  23    1.74    1.80
  -4   7  23    1.83    2.15
   4   7  23    2.36    2.12
  -4   7  24   -1.25    1.54
   4   7  24   -1.08    2.38
  -4  -8 -22    8.46    3.17
   4  -8 -22    5.04    3.50
   4  -8 -21    6.18    3.28
  -4  -8 -21   10.54    3.35
  -4  -8 -20   10.84    3.02
   4  -8 -20    7.17    2.88
  -4  -8 -19   13.05    3.28
   4  -8 -19   13.87    3.94
  -4  -8 -18   22.80    4.71
   4  -8 -18   22.91    4.45
   4  -8 -17    2.78    1.97
  -4  -8 -17    0.58    1.26
   4  -8 -17    3.57    2.02
  -4  -8 -16   12.61    3.63
   4  -8 -16   20.53    4.13
   4  -8 -16   21.23    4.39
   4  -8 -15    3.23    2.12
  -4  -8 -15   -2.95    2.23
   4  -8 -15    1.53    1.49
  -4  -8 -14   -0.54    1.31
   4  -8 -14    1.81    1.40
   4  -8 -14    0.65    1.56
   4   8 -13    6.41    2.18
  -4  -8 -13   13.06    3.25
   4  -8 -13   17.12    3.98
   4  -8 -13   13.28    3.52
   4   8 -12    2.21    1.34
  -4  -8 -12   -1.63    2.16
   4  -8 -12    3.31    2.01
   4  -8 -12   -0.47    1.21
  -4  -8 -11    3.61    1.61
   4  -8 -11    6.57    2.41
   4  -8 -11    8.48    3.50
   4   8 -11    6.59    2.23
  -4   8 -10   82.86    8.57
  -4  -8 -10   85.19    7.79
   4  -8 -10   79.25    7.87
   4  -8 -10   74.76    7.90
   4   8 -10   69.71    7.36
   4   8  -9   10.26    3.03
  -4  -8  -9   14.31    3.11
  -4   8  -9    9.23    2.26
   4  -8  -9   10.26    2.82
   4  -8  -9   15.74    3.44
   4   8  -8    4.66    2.44
  -4   8  -8    0.16    1.12
   4  -8  -8    5.50    2.45
   4  -8  -8    7.55    3.01
   4  -8  -7   43.47    5.57
  -4   8  -7   42.94    5.86
   4  -8  -7   45.26    5.62
   4   8  -7   52.62    6.39
  -4   8  -6   61.97    6.93
   4  -8  -6   69.12    7.11
   4  -8  -6   65.06    7.21
   4   8  -6   62.19    7.13
   4  -8  -5   13.97    3.56
  -4   8  -5   24.26    4.48
   4   8  -5   19.35    3.71
   4   8  -5   19.25    3.52
   4  -8  -5   20.19    4.21
   4  -8  -4    8.47    2.13
   4   8  -4   12.95    3.17
   4   8  -4   12.07    3.08
   4  -8  -4    7.14    2.40
  -4   8  -4   11.36    3.25
   4  -8  -3    5.46    2.00
   4   8  -3    4.73    2.92
  -4   8  -3    2.88    1.74
   4   8  -3    5.59    2.38
   4  -8  -3    5.55    2.15
   4   8  -2    6.52    2.48
   4   8  -2    0.95    1.83
   4  -8  -2    5.72    2.51
  -4   8  -2    7.06    2.43
   4  -8  -2    2.81    2.45
   4   8  -1   64.87    6.85
   4  -8  -1   69.43    7.15
  -4   8  -1   67.14    7.44
   4  -8  -1   62.03    6.06
   4   8   0   83.94    8.13
   4  -8   0   96.13    7.65
   4   8   0   79.05    7.52
  -4   8   0   99.79    8.75
   4  -8   0   70.50    7.19
   4  -8   1   64.52    6.75
   4   8   1   70.91    7.12
  -4   8   1   71.03    7.24
   4   8   1   70.09    7.19
  -4   8   2    3.30    2.19
   4   8   2    7.22    2.71
   4  -8   2    5.43    1.78
   4   8   2    3.26    1.81
   4  -8   3    8.05    2.64
  -4   8   3    6.29    2.83
   4   8   3    4.42    2.35
   4   8   3    7.34    2.50
   4   8   4    8.32    3.17
  -4   8   4    8.29    2.30
   4   8   4   11.29    3.02
   4  -8   4   12.15    3.20
   4  -8   5   19.76    3.56
   4   8   5   24.70    4.71
   4   8   5   19.80    3.96
  -4   8   5   15.67    3.90
   4   8   6   82.25    7.97
   4  -8   6   68.42    7.14
  -4   8   6   65.55    7.12
   4   8   6   55.39    6.68
   4   8   7   42.54    5.86
  -4   8   7   47.82    6.10
   4   8   7   38.08    5.22
   4  -8   7   46.42    5.98
  -4   8   8    8.07    3.16
   4   8   8    7.76    3.04
   4   8   8    7.55    3.10
   4  -8   8    9.62    2.91
   4   8   9   10.00    3.01
   4   8   9   13.61    3.26
  -4   8   9   14.18    3.20
   4  -8   9   15.65    3.76
   4   8  10   76.48    7.83
  -4   8  10   76.12    7.78
   4   8  10   77.91    7.79
   4  -8  10   78.51    7.87
   4   8  11    5.15    2.50
   4   8  11    4.32    1.99
  -4   8  11    6.11    2.40
   4  -8  11    4.06    2.04
   4   8  12    2.94    0.96
   4   8  12    0.60    1.65
  -4   8  12    1.16    1.76
  -4   8  13   14.37    3.70
   4   8  13    7.84    2.02
   4   8  13   10.04    2.51
  -4   8  14    4.85    2.31
   4   8  14    1.51    2.27
   4   8  14    2.65    2.63
   4   8  15    2.30    1.75
   4   8  15    1.33    2.29
  -4   8  15    3.57    2.61
  -4   8  16   13.51    3.61
   4   8  16   17.17    4.09
   4   8  16    6.87    2.29
   4   8  17    2.93    2.61
  -4   8  17    0.59    2.11
   4   8  17   -1.03    2.10
   4   8  18   18.65    4.49
   4   8  18   26.40    5.28
  -4   8  18   21.31    4.85
   4   8  19   19.95    4.58
  -4   8  19   11.82    3.17
   4   8  19   17.71    4.43
  -4   8  20   11.83    3.73
   4   8  20    9.30    3.44
   4   8  20    5.89    2.39
   4   8  21   11.36    3.99
  -4   8  21   14.77    4.41
   4   8  22    2.45    2.58
  -4   8  22    6.58    3.36
  -4   8  22    8.21    3.03
  -4  -9 -19   -3.50    3.03
   4  -9 -19   -2.46    2.03
   4  -9 -18   -0.80    1.98
  -4  -9 -18   -0.48    2.59
  -4  -9 -17    1.45    1.37
   4  -9 -17    2.39    2.44
   4  -9 -16   -0.90    1.76
  -4  -9 -16    0.91    1.69
   4  -9 -16    0.45    1.82
   4  -9 -15    3.61    2.31
   4  -9 -15    1.90    2.51
   4  -9 -14    7.64    3.20
   4  -9 -14    0.96    1.13
   4  -9 -13   11.82    3.52
   4   9 -13   14.35    4.69
   4  -9 -13   10.14    3.59
   4   9 -12    9.80    2.94
   4  -9 -12   19.62    4.35
   4  -9 -12   12.40    3.37
   4  -9 -11    0.02    1.45
   4   9 -11    0.05    1.79
   4  -9 -11   -1.25    1.51
   4   9 -10    1.30    2.42
   4  -9 -10    0.27    1.67
   4  -9 -10   -1.28    1.26
   4   9  -9    4.05    2.04
  -4   9  -9    4.26    1.77
   4  -9  -9    4.79    2.00
   4  -9  -8   15.71    3.80
   4   9  -8   13.71    3.85
  -4   9  -8   15.88    4.05
   4  -9  -8   15.18    3.58
   4   9  -7    9.90    2.59
  -4   9  -7    4.37    2.12
   4  -9  -7    7.48    3.46
   4  -9  -7    4.26    1.61
   4   9  -6   -0.52    1.44
  -4   9  -6    4.42    2.08
   4  -9  -6    1.56    1.47
   4  -9  -6    3.79    1.18
   4   9  -5    2.69    1.73
  -4   9  -5    0.03    2.04
   4  -9  -5    1.44    2.10
   4  -9  -5   -1.88    1.76
   4   9  -4    5.64    2.33
  -4   9  -4    3.56    1.95
   4  -9  -4    1.18    1.05
   4  -9  -3    5.56    2.49
  -4   9  -3    9.53    3.38
   4   9  -3    3.51    2.19
   4   9  -3    7.95    2.58
  -4   9  -2    2.87    1.45
   4   9  -2    2.03    1.84
   4   9  -2    5.06    2.48
   4  -9  -2   -0.62    1.33
  -4   9  -1    7.74    2.48
   4   9  -1    9.06    3.12
   4   9  -1    6.48    1.74
   4  -9  -1    8.96    3.17
   4   9   0   23.56    4.14
  -4   9   0   24.68    4.95
   4   9   0   17.47    3.73
   4  -9   0   23.21    4.26
   4   9   1    4.50    1.29
  -4   9   1    4.84    2.22
   4   9   1    9.75    3.60
   4  -9   2    5.00    2.65
  -4   9   2    9.10    2.85
   4   9   2    4.45    2.02
   4   9   2    1.85    1.92
   4   9   3    9.63    2.60
  -4   9   3    4.55    1.99
   4  -9   3    8.75    2.90
   4   9   3    6.88    2.59
   4   9   4    2.94    2.17
   4   9   4    8.23    3.25
   4  -9   4    6.97    2.46
  -4   9   4   12.50    3.13
   4   9   5   -1.67    2.16
   4  -9   5    0.66    1.35
  -4   9   5    1.48    1.77
   4   9   5    0.88    1.73
   4   9   6    2.97    2.33
   4   9   6   -1.28    1.82
  -4   9   6    3.41    2.38
   4  -9   6    5.32    1.94
  -4   9   7    5.78    1.61
   4   9   7    7.75    2.45
   4   9   7    6.44    2.36
   4  -9   7    4.58    2.15
   4   9   8   11.39    3.17
   4   9   8   11.79    3.28
   4  -9   8   20.18    3.90
  -4   9   8   10.90    3.28
   4   9   9   11.17    3.53
  -4   9   9    9.82    3.14
   4   9   9    4.12    2.16
   4  -9   9   10.04    3.58
   4   9  10   -1.23    1.69
   4   9  10    0.33    1.79
   4  -9  10   -1.49    1.23
  -4   9  10    1.10    1.56
   4   9  11   -0.45    1.40
  -4   9  11    2.07    2.11
   4   9  11    3.22    1.70
   4   9  12   14.30    3.49
   4   9  12   12.54    3.68
  -4   9  12   18.00    4.40
   4   9  13   13.44    3.84
  -4   9  13   10.60    3.06
   4   9  13   12.07    3.75
   4   9  14    3.00    1.47
  -4   9  14    6.28    2.87
   4   9  14    6.34    2.96
   4   9  15    0.44    1.80
  -4   9  15    6.63    3.50
   4   9  15    0.73    2.17
   4   9  16    1.31    1.94
   4   9  16    0.23    1.11
  -4   9  16    3.23    3.00
  -4   9  17    4.62    2.38
   4   9  17    1.63    1.67
   4   9  17   -1.31    1.78
   4   9  18    1.21    1.92
  -4   9  18   -2.32    1.68
   4   9  18    4.08    2.55
  -4   9  19    3.67    2.78
   4   9  19   -0.63    2.05
   4 -10 -15    5.03    2.20
   4 -10 -14    3.41    2.22
   4 -10 -14    1.45    2.22
   4 -10 -13    4.76    3.04
   4 -10 -13    4.04    2.97
   4  10 -12    4.46    3.09
   4 -10 -12    0.06    1.73
   4  10 -11   13.78    3.99
   4 -10 -11    8.87    2.97
   4  10 -10   11.37    3.58
   4 -10 -10   27.42    5.62
   4 -10  -9   35.03    5.64
   4  10  -9   25.67    5.10
   4 -10  -8    3.96    1.73
  -4  10  -8    1.68    1.90
  -4  10  -7   10.00    4.16
   4 -10  -7    7.72    3.13
   4  10  -7    9.85    2.95
   4  10  -6   17.38    4.38
  -4  10  -6   12.74    3.83
   4 -10  -6    6.58    3.04
  -4  10  -5   19.22    4.50
   4  10  -5   16.03    3.83
   4 -10  -5   11.99    3.69
   4  10  -4    1.98    1.80
  -4  10  -4    7.45    2.76
   4 -10  -4   11.53    3.16
   4  10  -3    3.73    2.22
   4 -10  -3    3.74    1.85
   4  10  -2    5.01    3.12
   4  10  -2    1.64    1.53
  -4  10  -2    6.94    2.79
   4 -10  -2    5.10    1.92
   4  10  -1   10.48    3.73
   4  10  -1   14.82    3.69
  -4  10  -1   14.65    3.91
   4 -10  -1   10.01    3.55
   4  10   0   19.31    4.12
  -4  10   0   14.17    3.66
   4 -10   0   25.80    4.79
   4  10   0   23.73    5.37
   4  10   1    7.71    2.85
   4  10   1    6.81    3.04
  -4  10   1    7.20    2.12
   4 -10   1    4.18    2.14
   4  10   2    4.62    2.56
  -4  10   2    9.51    2.87
   4 -10   2    3.80    1.65
   4 -10   3    1.42    2.42
  -4  10   3    8.20    3.43
   4  10   3    2.06    2.56
   4  10   3   -0.25    1.76
   4  10   4   21.90    4.96
   4  10   4    7.85    2.52
   4 -10   4   11.13    3.33
  -4  10   4   18.22    4.35
   4 -10   5   18.74    3.90
   4  10   5   18.67    3.97
   4  10   5   20.03    4.37
  -4  10   5   12.44    3.32
   4  10   6    5.87    2.41
   4  10   6    6.75    2.93
   4 -10   6    9.43    2.99
   4 -10   7   11.78    3.51
   4  10   7    6.04    1.98
   4  10   7    3.63    2.66
  -4  10   7    5.33    2.09
   4  10   8    4.01    1.95
  -4  10   8    4.47    2.77
   4  10   8    4.75    2.02
  -4  10   9   26.27    4.89
   4  10   9   27.85    4.86
   4  10   9   28.65    5.26
   4  10  10   13.48    4.14
   4  10  10   11.37    2.79
  -4  10  10   14.26    3.58
   4  10  11   16.01    4.11
   4  10  11    8.89    3.26
  -4  10  11    9.45    3.32
   4  10  12   -0.24    1.60
   4  10  12    2.55    2.08
   4  10  13    5.36    2.93
  -4  10  13    4.16    2.65
   4  10  13    1.91    1.99
   4  10  14    1.23    1.62
  -4  10  14    0.43    1.89
   4  10  14    0.57    1.10
   4  10  15    7.80    3.63
  -4  10  15    5.74    3.16
   4  10  15    2.82    2.34
   4  11  -8    5.34    2.95
   4 -11  -8    6.22    2.17
   4 -11  -7   10.34    3.09
  -4  11  -7    6.54    1.95
   4  11  -7   14.59    4.05
   4  11  -6    2.32    2.54
  -4  11  -6    6.32    3.39
   4 -11  -6    6.87    3.05
   4  11  -5    0.64    2.00
  -4  11  -5    2.86    3.03
   4 -11  -5   -2.60    1.86
   4  11  -4    0.59    1.52
  -4  11  -4    4.14    2.76
   4 -11  -4    0.41    1.05
   4  11  -3    0.32    1.96
  -4  11  -3    0.96    1.44
   4 -11  -3    2.84    2.14
   4  11  -2    0.07    1.64
  -4  11  -2   -0.06    1.73
   4 -11  -2    0.46    1.24
  -4  11  -1    5.59    3.06
   4  11  -1   13.73    4.38
   4 -11  -1    9.43    3.20
   4  11   0    1.38    1.56
   4  11   0    3.24    2.84
  -4  11   0    0.41    1.52
   4 -11   0    2.33    2.80
   4  11   1    7.37    2.82
   4  11   1    2.38    2.00
  -4  11   1    6.72    2.77
   4 -11   1   10.92    4.03
   4  11   2   -1.14    1.63
  -4  11   2    3.46    1.78
   4  11   2    3.92    2.89
   4 -11   2    5.25    2.98
   4 -11   3    1.31    1.46
   4  11   3   -0.67    1.82
   4  11   3    0.18    1.51
  -4  11   3   -2.32    1.38
   4  11   4    2.91    1.99
  -4  11   4   -0.12    1.91
   4 -11   4   -1.16    1.58
   4  11   4   -1.06    1.37
   4 -11   5    2.64    1.93
   4  11   5   -3.07    2.62
  -4  11   5    1.25    2.50
   4  11   5   -1.52    2.01
   4  11   6    6.30    2.96
  -4  11   6    5.85    2.96
   4  11   6    3.30    2.01
   4 -11   6    3.48    1.99
  -4  11   7    8.38    2.75
   4  11   7   10.14    3.29
   4  11   7    6.67    2.53
   4  11   8    0.23    2.46
   4  11   8    0.57    1.29
   5   0 -30    0.79    1.90
   5   0 -29   -2.01    1.33
   5   0 -28    1.36    2.28
   5   0 -27    4.36    2.49
   5   0 -26   -1.02    1.71
   5   0 -25   -0.63    1.34
   5   0 -24   -1.36    1.57
   5   0 -23    0.44    1.48
   5   0 -22   -0.34    0.91
   5   0 -21   -0.91    0.90
   5   0 -20   -1.32    1.71
   5   0 -19    0.51    1.13
   5   0 -18    1.37    1.56
   5   0 -17    0.24    0.89
   5   0 -16    1.50    1.58
   5   0 -15    0.71    1.00
   5   0 -14    0.76    0.99
   5   0 -14   -0.28    0.50
   5   0 -13   -0.45    1.10
   5   0 -13    0.18    0.63
   5   0 -12   -0.19    0.85
   5   0 -12    0.19    0.51
   5   0 -11    0.16    0.41
   5   0 -11   -0.12    0.74
   5   0 -10   -0.14    0.46
   5   0 -10    0.43    1.00
   5   0  -9    0.24    0.59
   5   0  -9   -0.19    0.64
   5   0  -8   -0.32    0.41
   5   0  -8    1.40    0.97
   5   0  -7    0.21    0.43
   5   0  -7    0.13    0.40
   5   0  -7   -0.75    0.41
   5   0  -6    0.37    0.57
   5   0  -6    0.18    1.00
   5   0  -6   -0.07    0.53
   5   0  -5    0.13    0.44
   5   0  -5   -0.28    0.55
   5   0  -5   -0.12    0.88
   5   0  -4    0.19    0.69
   5   0  -4   -0.14    0.54
   5   0  -4   -0.04    0.73
   5   0  -3    0.21    0.47
   5   0  -3    0.12    0.53
   5   0  -3    0.17    0.69
   5   0  -2   -0.07    0.48
   5   0  -2    0.47    0.47
   5   0  -2    0.04    0.64
   5   0  -1   -0.27    0.43
   5   0  -1    0.19    0.53
   5   0  -1    0.65    0.48
   5   0   0    0.41    0.50
   5   0   0    0.00    0.52
   5   0   1   -0.29    0.44
   5   0   1   -0.16    0.30
   5   0   2   -0.16    0.61
   5   0   2    0.00    0.38
   5   0   3    0.07    0.45
   5   0   3    0.03    0.54
   5   0   4   -0.29    0.26
   5   0   4    0.60    0.60
   5   0   5    0.45    0.43
   5   0   5   -0.01    0.58
   5   0   6    0.15    0.29
   5   0   6    0.12    0.50
   5   0   7   -0.02    0.40
   5   0   7   -0.02    0.61
   5   0   8    0.18    0.81
   5   0   8    0.01    0.41
   5   0   9    0.07    0.64
   5   0   9   -0.34    0.48
   5   0  10    1.17    1.00
   5   0  10   -0.01    0.25
   5   0  11   -0.04    0.74
   5   0  11    0.51    0.49
   5   0  12   -0.33    0.52
   5   0  12    0.50    0.45
   5   0  13    0.11    0.74
   5   0  13    0.06    0.18
   5   0  14   -0.66    1.09
   5   0  15    0.51    0.87
   5   0  16    0.79    1.07
   5   0  17   -0.82    0.84
   5   0  18    0.16    0.86
   5   0  19    0.39    0.94
   5   0  20    0.32    1.28
   5   0  21   -0.72    1.79
   5   0  22    1.00    1.89
   5  -1 -30    3.60    2.19
   5  -1 -29    9.65    3.11
   5  -1 -28    8.97    3.56
   5  -1 -27   23.03    4.49
   5  -1 -26   43.53    6.25
   5   1 -26   31.41    5.12
   5   1 -25   41.27    5.97
   5  -1 -25   41.46    5.68
   5   1 -24    4.95    2.24
   5  -1 -24    0.61    1.47
   5   1 -23    3.84    1.09
   5  -1 -23    6.20    2.63
   5   1 -22   18.01    3.87
   5  -1 -22   16.79    3.84
   5   1 -21   27.64    4.36
   5  -1 -21   28.62    4.34
   5  -1 -20    1.98    1.89
   5   1 -20    0.70    1.39
   5   1 -19   24.09    4.00
   5  -1 -19   29.50    4.56
   5   1 -18   25.50    3.89
   5  -1 -18   29.63    4.42
   5  -1 -17   33.23    4.47
   5   1 -17   35.25    4.43
   5   1 -16  310.15   12.64
   5  -1 -16  289.28   10.62
   5  -1 -15  191.82    8.76
   5  -1 -15  193.81   10.58
   5   1 -15  190.55    9.70
   5   1 -14  145.52    8.25
   5  -1 -14  126.08    6.89
   5  -1 -14  140.68    8.59
   5   1 -13   57.05    4.90
   5   1 -13   61.03    5.19
   5  -1 -13   68.13    5.90
   5  -1 -13   58.84    4.61
   5  -1 -12   84.31    6.45
   5   1 -12   88.76    5.99
   5   1 -12   78.73    3.53
   5  -1 -12   99.85    5.88
   5   1 -12   97.32    6.32
   5  -1 -11  154.07    8.55
   5   1 -11  155.97    7.80
   5  -1 -11  135.11    6.68
   5   1 -11  141.94    4.70
   5   1 -11  142.62    7.34
   5   1 -10  323.98   11.02
   5  -1 -10  334.52   12.35
   5  -1 -10  341.62   10.41
   5   1 -10  347.71   11.21
   5   1 -10  326.42    7.32
   5  -1  -9   19.67    2.89
   5   1  -9   22.91    1.98
   5   1  -9   21.03    2.58
   5  -1  -9   20.28    2.47
   5   1  -9   21.10    2.73
   5   1  -8   18.86    1.87
   5  -1  -8   15.82    2.62
   5   1  -8   18.03    2.55
   5   1  -8   18.40    2.38
   5  -1  -8   17.30    2.30
   5   1  -7   12.84    1.61
   5  -1  -7    8.67    1.82
   5   1  -7   13.77    2.06
   5  -1  -7   10.05    1.85
   5   1  -7   14.10    2.16
   5  -1  -6  708.66   14.53
   5   1  -6  730.02   12.03
   5   1  -6  694.53   15.05
   5  -1  -6  740.19   16.65
   5   1  -6  742.98   14.47
   5   1  -5  257.35    7.20
   5  -1  -5  247.45    9.34
   5   1  -5  248.14    8.17
   5   1  -5  260.61    9.05
   5  -1  -4 1201.56   20.43
   5  -1  -4 1203.71   18.63
   5   1  -4 1189.85   15.98
   5   1  -4 1215.53   17.79
   5   1  -4 1254.68   19.23
   5  -1  -3  183.28    7.26
   5   1  -3  188.96    6.94
   5  -1  -3  183.76    7.93
   5   1  -3  168.01    6.18
   5   1  -3  181.44    7.25
   5  -1  -2   22.26    2.54
   5  -1  -2   22.15    2.75
   5   1  -2   21.97    2.30
   5   1  -2   25.74    2.49
   5   1  -2   21.52    2.53
   5  -1  -1   29.46    3.06
   5  -1  -1   29.86    3.01
   5   1  -1   35.08    3.13
   5   1  -1   30.72    2.76
   5   1   0   24.67    2.54
   5  -1   0   25.10    2.67
   5   1   0   31.88    2.96
   5  -1   0   28.00    2.94
   5  -1   1   33.50    3.19
   5   1   1   36.02    3.14
   5  -1   2   21.88    2.51
   5   1   2   24.36    2.56
   5   1   2   24.69    2.65
   5   1   3  188.02    6.90
   5   1   3  172.99    7.33
   5  -1   3  166.87    7.13
   5   1   4 1180.45   17.45
   5  -1   4 1214.92   19.38
   5   1   5  264.29    8.10
   5  -1   5  259.64    9.09
   5   1   5  271.50    9.44
   5  -1   6  733.54   15.32
   5   1   6  768.32   16.18
   5   1   6  744.92   13.48
   5   1   7    9.08    1.48
   5   1   7    9.90    1.89
   5  -1   7    8.40    1.62
   5   1   8   14.82    1.85
   5   1   8   17.39    2.64
   5  -1   8   16.26    2.35
   5   1   9   20.64    2.28
   5   1   9   16.97    2.64
   5  -1   9   15.61    2.40
   5   1  10  332.30   11.87
   5   1  10  337.30    8.90
   5  -1  10  331.47   11.18
   5   1  11  133.33    7.77
   5  -1  11  154.09    7.87
   5   1  11  151.12    5.98
   5   1  12   91.48    4.53
   5  -1  12   84.90    6.00
   5   1  13   59.02    5.38
   5   1  13   57.23    3.53
   5  -1  13   69.76    5.49
   5   1  14  122.38    5.18
   5   1  14  148.03    8.65
   5  -1  14  146.29    8.09
   5   1  15  197.76   10.16
   5  -1  15  178.48    9.19
   5   1  15  175.69    6.15
   5   1  16  284.07   12.38
   5  -1  16  296.42   12.09
   5  -1  17   32.04    4.12
   5   1  17   34.91    4.42
   5  -1  18   26.03    3.67
   5   1  18   32.93    4.55
   5  -1  19   16.52    3.01
   5   1  19   28.49    4.35
   5  -1  20    3.01    1.34
   5   1  20    1.60    1.27
   5  -1  21   18.46    3.37
   5   1  21   35.68    5.03
   5   1  22   15.47    3.72
   5   1  23    1.86    1.69
   5  -2 -29    1.60    2.98
   5  -2 -28    1.96    1.20
   5  -2 -27    2.53    2.25
   5  -2 -26    8.63    2.63
   5  -2 -25    5.89    2.64
   5  -2 -24    3.48    2.11
   5  -2 -23   27.52    4.84
   5   2 -22   -0.79    0.87
   5  -2 -22    6.44    1.50
   5  -2 -21    5.58    2.40
   5   2 -21    2.69    1.48
   5  -2 -20    8.87    2.46
   5   2 -20    5.32    1.86
   5   2 -19   86.80    7.50
   5  -2 -19  108.76    8.60
   5  -2 -18   18.88    3.62
   5   2 -18   21.73    3.58
   5  -2 -18   27.35    4.14
   5   2 -17   22.72    3.39
   5  -2 -17   28.95    4.41
   5  -2 -17   29.07    3.81
   5   2 -17   24.58    3.38
   5  -2 -16   44.24    4.78
   5   2 -16   57.13    5.15
   5  -2 -16   62.25    6.31
   5   2 -16   50.92    4.98
   5  -2 -15  429.97   14.17
   5   2 -15  426.46   14.04
   5  -2 -15  413.02   15.87
   5   2 -15  426.55   13.88
   5   2 -14   79.99    5.88
   5   2 -14   80.74    5.95
   5  -2 -14   74.10    5.75
   5  -2 -14   85.84    6.98
   5  -2 -13  199.70   10.45
   5   2 -13  188.55    8.83
   5   2 -13  188.95    8.69
   5  -2 -13  193.06    9.33
   5   2 -12   13.53    2.29
   5  -2 -12    8.63    2.40
   5  -2 -12   12.42    2.29
   5   2 -12   10.09    1.95
   5   2 -11   49.57    4.47
  -5   2 -11   51.61    2.79
   5   2 -11   50.72    4.14
   5  -2 -11   47.78    4.62
   5  -2 -11   51.74    5.15
   5  -2 -10    1.98    0.97
   5   2 -10    0.64    1.14
   5   2 -10    2.24    0.70
   5   2 -10    1.25    0.42
   5  -2 -10    1.31    1.22
   5   2  -9    4.23    1.47
   5  -2  -9    5.89    1.43
   5   2  -9    5.91    0.93
   5   2  -9    5.63    1.44
   5  -2  -9    5.21    1.67
   5  -2  -8   61.09    5.21
   5   2  -8   60.00    3.06
   5   2  -8   60.14    3.92
   5  -2  -8   54.14    4.57
   5   2  -8   58.23    4.59
   5   2  -7  358.48    9.32
   5  -2  -7  362.78   12.48
   5  -2  -7  371.60   11.91
   5   2  -7  351.48    7.82
   5   2  -7  358.31   11.46
   5  -2  -6  221.92    9.70
   5   2  -6  232.82    7.35
   5   2  -6  226.76    6.64
   5  -2  -6  234.96    9.25
   5   2  -6  238.94    9.28
   5   2  -5   56.76    3.60
   5  -2  -5   63.19    5.10
   5  -2  -5   58.72    4.65
   5   2  -5   59.30    3.54
   5   2  -5   58.40    4.57
   5   2  -4   47.83    4.08
   5  -2  -4   45.99    4.01
   5   2  -4   45.28    3.23
   5  -2  -4   39.28    3.92
   5   2  -4   45.21    3.10
   5  -2  -3  179.95    7.93
   5  -2  -3  193.07    8.55
   5   2  -3  193.10    6.89
   5   2  -3  189.71    6.30
   5   2  -2   96.21    5.58
   5  -2  -2   87.19    5.47
   5   2  -2   81.04    4.68
   5   2  -2   89.22    4.38
   5  -2  -2   93.12    5.88
   5   2  -1   42.22    3.69
   5  -2  -1   46.24    3.98
   5   2  -1   47.97    3.63
   5  -2  -1   46.92    4.16
   5   2   0  254.52    9.03
   5  -2   0  260.82    9.30
   5   2   0  249.72    8.50
   5  -2   0  264.80    9.66
   5   2   1   44.67    3.81
   5  -2   1   41.79    3.74
   5   2   1   47.11    3.79
   5  -2   1   43.04    3.90
   5   2   2   90.86    5.38
   5  -2   2   90.23    5.43
   5   2   2   89.78    5.30
   5  -2   2   90.60    5.60
   5   2   3  185.21    7.90
   5  -2   3  196.38    8.19
   5   2   4   43.57    3.71
   5  -2   4   50.84    4.18
   5   2   4   43.96    3.93
   5   2   5   57.77    4.29
   5  -2   5   59.65    4.60
   5   2   5   55.59    4.69
   5   2   6  244.19    9.64
   5  -2   6  240.34    9.19
   5   2   6  229.12    8.51
   5   2   7  373.93   10.80
   5  -2   7  351.16   11.39
   5   2   7  350.32   11.81
   5   2   8   50.41    4.04
   5  -2   8   47.37    4.23
   5   2   9    6.47    1.58
   5   2   9    6.06    1.59
   5  -2   9    6.14    1.52
   5   2  10    3.07    1.33
   5   2  10    0.89    0.82
   5  -2  10    1.05    0.78
   5   2  11   48.58    3.95
   5   2  11   45.10    4.53
   5  -2  11   50.89    4.53
   5   2  12    9.72    1.85
   5   2  12    9.71    2.21
   5  -2  12    8.75    1.95
   5   2  13  193.43    9.95
   5   2  13  182.80    7.87
   5  -2  13  205.45    9.53
   5   2  14   88.49    6.97
   5  -2  14   79.73    6.10
   5   2  14   80.95    5.24
   5  -2  15  410.50   14.01
   5   2  15  412.24   15.19
   5   2  15  419.52   11.91
   5   2  16   52.52    4.20
   5   2  16   60.68    5.93
   5  -2  16   57.50    5.39
   5   2  17   24.33    3.78
   5  -2  17   21.77    3.43
   5   2  18   24.03    4.31
   5  -2  18   23.00    3.78
   5   2  19  106.43    8.48
   5  -2  19   95.30    7.36
   5   2  20   18.83    3.35
   5   2  21    2.72    1.75
   5   2  22   10.74    3.15
   5   2  23   23.57    4.33
   5   2  24    3.29    2.43
   5  -3 -29    7.31    3.30
   5  -3 -28   11.71    3.50
   5  -3 -27   43.24    6.21
   5  -3 -26   11.75    3.07
   5  -3 -25   63.37    7.43
   5  -3 -24    3.65    1.76
   5  -3 -23    1.78    1.56
   5  -3 -22   60.58    6.96
   5  -3 -21   77.67    7.75
   5  -3 -20   45.39    6.02
   5  -3 -19   73.75    6.69
   5  -3 -19   70.77    7.39
   5  -3 -18   20.16    4.01
   5  -3 -18   12.62    3.06
   5  -3 -17   14.61    3.23
   5  -3 -17    5.30    1.77
   5   3 -17   13.22    2.66
   5  -3 -16  102.61    7.70
   5  -3 -16  115.93    8.76
   5   3 -16   99.57    7.18
   5  -3 -15  309.35   13.08
   5  -3 -15  347.02   15.10
   5   3 -15  340.74   11.91
   5   3 -15  325.21   12.65
   5   3 -14   64.05    4.97
   5  -3 -14   67.09    6.09
   5  -3 -14   59.34    6.09
   5   3 -14   62.80    5.48
   5   3 -13   11.59    2.05
   5   3 -13   10.16    2.40
   5  -3 -13   10.88    2.73
   5  -3 -13   12.36    2.72
   5  -3 -12   38.07    4.69
   5   3 -12   40.23    3.61
   5   3 -12   48.18    4.75
   5  -3 -12   45.97    4.73
   5  -3 -11   77.46    6.66
  -5   3 -11   74.22    4.25
   5   3 -11   79.66    5.98
   5  -3 -11   71.58    6.03
   5   3 -11   74.65    4.47
  -5   3 -10  123.06    5.73
   5  -3 -10  140.56    8.56
   5   3 -10  138.22    5.80
   5   3 -10  125.52    4.06
   5  -3 -10  141.31    8.22
   5   3 -10  133.81    7.95
   5   3  -9   36.10    2.95
   5  -3  -9   36.53    4.29
   5   3  -9   34.38    2.37
   5  -3  -9   36.12    4.08
   5   3  -9   33.31    3.72
   5  -3  -8   11.87    2.36
   5   3  -8    9.30    2.15
   5   3  -8    9.26    1.49
   5  -3  -8    5.92    1.91
   5   3  -8    9.30    1.39
   5   3  -7   89.60    6.12
   5  -3  -7   95.19    6.78
   5   3  -7   96.52    4.51
   5   3  -7   82.00    3.85
   5  -3  -7   96.10    6.48
   5  -3  -6  375.10   13.10
   5   3  -6  348.85    9.07
   5  -3  -6  339.01   12.27
   5   3  -6  347.13   11.83
   5   3  -6  352.27    7.74
   5  -3  -5  338.48   12.38
   5   3  -5  311.95    9.21
   5   3  -5  331.61   11.53
   5  -3  -5  350.29   12.14
   5   3  -4  171.95    6.81
   5  -3  -4  154.17    8.26
   5   3  -4  164.09    5.29
   5   3  -4  145.35    7.64
   5  -3  -4  151.11    8.04
   5  -3  -3  129.29    7.39
   5   3  -3  114.18    5.75
   5   3  -3  117.89    6.81
   5   3  -3  118.15    4.54
   5  -3  -3  110.56    6.80
   5  -3  -2  270.09   10.45
   5  -3  -2  285.49   10.87
   5   3  -2  276.64    9.20
   5  -3  -1  938.05   19.11
   5  -3  -1  901.70   19.00
   5   3  -1  934.97   19.01
   5   3  -1  869.93   16.86
   5   3   0  672.89   16.27
   5  -3   0  638.78   16.03
   5   3   0  631.80   14.74
   5  -3   0  662.03   16.33
   5  -3   1  860.55   18.47
   5   3   1  856.30   18.54
   5   3   1  894.21   18.02
   5  -3   1  920.18   19.02
   5  -3   2  276.92   10.39
   5   3   2  289.01   10.63
   5  -3   2  266.44   10.14
   5   3   2  263.26   10.01
   5   3   3  111.50    6.74
   5  -3   3  111.56    6.65
   5  -3   3  109.15    6.57
   5   3   3  111.66    6.62
   5  -3   4  159.11    7.96
   5   3   4  146.11    7.79
   5  -3   4  153.29    7.73
   5   3   4  157.22    7.87
   5   3   5  339.20   11.58
   5  -3   5  306.13   10.98
   5   3   5  341.38   11.98
   5   3   6  347.75   11.80
   5   3   6  339.30   12.29
   5  -3   6  363.61   11.91
   5   3   7   84.31    6.15
   5   3   7   91.36    6.05
   5  -3   7   91.04    6.04
   5   3   8   12.57    2.49
   5  -3   8   15.06    2.36
   5   3   8    7.13    1.86
   5   3   9   34.66    3.71
   5   3   9   31.71    3.95
   5  -3   9   33.85    3.67
   5  -3  10  137.82    7.67
   5   3  10  124.45    8.00
   5   3  10  132.99    7.36
   5  -3  11   78.55    5.83
   5   3  11   74.87    6.32
   5   3  11   83.35    5.93
   5  -3  12   42.48    4.41
   5   3  12   34.67    3.80
   5   3  12   31.99    4.07
   5   3  13   11.21    2.21
   5  -3  13   12.53    2.43
   5   3  13    9.60    2.46
   5   3  14   73.43    6.62
   5  -3  14   76.51    6.01
   5   3  14   68.25    5.68
   5   3  15  343.34   12.57
   5  -3  15  333.02   12.91
   5   3  15  312.76   13.72
   5  -3  16  110.68    7.41
   5   3  16   92.67    7.60
   5   3  16   95.47    6.62
   5   3  17   18.07    3.00
   5  -3  17   17.77    3.21
   5   3  17   14.50    3.02
   5  -3  18   15.39    2.94
   5   3  18   18.76    3.60
   5   3  19   86.86    7.84
   5   3  20   43.59    5.92
   5   3  21   73.24    7.53
   5   3  22   74.91    7.87
   5   3  23    2.41    1.91
   5   3  24    4.78    2.57
   5   3  25   72.84    8.02
   5  -4 -28    5.16    2.60
   5  -4 -27   -1.20    2.15
   5  -4 -26   -0.74    1.53
   5  -4 -25   12.09    3.64
   5  -4 -24   22.13    4.34
   5  -4 -23   15.35    3.85
   5  -4 -22    6.93    2.37
   5  -4 -21   24.53    4.70
   5  -4 -20   34.97    5.22
   5  -4 -20   44.75    5.82
   5  -4 -19    5.59    2.21
   5  -4 -19    4.17    1.94
  -5  -4 -18    5.69    2.50
   5  -4 -18    2.28    1.50
   5  -4 -18    2.02    1.44
   5  -4 -17  146.01   10.04
  -5  -4 -17  150.92   10.19
   5  -4 -17  150.22   10.25
   5  -4 -16   60.39    6.47
   5  -4 -16   55.54    6.07
   5   4 -16   60.00    5.71
  -5  -4 -16   54.86    6.03
   5   4 -15   18.11    3.00
   5  -4 -15   19.53    3.90
   5  -4 -15   20.67    3.64
  -5  -4 -15   23.36    4.02
   5   4 -14   11.08    2.45
   5  -4 -14    8.81    2.89
   5  -4 -14   11.73    2.83
  -5  -4 -14    8.40    2.47
  -5  -4 -13   48.64    5.28
   5  -4 -13   57.64    6.00
   5  -4 -13   72.30    6.61
   5   4 -13   62.83    5.78
  -5  -4 -12  104.24    7.66
   5  -4 -12  109.85    8.10
   5  -4 -12   94.18    7.49
   5   4 -12   92.80    6.92
   5   4 -11   23.65    3.52
  -5   4 -11   23.20    3.02
   5  -4 -11   32.27    4.41
   5  -4 -11   22.09    3.68
   5   4 -10    6.48    1.95
   5  -4 -10    7.16    2.27
   5  -4 -10    8.95    2.16
  -5   4 -10    8.34    1.69
   5   4  -9   80.57    6.27
   5  -4  -9   73.40    6.17
   5   4  -9   77.20    4.24
  -5   4  -9   83.96    5.53
   5  -4  -9   73.23    6.43
   5   4  -8   22.88    3.31
   5  -4  -8   19.45    3.36
   5   4  -8   16.18    2.21
  -5   4  -8   16.57    2.58
   5  -4  -8   17.95    2.98
   5  -4  -7   36.31    4.25
   5   4  -7   42.70    4.52
  -5   4  -7   36.78    3.66
   5   4  -7   42.05    3.46
   5  -4  -7   44.83    4.79
   5   4  -6  145.43    6.66
   5  -4  -6  132.52    8.13
   5  -4  -6  137.26    8.37
   5   4  -6  144.34    8.12
   5  -4  -5   50.55    4.97
   5   4  -5   42.83    1.86
   5   4  -5   48.86    4.00
   5  -4  -5   45.48    4.72
   5   4  -4   69.55    5.54
   5  -4  -4   65.46    5.65
   5   4  -4   69.49    4.93
   5  -4  -4   61.63    5.61
   5   4  -3    2.77    1.30
   5  -4  -3    2.21    1.33
   5   4  -3    4.80    0.90
   5  -4  -3    4.27    1.31
   5   4  -2   11.66    2.63
   5  -4  -2   22.06    3.28
   5  -4  -2   20.19    3.02
   5   4  -2   19.76    2.84
   5  -4  -1    1.84    1.31
   5   4  -1    4.36    1.40
   5   4  -1    3.89    1.23
   5  -4  -1    3.80    1.20
   5   4   0   66.34    5.08
   5   4   0   67.15    5.65
   5  -4   0   71.57    5.59
   5  -4   0   67.92    5.61
   5  -4   1    2.27    1.19
   5   4   1    4.63    1.76
   5   4   1    3.04    1.39
   5  -4   1    2.99    1.47
   5  -4   2   17.34    3.07
   5   4   2   13.50    2.64
   5   4   2   17.92    3.03
   5  -4   2   16.31    2.66
   5  -4   3    4.33    1.45
   5   4   3    6.83    1.84
   5   4   3    7.44    2.06
   5  -4   3    3.24    1.64
   5  -4   4   67.27    5.53
   5   4   4   65.83    5.66
   5  -4   4   74.69    5.58
   5   4   4   74.88    5.91
   5  -4   5   49.60    4.78
   5   4   5   53.16    5.09
   5   4   5   49.83    4.99
   5  -4   5   49.84    4.68
   5   4   6  134.77    8.27
   5  -4   6  139.07    7.97
   5   4   6  121.15    7.62
   5  -4   6  149.02    8.22
   5   4   7   43.34    4.69
   5  -4   7   42.08    4.41
   5   4   7   46.18    4.69
   5   4   8   16.11    2.93
   5   4   8   20.15    3.30
   5  -4   8   16.76    2.83
   5   4   9   73.93    6.40
   5  -4   9   78.23    6.18
   5   4   9   86.05    6.66
   5   4  10    4.51    1.85
   5  -4  10    7.72    1.88
   5   4  10    7.54    2.34
   5   4  11   25.81    3.68
   5  -4  11   23.06    3.33
   5   4  11   31.59    4.21
   5  -4  12  102.82    7.15
   5   4  12   91.40    7.06
   5   4  12   79.57    7.03
   5  -4  13   60.21    5.54
   5   4  13   59.50    5.77
   5   4  13   61.96    6.07
   5   4  14    8.36    2.37
   5   4  14   19.23    3.35
   5  -4  14   16.71    3.00
   5  -4  15   19.62    3.22
   5   4  15   20.48    3.41
   5   4  15   23.66    3.79
   5  -4  16   58.52    5.55
   5   4  16   53.30    5.91
   5   4  16   52.45    5.56
   5  -4  17  143.19    8.96
   5   4  17  143.58    9.15
   5   4  17  158.75   10.61
   5   4  18    3.93    2.25
   5   4  18    4.90    2.10
   5   4  19    4.12    2.12
   5   4  20   30.96    4.79
   5   4  21   11.32    3.10
   5   4  22    5.59    2.28
   5   4  23    8.31    1.92
   5   4  24   21.19    4.53
   5   4  25    5.02    1.82
   5   4  26    2.15    2.49
   5  -5 -27    5.55    3.14
   5  -5 -26    5.90    3.49
   5  -5 -25   10.51    3.38
   5  -5 -24   26.32    5.22
   5  -5 -23    4.96    2.38
   5  -5 -22    5.09    2.38
   5  -5 -21   22.05    4.95
   5  -5 -20   54.27    6.98
  -5  -5 -20   55.67    6.65
   5  -5 -20   56.85    6.75
   5  -5 -19    4.33    1.10
   5  -5 -19    1.30    1.26
  -5  -5 -18    6.01    2.36
   5  -5 -18    1.64    0.91
   5  -5 -18    3.68    2.66
   5  -5 -17   29.99    4.80
  -5  -5 -17   36.46    4.89
   5  -5 -17   28.84    4.82
   5   5 -16    5.58    2.38
  -5  -5 -16    2.81    1.98
   5  -5 -16    0.73    1.50
   5  -5 -16    1.71    1.66
  -5  -5 -15   86.90    7.54
   5  -5 -15   74.91    7.40
   5  -5 -15  101.15    8.41
   5   5 -15   93.35    8.05
   5  -5 -14   31.87    4.55
   5  -5 -14   37.22    4.95
  -5  -5 -14   30.64    4.26
   5   5 -14   37.96    4.81
   5   5 -13    0.90    1.20
   5  -5 -13    2.29    1.47
  -5  -5 -13    1.24    2.14
   5  -5 -13    0.24    1.34
   5  -5 -12   15.97    3.52
   5   5 -12   15.61    3.23
  -5  -5 -12   15.73    2.90
   5  -5 -12   14.84    3.21
   5   5 -11  115.39    8.21
  -5   5 -11   84.06    6.23
  -5  -5 -11   95.52    7.38
   5  -5 -11  104.15    8.16
   5  -5 -11  105.41    8.24
  -5   5 -10   30.65    3.90
  -5  -5 -10   28.38    4.03
   5  -5 -10   36.05    4.80
   5   5 -10   34.51    4.63
   5  -5 -10   28.93    4.49
   5  -5  -9   60.39    6.03
   5   5  -9   75.18    6.61
  -5   5  -9   62.01    5.51
   5  -5  -9   75.07    6.90
   5   5  -8   15.92    2.53
  -5   5  -8   15.44    2.80
   5  -5  -8   13.95    3.11
   5   5  -8   12.14    2.59
   5  -5  -8   17.82    3.37
   5   5  -7   14.75    2.76
   5  -5  -7   11.90    3.01
   5  -5  -7   16.78    3.31
  -5   5  -7   16.76    2.86
   5   5  -7   14.84    2.42
  -5   5  -6  183.25    9.73
   5  -5  -6  208.24   11.01
   5   5  -6  172.35    9.74
   5  -5  -6  207.71   10.80
   5   5  -6  178.94    8.50
   5   5  -5  110.27    6.76
   5   5  -5  109.85    7.70
  -5   5  -5  109.06    7.41
   5  -5  -5  110.49    8.13
   5  -5  -5  119.03    8.05
   5  -5  -4    8.23    2.11
   5   5  -4    3.57    1.50
   5   5  -4    4.43    1.50
   5  -5  -4    7.51    2.35
  -5   5  -4    8.99    2.32
   5   5  -3   26.05    3.87
   5   5  -3   29.85    3.62
  -5   5  -3   30.36    3.95
   5  -5  -3   21.20    3.48
   5  -5  -3   32.49    4.10
   5   5  -2   18.11    3.23
   5   5  -2   22.39    3.12
   5  -5  -2   19.26    3.14
   5  -5  -2   26.35    3.79
   5   5  -1   43.21    4.99
   5   5  -1   34.34    3.97
   5  -5  -1   37.14    4.46
   5  -5  -1   36.64    4.42
   5  -5   0  123.74    7.90
   5   5   0  113.04    7.39
   5  -5   0  127.43    8.29
   5   5   0  132.10    8.48
   5   5   1   39.24    4.72
   5  -5   1   33.64    4.19
   5   5   1   38.88    4.20
   5  -5   1   38.39    4.52
   5   5   2   23.02    3.58
   5   5   2   19.33    3.18
   5  -5   2   25.44    3.65
   5  -5   2   18.36    2.96
   5   5   3   31.07    3.93
   5   5   3   28.28    3.85
   5  -5   3   34.57    4.25
   5  -5   3   30.64    3.95
   5  -5   4    6.03    1.97
   5   5   4    4.23    1.17
   5   5   4    8.03    2.23
   5  -5   4    6.83    1.99
   5   5   5   95.13    7.25
   5   5   5  112.13    7.88
   5  -5   5  103.34    7.03
   5  -5   5  100.47    7.44
   5  -5   6  201.04   10.35
   5   5   6  197.93   10.49
   5   5   6  213.97   10.83
   5  -5   6  197.22    9.76
   5   5   7   22.97    3.89
   5   5   7   18.21    3.24
   5  -5   7   18.06    2.90
   5  -5   7   14.01    2.83
   5  -5   8    8.99    2.05
   5  -5   8   11.96    2.60
   5   5   8   16.60    3.31
   5   5   8   13.14    2.88
   5  -5   9   65.16    5.99
   5   5   9   73.46    6.56
   5   5   9   65.53    6.04
   5  -5   9   60.90    5.69
   5  -5  10   28.60    3.74
   5   5  10   30.15    4.50
   5   5  10   28.15    4.11
   5  -5  11   96.24    7.42
   5   5  11  100.58    7.98
   5   5  11   96.31    7.72
   5   5  12   22.58    3.93
   5  -5  12   16.03    2.97
   5   5  12   18.93    3.80
   5  -5  13    0.83    1.68
   5   5  13    0.92    1.81
   5   5  13   -0.19    1.35
   5  -5  14   33.16    4.28
   5   5  14   34.69    4.75
   5   5  14   32.61    4.62
   5  -5  15   89.42    7.17
   5   5  15   99.02    7.93
   5   5  15   79.88    7.58
   5   5  16   -0.59    1.36
   5   5  16    2.87    1.58
   5   5  17   32.50    4.76
   5   5  17   30.04    4.38
   5   5  18    8.13    2.96
   5   5  18    6.10    2.53
   5   5  19    4.05    1.89
  -5   5  20   57.81    6.83
   5   5  20   60.90    7.06
   5   5  21   27.49    4.69
  -5   5  21   24.00    5.05
   5   5  22    3.57    2.49
  -5   5  22    0.45    1.39
  -5   5  23    3.47    2.05
  -5   5  23    4.89    2.34
   5   5  23    2.51    1.59
   5   5  24   23.11    4.59
   5   5  25   10.68    2.61
   5   5  26    2.48    2.18
   5   5  27    1.67    1.68
   5  -6 -25    2.74    1.38
   5  -6 -24    6.84    2.69
   5  -6 -23    1.45    2.58
   5  -6 -22    6.45    2.47
   5  -6 -21    1.26    1.44
  -5  -6 -20    2.23    1.88
   5  -6 -20    3.07    1.59
   5  -6 -20    4.07    1.91
  -5  -6 -19   -1.23    1.85
   5  -6 -19   -1.50    1.87
   5  -6 -19   -0.24    1.45
  -5  -6 -18    1.53    1.06
   5  -6 -18    5.00    2.05
   5  -6 -18    2.05    1.62
  -5  -6 -17    6.38    2.40
   5  -6 -17    6.05    2.29
   5  -6 -17    7.15    2.91
  -5  -6 -16   11.97    3.41
   5  -6 -16   12.68    3.36
   5  -6 -16    5.11    2.01
  -5  -6 -15   27.00    4.58
   5   6 -15   18.24    3.29
   5  -6 -15   20.68    4.76
   5  -6 -15   24.88    4.52
   5  -6 -14    6.40    2.35
   5   6 -14    4.21    1.97
  -5  -6 -14    6.58    2.25
   5  -6 -14   10.01    3.15
   5  -6 -13   17.67    3.65
   5   6 -13    5.84    2.51
  -5  -6 -13   12.63    3.02
   5  -6 -13   11.15    2.84
  -5  -6 -12   47.69    5.58
   5  -6 -12   34.38    5.02
   5  -6 -12   29.74    4.94
   5   6 -12   38.99    5.26
   5  -6 -11    8.94    2.91
   5  -6 -11    8.43    3.26
   5   6 -11    7.82    1.95
  -5  -6 -11   12.88    2.69
   5  -6 -10    3.97    1.53
   5   6 -10    6.07    2.52
  -5  -6 -10    6.69    2.32
  -5   6 -10    4.96    2.20
   5  -6 -10    3.46    1.52
   5   6  -9   28.61    4.34
   5  -6  -9   28.73    4.47
  -5   6  -9   20.60    3.48
   5  -6  -9   32.26    4.68
   5   6  -8   20.52    3.74
  -5   6  -8   19.44    3.71
   5  -6  -8   22.20    3.70
   5  -6  -8   19.83    3.76
   5   6  -7   56.24    5.05
   5   6  -7   52.41    5.78
  -5   6  -7   62.98    5.98
   5  -6  -7   46.99    5.53
   5  -6  -7   54.16    6.01
   5  -6  -6    3.03    2.34
   5   6  -6    2.94    1.76
   5   6  -6    5.32    1.97
   5  -6  -6    3.52    1.82
  -5   6  -6    3.32    1.79
   5  -6  -5   11.92    2.88
   5   6  -5    6.46    2.42
  -5   6  -5    4.41    1.44
   5   6  -5    6.72    2.05
   5  -6  -5   10.65    2.91
   5   6  -4   58.69    6.08
  -5   6  -4   68.10    6.37
   5  -6  -4   65.53    6.14
   5  -6  -4   56.82    6.03
   5   6  -3   16.63    2.94
   5   6  -3   10.62    2.74
   5  -6  -3   13.34    2.68
   5  -6  -3   16.50    3.04
   5   6  -2   41.12    4.65
   5  -6  -2   35.80    4.55
   5   6  -2   29.69    4.30
  -5   6  -2   31.79    4.54
   5  -6  -2   35.36    4.65
   5   6  -1   40.62    5.06
   5  -6  -1   34.17    4.15
   5   6  -1   31.67    4.03
  -5   6  -1   49.49    5.68
   5  -6  -1   40.50    5.16
   5   6   0   43.01    5.33
  -5   6   0   35.58    4.58
   5  -6   0   39.47    4.48
   5  -6   0   45.74    5.27
   5   6   1   41.67    5.18
   5   6   1   43.52    5.03
   5  -6   1   32.88    4.33
   5  -6   1   31.76    4.25
  -5   6   1   40.39    5.11
   5   6   2   39.45    4.84
   5   6   2   33.96    4.42
  -5   6   2   33.70    4.69
   5  -6   2   43.71    5.26
   5  -6   2   38.47    4.73
   5   6   3   13.40    2.78
   5   6   3   13.51    3.02
  -5   6   3   25.37    4.01
   5  -6   3   19.59    3.30
   5  -6   3   19.24    3.61
   5  -6   4   64.24    5.82
  -5   6   4   71.66    6.57
   5   6   4   65.78    6.58
   5   6   4   68.52    6.54
   5  -6   4   53.04    5.60
   5  -6   5    5.85    1.89
  -5   6   5    6.31    2.43
   5   6   5    8.15    2.61
   5  -6   5    7.01    2.24
   5   6   5    9.76    2.62
   5   6   6    2.93    1.31
   5  -6   6    2.53    1.35
   5   6   6    5.04    1.70
   5  -6   6    6.87    2.13
   5   6   7   67.56    6.70
   5   6   7   45.15    5.48
   5  -6   7   60.03    5.83
   5  -6   7   51.66    5.68
   5   6   8   20.08    3.62
   5   6   8   16.88    3.43
   5  -6   8   18.33    3.16
   5  -6   8   22.04    3.70
   5  -6   9   20.23    3.54
   5   6   9   17.09    3.42
   5   6   9   23.71    4.23
   5  -6   9   22.06    3.61
   5  -6  10    3.67    1.59
   5  -6  10    8.29    2.43
   5   6  10    5.78    1.96
   5   6  10    4.33    1.70
   5  -6  11    9.16    2.48
   5   6  11   11.52    2.78
   5   6  11    4.53    1.34
   5  -6  11    5.87    2.51
  -5   6  12   47.91    6.04
   5   6  12   46.93    5.65
   5   6  12   39.07    5.29
   5  -6  12   39.55    5.09
   5  -6  12   46.23    5.43
   5  -6  13   16.39    3.25
   5   6  13   10.62    3.02
   5   6  13    6.71    2.34
  -5   6  13   10.39    2.98
   5  -6  13    8.01    2.43
   5  -6  14    7.77    2.53
   5   6  14    7.97    2.94
  -5   6  14    6.69    2.57
   5   6  14    7.50    2.63
   5   6  15   15.48    3.79
   5   6  15   16.64    3.20
  -5   6  15   23.21    4.33
   5   6  16    7.68    2.35
   5   6  16   14.03    3.71
  -5   6  16   11.03    3.16
   5   6  17    8.14    2.97
   5   6  17    7.41    2.72
  -5   6  17    6.38    2.67
  -5   6  18    3.37    2.17
   5   6  18    1.75    1.09
   5   6  18    5.17    2.55
   5   6  19   -2.19    2.36
   5   6  19    0.50    1.60
  -5   6  19   -2.68    1.61
  -5   6  20    6.84    3.42
   5   6  20    1.34    2.19
   5   6  21    4.24    2.50
  -5   6  21    1.92    2.64
  -5   6  22    3.83    2.25
   5   6  22    4.31    1.28
  -5   6  23    2.14    2.88
   5   6  23    0.47    1.22
  -5   6  24    5.35    2.54
   5   6  24    8.74    2.93
   5   6  25    0.31    2.57
   5  -7 -23   -0.80    2.11
   5  -7 -22    4.29    2.31
   5  -7 -21   25.88    4.96
   5  -7 -20    8.49    3.17
   5  -7 -19   17.41    3.78
  -5  -7 -19   26.45    4.58
   5  -7 -19   26.74    4.93
  -5  -7 -18   22.78    4.38
   5  -7 -18   15.35    3.82
   5  -7 -18   22.69    3.80
  -5  -7 -17   23.86    4.41
   5  -7 -17   29.23    4.77
   5  -7 -17   24.51    4.96
  -5  -7 -16   29.93    5.12
   5  -7 -16   32.91    5.27
   5  -7 -16   37.71    5.78
   5  -7 -15    3.61    2.31
  -5  -7 -15    4.97    2.44
   5  -7 -15    6.33    1.95
   5   7 -14    9.02    2.91
  -5  -7 -14   16.27    3.50
   5  -7 -14   10.73    3.51
   5  -7 -14   16.10    3.47
   5   7 -13    8.73    2.59
  -5  -7 -13   15.50    3.24
   5  -7 -13   21.06    4.34
   5  -7 -13   12.47    3.32
   5   7 -12   19.63    3.76
  -5  -7 -12   15.75    3.89
   5  -7 -12    6.20    2.83
   5  -7 -12   14.28    3.12
   5   7 -11   53.78    6.45
  -5  -7 -11   66.13    6.66
   5  -7 -11   50.09    6.32
   5  -7 -11   60.79    6.94
  -5   7 -10   79.96    7.54
   5  -7 -10   81.11    7.73
   5   7 -10   79.10    7.67
   5  -7 -10   80.87    7.84
   5   7  -9   47.82    5.79
   5  -7  -9   50.09    5.92
  -5   7  -9   48.24    5.94
   5  -7  -9   35.34    5.11
   5   7  -8   57.05    6.49
   5  -7  -8   52.42    6.18
  -5   7  -8   54.61    6.21
   5  -7  -8   63.71    6.70
   5   7  -7   65.07    6.79
  -5   7  -7   62.52    6.48
   5  -7  -7   79.72    7.20
   5  -7  -7   61.99    6.86
   5  -7  -6   28.91    4.77
   5   7  -6   31.02    4.45
  -5   7  -6   28.24    4.44
   5   7  -6   27.24    4.77
   5  -7  -6   34.43    4.98
   5  -7  -5   51.72    5.83
   5  -7  -5   69.27    6.74
   5   7  -5   58.75    6.06
  -5   7  -5   59.36    6.37
   5   7  -5   56.67    6.43
   5  -7  -4   23.90    3.85
   5   7  -4   21.50    4.25
  -5   7  -4   20.54    3.98
   5  -7  -4   23.17    4.16
   5   7  -4   16.19    3.26
   5   7  -3    5.50    2.70
  -5   7  -3    2.53    1.57
   5  -7  -3    4.83    2.28
   5  -7  -3    3.17    2.32
   5   7  -3    2.47    2.12
   5   7  -2   21.68    3.90
   5   7  -2   29.33    4.37
  -5   7  -2   16.68    3.50
   5  -7  -2   16.84    3.51
   5  -7  -2   16.98    3.49
   5   7  -1   56.04    6.35
   5   7  -1   50.14    5.59
  -5   7  -1   52.03    5.91
   5  -7  -1   62.63    6.12
   5  -7  -1   60.44    6.30
   5   7   0    6.00    2.02
   5   7   0    5.47    2.15
   5  -7   0    6.23    2.37
  -5   7   0    7.78    2.12
   5  -7   0    5.31    1.85
   5   7   1   44.43    5.61
   5   7   1   53.26    5.91
  -5   7   1   63.70    6.54
   5  -7   1   51.49    5.59
   5  -7   1   56.56    6.18
  -5   7   2   23.75    3.97
   5   7   2   21.67    3.90
   5   7   2   21.18    3.66
   5  -7   2   20.16    3.59
   5  -7   2   22.28    4.02
   5  -7   3    2.70    0.90
  -5   7   3    4.01    1.44
   5   7   3    4.23    2.02
   5  -7   3    3.47    1.44
   5   7   3    0.98    0.77
   5  -7   4    9.50    2.58
   5   7   4   19.79    4.11
  -5   7   4   18.81    4.07
   5   7   4   16.46    3.39
   5  -7   4   23.83    3.97
   5   7   5   60.03    6.59
   5   7   5   70.14    7.03
   5  -7   5   66.96    6.71
   5  -7   5   55.42    6.03
  -5   7   5   65.80    6.86
   5  -7   6   24.68    3.98
   5   7   6   29.44    4.48
   5   7   6   34.21    4.92
  -5   7   6   30.24    4.62
   5  -7   6   23.42    3.74
   5   7   7   68.58    7.12
   5   7   7   86.99    7.77
   5  -7   7   67.90    6.79
   5  -7   7   73.43    6.61
   5   7   8   43.84    5.81
   5   7   8   47.12    5.69
  -5   7   8   50.89    6.25
   5  -7   8   52.65    5.93
   5   7   9   37.99    5.39
   5   7   9   52.23    6.09
  -5   7   9   45.83    5.69
   5  -7   9   49.89    5.50
   5   7  10  100.43    8.64
   5   7  10   93.51    8.23
  -5   7  10   95.45    8.44
   5  -7  10   84.33    7.58
   5   7  11   58.16    6.69
  -5   7  11   70.58    7.54
   5  -7  11   53.34    6.21
   5   7  11   54.05    6.30
  -5   7  12   18.89    3.72
   5   7  12   17.34    3.89
   5   7  12   14.34    2.95
   5  -7  12   13.71    3.40
  -5   7  13   13.52    3.10
   5   7  13   14.33    3.47
   5   7  13   22.20    4.28
   5  -7  13   14.16    3.42
  -5   7  14   13.90    3.42
   5   7  14   16.24    3.74
   5   7  14   13.98    3.62
  -5   7  15    5.59    2.70
   5   7  15    5.84    1.77
   5   7  15    3.58    2.41
   5   7  16   28.82    4.88
   5   7  16   36.27    5.60
  -5   7  16   31.73    5.41
  -5   7  17   24.28    4.79
   5   7  17   21.60    4.66
   5   7  17   18.84    4.06
  -5   7  18   25.71    5.11
   5   7  18   18.81    4.36
   5   7  18   21.14    4.68
   5   7  19   23.62    4.57
   5   7  19   30.75    5.81
  -5   7  19   25.93    5.23
   5   7  20   14.50    3.47
  -5   7  20    8.71    3.40
  -5   7  21   17.90    3.92
   5   7  21   15.19    4.14
  -5   7  22    2.65    2.22
   5   7  22    5.25    2.99
  -5   7  23   -0.20    1.38
   5   7  23    2.75    3.06
  -5   7  23    0.45    1.71
   5  -8 -21   -0.64    1.56
   5  -8 -20    0.48    1.44
   5  -8 -19    1.46    1.36
   5  -8 -18    2.56    2.11
   5  -8 -18    1.07    1.91
   5  -8 -17    7.23    3.35
   5  -8 -17   -0.02    1.29
   5  -8 -16    0.54    1.02
   5  -8 -16    0.40    1.81
   5  -8 -15   16.53    3.88
   5  -8 -15   14.96    3.89
   5   8 -14    1.33    1.88
   5  -8 -14   -0.24    1.58
   5  -8 -14    3.06    2.32
   5   8 -13    2.78    2.44
   5  -8 -13    0.42    1.51
   5  -8 -13    0.30    1.55
   5   8 -12    9.64    2.99
   5  -8 -12   13.52    3.12
   5  -8 -12    7.81    2.49
   5   8 -11    0.84    1.28
   5  -8 -11    2.01    1.96
   5   8 -10    3.02    2.14
   5  -8 -10    4.19    2.45
   5  -8 -10    1.65    2.11
   5   8  -9    0.88    1.07
  -5   8  -9   -0.92    1.28
   5  -8  -9    2.52    1.72
   5   8  -8    8.43    2.40
  -5   8  -8   12.63    3.71
   5  -8  -8   10.30    3.48
   5  -8  -8   17.34    3.63
  -5   8  -7    8.52    2.70
   5  -8  -7    9.06    3.03
   5   8  -7   12.79    3.30
   5  -8  -7    8.92    3.11
   5   8  -6   21.07    3.88
  -5   8  -6   21.05    4.50
   5  -8  -6    9.00    2.41
   5  -8  -6   16.33    3.40
   5  -8  -5    2.59    1.00
   5   8  -5   -0.40    2.13
   5   8  -5    1.95    1.89
   5  -8  -5   -0.13    0.99
  -5   8  -5    2.76    1.38
  -5   8  -4   11.01    3.38
   5   8  -4    6.59    2.34
   5  -8  -4   10.28    3.10
   5  -8  -4    9.49    2.98
   5   8  -4    9.42    2.93
   5   8  -3    7.75    2.63
  -5   8  -3    4.10    1.90
   5   8  -3    5.96    2.20
   5  -8  -3    8.13    2.87
   5  -8  -3    7.16    2.32
   5   8  -2    5.43    2.10
   5  -8  -2    7.64    2.88
   5   8  -2    6.07    1.86
  -5   8  -2    7.31    2.38
   5  -8  -2    5.00    2.16
   5   8  -1   -0.88    0.86
   5   8  -1   -1.87    1.62
  -5   8  -1    0.40    1.34
   5  -8  -1    2.45    1.84
   5  -8  -1    0.53    1.07
   5  -8   0   53.64    6.21
   5   8   0   64.99    7.22
  -5   8   0   61.94    6.85
   5   8   0   48.56    5.84
   5  -8   0   60.54    6.91
   5   8   1    3.53    2.18
   5   8   1    1.34    1.64
   5  -8   1    4.50    2.65
  -5   8   1   -1.26    1.18
   5  -8   1    1.44    1.16
   5   8   2    2.81    1.29
  -5   8   2   10.30    2.87
   5   8   2   12.91    3.20
   5  -8   2    6.63    1.89
   5  -8   2    8.44    2.94
   5   8   3    6.81    1.87
   5   8   3    3.05    2.26
  -5   8   3    6.86    2.85
   5  -8   3    3.71    2.22
   5   8   4   10.72    3.01
   5   8   4   10.32    3.03
  -5   8   4   17.13    3.93
   5  -8   4    6.90    2.47
   5   8   5    0.36    1.32
  -5   8   5    3.26    1.98
   5  -8   5    0.66    1.29
   5   8   6   20.57    4.32
   5   8   6   23.03    4.33
  -5   8   6   19.35    3.72
   5  -8   6   17.19    3.45
   5   8   7    9.20    3.09
   5   8   7    7.09    2.28
  -5   8   7    6.42    2.27
   5  -8   7    9.64    2.61
   5   8   8   13.10    3.61
   5   8   8   12.69    2.98
  -5   8   8   10.82    3.24
   5  -8   8   17.51    3.18
   5   8   9    0.14    1.57
  -5   8   9   -1.09    1.53
   5   8   9    0.80    1.62
   5  -8   9    2.80    2.39
   5   8  10    3.28    2.18
   5  -8  10    7.35    2.65
   5   8  10    6.94    2.60
  -5   8  10    3.74    1.80
   5   8  11   -1.02    1.64
  -5   8  11    1.74    1.56
   5   8  11    2.80    2.23
   5  -8  11    0.49    1.87
   5   8  12   11.14    3.21
  -5   8  12    6.41    2.76
   5   8  12    5.40    2.89
   5   8  13    0.95    1.19
   5   8  13    0.25    0.94
  -5   8  14    0.80    1.66
   5   8  14    2.10    1.63
   5   8  14    1.98    1.68
  -5   8  15   20.08    4.34
   5   8  15   18.17    3.75
   5   8  15    9.26    3.31
   5   8  16   -0.18    1.98
   5   8  16    3.55    1.00
  -5   8  16   -1.12    1.19
   5   8  17    2.21    2.33
   5   8  17    3.32    2.14
  -5   8  17    2.96    2.88
  -5   8  18   -0.70    1.30
   5   8  18    2.27    1.66
   5   8  18    1.56    2.19
   5   8  19    2.66    1.87
   5   8  19   -1.35    2.49
  -5   8  19    4.46    2.67
  -5   8  20   -2.94    1.76
   5   8  20    0.59    1.53
   5   8  21   -1.71    1.86
  -5   8  21    1.42    1.52
   5  -9 -18    5.30    2.60
   5  -9 -17   11.16    3.68
   5  -9 -17   13.88    4.31
   5  -9 -16   17.45    4.21
   5  -9 -16   20.40    4.56
   5  -9 -15    7.90    3.32
   5  -9 -15    7.27    2.67
   5  -9 -14    6.39    2.57
   5  -9 -14    5.03    1.76
   5  -9 -13    3.83    2.84
   5   9 -13    3.73    2.49
   5  -9 -13    7.45    2.80
   5   9 -12   15.84    4.20
   5  -9 -12   19.72    4.59
   5  -9 -12   16.87    4.11
   5   9 -11   25.08    4.82
   5  -9 -11   27.23    5.05
   5  -9 -11   30.23    5.45
   5  -9 -10   22.29    4.48
   5   9 -10   28.00    5.27
   5  -9 -10   22.55    3.96
   5   9  -9   19.01    3.74
   5  -9  -9   24.24    4.97
   5  -9  -9   17.66    3.98
  -5   9  -8   13.78    3.78
   5   9  -8   17.75    3.62
   5  -9  -8   22.25    4.53
   5  -9  -8   12.63    3.27
   5  -9  -7   35.95    5.93
   5   9  -7   42.18    6.21
  -5   9  -7   38.83    6.08
   5  -9  -7   50.88    6.78
   5   9  -6   13.74    3.06
  -5   9  -6   11.24    2.89
   5  -9  -6    6.10    2.19
   5  -9  -6   16.99    3.84
   5   9  -5   51.23    6.91
  -5   9  -5   50.95    6.94
   5  -9  -5   63.28    7.15
   5  -9  -5   56.07    6.72
  -5   9  -4   24.09    4.68
   5   9  -4   23.57    4.62
   5  -9  -4   23.97    4.89
   5  -9  -4   22.08    4.66
   5   9  -3    3.20    2.88
  -5   9  -3    0.21    1.15
   5  -9  -3    1.44    1.35
   5   9  -3    1.64    1.93
  -5   9  -2   11.06    3.53
   5  -9  -2   15.30    3.71
   5   9  -2   16.19    3.80
   5   9  -2    7.65    2.80
   5   9  -1   71.89    7.64
   5   9  -1   84.16    8.05
  -5   9  -1   76.46    8.17
   5  -9  -1   62.25    6.98
   5   9   0   16.17    3.77
   5   9   0   24.33    4.77
  -5   9   0   14.39    3.79
   5  -9   0   12.77    3.51
   5   9   1   74.91    7.92
   5   9   1   72.31    7.78
  -5   9   1   58.87    7.27
   5  -9   1   69.50    7.60
   5   9   2    8.34    2.78
   5  -9   2    9.43    2.55
   5   9   2   17.07    4.22
  -5   9   2   15.80    3.57
   5   9   3    0.99    1.49
   5   9   3    2.39    1.75
  -5   9   3   -0.85    1.18
   5  -9   3    0.16    1.23
   5   9   4   21.26    3.92
   5   9   4   25.74    5.17
   5  -9   4   22.41    4.38
  -5   9   4   17.76    3.86
   5   9   5   54.86    6.86
   5   9   5   50.14    6.69
  -5   9   5   45.27    6.29
   5  -9   5   58.71    7.00
   5   9   6   12.07    3.27
   5   9   6    9.25    2.96
  -5   9   6    5.43    2.15
   5  -9   6   10.34    3.38
   5   9   7   39.12    6.08
   5   9   7   37.64    5.55
  -5   9   7   44.01    6.20
   5  -9   7   41.18    5.95
   5   9   8   19.55    4.67
  -5   9   8   18.43    3.97
   5  -9   8   18.61    4.01
   5   9   8   17.52    4.04
   5   9   9   19.42    4.62
  -5   9   9   20.75    4.63
   5   9   9   13.33    3.23
   5  -9   9   19.71    3.91
   5   9  10   24.93    4.93
  -5   9  10   23.00    4.59
   5   9  10   26.71    4.85
   5  -9  10   19.98    3.92
   5   9  11   32.59    5.64
   5   9  11   33.77    5.49
  -5   9  11   35.61    6.06
  -5   9  12   16.29    4.08
   5   9  12   19.24    4.17
   5   9  12   11.46    2.94
   5   9  13    4.11    2.86
  -5   9  13    4.19    3.03
   5   9  13    8.35    2.77
   5   9  14    4.90    2.81
  -5   9  14    3.68    1.95
   5   9  14    4.38    2.60
   5   9  15   10.78    3.36
   5   9  15    7.31    2.50
  -5   9  15   12.37    3.78
   5   9  16   18.66    4.74
   5   9  16   22.68    4.53
  -5   9  16   12.70    3.27
   5   9  17    8.58    4.09
  -5   9  17    8.48    3.05
   5   9  17   10.27    3.06
   5   9  18    9.84    2.94
   5   9  18    9.18    2.51
  -5   9  18    7.87    3.04
   5 -10 -14    3.25    3.78
   5 -10 -14   -2.39    1.76
   5 -10 -13   -2.46    1.96
   5 -10 -13    2.79    2.40
   5 -10 -12    1.40    2.16
   5  10 -12    4.94    3.27
   5 -10 -12    4.46    2.37
   5  10 -11    0.79    1.39
   5 -10 -11    3.89    2.60
   5  10 -10    9.09    3.67
   5 -10 -10    1.42    1.28
   5 -10  -9    2.84    2.36
   5  10  -9    0.79    1.63
   5  10  -8    3.21    2.03
   5 -10  -8    3.93    2.48
   5  10  -7    5.20    2.36
  -5  10  -7    2.88    2.88
   5 -10  -7    5.46    1.92
   5  10  -6    2.06    2.15
  -5  10  -6    1.78    2.38
   5 -10  -6   -0.53    1.32
   5  10  -5    8.68    3.60
  -5  10  -5    4.40    2.61
   5 -10  -5   10.32    3.54
   5  10  -4    1.00    1.39
  -5  10  -4    0.04    2.26
   5 -10  -4    1.69    2.15
   5  10  -3    4.82    2.45
  -5  10  -3    1.65    2.31
   5 -10  -3    5.32    2.87
   5  10  -2    5.40    2.45
  -5  10  -2    8.48    3.44
   5 -10  -2    5.37    2.82
   5  10  -2    7.53    3.76
   5 -10  -1    8.53    3.11
   5  10  -1    7.03    2.69
  -5  10  -1   11.43    3.45
   5  10  -1    8.25    2.50
   5  10   0    0.64    1.96
  -5  10   0    2.83    2.48
   5 -10   0    0.97    2.20
   5  10   0    3.62    2.84
   5  10   1   11.93    3.09
  -5  10   1   17.12    4.10
   5  10   1    8.97    2.97
   5 -10   1   13.01    3.12
   5  10   2    5.59    2.94
   5  10   2    5.25    2.13
  -5  10   2   14.12    3.68
   5 -10   2    7.51    3.08
   5 -10   3    2.15    1.61
   5  10   3    5.64    2.71
  -5  10   3    6.05    3.23
   5  10   3    1.81    1.74
   5  10   4   -1.04    2.20
  -5  10   4    2.48    1.78
   5 -10   4    0.99    1.47
   5  10   4   -0.92    1.02
   5  10   5   12.77    3.72
  -5  10   5    8.35    2.54
   5 -10   5   10.57    3.41
   5  10   5    0.42    1.10
   5  10   6    1.42    1.58
   5 -10   6    1.78    1.93
  -5  10   6   -1.57    1.70
   5  10   6    3.51    2.62
   5  10   7   -1.29    2.03
  -5  10   7    2.43    1.19
   5 -10   7   -1.97    2.31
   5  10   8    1.90    2.70
  -5  10   8    1.22    2.13
   5  10   8    1.56    1.94
   5 -10   8    0.67    1.48
   5  10   9    1.19    1.36
  -5  10   9   -1.20    1.29
   5  10   9    2.36    2.91
  -5  10  10    7.00    2.75
   5  10  10    6.81    2.28
   5  10  10   11.42    3.63
   5  10  11   -1.28    1.51
  -5  10  11    2.53    1.57
   5  10  11    0.76    1.65
  -5  10  12    1.83    1.89
   5  10  12    0.73    1.44
   5  10  13    0.40    2.04
  -5  10  13   -0.71    2.03
   5  10  13   -0.29    1.31
   5  10  14   -1.91    2.61
   5  10  14    0.23    0.99
  -5  10  14   -0.60    1.95
   5  11  -7    5.42    3.80
   5 -11  -7    0.68    2.28
   5 -11  -6    3.15    2.19
   5  11  -6    0.96    1.77
  -5  11  -6    0.38    3.41
   5 -11  -5    3.82    2.16
  -5  11  -5    6.63    3.87
   5  11  -4   -0.53    1.16
  -5  11  -4   -0.97    1.73
   5 -11  -4    0.39    1.43
   5  11  -3    3.09    2.86
  -5  11  -3    1.91    2.72
   5 -11  -3    0.13    1.38
   5  11  -2    2.95    1.70
  -5  11  -2    0.37    1.93
   5 -11  -2   -0.26    1.86
   5  11  -1    0.89    2.10
  -5  11  -1    0.21    1.63
   5 -11  -1    1.16    2.09
   5  11   0   11.73    3.67
  -5  11   0   10.66    3.57
   5 -11   0   16.29    4.28
   5  11   0   16.04    4.24
   5  11   1    3.37    2.37
  -5  11   1   -0.09    2.45
   5 -11   1    5.00    2.98
   5  11   1    1.33    1.56
   5  11   2    0.01    1.90
  -5  11   2    1.47    1.28
   5 -11   2    0.17    1.89
   5  11   2    2.18    1.98
   5  11   3    3.86    2.59
  -5  11   3    2.83    2.51
   5 -11   3    1.95    2.52
   5  11   3    1.61    2.04
   5  11   4    5.85    2.93
  -5  11   4    1.22    2.65
   5  11   4    3.13    2.33
   5 -11   4   -0.50    1.74
   5  11   5    6.66    2.33
  -5  11   5   12.00    3.71
   5  11   5   10.19    3.43
   5 -11   5   13.37    4.29
  -5  11   6    2.84    2.08
   5  11   6    2.19    2.14
   5  11   6    0.92    2.32
   5 -11   6   -2.11    2.40
   5  11   7   -0.47    2.36
  -5  11   7    1.02    1.45
   5  11   7    1.84    1.99
   5 -11   7   -0.21    2.41
   6   0 -29    0.29    2.73
   6   0 -28   91.51    9.49
   6   0 -27   26.59    4.98
   6   0 -26    4.45    2.49
   6   0 -25   17.13    4.34
   6   0 -24   92.54    9.01
   6   0 -23    4.97    2.25
   6   0 -22   70.48    7.38
   6   0 -21   22.18    4.17
   6   0 -20   -0.20    1.34
   6   0 -19   11.23    2.53
   6   0 -18    4.28    1.86
   6   0 -17  108.45    8.09
   6   0 -16  982.09   24.46
   6   0 -15  223.34   11.40
   6   0 -14  582.56   17.63
   6   0 -14  547.95   12.97
   6   0 -13   99.32    5.51
   6   0 -13  107.76    7.31
   6   0 -12   77.05    4.77
   6   0 -12   69.02    5.73
   6   0 -11   94.08    6.53
   6   0 -11   92.53    5.22
   6   0 -10  414.93   13.45
   6   0 -10  436.06   11.34
   6   0  -9  309.36    9.35
   6   0  -9  307.92   11.43
   6   0  -8  108.01    5.58
   6   0  -8  108.17    6.62
   6   0  -8  105.71    6.48
   6   0  -7  112.41    5.65
   6   0  -7   92.35    6.00
   6   0  -7   98.32    6.21
   6   0  -6  425.82   11.00
   6   0  -6  393.57   12.27
   6   0  -6  405.64   12.15
   6   0  -5 1199.07   18.45
   6   0  -5 1150.95   20.14
   6   0  -5 1137.73   20.50
   6   0  -4  644.53   15.31
   6   0  -4  659.77   13.77
   6   0  -4  657.06   15.00
   6   0  -3  678.21   14.88
   6   0  -3  663.84   14.06
   6   0  -3  661.65   15.12
   6   0  -2 3179.80   30.65
   6   0  -2 3150.70   32.44
   6   0  -2 3179.97   31.69
   6   0  -1 1109.35   19.44
   6   0  -1 1077.03   18.21
   6   0   0  389.50   10.73
   6   0   0  396.71   11.09
   6   0   1 1113.51   18.65
   6   0   1 1155.41   18.22
   6   0   2 3122.56   29.75
   6   0   2 3143.90   32.00
   6   0   3  654.64   14.91
   6   0   3  665.34   13.48
   6   0   4  639.10   15.16
   6   0   4  678.29   13.42
   6   0   5 1220.90   21.18
   6   0   5 1130.12   17.41
   6   0   6  398.64   12.41
   6   0   6  379.38    9.74
   6   0   7  103.70    5.00
   6   0   7   92.95    6.03
   6   0   8  104.27    4.93
   6   0   8  103.04    6.60
   6   0   9  297.91    8.17
   6   0   9  267.10   10.71
   6   0  10  406.35    9.43
   6   0  10  426.01   13.63
   6   0  11   90.03    4.33
   6   0  11  102.23    6.84
   6   0  12   78.51    3.86
   6   0  12   62.12    5.54
   6   0  13  100.73    4.19
   6   0  13  108.50    7.24
   6   0  14  564.12   17.26
   6   0  15  224.22   10.93
   6   0  16 1010.90   24.37
   6   0  17   91.23    7.30
   6   0  18    7.99    2.31
   6   0  19   16.14    3.37
   6   0  20    1.39    1.09
   6   0  21   19.61    4.00
   6   0  22   97.70    8.53
   6  -1 -29    3.20    2.39
   6  -1 -28    7.29    3.33
   6  -1 -27    1.18    2.07
   6  -1 -26   14.24    3.14
   6   1 -25    1.13    1.26
   6  -1 -25   11.53    3.49
   6   1 -24    6.08    2.18
   6  -1 -24    1.84    2.04
   6   1 -23   18.75    3.70
   6  -1 -23   14.74    3.70
   6   1 -22    7.32    3.14
   6  -1 -22    9.26    3.29
   6   1 -21   28.72    4.39
   6  -1 -21   25.32    4.31
   6   1 -20   66.32    6.60
   6  -1 -20   62.25    6.80
   6   1 -19   15.57    3.69
   6  -1 -19   24.43    4.09
   6   1 -18    9.68    2.70
   6  -1 -18    8.91    2.58
   6   1 -17   10.20    2.59
   6  -1 -17   13.77    3.23
   6  -1 -16   21.37    3.42
   6   1 -16   21.56    3.55
   6  -1 -16   14.20    3.26
   6   1 -15   75.27    6.20
   6  -1 -15   71.21    6.72
   6  -1 -15   65.16    5.24
   6   1 -14  202.76    9.96
   6  -1 -14  185.43   10.23
   6  -1 -14  185.28    8.61
   6  -1 -13   27.03    3.79
   6   1 -13   23.42    3.46
   6  -1 -13   17.55    2.71
   6   1 -13   29.44    3.70
   6  -1 -12   50.07    5.16
   6   1 -12   55.41    4.99
   6  -1 -12   62.20    4.98
   6   1 -12   47.15    3.18
   6   1 -12   52.98    4.86
   6   1 -11   49.30    4.56
   6  -1 -11   53.13    5.10
   6  -1 -11   47.85    4.16
   6   1 -11   49.60    4.65
   6   1 -11   50.75    3.36
   6  -1 -10    2.80    0.99
   6   1 -10    2.78    0.87
   6  -1 -10    4.93    1.81
   6   1 -10    2.21    1.08
   6   1 -10    0.99    0.53
   6   1  -9   33.26    3.60
   6  -1  -9   30.86    3.78
   6   1  -9   31.57    2.73
   6   1  -9   34.51    3.77
   6  -1  -9   34.97    3.62
   6  -1  -8   24.63    2.89
   6   1  -8   26.32    2.53
   6   1  -8   28.95    3.36
   6   1  -8   26.70    3.13
   6  -1  -8   21.14    3.10
   6  -1  -7  214.45    8.56
   6   1  -7  207.37    7.06
   6   1  -7  192.12    8.18
   6  -1  -7  209.13    9.59
   6   1  -7  189.26    8.46
   6  -1  -6  292.42    9.97
   6   1  -6  333.12   11.10
   6   1  -6  318.19    9.01
   6   1  -6  292.82   10.08
   6  -1  -6  315.41   11.44
   6  -1  -5  426.92   12.09
   6   1  -5  417.29   12.34
   6   1  -5  442.85   10.62
   6  -1  -5  444.29   13.52
   6   1  -5  447.65   12.07
   6  -1  -4   85.66    5.28
   6  -1  -4   83.16    5.79
   6   1  -4   81.32    5.16
   6   1  -4   78.17    4.52
   6   1  -4   73.74    5.23
   6  -1  -3   56.88    4.29
   6  -1  -3   62.76    4.92
   6   1  -3   59.46    4.01
   6   1  -3   62.97    4.43
   6   1  -3   55.78    4.31
   6   1  -2    0.28    0.33
   6  -1  -2    0.48    0.70
   6   1  -2    2.39    0.94
   6  -1  -2    0.93    0.85
   6   1  -2    0.88    0.98
   6   1  -1    6.25    1.48
   6  -1  -1   12.46    2.06
   6   1  -1   13.10    1.92
   6  -1  -1   12.07    2.24
   6   1   0    1.49    0.93
   6   1   0    2.95    1.13
   6  -1   0    1.81    0.84
   6  -1   0    2.14    0.99
   6   1   1   10.91    1.80
   6  -1   1   10.69    1.93
   6  -1   1   10.63    2.12
   6   1   1   10.37    1.90
   6   1   2    1.61    0.88
   6   1   2    1.95    0.85
   6  -1   2    0.65    0.58
   6  -1   3   59.64    4.62
   6   1   3   47.37    4.23
   6  -1   4   84.84    5.52
   6   1   4   75.35    5.29
   6   1   4   68.81    4.61
   6   1   5  422.30   12.83
   6   1   5  398.21   10.98
   6  -1   5  430.19   12.59
   6  -1   6  308.59   10.68
   6   1   6  314.85    9.54
   6   1   7  206.20    9.29
   6  -1   7  195.36    8.71
   6   1   7  207.22    7.74
   6   1   8   25.08    3.34
   6  -1   8   23.30    3.11
   6   1   8   26.00    2.68
   6   1   9   33.45    3.02
   6   1   9   24.06    3.46
   6  -1   9   34.27    3.89
   6  -1  10    3.22    1.23
   6   1  10    1.70    0.61
   6   1  10    3.20    1.50
   6   1  11   36.88    4.32
   6  -1  11   44.44    4.37
   6   1  11   44.23    3.47
   6   1  12   46.41    4.91
   6  -1  12   48.74    4.74
   6   1  12   51.72    3.77
   6   1  13   20.07    3.43
   6  -1  13   21.00    3.32
   6   1  13   24.29    2.59
   6   1  14  179.06    9.79
   6  -1  14  206.19   10.12
   6   1  14  185.85    6.98
   6   1  15   55.09    5.65
   6  -1  15   71.83    6.16
   6   1  15   61.32    3.94
   6  -1  16   14.21    2.85
   6   1  16   16.35    3.21
   6  -1  17   13.08    2.86
   6   1  17    9.98    2.57
   6   1  18    9.52    2.38
   6  -1  18    4.38    1.45
   6   1  19   16.88    3.50
   6  -1  19   19.55    3.55
   6   1  20   80.14    7.47
   6  -1  20   55.49    6.08
   6   1  21   20.23    4.05
   6  -1  21   34.46    5.02
   6   1  22    7.40    2.82
   6   1  23   21.33    4.14
   6   1  24    6.43    2.41
   6  -2 -29    3.84    2.21
   6  -2 -28   32.53    5.68
   6  -2 -27    0.02    1.53
   6  -2 -26    1.23    1.52
   6  -2 -25    6.31    2.72
   6  -2 -24   36.00    5.53
   6  -2 -23    0.32    1.13
   6  -2 -22    3.67    2.00
   6  -2 -21    2.93    1.24
   6  -2 -20   20.31    4.02
   6   2 -20   21.57    4.01
   6   2 -19    2.08    1.70
   6  -2 -19   -1.29    1.27
   6   2 -18   13.39    2.93
   6  -2 -18   12.63    3.39
   6  -2 -17    3.26    2.24
   6   2 -17    0.55    1.01
   6  -2 -17    0.65    1.10
   6   2 -17    1.81    1.02
   6   2 -16  139.98    8.51
   6  -2 -16  135.13    8.50
   6   2 -16  144.98    8.72
   6  -2 -16  145.99    9.89
   6   2 -15   92.53    6.69
   6  -2 -15   90.00    7.48
   6  -2 -15   90.84    6.88
   6   2 -15   97.08    6.92
   6   2 -14  347.36   12.59
   6  -2 -14  333.56   14.12
   6  -2 -14  327.50   12.78
   6   2 -14  332.40   12.80
   6  -2 -13   25.46    3.72
   6   2 -13   25.56    3.34
   6  -2 -13   27.98    3.86
   6   2 -13   26.36    3.54
   6  -2 -12   69.28    6.32
   6   2 -12   56.32    4.89
   6  -2 -12   60.77    5.33
   6   2 -12   60.57    5.15
   6   2 -11   29.81    2.31
   6   2 -11   36.40    3.83
   6  -2 -11   40.04    4.74
   6   2 -11   44.26    4.37
   6   2 -10   35.75    2.61
   6   2 -10   31.62    3.33
   6  -2 -10   37.31    4.49
   6   2 -10   40.99    4.23
   6  -2 -10   37.47    3.99
   6   2  -9    1.78    1.04
   6  -2  -9    2.51    1.38
   6  -2  -9    3.13    1.33
   6   2  -9    4.67    1.17
   6   2  -9    2.49    0.56
   6   2  -8   10.93    2.24
   6   2  -8   10.70    1.85
   6   2  -8    9.82    1.47
   6  -2  -8    7.52    2.13
   6  -2  -8   11.30    2.08
   6   2  -7    6.51    1.24
   6   2  -7   12.40    2.07
   6  -2  -7    6.51    1.95
   6  -2  -7   11.65    2.42
   6   2  -7    7.49    1.60
   6  -2  -6  145.52    7.66
   6  -2  -6  155.58    8.51
   6   2  -6  152.02    6.17
   6   2  -6  155.22    6.73
   6   2  -6  130.26    7.29
   6  -2  -5   36.21    3.70
   6  -2  -5   39.18    4.23
   6   2  -5   47.98    3.62
   6   2  -5   37.79    3.17
   6   2  -5   44.14    4.23
   6   2  -4    4.86    1.72
   6  -2  -4    2.94    1.35
   6   2  -4    4.17    1.12
   6  -2  -4    4.34    1.34
   6   2  -4    1.79    0.70
   6   2  -3   31.76    2.97
   6  -2  -3   29.80    3.41
   6   2  -3   29.94    2.81
   6  -2  -3   31.71    3.63
   6   2  -3   30.76    3.48
   6   2  -2  263.01    9.99
   6   2  -2  269.03    9.05
   6  -2  -2  279.41   10.41
   6  -2  -2  270.78   10.78
   6   2  -2  277.94    8.68
   6   2  -1   48.20    4.27
   6  -2  -1   44.23    4.12
   6  -2  -1   50.09    4.48
   6   2   0    2.37    1.14
   6  -2   0    2.72    1.34
   6  -2   0    1.16    0.42
   6   2   0    1.22    0.45
   6   2   1   45.54    4.06
   6  -2   1   45.04    4.04
   6   2   1   38.36    3.71
   6  -2   1   48.27    4.43
   6   2   2  261.08    9.56
   6  -2   2  279.39   10.44
   6   2   2  273.17    9.99
   6  -2   2  288.00   10.65
   6  -2   3   27.57    3.28
   6   2   3   27.79    3.20
   6   2   3   29.80    3.22
   6   2   4    1.99    1.00
   6   2   4    2.94    1.31
   6  -2   4    2.49    1.28
   6   2   5   39.05    3.63
   6   2   5   39.10    4.06
   6  -2   5   41.92    3.98
   6   2   6  147.33    7.15
   6   2   6  143.85    7.89
   6  -2   6  149.18    7.74
   6   2   7    7.79    2.20
   6   2   7    7.59    1.58
   6  -2   7    8.40    1.84
   6   2   8   11.65    2.02
   6   2   8    9.51    2.26
   6  -2   8    9.86    2.10
   6   2   9    0.31    0.53
   6   2   9    2.04    1.27
   6  -2   9    1.59    0.51
   6   2  10   36.35    4.16
   6  -2  10   32.78    3.78
   6   2  10   38.59    3.65
   6   2  11   48.58    4.02
   6   2  11   53.46    5.28
   6  -2  11   40.72    4.44
   6   2  12   59.86    4.62
   6   2  12   61.47    5.70
   6  -2  12   52.37    5.02
   6   2  13   29.77    3.15
   6   2  13   23.27    3.74
   6  -2  13   26.59    3.67
   6   2  14  319.60   10.83
   6  -2  14  312.54   12.81
   6   2  14  346.55   14.09
   6   2  15   96.45    7.62
   6  -2  15   88.81    6.79
   6   2  15   81.62    5.43
   6   2  16  133.69    9.10
   6  -2  16  150.49    9.06
   6  -2  17    0.86    1.37
   6   2  17    0.63    1.15
   6   2  18   15.28    3.35
   6  -2  18   11.03    2.61
   6  -2  19    4.53    1.79
   6   2  19    1.66    1.76
   6  -2  20    9.82    2.41
   6   2  20   19.71    3.88
   6   2  21    2.05    1.98
   6   2  22    5.65    2.59
   6   2  23    1.15    1.85
   6   2  24   27.38    4.93
   6   2  25    3.18    2.36
   6  -3 -28    3.00    2.80
   6  -3 -27    8.18    2.59
   6  -3 -26    7.31    2.94
   6  -3 -25   30.03    5.32
   6  -3 -24    3.30    1.37
   6  -3 -23    2.28    1.93
   6  -3 -22    2.23    0.98
   6  -3 -21    3.90    2.22
   6  -3 -20   19.40    3.93
   6  -3 -19   70.87    7.04
   6  -3 -19    4.72    2.77
   6  -3 -18   27.64    4.19
   6  -3 -18   33.31    5.04
   6  -3 -17   80.17    7.77
   6  -3 -17   80.37    7.17
   6   3 -17   72.52    6.44
   6  -3 -16   30.82    4.75
   6  -3 -16   20.49    3.66
   6   3 -16   25.89    3.86
   6  -3 -15   20.82    3.48
   6  -3 -15   13.57    2.69
   6   3 -15   16.40    2.71
   6   3 -14  117.34    7.83
   6   3 -14  114.11    6.98
   6  -3 -14  119.46    8.79
   6  -3 -14  110.85    7.96
   6   3 -13   38.09    4.40
   6  -3 -13   38.39    5.04
   6   3 -13   40.98    3.86
   6  -3 -13   30.89    4.02
   6   3 -12   41.46    3.93
   6   3 -12   56.07    5.22
   6  -3 -12   41.95    5.17
   6  -3 -12   42.97    4.88
  -6   3 -11  101.99    5.37
   6   3 -11   93.59    5.47
   6  -3 -11   93.50    7.56
   6  -3 -11  103.23    7.23
   6   3 -11  110.28    7.33
   6  -3 -10   14.19    2.68
   6   3 -10   19.83    3.17
   6   3 -10   19.14    2.07
   6  -3 -10   18.54    3.56
   6   3 -10   13.62    1.99
   6   3  -9   35.39    2.81
   6  -3  -9   39.60    4.54
   6  -3  -9   31.36    4.34
   6   3  -9   40.20    4.35
   6  -3  -8   29.93    4.02
   6   3  -8   27.09    3.84
   6  -3  -8   35.94    4.46
   6   3  -8   35.36    2.93
   6   3  -8   34.71    3.02
   6  -3  -7  215.26   10.26
   6   3  -7  198.34    6.91
   6   3  -7  213.91    7.42
   6   3  -7  212.85    9.85
   6   3  -6  194.29    9.36
   6   3  -6  196.31    7.49
   6  -3  -6  218.46   10.55
   6   3  -6  197.47    6.82
   6  -3  -6  193.66    9.68
   6   3  -5  265.16   10.75
   6  -3  -5  264.01   11.41
   6   3  -5  275.42    8.11
   6  -3  -5  280.47   11.44
   6   3  -4  173.81    8.67
   6   3  -4  192.85    7.74
   6  -3  -4  179.80    9.23
   6   3  -4  171.38    6.31
   6  -3  -4  174.64    8.90
   6  -3  -3  416.67   13.60
   6   3  -3  428.86   13.80
   6   3  -3  439.99   12.09
   6  -3  -3  414.65   14.08
   6   3  -3  430.79   10.25
   6  -3  -2   59.38    5.05
   6   3  -2   57.17    4.42
   6   3  -2   51.56    4.65
   6  -3  -2   50.86    4.91
   6   3  -1   46.78    4.16
   6  -3  -1   47.64    4.57
   6  -3  -1   55.04    5.04
   6   3  -1   53.79    4.74
   6   3   0   30.55    3.56
   6  -3   0   24.28    3.43
   6   3   0   23.75    2.93
   6  -3   0   26.01    3.48
   6   3   1   58.71    4.76
   6  -3   1   49.77    4.68
   6  -3   1   51.78    4.75
   6   3   1   57.78    4.83
   6   3   2   51.66    4.63
   6  -3   2   50.48    4.67
   6   3   2   45.18    4.24
   6   3   3  384.96   12.82
   6   3   3  435.93   13.52
   6  -3   3  430.87   13.67
   6  -3   3  418.89   13.71
   6   3   4  167.85    8.42
   6  -3   4  175.19    8.68
   6  -3   4  173.66    8.75
   6  -3   5  270.06   10.96
   6   3   5  268.83   11.01
   6   3   6  205.88    9.40
   6  -3   6  196.83    9.26
   6   3   6  193.28    9.57
   6   3   7  206.76    9.43
   6  -3   7  211.45    9.70
   6   3   7  213.79   10.22
   6  -3   8   37.44    4.28
   6   3   8   30.46    3.95
   6  -3   9   28.77    3.64
   6   3   9   40.48    4.20
   6   3   9   28.33    4.00
   6   3  10   20.55    3.06
   6  -3  10   15.45    2.63
   6   3  10   16.58    3.04
   6  -3  11   87.66    6.61
   6   3  11  110.73    7.60
   6   3  11   96.23    6.67
   6   3  12   44.28    4.45
   6  -3  12   51.03    5.09
   6   3  12   40.04    4.90
   6   3  13   40.79    4.33
   6   3  13   33.79    4.34
   6  -3  13   39.39    4.47
   6   3  14  113.74    7.27
   6  -3  14  110.05    7.67
   6   3  14  108.14    8.21
   6   3  15   25.11    3.49
   6  -3  15   18.20    3.29
   6   3  16   29.17    3.86
   6  -3  16   34.33    4.45
   6   3  16   40.93    5.17
   6  -3  17   77.07    6.94
   6   3  17   78.92    7.43
   6  -3  18   28.56    4.41
   6   3  18   29.93    4.54
   6  -3  19   69.73    6.57
   6   3  19   71.11    7.00
   6   3  20   19.99    3.89
   6   3  21    4.60    2.17
   6   3  22    2.39    2.05
   6   3  23    0.16    2.13
   6   3  24    3.88    2.56
   6   3  25   23.26    4.78
   6   3  26    7.16    2.70
   6  -4 -27   -0.06    1.70
   6  -4 -26   -0.63    1.88
   6  -4 -25   -0.03    1.91
   6  -4 -24   26.06    5.28
   6  -4 -23   12.09    3.41
   6  -4 -22   24.70    4.63
   6  -4 -21   12.86    3.47
   6  -4 -20   12.70    2.69
   6  -4 -20   14.66    4.15
   6  -4 -19    3.89    2.55
   6  -4 -19   -0.71    1.94
   6  -4 -18  134.28    9.93
   6  -4 -17   21.86    4.28
   6   4 -17   28.23    4.38
   6   4 -16   20.21    3.53
   6  -4 -16   18.25    3.37
   6  -4 -16   13.56    3.50
   6   4 -15   19.93    3.45
   6  -4 -15   26.86    4.38
   6   4 -14    9.16    2.78
   6  -4 -14    5.91    2.19
   6  -4 -14    6.08    2.18
   6   4 -13   50.80    5.33
   6  -4 -13   45.72    5.26
   6  -4 -12  221.93   11.92
   6  -4 -12  217.22   11.59
   6   4 -12  236.43   11.45
  -6   4 -11   81.17    5.70
   6  -4 -11   81.70    7.15
   6  -4 -11   79.00    7.01
   6   4 -11   74.04    6.37
   6   4 -10   16.71    2.98
  -6   4 -10   20.59    2.89
   6  -4 -10   21.06    3.47
   6  -4 -10   18.09    3.68
   6   4  -9   64.76    5.81
   6   4  -9   60.65    4.28
   6  -4  -9   59.63    5.91
  -6   4  -9   68.38    5.23
   6  -4  -9   67.79    6.39
   6   4  -8  272.84    8.99
   6   4  -8  271.68   11.94
   6  -4  -8  279.41   12.58
   6  -4  -8  296.59   13.01
   6  -4  -7   17.59    3.12
   6   4  -7   22.01    2.61
   6   4  -7   23.66    3.59
   6  -4  -7   19.58    3.41
   6  -4  -6   35.46    4.40
   6   4  -6   40.98    4.47
   6   4  -6   43.97    2.73
   6   4  -6   48.08    4.00
   6  -4  -6   43.84    4.83
   6   4  -5  293.24   12.13
   6   4  -5  331.43   11.06
   6  -4  -5  321.35   13.24
   6  -4  -5  314.25   13.06
   6  -4  -4   -0.88    1.13
   6   4  -4    2.07    1.40
   6   4  -4    0.92    0.44
   6  -4  -4    1.81    1.24
   6   4  -4    0.04    0.59
   6   4  -3  114.79    7.60
   6  -4  -3  118.55    7.90
   6   4  -3  120.60    6.94
   6   4  -3  118.66    5.01
   6  -4  -3  117.62    7.90
   6   4  -2   67.58    5.65
   6  -4  -2   67.52    5.81
   6   4  -2   66.54    5.17
   6  -4  -2   71.61    6.04
   6   4  -1   45.98    4.41
   6   4  -1   51.48    4.90
   6  -4  -1   52.76    5.13
   6  -4  -1   42.49    4.81
   6  -4   0   69.03    5.94
   6   4   0   87.31    6.59
   6  -4   0   80.55    6.34
   6   4   0   80.35    6.01
   6   4   1   44.75    4.64
   6  -4   1   44.72    4.60
   6  -4   1   60.33    5.39
   6   4   1   51.72    4.91
   6  -4   2   75.92    6.09
   6  -4   2   65.29    5.57
   6   4   2   67.89    5.56
   6   4   2   81.29    6.39
   6  -4   3  129.34    8.07
   6   4   3  122.15    7.82
   6  -4   3  114.15    7.38
   6   4   3  128.15    7.89
   6   4   4    1.80    1.44
   6  -4   4    0.36    0.76
   6  -4   4    1.30    0.57
   6   4   4    0.49    0.66
   6  -4   5  292.78   11.97
   6   4   5  291.13   12.21
   6  -4   5  296.64   12.20
   6   4   5  281.27   12.42
   6  -4   6   41.82    4.52
   6   4   6   44.45    4.90
   6  -4   6   49.06    5.03
   6   4   6   48.15    5.08
   6  -4   7   15.76    2.82
   6   4   7   18.83    3.01
   6   4   7   18.71    3.14
   6  -4   8  277.57   11.99
   6   4   8  287.32   12.24
   6   4   8  287.82   12.64
   6   4   9   64.18    5.72
   6  -4   9   64.37    5.77
   6   4   9   64.17    6.04
   6   4  10   20.00    3.31
   6  -4  10   19.00    3.28
   6   4  10   19.41    3.63
   6   4  11   94.16    7.17
   6  -4  11   78.32    6.46
   6   4  11   89.26    7.34
   6   4  12  248.48   11.73
   6  -4  12  213.03   10.98
   6   4  12  225.72   12.05
   6   4  13   51.65    5.38
   6  -4  13   54.25    5.47
   6   4  13   48.87    5.71
   6   4  14    6.70    1.85
   6  -4  14    4.00    1.04
   6   4  15   25.21    3.80
   6  -4  15   28.73    3.92
   6   4  15   32.26    4.81
   6   4  16   19.80    3.36
   6  -4  16   17.92    3.39
   6   4  16   22.56    4.22
   6   4  17   31.13    4.97
   6  -4  17   28.16    4.27
   6   4  17   19.87    3.58
   6   4  18  118.16    9.63
   6   4  19    4.88    2.24
   6   4  20    7.27    2.71
   6   4  21   19.43    4.18
   6   4  22   15.55    4.06
   6   4  23   14.51    4.10
   6   4  24   34.96    6.11
   6   4  25    6.94    3.37
   6   4  26   -0.89    2.29
   6   4  27    1.53    2.33
   6  -5 -26    8.48    3.12
   6  -5 -25   14.81    4.18
   6  -5 -24    1.62    1.97
   6  -5 -23    0.89    1.90
   6  -5 -22    8.60    3.10
   6  -5 -21   11.65    3.53
   6  -5 -21    6.43    2.75
   6  -5 -20    3.38    1.97
   6  -5 -20   -0.01    2.00
   6  -5 -19   -0.53    1.95
   6  -5 -19    0.63    1.43
   6  -5 -18    8.22    2.18
   6  -5 -18    5.64    2.60
   6  -5 -17   13.24    3.74
   6  -5 -17   15.37    3.76
   6   5 -16    9.88    2.33
   6  -5 -16    6.26    2.63
   6  -5 -16    4.00    2.00
   6   5 -15   10.09    2.79
   6  -5 -15   10.20    2.69
   6  -5 -15   11.18    2.82
   6  -5 -14   15.84    3.68
   6   5 -14   12.34    3.21
   6  -5 -14    8.61    2.87
   6  -5 -13   37.12    5.38
   6  -5 -13   33.71    4.99
   6   5 -13   38.65    4.95
   6   5 -12    7.30    2.19
   6  -5 -12    4.25    1.96
   6  -5 -12    1.46    1.38
   6   5 -11    2.13    1.56
   6  -5 -11   -0.12    1.16
   6  -5 -11    2.51    0.83
   6   5 -10    6.25    2.08
  -6   5 -10    5.92    1.66
   6  -5 -10    4.73    2.36
   6  -5 -10    3.07    1.81
   6   5  -9   20.35    3.60
  -6   5  -9   16.92    3.21
   6  -5  -9   19.41    3.85
   6  -5  -9   19.02    3.32
   6  -5  -8   20.16    3.72
   6   5  -8   15.19    3.02
  -6   5  -8   11.31    2.82
   6   5  -8   16.69    2.67
   6  -5  -8   21.31    3.89
   6  -5  -7    8.42    2.61
   6   5  -7    7.82    2.05
   6   5  -7    7.92    1.93
  -6   5  -7   11.92    2.42
   6  -5  -7    8.95    2.23
   6  -5  -6    8.58    2.19
   6   5  -6    6.25    1.91
   6   5  -6    4.35    1.70
   6  -5  -6    4.40    2.14
  -6   5  -6    2.22    1.35
   6  -5  -5   18.96    3.64
   6   5  -5   22.36    3.85
   6   5  -5   20.77    2.85
   6  -5  -5   25.17    4.06
   6   5  -4   45.94    5.10
   6  -5  -4   50.53    5.42
   6   5  -4   51.31    4.81
   6  -5  -4   50.89    5.47
   6   5  -3   52.98    5.53
   6  -5  -3   50.42    5.39
   6   5  -3   48.04    4.69
   6  -5  -3   55.79    5.59
   6   5  -2   40.73    4.82
   6  -5  -2   40.74    4.77
   6  -5  -2   35.16    4.65
   6   5  -2   40.74    4.42
   6  -5  -1    8.17    2.32
   6  -5  -1    9.00    2.35
   6   5  -1   12.20    2.57
   6  -5   0   11.11    2.70
   6   5   0   12.89    2.40
   6   5   0    8.36    2.34
   6  -5   0    9.80    2.36
   6   5   1    9.36    2.18
   6   5   1    9.62    2.18
   6  -5   1   14.82    2.92
   6  -5   1   17.23    3.56
   6   5   2   42.16    4.95
   6   5   2   33.34    4.31
   6  -5   2   40.21    4.79
   6  -5   2   47.81    5.15
   6  -5   3   53.32    5.49
   6   5   3   38.97    4.75
   6  -5   3   48.42    5.11
   6   5   3   54.73    5.41
   6   5   4   44.41    4.96
   6  -5   4   42.28    4.73
   6  -5   4   41.18    4.83
   6   5   4   49.82    5.18
   6   5   5   23.63    3.84
   6  -5   5   24.04    3.78
   6   5   5   23.14    3.64
   6  -5   5   19.32    3.38
   6  -5   6    4.00    1.09
   6   5   6    5.20    1.36
   6   5   6    9.86    2.64
   6  -5   6    7.18    2.13
   6  -5   7    3.39    1.84
   6   5   7   13.38    2.94
   6   5   7    9.24    2.53
   6  -5   7   10.03    2.43
   6   5   8   21.19    3.72
   6  -5   8   14.61    2.76
   6   5   8   15.39    3.22
   6  -5   8   12.96    2.91
   6   5   9   22.09    3.81
   6   5   9   17.51    3.27
   6  -5   9   12.31    2.15
   6  -5   9   21.16    3.84
   6   5  10    7.01    2.59
   6  -5  10    5.92    0.75
   6   5  10    7.64    2.32
   6   5  11    0.73    1.50
   6  -5  11    0.90    1.28
   6   5  12    3.18    1.33
   6   5  12    7.40    2.48
   6  -5  12    4.02    1.58
   6  -5  13   40.13    5.14
   6   5  13   41.25    5.00
   6   5  13   24.79    4.56
   6   5  14   13.18    3.13
   6  -5  14   15.11    3.41
   6   5  14   10.29    3.04
   6   5  15   10.88    2.41
   6  -5  15    6.02    2.54
   6   5  15   10.76    3.09
   6   5  16    6.47    2.18
   6  -5  16    4.38    2.03
   6   5  16   10.07    3.27
   6   5  17   14.99    3.47
   6   5  17   14.55    3.55
   6   5  18    2.96    2.16
   6   5  18    4.16    2.27
   6   5  19    4.20    2.19
   6   5  20    0.63    1.27
   6   5  21    4.61    1.41
   6   5  22    2.83    1.92
   6   5  23    1.65    1.47
  -6   5  23    0.07    1.52
   6   5  24   -0.06    1.89
   6   5  25    7.35    3.32
   6   5  26    5.29    2.51
   6  -6 -25   10.70    3.28
   6  -6 -24   18.35    4.54
   6  -6 -23    2.76    1.91
   6  -6 -22   51.54    6.99
   6  -6 -21   15.68    4.13
   6  -6 -21   27.00    4.48
   6  -6 -20    2.94    2.20
   6  -6 -20    1.80    1.30
   6  -6 -19   10.57    3.04
   6  -6 -19    9.73    3.09
   6  -6 -18   98.76    8.92
   6  -6 -17   12.49    3.77
   6  -6 -17   11.86    3.17
   6   6 -16    2.68    2.09
   6  -6 -16    0.58    1.13
   6  -6 -16   -0.15    1.04
   6   6 -15    8.42    2.87
   6  -6 -15    4.94    1.93
   6  -6 -15    7.56    2.38
   6   6 -14    0.26    1.31
   6  -6 -14    5.04    1.90
   6  -6 -14    3.04    2.01
   6   6 -13    8.07    2.28
   6  -6 -13    9.24    2.61
   6  -6 -13   13.63    3.21
   6   6 -12  104.84    8.38
   6  -6 -12   81.89    7.69
   6  -6 -12  104.07    8.76
   6   6 -11   24.38    4.06
   6  -6 -11   25.83    4.56
   6  -6 -11   18.49    3.53
   6  -6 -10   -0.13    1.22
   6   6 -10    2.95    1.83
  -6   6 -10    3.14    2.09
   6  -6 -10    2.09    1.66
   6   6  -9   16.79    3.47
  -6   6  -9   18.96    3.31
   6  -6  -9   12.35    3.18
   6  -6  -9   14.63    3.30
   6   6  -8  243.14   12.48
  -6   6  -8  212.28   11.53
   6  -6  -8  226.69   12.32
   6  -6  -8  203.38   12.04
   6   6  -7   31.61    4.52
  -6   6  -7   33.38    4.49
   6   6  -7   46.07    5.04
   6  -6  -7   33.92    4.82
   6  -6  -7   39.79    5.25
   6   6  -6    0.90    0.72
  -6   6  -6    1.66    0.74
   6  -6  -6    0.51    0.92
   6   6  -6    0.87    0.66
   6  -6  -6    0.75    1.22
   6   6  -5   31.60    4.32
  -6   6  -5   27.36    4.12
   6  -6  -5   22.46    3.70
   6  -6  -5   38.17    5.24
   6   6  -5   27.98    3.93
   6   6  -4  117.76    8.76
  -6   6  -4   96.95    7.82
   6  -6  -4   98.89    8.03
   6  -6  -4  100.80    8.21
   6   6  -4  107.13    7.57
   6  -6  -3    2.09    1.69
  -6   6  -3    1.10    1.30
   6   6  -3    0.95    1.04
   6   6  -3    1.63    1.53
   6  -6  -3    1.34    1.14
   6   6  -2  187.03   10.22
   6   6  -2  172.31   10.45
   6  -6  -2  172.28   10.32
  -6   6  -2  171.95   10.43
   6  -6  -2  182.58   10.81
   6   6  -1   35.87    4.46
  -6   6  -1   51.81    5.74
   6   6  -1   49.49    5.64
   6  -6  -1   35.75    4.75
   6  -6   0    3.24    1.77
   6  -6   0    0.39    0.87
   6   6   0    1.55    1.46
   6   6   0    4.24    1.62
   6   6   1   36.62    4.43
   6  -6   1   32.28    4.34
   6  -6   1   36.32    4.97
   6   6   2  164.34    9.93
   6   6   2  197.78   11.23
   6  -6   2  178.73   10.62
   6  -6   2  190.68   10.54
   6  -6   3    4.49    2.03
   6   6   3    4.28    2.14
   6   6   3    2.33    1.33
   6  -6   3    2.36    0.65
   6   6   4  104.92    8.11
   6   6   4  110.12    8.58
   6  -6   4   99.09    7.71
   6  -6   4   95.24    7.91
   6   6   5   23.06    3.78
   6   6   5   27.34    4.23
   6  -6   5   26.27    4.04
   6  -6   5   26.90    4.01
   6  -6   6   -0.05    0.91
   6   6   6    0.93    1.35
   6   6   6    0.52    1.01
   6  -6   6    1.61    1.86
   6   6   7   46.77    5.67
   6   6   7   37.16    5.00
   6  -6   7   44.94    5.47
   6  -6   7   38.99    4.89
   6   6   8  233.02   12.54
   6   6   8  213.01   11.92
   6  -6   8  224.18   11.77
   6  -6   8  218.47   11.87
   6   6   9   19.11    3.79
   6   6   9   16.82    3.40
   6  -6   9   12.95    2.60
   6  -6  10    4.77    2.23
   6   6  10    0.51    1.25
   6   6  10    1.71    2.06
   6  -6  10    3.37    2.33
   6   6  11   20.87    3.60
   6  -6  11   16.89    3.71
   6  -6  11   22.15    4.13
   6   6  11   22.50    3.97
   6   6  12   90.59    8.24
   6  -6  12   75.85    7.18
   6  -6  12   87.66    7.80
   6   6  12  106.84    8.73
   6  -6  13    5.75    2.22
   6   6  13   10.47    3.05
   6   6  13   12.07    3.21
   6  -6  13    6.80    2.38
   6   6  14   -0.10    1.03
   6  -6  14    0.69    1.50
   6   6  14    0.62    1.25
   6   6  15    1.86    1.11
   6   6  15    2.73    1.75
   6   6  16    0.57    1.75
   6   6  16   -0.22    1.20
   6   6  17   12.17    3.53
   6   6  17   14.20    3.46
  -6   6  18   83.91    8.56
   6   6  18   85.73    8.76
   6   6  19    7.97    2.52
  -6   6  19   10.72    3.65
   6   6  20    2.97    1.44
  -6   6  20    1.81    1.72
  -6   6  21   14.95    4.09
   6   6  21   24.29    4.59
  -6   6  22   51.38    7.30
   6   6  22   46.94    6.55
  -6   6  23    2.75    2.47
   6   6  23    0.78    1.36
   6   6  24   28.14    5.12
   6   6  25    9.43    3.41
   6  -7 -23    2.05    1.64
   6  -7 -22   -2.56    2.52
   6  -7 -21   20.01    4.46
   6  -7 -21   14.07    3.49
   6  -7 -20   11.49    3.39
   6  -7 -20    8.73    3.08
   6  -7 -19    2.64    1.83
   6  -7 -19    7.55    2.62
   6  -7 -18   20.50    4.54
   6  -7 -18   24.67    4.77
   6  -7 -17    8.25    3.28
   6  -7 -17    1.58    1.44
   6  -7 -16    7.09    2.84
   6  -7 -16    2.40    1.71
   6  -7 -15   18.20    3.89
   6   7 -15   10.81    3.02
   6  -7 -15   12.01    3.64
   6   7 -14    3.37    1.58
   6  -7 -14    8.28    3.09
   6  -7 -14    6.94    2.75
   6  -7 -13   17.79    4.12
   6   7 -13   16.44    3.93
   6  -7 -13   23.78    4.53
   6   7 -12   10.65    3.03
   6  -7 -12   10.57    3.20
   6  -7 -12    9.64    3.26
   6  -7 -11    3.73    2.57
   6   7 -11    5.38    2.55
   6  -7 -11    8.01    2.46
   6  -7 -10   23.73    4.28
   6   7 -10   30.25    4.77
   6  -7 -10   26.79    4.71
   6   7  -9    4.75    2.02
  -6   7  -9    6.10    2.40
   6  -7  -9    4.70    2.06
   6  -7  -9    3.66    1.38
   6  -7  -8   49.60    6.11
   6   7  -8   54.16    6.16
  -6   7  -8   40.00    5.36
   6  -7  -8   51.17    6.10
   6   7  -7   12.94    3.11
  -6   7  -7    6.05    2.59
   6  -7  -7   11.13    3.54
   6  -7  -7   10.16    3.37
   6   7  -6    6.32    2.23
   6   7  -6    5.94    2.29
  -6   7  -6    0.63    1.31
   6  -7  -6    6.64    2.60
   6  -7  -6    5.09    2.12
   6   7  -5   11.08    2.83
   6   7  -5   12.90    3.01
   6  -7  -5   16.89    3.83
   6  -7  -5   15.58    3.80
  -6   7  -5   16.55    3.40
   6   7  -4   51.73    5.79
   6   7  -4   52.18    6.08
  -6   7  -4   51.50    6.17
   6  -7  -4   44.89    5.75
   6  -7  -4   64.62    6.91
   6  -7  -3   21.76    3.83
   6   7  -3   19.05    3.97
  -6   7  -3   15.37    3.22
   6   7  -3   22.53    3.89
   6  -7  -3   27.28    4.29
   6   7  -2   70.58    6.78
   6   7  -2   75.65    7.37
  -6   7  -2   70.22    7.02
   6  -7  -2   59.83    6.61
   6  -7  -2   86.69    7.71
   6  -7  -1    4.35    1.80
   6   7  -1   12.63    3.07
   6   7  -1    3.27    2.14
  -6   7  -1    8.52    2.48
   6  -7  -1    6.28    2.46
   6  -7   0    1.07    1.28
   6   7   0    1.26    1.36
   6   7   0    3.43    2.27
   6  -7   0    4.89    2.57
  -6   7   0    4.25    2.59
  -6   7   1    7.48    2.65
   6  -7   1    2.90    2.06
   6   7   1    8.36    2.70
   6   7   1    9.99    2.42
   6  -7   1    6.94    2.33
   6   7   2   69.18    6.90
   6   7   2   63.13    6.42
  -6   7   2   64.25    7.04
   6  -7   2   74.29    7.07
   6  -7   2   78.72    7.40
   6   7   3   23.08    3.93
   6   7   3   20.22    3.93
  -6   7   3   17.79    3.66
   6  -7   3   18.86    3.31
   6  -7   3   20.83    4.07
   6   7   4   59.38    6.58
   6   7   4   58.22    6.31
   6  -7   4   50.30    5.82
  -6   7   4   63.44    6.65
   6  -7   4   50.41    6.03
   6  -7   5   11.69    3.15
   6   7   5   14.30    3.68
  -6   7   5   10.16    2.91
   6  -7   5   10.01    2.92
   6   7   5   12.71    3.09
   6  -7   6    1.80    1.19
   6   7   6    1.76    1.36
   6  -7   6    0.91    0.86
  -6   7   6    3.15    2.09
   6  -7   7    6.85    2.06
   6   7   7    6.98    2.69
   6   7   7   11.17    2.92
  -6   7   7   14.29    3.27
   6  -7   7    9.33    2.81
   6   7   8   50.65    6.16
   6   7   8   52.51    6.44
  -6   7   8   38.74    5.31
   6  -7   8   44.44    5.83
   6  -7   8   45.85    5.74
   6  -7   9    4.98    1.69
   6   7   9    2.91    1.77
   6   7   9    1.95    1.47
  -6   7   9    3.30    1.39
   6  -7   9   -0.37    1.78
  -6   7  10   24.22    4.72
   6   7  10   27.22    4.92
   6  -7  10   17.68    3.94
   6   7  10   27.45    4.58
   6  -7  11    7.94    2.67
  -6   7  11    4.49    1.98
   6   7  11    4.13    2.36
   6   7  11    6.50    2.26
   6  -7  12    5.94    2.56
   6   7  12    4.81    2.01
   6   7  12   10.60    3.16
  -6   7  12    5.82    1.44
   6  -7  13   20.77    4.09
   6   7  13   19.11    4.05
   6   7  13   14.38    3.51
  -6   7  13   15.65    3.85
   6   7  14    5.96    2.50
   6   7  14    8.19    3.00
  -6   7  14    2.34    2.12
   6   7  15   13.98    3.74
  -6   7  15   16.79    4.23
   6   7  15   11.00    3.41
   6   7  16    5.76    2.22
  -6   7  16    5.85    2.74
  -6   7  17   -1.38    1.74
   6   7  17    7.15    2.48
   6   7  17    6.37    3.03
   6   7  18   19.70    3.94
  -6   7  18   21.40    4.93
   6   7  18   24.49    4.54
   6   7  19    3.06    1.82
  -6   7  19    8.66    3.40
  -6   7  20    5.19    2.62
   6   7  20    6.98    2.93
  -6   7  21   19.90    4.58
   6   7  21   11.15    3.17
   6   7  22    1.28    1.25
  -6   7  22    3.52    3.29
   6   7  23    7.24    2.90
  -6   7  23    4.16    2.48
   6  -8 -21   11.85    3.84
   6  -8 -20    7.35    2.64
   6  -8 -20    8.70    3.63
   6  -8 -19    7.40    2.88
   6  -8 -19    8.07    2.80
   6  -8 -18   25.22    4.81
   6  -8 -18   24.01    4.79
   6  -8 -17    7.74    2.88
   6  -8 -17    5.09    1.38
   6  -8 -16   13.34    3.28
   6  -8 -16    9.85    2.53
   6  -8 -15   10.33    3.24
   6  -8 -15   12.51    3.35
   6   8 -14   14.36    3.63
   6  -8 -14   19.18    3.71
   6  -8 -14   16.54    3.75
   6   8 -13   39.21    5.65
   6  -8 -13   30.24    5.02
   6  -8 -13   28.76    5.19
   6   8 -12   21.41    4.05
   6  -8 -12   23.12    4.34
   6  -8 -12   21.32    4.64
   6   8 -11   21.86    4.27
   6  -8 -11   18.61    3.78
   6  -8 -11   14.63    3.78
   6   8 -10    4.49    2.23
   6  -8 -10    4.88    2.69
   6  -8 -10    9.11    2.82
   6   8  -9   12.02    3.07
   6  -8  -9   10.01    2.59
  -6   8  -9    5.55    2.81
   6  -8  -9    7.28    2.97
   6  -8  -8   65.54    7.29
   6   8  -8   60.64    6.78
  -6   8  -8   61.91    6.99
   6  -8  -8   63.96    7.42
   6  -8  -7   29.20    4.89
   6   8  -7   23.56    4.35
  -6   8  -7   21.12    4.00
   6  -8  -7   22.60    4.40
  -6   8  -6    6.42    2.54
   6  -8  -6    5.44    2.36
   6  -8  -6    1.16    1.39
   6   8  -5   17.94    3.99
  -6   8  -5   20.72    4.59
   6  -8  -5   17.40    3.83
   6  -8  -5   25.05    4.30
   6   8  -4   31.98    4.93
   6   8  -4   25.99    4.56
  -6   8  -4   26.96    4.86
   6  -8  -4   31.64    4.98
   6  -8  -4   26.73    4.98
   6   8  -3    1.49    1.45
  -6   8  -3    1.46    1.39
   6   8  -3    2.25    1.47
   6  -8  -3    0.03    1.53
   6  -8  -3    1.61    1.40
   6  -8  -2   41.83    5.65
   6   8  -2   37.10    5.47
   6   8  -2   28.16    4.67
  -6   8  -2   52.27    6.48
   6  -8  -2   39.71    5.70
   6   8  -1   11.70    3.54
  -6   8  -1   11.09    2.96
   6   8  -1   10.79    2.89
   6  -8  -1    9.58    2.89
   6  -8  -1   11.44    3.38
   6  -8   0    5.18    2.36
  -6   8   0   -0.51    1.49
   6   8   0    1.90    1.00
   6   8   0    1.32    1.11
   6  -8   0    0.19    1.83
   6   8   1   11.11    3.17
  -6   8   1   14.86    3.50
   6   8   1   15.31    3.15
   6  -8   1   12.25    3.25
   6  -8   1    8.27    2.97
   6  -8   2   31.59    5.04
   6   8   2   45.99    6.10
  -6   8   2   41.48    5.73
   6   8   2   37.31    5.21
   6  -8   2   47.64    6.09
   6  -8   3    0.07    1.36
   6   8   3    1.08    2.16
  -6   8   3   -0.25    1.27
   6   8   3    1.47    0.90
   6  -8   3    2.73    2.11
   6   8   4   31.64    5.01
   6   8   4   39.86    5.53
  -6   8   4   38.40    5.84
   6  -8   4   24.37    4.20
   6   8   5   22.91    4.35
  -6   8   5   26.40    4.44
   6   8   5   20.24    3.81
   6  -8   5   19.48    3.90
   6   8   6    4.89    2.13
   6   8   6    4.05    2.11
  -6   8   6    5.62    2.30
   6  -8   6    6.00    2.61
   6  -8   7   24.56    4.35
   6   8   7   21.26    3.79
   6   8   7   23.36    4.64
  -6   8   7   28.36    4.89
   6   8   8   51.75    6.45
   6   8   8   60.54    6.97
  -6   8   8   72.20    7.78
   6  -8   8   61.62    7.08
   6  -8   9   10.07    3.41
   6   8   9   13.09    3.48
   6   8   9   13.02    3.33
  -6   8   9    7.50    3.15
   6  -8  10   12.58    3.39
  -6   8  10    7.43    2.56
   6   8  10    8.18    3.74
   6   8  10   11.93    3.68
   6  -8  11   14.17    3.26
  -6   8  11   19.58    4.25
   6   8  11   14.33    3.73
   6   8  11   13.09    2.92
   6  -8  12   29.34    5.16
   6   8  12   32.56    5.17
  -6   8  12   21.03    4.52
   6   8  12   22.42    4.98
  -6   8  13   23.74    4.49
   6   8  13   34.46    5.65
   6   8  13   24.21    4.48
   6   8  14   12.81    4.35
   6   8  14   25.01    4.66
  -6   8  14   15.35    4.10
   6   8  15   12.38    3.79
   6   8  15    7.57    2.47
  -6   8  15    9.36    3.47
   6   8  16   11.79    3.85
   6   8  16   13.25    3.88
  -6   8  16    3.87    1.97
   6   8  17    8.80    2.58
   6   8  17   12.63    3.86
  -6   8  17    5.99    2.33
   6   8  18   26.97    5.59
   6   8  18   28.68    5.30
  -6   8  18   13.13    2.91
   6   8  19   10.67    3.76
  -6   8  19   13.44    3.49
   6   8  19    7.97    3.31
  -6   8  20    7.53    2.93
   6   8  20    7.90    3.26
   6   8  21    8.43    3.36
   6  -9 -17   -1.93    1.56
   6  -9 -17    3.69    2.24
   6  -9 -16    1.46    1.33
   6  -9 -16    0.95    2.11
   6  -9 -15    0.10    1.57
   6  -9 -15    1.09    1.62
   6  -9 -14    4.51    2.10
   6  -9 -14    6.86    2.10
   6  -9 -13    2.88    2.60
   6   9 -13    1.79    1.76
   6  -9 -13    2.17    1.47
   6   9 -12    6.49    3.34
   6  -9 -12    8.30    2.79
   6  -9 -12    6.82    2.91
   6   9 -11   -1.04    1.28
   6  -9 -11    1.70    1.62
   6  -9 -11    0.94    1.82
   6   9 -10    1.77    2.26
   6  -9 -10    5.31    3.27
   6  -9 -10    0.82    0.90
   6   9  -9    4.29    1.96
   6  -9  -9    0.15    2.15
   6  -9  -9    1.75    1.68
   6  -9  -8    8.25    2.84
   6   9  -8    2.85    1.78
  -6   9  -8    4.28    2.50
   6  -9  -8    0.94    1.14
   6   9  -7    5.20    2.06
  -6   9  -7    4.10    1.86
   6  -9  -7    5.28    2.41
   6  -9  -7    3.92    2.75
   6   9  -6    6.97    3.16
  -6   9  -6    7.55    2.84
   6  -9  -6    7.07    3.17
   6  -9  -6    9.87    3.02
   6   9  -5   10.49    3.05
  -6   9  -5    4.16    2.68
   6  -9  -5    2.59    1.73
   6  -9  -5    6.19    2.56
   6   9  -4    3.65    2.40
  -6   9  -4    1.51    1.67
   6  -9  -4    1.80    1.65
   6  -9  -4    2.63    1.83
   6   9  -3    7.26    2.98
   6   9  -3    6.19    2.24
  -6   9  -3    1.40    1.68
   6  -9  -3    1.74    1.27
   6  -9  -3    2.28    1.97
   6   9  -2    0.77    2.04
   6   9  -2    1.42    2.54
  -6   9  -2   -0.23    1.10
   6  -9  -2   -1.99    2.47
   6   9  -1   11.50    3.33
  -6   9  -1    8.51    3.13
   6   9  -1    7.88    2.71
   6  -9  -1    9.06    2.85
   6   9   0    2.89    1.99
  -6   9   0    7.98    2.73
   6   9   0    1.39    2.10
   6  -9   0    7.77    2.52
   6   9   1   11.84    3.14
  -6   9   1   11.75    3.41
   6   9   1   13.89    3.34
   6  -9   1    9.42    3.69
   6   9   2   -0.08    1.34
  -6   9   2    0.46    0.98
   6   9   2   -0.70    0.96
   6  -9   2    1.36    1.87
   6  -9   3    0.78    1.54
  -6   9   3    1.21    1.71
   6   9   3    5.79    2.62
   6   9   3   -0.83    2.17
   6   9   4   -0.78    1.64
   6   9   4    1.82    1.13
  -6   9   4    4.23    1.96
   6  -9   4    0.99    1.78
   6   9   5    9.58    3.00
  -6   9   5   10.40    3.30
   6   9   5   12.04    3.71
   6  -9   5    7.82    3.10
   6   9   6   11.30    3.57
   6   9   6    8.50    2.87
  -6   9   6    8.20    2.71
   6  -9   6    9.57    3.65
   6   9   7    5.21    3.03
   6   9   7    4.51    2.14
  -6   9   7    6.43    2.54
   6  -9   7    3.11    2.53
   6   9   8    3.33    1.86
  -6   9   8    6.92    3.33
   6  -9   8    4.94    2.67
   6   9   8    6.67    2.36
   6   9   9    3.89    2.28
   6   9   9    4.41    2.03
  -6   9   9    1.53    1.49
   6  -9   9   -1.16    1.98
   6   9  10    1.96    2.11
   6   9  10    2.10    2.06
  -6   9  10    2.49    2.50
   6  -9  10    3.73    2.24
   6   9  11    2.24    2.08
   6   9  11    1.02    1.11
  -6   9  11    2.18    1.98
   6   9  12    6.92    2.34
   6   9  12    4.91    2.15
  -6   9  12    9.63    3.74
   6   9  13   -4.17    3.58
   6   9  13    2.35    1.98
  -6   9  13    0.61    1.88
   6   9  14    3.53    2.86
   6   9  14    1.13    1.40
  -6   9  14    5.25    3.35
   6   9  15    0.08    2.23
   6   9  15    1.15    1.86
  -6   9  15   -0.12    1.31
   6   9  16    1.13    1.65
   6   9  16    1.86    1.63
  -6   9  16   -1.52    2.35
   6   9  17    0.06    1.12
   6   9  17   -2.05    2.69
  -6   9  17    1.67    1.37
   6  10 -13    2.46    3.05
   6 -10 -13    4.36    2.62
   6 -10 -13    0.19    2.16
   6  10 -12    8.77    2.43
   6 -10 -12    5.76    1.87
   6 -10 -12    6.33    2.52
   6  10 -11    9.29    3.49
   6 -10 -11    7.38    3.64
   6 -10 -11    8.10    3.03
   6  10 -10    3.64    2.38
   6 -10 -10    3.18    2.08
   6  10  -9   -0.35    1.36
   6 -10  -9    2.04    1.76
   6  10  -8   24.16    4.91
   6 -10  -8   20.40    4.44
   6  10  -7    6.25    2.73
  -6  10  -7    2.91    2.17
   6 -10  -7    4.37    2.85
  -6  10  -6    3.15    1.44
   6 -10  -6    5.89    2.46
   6 -10  -5    5.43    2.06
   6  10  -5   10.35    3.98
  -6  10  -5    9.35    3.38
   6  10  -4   16.09    4.28
  -6  10  -4   12.72    3.31
   6 -10  -4   14.06    3.61
   6  10  -3    3.11    1.62
  -6  10  -3    2.23    1.51
   6 -10  -3    2.68    2.15
   6  10  -2   17.70    3.88
  -6  10  -2   32.34    5.47
   6 -10  -2   22.60    4.78
   6  10  -1    5.84    2.87
   6  10  -1    7.21    2.44
  -6  10  -1    7.03    2.47
   6 -10  -1    5.56    2.69
   6  10   0    1.33    2.05
   6  10   0   -0.99    1.89
   6 -10   0    3.06    2.35
  -6  10   0   -0.27    1.81
   6  10   1    2.99    1.79
   6  10   1   -0.73    1.51
  -6  10   1   11.16    3.44
   6 -10   1    7.99    2.95
   6  10   2   19.59    3.97
  -6  10   2   17.63    3.81
   6  10   2   21.31    4.71
   6 -10   2   15.18    3.59
   6  10   3    4.41    1.96
   6  10   3    4.01    2.11
  -6  10   3    0.47    2.01
   6 -10   3    3.84    1.80
   6  10   4   18.51    4.59
   6  10   4   13.07    3.43
  -6  10   4   13.90    4.06
   6 -10   4   16.92    4.36
   6  10   5   13.17    3.72
  -6  10   5    9.40    3.34
   6  10   5   11.83    3.46
   6 -10   5   11.68    3.67
   6  10   6    3.53    2.64
  -6  10   6    9.42    3.35
   6 -10   6    5.67    2.59
   6  10   6    3.91    2.09
   6  10   7    6.99    3.56
  -6  10   7    5.34    2.34
   6  10   7    3.66    2.37
   6 -10   7    2.04    1.66
   6  10   8   21.34    4.84
   6  10   8   22.17    4.45
  -6  10   8   13.55    3.55
   6 -10   8   13.09    3.41
   6  10   9    1.54    2.69
   6  10   9    2.45    2.00
  -6  10   9    1.94    1.88
   6 -10   9   -0.58    2.41
   6  10  10    0.87    2.22
   6  10  10   -0.03    1.99
  -6  10  10    2.32    2.33
   6  10  11    5.03    2.67
   6  10  11    4.36    1.76
  -6  10  11    2.85    1.99
   6  10  12    7.72    2.30
   6  10  12   13.85    3.82
  -6  10  12   10.60    3.10
   6  10  13    6.16    2.38
   6  10  13   -1.68    2.08
  -6  10  13    2.87    2.51
   6  11  -5    2.22    2.25
  -6  11  -5    2.51    2.59
   6 -11  -5    1.20    1.12
  -6  11  -4    1.45    1.74
   6  11  -4    3.67    1.59
   6 -11  -4    3.81    1.51
   6 -11  -3   -1.90    1.33
  -6  11  -3    0.07    2.11
   6  11  -2   -0.15    1.58
   6 -11  -2    1.02    1.52
  -6  11  -1    0.17    1.49
   6 -11  -1    1.43    1.34
   6  11   0    5.83    3.50
  -6  11   0    7.62    2.98
   6 -11   0    1.55    2.06
   6  11   1    2.74    2.72
   6  11   1    5.73    2.87
  -6  11   1    8.76    3.37
   6 -11   1    5.01    2.97
   6  11   2    1.15    1.71
  -6  11   2    2.89    2.95
   6  11   2    3.60    2.01
   6 -11   2    0.68    1.88
   6  11   3   -1.63    1.33
  -6  11   3    5.44    3.17
   6  11   3    3.19    2.06
   6 -11   3    1.12    1.81
   6  11   4    3.24    1.27
  -6  11   4    3.57    2.30
   6  11   4    2.58    2.09
   6 -11   4    0.14    2.06
   6  11   5    3.53    2.58
   6  11   5    3.77    2.71
  -6  11   5   -0.11    2.18
   6 -11   5    0.91    1.40
   7   0 -29   -5.29    2.32
   7   0 -28   -1.81    2.34
   7   0 -27   -0.38    2.07
   7   0 -26   -1.97    2.07
   7   0 -25    3.65    2.14
   7   0 -24   -0.18    1.67
   7   0 -23   -1.85    1.83
   7   0 -22   -1.14    1.14
   7   0 -21   -1.44    1.57
   7   0 -20    1.10    1.46
   7   0 -19   -1.19    1.61
   7   0 -18   -0.16    1.17
   7   0 -17   -1.20    1.23
   7   0 -16    0.87    1.24
   7   0 -15   -0.58    0.98
   7   0 -14   -0.62    0.95
   7   0 -13    0.09    0.63
   7   0 -13   -0.59    0.98
   7   0 -12   -0.16    1.06
   7   0 -12   -0.53    1.01
   7   0 -11    0.12    1.08
   7   0 -11    0.26    0.55
   7   0 -10   -0.10    0.61
   7   0 -10    0.55    0.64
   7   0  -9    0.05    0.53
   7   0  -9   -0.61    0.92
   7   0  -8    0.23    0.53
   7   0  -8    0.27    1.08
   7   0  -8   -0.54    0.67
   7   0  -7   -0.14    0.64
   7   0  -7    0.54    0.68
   7   0  -7    0.48    1.12
   7   0  -6    0.61    0.62
   7   0  -6    1.43    1.28
   7   0  -6    0.30    0.91
   7   0  -5    0.48    0.49
   7   0  -5    1.12    1.08
   7   0  -5    0.29    1.16
   7   0  -4    0.01    0.54
   7   0  -4    0.15    0.45
   7   0  -3    0.27    0.69
   7   0  -3    0.14    0.90
   7   0  -3    0.21    0.49
   7   0  -2   -0.06    0.50
   7   0  -2   -0.07    0.43
   7   0  -2    0.14    0.51
   7   0  -1   -0.01    0.88
   7   0  -1   -0.08    0.66
   7   0  -1    0.10    0.57
   7   0   0    0.30    0.89
   7   0   0    1.17    1.19
   7   0   0    0.09    0.50
   7   0   1   -0.04    0.70
   7   0   1   -1.06    0.92
   7   0   2   -0.29    0.79
   7   0   2   -0.19    0.56
   7   0   3    0.01    0.92
   7   0   3   -0.22    0.72
   7   0   4    0.15    0.49
   7   0   4   -0.12    0.66
   7   0   5    0.55    1.14
   7   0   5    0.05    0.62
   7   0   6    0.53    0.92
   7   0   6    0.33    0.76
   7   0   7    0.30    0.80
   7   0   7    0.09    0.55
   7   0   8    0.76    0.45
   7   0   8   -0.16    0.43
   7   0   9   -0.04    0.48
   7   0   9    0.35    0.70
   7   0  10   -0.19    0.57
   7   0  10    0.30    0.46
   7   0  11    0.93    1.21
   7   0  11    0.70    0.71
   7   0  12   -0.07    0.70
   7   0  12    0.54    0.83
   7   0  13    0.19    0.87
   7   0  13    0.37    0.75
   7   0  14    0.21    0.99
   7   0  15    1.25    1.47
   7   0  16    0.19    0.92
   7   0  17   -0.48    0.90
   7   0  18    0.22    1.16
   7   0  19    0.93    1.14
   7   0  20    0.43    1.43
   7   0  21    1.15    1.81
   7   0  22   -1.26    2.02
   7   0  23   -0.20    1.68
   7  -1 -29    2.11    2.14
   7  -1 -28   44.87    6.46
   7  -1 -27    2.86    1.51
   7  -1 -26    0.35    1.42
   7  -1 -25   14.84    3.65
   7   1 -24   88.75    8.53
   7  -1 -24   84.69    8.27
   7   1 -23    2.29    1.38
   7  -1 -23   10.12    2.83
   7   1 -22   41.20    5.95
   7  -1 -22   54.35    6.46
   7  -1 -21   23.29    4.40
   7   1 -21   21.90    4.33
   7   1 -20   37.21    5.41
   7  -1 -20   45.86    5.79
   7   1 -19   27.82    4.47
   7  -1 -19   39.83    5.76
   7   1 -18   36.40    4.88
   7  -1 -18   25.69    4.65
   7   1 -17   28.56    4.33
   7  -1 -17   36.82    5.02
   7   1 -16  324.55   13.82
   7  -1 -16  359.49   15.35
   7  -1 -15   55.84    5.46
   7   1 -15   74.44    6.67
   7  -1 -15   69.07    6.61
   7   1 -14  517.49   16.63
   7  -1 -14  520.78   17.74
   7  -1 -14  514.26   15.10
   7  -1 -13   55.66    4.84
   7   1 -13   56.81    5.38
   7  -1 -13   63.95    6.06
   7   1 -13   64.06    5.62
   7   1 -12   92.58    6.60
   7  -1 -12   73.85    5.76
   7   1 -12   89.78    6.57
   7   1 -12   92.01    5.03
   7  -1 -12   90.56    7.00
   7  -1 -11   99.60    7.36
   7   1 -11  113.61    7.42
   7   1 -11  106.78    7.06
   7  -1 -11  119.79    7.02
   7   1 -10   38.86    4.13
   7   1 -10   38.87    3.38
   7  -1 -10   37.57    4.39
   7   1 -10   36.70    4.13
   7  -1 -10   34.65    3.79
   7  -1  -9   12.68    2.30
   7   1  -9   18.41    2.26
   7   1  -9   14.65    2.59
   7  -1  -9   13.27    2.59
   7   1  -9   15.85    2.75
   7  -1  -8   99.00    6.42
   7   1  -8   72.69    4.64
   7   1  -8   86.93    5.94
   7  -1  -8   83.15    6.43
   7   1  -8   84.11    6.07
   7  -1  -7   83.90    5.69
   7   1  -7   92.64    5.29
   7  -1  -7   94.78    6.65
   7   1  -7   89.45    5.97
   7   1  -7   86.55    6.07
   7  -1  -6  226.80   10.30
   7   1  -6  235.17    9.58
   7  -1  -6  218.41    9.30
   7   1  -6  226.00    8.41
   7   1  -6  223.08    9.60
   7  -1  -5  273.46   10.22
   7   1  -5  280.00    9.30
   7   1  -5  281.34   10.29
   7  -1  -5  277.05   11.20
   7   1  -5  283.89   10.58
   7  -1  -4  181.71    8.39
   7   1  -4  168.08    7.24
   7  -1  -4  191.56    9.35
   7   1  -4  188.31    8.38
   7   1  -4  176.35    8.47
   7  -1  -3  362.38   11.82
   7   1  -3  346.07   10.68
   7  -1  -3  381.35   12.96
   7   1  -3  372.29   11.69
   7   1  -3  377.90   11.95
   7  -1  -2  677.09   16.02
   7  -1  -2  637.01   16.61
   7   1  -2  638.80   14.66
   7   1  -2  647.59   15.36
   7   1  -2  655.31   15.83
   7  -1  -1   20.61    2.94
   7  -1  -1   21.31    3.12
   7   1  -1   22.26    2.81
   7   1  -1   23.23    2.92
   7   1  -1   21.89    3.00
   7   1   0    2.54    1.01
   7   1   0    2.64    1.13
   7  -1   0    3.80    1.49
   7  -1   0    1.32    0.77
   7  -1   1   20.74    2.99
   7  -1   1   26.18    3.29
   7   1   1   19.81    2.68
   7   1   1   21.22    2.76
   7  -1   2  630.54   15.91
   7   1   2  650.77   15.18
   7  -1   3  356.25   12.06
   7   1   3  358.21   11.33
   7   1   4  171.02    8.31
   7  -1   4  171.81    8.45
   7   1   4  176.13    7.86
   7   1   5  257.69   10.48
   7  -1   5  277.40   10.78
   7   1   5  294.04   10.10
   7   1   6  234.56   10.11
   7  -1   6  233.10    9.95
   7   1   6  230.36    8.84
   7   1   7   91.41    6.49
   7  -1   7   94.51    6.36
   7   1   7   91.77    5.58
   7   1   8   84.10    6.30
   7  -1   8   98.89    6.68
   7   1   8   90.29    5.51
   7   1   9   19.55    3.30
   7  -1   9   18.64    2.94
   7   1   9   16.39    2.31
   7   1  10   40.53    4.57
   7  -1  10   47.20    4.78
   7   1  10   35.95    3.45
   7   1  11  101.05    7.32
   7   1  11   93.98    5.63
   7  -1  11  108.19    7.26
   7   1  12   92.35    7.05
   7  -1  12   91.72    6.80
   7   1  12   96.32    5.55
   7   1  13   53.90    5.49
   7  -1  13   45.77    5.10
   7   1  13   61.46    4.50
   7   1  14  515.38   17.50
   7  -1  14  503.67   16.56
   7   1  14  541.19   12.80
   7   1  15   69.44    6.54
   7  -1  15   74.33    6.42
   7   1  16  323.52   14.34
   7  -1  16  344.10   14.32
   7   1  17   38.97    5.22
   7  -1  17   30.93    4.50
   7   1  18   39.55    5.42
   7  -1  18   35.73    4.92
   7   1  19   34.87    5.03
   7  -1  19   33.86    5.00
   7   1  20   43.49    5.74
   7  -1  20   39.06    5.11
   7  -1  21   24.19    4.18
   7   1  21   26.52    4.91
   7   1  22   57.74    6.82
   7  -1  22   52.56    6.34
   7   1  23    4.50    3.23
   7   1  24   79.08    8.22
   7  -2 -28    4.25    1.76
   7  -2 -27    2.48    2.07
   7  -2 -26    3.08    1.94
   7  -2 -25   20.04    4.39
   7  -2 -24    4.10    2.72
   7  -2 -23   15.87    3.45
   7  -2 -22    7.64    3.34
   7  -2 -21   21.25    4.13
   7  -2 -20    9.20    3.18
   7   2 -19    2.62    2.16
   7  -2 -19    0.80    1.17
   7   2 -18   39.27    5.11
   7  -2 -18   47.93    6.02
   7   2 -17   26.58    4.00
   7  -2 -17   27.64    4.56
   7  -2 -17   31.31    4.58
   7   2 -17   20.23    3.61
   7   2 -16  242.96   11.47
   7  -2 -16  286.40   13.90
   7  -2 -16  267.46   12.19
   7   2 -16  267.90   12.35
   7   2 -15   73.69    6.35
   7  -2 -15   73.52    6.81
   7  -2 -15   67.00    6.08
   7   2 -15   68.54    5.99
   7   2 -14   77.89    6.23
   7  -2 -14   75.29    7.03
   7  -2 -14   67.63    6.07
   7   2 -14   71.21    6.10
   7  -2 -13   53.70    5.22
   7   2 -13   54.21    5.09
   7  -2 -13   51.09    5.56
   7   2 -13   49.11    5.06
   7  -2 -12  112.03    8.13
   7   2 -12   99.15    6.57
   7  -2 -12  114.82    7.62
   7   2 -12  128.54    7.95
   7  -2 -11   12.23    2.46
   7   2 -11   10.44    1.78
   7   2 -11    7.33    1.82
   7  -2 -11    6.78    2.63
   7   2 -11    9.97    2.50
   7   2 -10   47.65    4.42
   7   2 -10   53.44    3.63
   7  -2 -10   55.32    5.55
   7  -2 -10   65.45    5.64
   7   2 -10   50.63    4.92
   7   2  -9  121.59    5.63
   7   2  -9  105.08    6.31
   7  -2  -9  115.33    8.04
   7   2  -8  252.90    8.33
   7   2  -8  254.88    9.61
   7  -2  -8  259.07   11.81
   7   2  -8  269.74   10.91
   7  -2  -8  248.89   10.84
   7   2  -7    6.80    1.99
   7  -2  -7   11.46    2.44
   7   2  -7    9.52    1.90
   7  -2  -7    4.76    2.03
   7   2  -7    8.13    1.72
   7  -2  -6   26.03    3.35
   7  -2  -6   29.27    3.98
   7   2  -6   28.77    2.89
   7   2  -6   34.87    3.44
   7   2  -6   22.08    3.10
   7  -2  -5  172.51    8.69
   7  -2  -5  143.23    8.44
   7   2  -5  160.17    7.39
   7   2  -5  153.24    6.94
   7   2  -5  153.60    8.11
   7  -2  -4   27.48    3.42
   7   2  -4   27.38    2.97
   7  -2  -4   24.00    3.34
   7   2  -4   25.63    2.91
   7   2  -4   34.54    3.80
   7  -2  -3  170.29    8.49
   7  -2  -3  169.92    9.03
   7   2  -3  142.63    6.98
   7   2  -3  157.01    7.30
   7   2  -3  160.56    8.38
   7   2  -2   82.16    5.40
   7  -2  -2   78.09    5.73
   7  -2  -2   71.23    5.95
   7   2  -2   79.86    5.19
   7   2  -2   75.47    5.90
   7   2  -1    1.91    0.89
   7   2  -1    1.90    0.98
   7  -2  -1    2.37    1.44
   7  -2  -1    3.74    1.50
   7   2   0    0.65    0.57
   7  -2   0    0.34    0.60
   7   2   0    0.10    0.90
   7  -2   0    0.38    0.99
   7   2   1    1.62    0.85
   7  -2   1    1.78    1.14
   7   2   1    0.56    0.50
   7  -2   1    1.16    0.85
   7   2   2   74.09    5.64
   7  -2   2   84.36    6.04
   7  -2   2   77.17    6.00
   7   2   2   85.99    6.05
   7   2   3  161.52    8.00
   7   2   3  153.48    7.97
   7  -2   3  181.71    8.81
   7   2   4   24.08    3.14
   7   2   4   24.24    3.31
   7  -2   4   28.72    3.51
   7   2   5  147.09    7.57
   7   2   5  166.45    8.45
   7  -2   5  157.50    8.48
   7   2   6   33.55    3.67
   7   2   6   31.45    3.83
   7  -2   6   31.83    3.91
   7   2   7   10.32    2.06
   7  -2   7    8.86    2.17
   7   2   7   10.41    2.33
   7   2   8  243.44    9.74
   7   2   8  261.27   11.46
   7  -2   8  236.14   10.63
   7   2   9  112.44    6.51
   7   2   9  102.37    7.24
   7  -2   9  118.06    7.50
   7   2  10   58.81    4.84
   7   2  10   50.60    5.20
   7  -2  10   53.00    5.14
   7   2  11   13.15    2.38
   7   2  11   11.76    2.83
   7  -2  11   11.15    2.52
   7   2  12  123.01    7.05
   7   2  12  111.59    8.03
   7  -2  12  112.49    7.80
   7   2  13   59.78    4.79
   7  -2  13   47.91    5.11
   7   2  14   79.39    5.58
   7  -2  14   76.52    6.56
   7   2  14   66.61    6.48
   7   2  15   78.07    5.62
   7   2  15   70.30    6.71
   7  -2  15   72.45    6.48
   7   2  16  249.82   12.71
   7  -2  16  225.17   11.71
   7   2  17   23.16    4.12
   7  -2  17   22.91    3.85
   7   2  18   50.30    5.89
   7  -2  18   50.26    5.80
   7   2  19    1.26    2.09
   7  -2  19   -0.46    1.39
   7   2  20    7.83    2.40
   7  -2  20   13.67    3.04
   7   2  21   26.04    4.62
   7   2  22    2.14    1.60
   7   2  23   15.83    4.04
   7   2  24    7.79    2.73
   7   2  25   14.67    3.37
   7  -3 -28   14.46    3.94
   7  -3 -27    3.72    2.42
   7  -3 -26    5.95    2.79
   7  -3 -25    4.79    1.68
   7  -3 -24   56.24    7.74
   7  -3 -23   12.05    3.53
   7  -3 -22    1.07    1.28
   7  -3 -21    1.30    1.64
   7  -3 -20  121.29    9.82
   7  -3 -19   15.12    3.73
   7  -3 -18  296.70   15.07
   7  -3 -18  285.94   13.77
   7   3 -18  285.78   13.63
   7  -3 -17   19.67    3.70
   7  -3 -17   20.58    3.65
   7   3 -17   15.65    3.50
   7  -3 -16    8.91    2.53
   7  -3 -16    7.04    2.43
   7   3 -16    7.71    2.10
   7  -3 -15   15.76    3.70
   7   3 -15   21.66    3.65
   7  -3 -15   15.56    3.11
   7  -3 -14  646.18   21.05
   7   3 -14  611.28   18.50
   7   3 -13    2.74    1.73
   7  -3 -13    3.96    2.66
   7  -3 -13    3.38    1.79
   7   3 -12  673.05   16.46
   7  -3 -12  688.30   20.81
   7   3 -12  678.63   19.12
   7  -3 -12  713.66   20.16
   7  -3 -11   65.25    6.14
   7  -3 -11   55.89    5.84
   7   3 -11   63.28    4.78
   7   3 -11   68.36    5.89
   7   3 -10   30.68    3.29
   7  -3 -10   25.71    3.77
   7   3 -10   27.74    3.77
   7  -3 -10   23.83    3.80
   7   3  -9   25.72    2.71
   7   3  -9   19.85    3.55
   7  -3  -9   23.35    3.72
   7   3  -9   19.34    2.62
   7  -3  -9   20.85    3.43
   7  -3  -8  637.10   18.94
   7   3  -8  596.46   13.74
   7   3  -8  617.86   13.43
   7  -3  -8  610.94   17.92
   7   3  -8  614.35   17.59
   7   3  -7   13.31    2.17
   7   3  -7   14.44    2.09
   7  -3  -7   13.26    2.80
   7  -3  -7   16.99    3.13
   7   3  -7   14.94    2.99
   7   3  -6  371.41   10.62
   7  -3  -6  335.23   13.71
   7  -3  -6  415.38   14.55
   7   3  -6  384.76   11.17
   7   3  -6  370.76   13.55
   7   3  -5   38.58    3.69
   7  -3  -5   34.50    4.51
   7   3  -5   47.13    3.77
   7  -3  -5   38.33    4.61
   7   3  -5   40.66    4.47
   7   3  -4    1.96    1.19
   7  -3  -4    2.16    1.35
   7   3  -4    1.93    1.17
   7  -3  -4    1.56    1.52
   7   3  -4    1.53    0.62
   7   3  -3   13.20    2.66
   7   3  -3   18.02    2.69
   7  -3  -3   12.41    2.35
   7  -3  -3   15.01    2.86
   7   3  -3   21.14    2.65
   7   3  -2  665.48   17.55
   7  -3  -2  632.07   17.35
   7   3  -2  685.49   16.23
   7  -3  -2  645.33   18.31
   7   3  -1   18.75    2.82
   7   3  -1   17.66    2.72
   7  -3  -1   14.88    2.53
   7  -3  -1   19.48    3.29
   7   3   0    0.50    0.61
   7   3   0    1.10    1.40
   7  -3   0    0.37    0.94
   7  -3   0   -0.74    0.96
   7  -3   1   16.72    2.92
   7   3   1   19.39    3.09
   7  -3   1   21.55    3.27
   7   3   1   19.42    2.89
   7  -3   2  667.26   18.16
   7   3   2  684.15   17.47
   7  -3   2  695.06   18.28
   7   3   3   17.93    2.84
   7  -3   3   17.25    2.88
   7   3   3   18.92    2.99
   7  -3   3   17.62    3.02
   7   3   4    2.41    1.02
   7   3   4    3.76    1.58
   7  -3   4    4.07    1.32
   7  -3   4    2.34    1.17
   7   3   5   38.19    4.19
   7  -3   5   38.82    4.23
   7   3   5   39.00    4.45
   7   3   6  382.95   13.14
   7  -3   6  390.13   13.76
   7   3   6  390.60   13.95
   7   3   7   13.85    2.55
   7  -3   7   12.80    2.63
   7   3   7   16.33    3.01
   7  -3   8  604.81   17.52
   7   3   8  600.17   18.10
   7   3   9   26.76    3.51
   7  -3   9   24.76    3.67
   7   3   9   22.09    3.65
   7   3  10   22.27    3.12
   7  -3  10   16.46    3.00
   7   3  10   23.38    3.48
   7   3  11   68.90    5.67
   7  -3  11   72.62    6.25
   7   3  11   78.09    6.73
   7   3  12  715.28   18.52
   7  -3  12  687.57   19.53
   7   3  12  682.12   20.56
   7   3  13    3.60    1.78
   7   3  13    4.23    1.67
   7  -3  13    2.29    0.82
   7  -3  14  629.32   19.34
   7   3  14  616.27   20.16
   7   3  14  640.49   17.75
   7   3  15   17.34    3.05
   7   3  15   20.32    3.55
   7  -3  15   18.77    3.40
   7   3  16    6.46    2.37
   7   3  16    7.83    2.19
   7  -3  16    7.63    2.65
   7   3  17   19.53    3.84
   7  -3  17   14.03    3.52
   7   3  18  292.95   14.69
   7  -3  18  311.19   14.46
   7  -3  19   16.54    3.59
   7   3  19   16.74    3.67
   7   3  20  110.81    9.21
   7   3  21    1.61    1.68
   7   3  22    2.63    2.59
   7   3  23    4.98    2.63
   7   3  24   71.27    7.78
   7   3  25    2.77    1.78
   7   3  26    8.61    2.97
   7  -4 -27    5.10    1.78
   7  -4 -26    3.25    2.27
   7  -4 -25    1.78    1.80
   7  -4 -24    1.24    1.10
   7  -4 -23    4.06    2.13
   7  -4 -22   17.17    3.97
   7  -4 -21    8.01    2.84
   7  -4 -20    1.82    1.70
   7  -4 -19  109.36    9.36
   7  -4 -19  108.89    9.07
   7  -4 -18   29.72    4.68
   7  -4 -18   31.49    5.14
   7  -4 -17    5.51    2.63
   7  -4 -17    4.13    1.94
   7   4 -17    8.49    2.58
   7   4 -16    7.39    2.89
   7  -4 -16    6.86    3.34
   7  -4 -16    8.64    3.05
   7  -4 -15   19.90    3.83
   7   4 -15   32.42    4.35
   7  -4 -15   28.96    4.70
   7  -4 -14   70.50    7.05
   7  -4 -14   79.67    7.29
   7   4 -14   66.70    6.48
   7  -4 -13   60.30    6.67
   7  -4 -13   60.11    6.30
   7   4 -13   62.46    6.08
   7  -4 -12   16.49    3.27
   7   4 -12   21.36    3.70
   7  -4 -12   14.27    3.38
   7  -4 -11  127.69    9.08
   7  -4 -11  111.90    8.41
   7   4 -11  135.78    8.94
   7  -4 -10   21.91    3.89
   7  -4 -10   25.57    4.04
   7  -4  -9    1.32    0.68
   7   4  -9    3.41    1.26
   7  -4  -9    1.94    1.14
   7   4  -8   38.15    4.65
   7   4  -8   47.70    4.02
   7  -4  -8   44.11    5.33
   7  -4  -8   40.36    4.78
   7   4  -7  325.27   13.24
   7   4  -7  305.55   10.54
   7  -4  -7  316.61   13.97
   7  -4  -7  308.65   13.30
   7   4  -6   23.77    3.42
   7   4  -6   27.69    3.23
   7  -4  -6   36.29    4.50
   7  -4  -6   36.94    4.90
   7   4  -5    3.54    1.60
   7  -4  -5    3.66    1.64
   7  -4  -5    0.65    1.17
   7   4  -5    2.16    0.93
   7   4  -5    3.71    1.14
   7   4  -4    3.24    1.67
   7   4  -4    2.16    0.73
   7  -4  -4    2.85    0.77
   7   4  -4    2.38    0.82
   7  -4  -4    5.83    2.43
   7   4  -3   43.38    4.86
   7   4  -3   52.69    4.69
   7  -4  -3   49.23    5.31
   7   4  -3   46.11    3.65
   7  -4  -3   53.29    5.40
   7   4  -2    3.82    1.63
   7  -4  -2    7.69    2.00
   7   4  -2    4.38    1.49
   7  -4  -2    5.31    2.17
   7   4  -1    6.64    2.09
   7  -4  -1    3.45    1.66
   7   4  -1    5.79    1.61
   7  -4  -1    6.17    2.43
   7   4   0   -0.56    0.79
   7   4   0    0.47    0.98
   7  -4   0    0.25    1.14
   7  -4   0   -0.38    0.86
   7   4   1    3.14    1.72
   7  -4   1    5.04    1.81
   7   4   1    7.20    1.88
   7  -4   1    8.48    2.47
   7  -4   2    5.08    1.51
   7   4   2    5.93    1.56
   7  -4   2    5.74    1.79
   7   4   2    3.28    0.80
   7  -4   3   49.33    5.31
   7   4   3   46.08    4.88
   7   4   3   47.52    4.89
   7  -4   3   57.13    5.53
   7   4   4    4.06    1.56
   7  -4   4    1.67    0.87
   7  -4   4    2.40    0.66
   7   4   4    5.13    1.67
   7   4   5    4.21    1.90
   7   4   5    1.37    0.91
   7  -4   5    3.70    1.81
   7  -4   5    6.04    2.04
   7   4   6   31.59    4.21
   7  -4   6   33.33    4.20
   7   4   6   28.56    3.88
   7  -4   6   28.00    3.90
   7   4   7  320.78   13.22
   7  -4   7  319.00   13.23
   7   4   7  324.74   13.37
   7  -4   7  313.54   13.37
   7   4   8   42.36    4.68
   7  -4   8   37.35    4.55
   7   4   8   45.04    5.03
   7   4   9    3.28    1.61
   7  -4   9    1.93    1.33
   7   4   9    1.97    1.80
   7  -4  10   20.76    3.30
   7   4  10   18.54    3.59
   7   4  10   18.91    3.34
   7   4  11  120.54    8.20
   7  -4  11  117.38    8.17
   7   4  11  127.12    8.94
   7   4  12   17.56    3.40
   7  -4  12   15.23    3.18
   7   4  12   11.87    2.67
   7   4  13   65.11    6.45
   7   4  13   62.66    6.03
   7  -4  13   61.06    6.08
   7   4  14   66.30    6.21
   7  -4  14   65.00    6.30
   7   4  14   69.88    6.87
   7   4  15   33.36    4.57
   7  -4  15   27.60    4.51
   7   4  15   18.51    3.78
   7   4  16    8.28    1.99
   7   4  16    8.84    2.50
   7  -4  16    9.18    2.91
   7   4  17    3.57    1.11
   7  -4  17    4.95    1.75
   7  -4  18   44.92    5.71
   7   4  18   36.76    5.51
   7   4  19  111.19    9.11
   7   4  20    0.76    1.73
   7   4  21    7.71    3.09
   7   4  22   13.65    3.53
   7   4  23   -0.56    1.25
   7   4  24    2.34    1.89
   7   4  25    0.67    2.01
   7   4  26   -1.19    1.87
   7   4  27    8.37    2.65
   7  -5 -26    0.70    1.16
   7  -5 -25    1.90    1.83
   7  -5 -24   27.23    5.17
   7  -5 -23    0.15    0.98
   7  -5 -22   39.52    5.89
   7  -5 -21    7.83    2.65
   7  -5 -20   -1.25    1.45
   7  -5 -20    4.25    2.16
   7  -5 -19   23.77    4.70
   7  -5 -19   24.98    4.88
   7  -5 -18   99.53    9.06
   7  -5 -18  105.60    9.33
   7  -5 -17   36.40    5.82
   7  -5 -17   32.66    5.25
   7   5 -17   34.69    4.96
   7   5 -16    7.01    2.73
   7  -5 -16    3.74    2.46
   7  -5 -16   -1.38    1.40
   7   5 -15    8.20    2.71
   7  -5 -15    9.65    2.67
   7  -5 -15    5.79    2.52
   7   5 -14    2.39    1.30
   7  -5 -14    4.78    2.00
   7  -5 -14    4.86    2.45
   7   5 -13    2.95    1.47
   7  -5 -13    2.95    2.13
   7  -5 -13    0.58    1.25
   7  -5 -12  136.85    9.86
   7  -5 -12  131.98    9.68
   7   5 -12  140.31    9.63
   7  -5 -11   22.63    4.20
   7  -5 -11   30.79    4.48
   7   5 -11   25.75    3.95
  -7   5 -10    3.70    1.49
   7   5 -10    7.29    2.45
   7  -5 -10    6.17    2.35
   7  -5 -10    8.41    2.59
   7   5  -9   10.73    2.84
  -7   5  -9    8.31    2.26
   7  -5  -9   11.98    3.40
   7  -5  -9    9.04    2.33
   7   5  -8  139.87    9.27
  -7   5  -8  158.29    9.22
   7  -5  -8  141.12    9.74
   7  -5  -8  152.33   10.08
   7   5  -7   28.51    3.95
   7  -5  -7   41.83    5.32
   7   5  -7   34.79    3.86
   7  -5  -7   43.67    5.21
   7  -5  -6    4.97    1.80
   7   5  -6    6.63    1.89
   7   5  -6    4.84    1.34
   7   5  -5   17.88    3.20
   7   5  -5   19.45    3.00
   7  -5  -5   21.90    3.67
   7  -5  -5   21.89    3.71
   7   5  -4   33.43    4.39
   7   5  -4   33.12    3.96
   7  -5  -4   27.66    4.47
   7  -5  -4   33.41    4.71
   7   5  -3   38.56    4.34
   7   5  -3   39.93    4.83
   7  -5  -3   32.47    4.45
   7  -5  -3   24.45    3.91
   7   5  -2  154.92    9.56
   7  -5  -2  146.79    9.48
   7   5  -2  174.88    9.50
   7  -5  -2  186.59   10.76
   7  -5  -1   10.77    3.08
   7   5  -1    6.77    2.04
   7   5  -1    4.80    1.77
   7  -5  -1    6.94    2.09
   7  -5   0    1.94    1.73
   7   5   0   -0.53    1.58
   7   5   0    0.73    1.51
   7  -5   0    1.41    1.34
   7  -5   1    8.24    2.40
   7   5   1   12.01    3.09
   7  -5   1    8.46    2.20
   7   5   1    9.17    2.41
   7   5   2  173.00   10.19
   7   5   2  161.97    9.56
   7  -5   2  169.29   10.13
   7  -5   2  165.00    9.90
   7   5   3   32.97    4.60
   7  -5   3   29.31    4.10
   7   5   3   36.66    4.65
   7  -5   3   36.85    4.85
   7  -5   4   23.61    3.84
   7   5   4   32.29    4.52
   7  -5   4   25.00    3.93
   7   5   4   33.95    4.47
   7  -5   5   20.72    3.78
   7   5   5   18.55    3.59
   7  -5   5   21.49    3.78
   7   5   5   17.76    3.17
   7   5   6    8.59    2.42
   7  -5   6    9.15    2.31
   7  -5   6    8.73    2.33
   7   5   6   14.17    2.93
   7  -5   7   37.28    4.81
   7   5   7   47.82    5.64
   7  -5   7   38.00    4.85
   7   5   7   35.14    4.86
   7  -5   8  134.44    9.17
   7   5   8  142.36    9.40
   7  -5   8  151.38    9.70
   7   5   8  145.54    9.65
   7   5   9   11.65    2.81
   7  -5   9    9.81    2.66
   7   5   9   11.56    2.80
   7  -5   9    8.97    2.07
   7   5  10    5.86    2.57
   7  -5  10    4.56    2.22
   7   5  10    5.06    2.08
   7  -5  10    5.10    1.66
   7  -5  11   28.88    4.51
   7   5  11   24.40    4.03
   7   5  11   25.93    3.98
   7  -5  12  123.81    8.95
   7   5  12  130.30    9.15
   7   5  12  121.06    9.29
   7   5  13    1.30    1.36
   7  -5  13    2.20    1.57
   7   5  13    0.36    0.86
   7   5  14    9.47    2.54
   7   5  14    4.35    1.90
   7  -5  14    4.60    2.07
   7   5  15    6.49    1.73
   7   5  15    6.77    2.19
   7  -5  15    5.64    2.59
   7   5  16    2.38    2.08
   7  -5  16    0.63    1.62
   7   5  16    2.56    1.63
   7  -5  17   26.42    4.85
   7   5  17   37.18    5.82
   7   5  17   34.88    5.33
   7   5  18  114.05    9.69
   7   5  19   26.01    4.72
   7   5  20    0.87    1.97
   7   5  21    8.67    3.00
   7   5  22   36.85    5.90
   7   5  23   -0.17    1.49
   7   5  24   34.02    6.25
   7   5  25    2.16    1.28
   7   5  26    2.04    2.54
   7  -6 -24   -3.03    1.43
   7  -6 -23    3.09    2.16
   7  -6 -22   -0.08    1.20
   7  -6 -21    8.51    3.20
   7  -6 -21    8.56    3.71
   7  -6 -20   -0.34    1.84
   7  -6 -20   -0.80    2.16
   7  -6 -19    0.52    1.21
   7  -6 -19    2.18    1.52
   7  -6 -18   -1.23    1.15
   7  -6 -18    0.33    1.61
   7  -6 -17    2.51    2.52
   7  -6 -17   -1.07    1.71
   7   6 -16   -1.25    1.05
   7  -6 -16    3.26    2.16
   7  -6 -16    1.15    2.35
   7   6 -15    1.27    1.34
   7  -6 -15    0.72    1.19
   7  -6 -15    0.60    1.55
   7   6 -14    4.24    1.89
   7  -6 -14    6.59    2.54
   7  -6 -14    4.03    1.78
   7   6 -13   12.99    3.41
   7  -6 -13   18.89    4.16
   7  -6 -13   24.17    4.56
   7   6 -12    7.60    2.60
   7  -6 -12   10.37    3.04
   7  -6 -12    5.38    2.11
   7   6 -11   10.94    3.10
   7  -6 -11   11.22    2.92
   7  -6 -11   14.10    3.80
   7   6 -10    8.11    2.57
  -7   6 -10    1.42    1.00
   7  -6 -10    4.75    2.39
   7  -6 -10    6.62    2.13
   7   6  -9    2.65    1.84
   7  -6  -9    1.60    1.13
  -7   6  -9    1.48    1.24
   7  -6  -9    1.20    1.83
   7   6  -8    0.01    0.98
   7  -6  -8    0.31    1.09
  -7   6  -8    0.40    1.23
   7  -6  -8    0.10    0.92
   7   6  -7    9.28    2.87
  -7   6  -7    2.31    1.71
   7  -6  -7    3.63    1.68
   7  -6  -7    6.44    2.36
   7  -6  -6    2.48    1.73
   7   6  -6    0.34    1.38
   7   6  -6    2.88    1.33
  -7   6  -6    2.02    1.59
   7  -6  -6    1.11    1.34
   7   6  -5   22.24    4.03
   7   6  -5   19.24    3.26
   7  -6  -5   18.74    3.88
  -7   6  -5   21.78    3.55
   7  -6  -5   23.77    4.22
   7  -6  -4   12.28    3.11
   7   6  -4   11.10    3.04
  -7   6  -4   12.97    3.26
   7  -6  -4    6.60    2.55
   7   6  -4    8.57    2.33
   7  -6  -3    1.00    1.44
   7   6  -3    0.37    1.57
   7  -6  -3    3.22    2.27
   7   6  -3    0.53    1.07
   7  -6  -2    4.89    2.30
   7   6  -2   13.82    3.30
   7  -6  -2   11.38    3.12
   7   6  -2    5.81    1.92
   7  -6  -1    9.86    2.55
   7   6  -1   10.90    2.76
   7  -6  -1   13.46    3.02
   7   6  -1   12.63    2.67
   7  -6   0    1.12    2.03
   7   6   0    1.22    2.05
   7  -6   0    4.48    2.32
   7   6   0    2.71    1.32
   7   6   1    7.81    2.05
   7  -6   1   16.78    3.74
   7   6   1   11.24    2.77
   7  -6   1   13.99    3.44
   7   6   2    6.40    1.93
   7  -6   2    9.32    2.66
   7   6   2    9.19    2.88
   7  -6   2   10.28    2.71
   7   6   3    1.81    1.44
   7  -6   3    2.58    1.46
   7   6   3    2.12    1.49
   7  -6   3    2.46    2.60
   7   6   4    7.82    2.43
   7  -6   4    5.75    2.00
   7   6   4   10.82    2.64
   7   6   5   19.19    3.40
   7  -6   5   18.33    3.86
   7   6   5   16.49    3.68
   7  -6   5   20.75    3.80
   7   6   6    0.58    1.28
   7  -6   6    1.95    1.63
   7   6   6    2.74    1.59
   7  -6   6    5.87    2.97
   7   6   7    4.69    2.02
   7  -6   7    5.46    2.45
   7  -6   7    4.10    2.59
   7   6   7    4.25    2.26
   7   6   8    1.62    1.81
   7  -6   8    1.57    1.50
   7   6   8    0.25    1.38
   7  -6   8    1.59    1.93
   7   6   9    3.45    1.34
   7  -6   9    0.20    1.57
   7  -6   9    1.39    1.10
   7   6  10    8.82    2.41
   7  -6  10    3.30    1.38
   7   6  10    7.20    2.62
   7  -6  10    3.73    2.40
   7  -6  11    7.58    3.29
   7   6  11   11.61    2.97
   7  -6  11   15.32    3.74
   7   6  11   14.74    3.28
   7  -6  12   10.72    2.18
   7   6  12    6.43    2.24
   7  -6  12    9.60    2.51
   7   6  12    7.29    1.93
   7  -6  13   14.37    3.19
   7   6  13   15.37    3.19
   7   6  13   12.16    3.65
   7  -6  13   17.89    4.48
   7  -6  14    3.65    2.27
   7   6  14    4.11    1.42
   7   6  14    5.40    2.52
   7  -6  14   -1.02    2.19
   7  -6  15    4.05    1.90
   7   6  15    5.24    2.18
   7   6  15    3.87    1.74
   7   6  16    0.52    2.35
   7   6  16   -0.59    1.82
   7   6  17    2.05    1.67
   7   6  17    1.67    1.57
   7   6  18   -0.47    1.46
   7   6  18    5.73    3.21
   7   6  19   -1.78    2.01
   7   6  20    2.32    1.62
   7   6  21    8.81    3.55
  -7   6  21    6.60    2.94
   7   6  22   -0.25    1.83
  -7   6  22    3.29    3.15
   7   6  23    2.33    1.64
  -7   6  23    3.03    2.10
   7   6  24    0.80    1.73
  -7   6  24    2.94    2.24
   7  -7 -22    9.05    3.19
   7  -7 -22   15.50    4.01
   7  -7 -21    2.59    1.84
   7  -7 -21    4.04    1.72
   7  -7 -20   17.01    4.16
   7  -7 -20   20.55    4.43
   7  -7 -19    2.09    1.38
   7  -7 -19   -0.78    1.73
   7  -7 -18   67.81    7.78
   7  -7 -18   55.40    7.03
   7  -7 -17   10.43    2.70
   7  -7 -17   11.40    3.01
   7   7 -16    2.42    2.71
   7  -7 -16    2.04    2.00
   7  -7 -16    0.05    1.24
   7   7 -15    0.49    1.29
   7  -7 -15    2.51    1.18
   7  -7 -15    3.35    2.42
   7   7 -14   16.08    4.07
   7  -7 -14   26.63    4.79
   7  -7 -14   24.68    4.69
   7   7 -13    7.17    3.08
   7  -7 -13    4.75    3.26
   7  -7 -13    5.93    2.90
   7  -7 -12   80.50    8.01
   7  -7 -12   76.23    8.20
   7   7 -12   86.49    8.33
   7   7 -11    8.90    3.46
   7  -7 -11    1.58    1.22
   7  -7 -11    7.26    2.14
   7   7 -10    0.70    1.21
   7  -7 -10    2.02    2.22
   7  -7 -10    0.01    1.74
   7   7  -9    5.05    2.78
  -7   7  -9   -0.07    1.58
   7  -7  -9    2.88    1.57
   7  -7  -9    5.20    2.53
   7   7  -8  141.59   10.17
  -7   7  -8  166.75   10.96
   7  -7  -8  156.46   10.99
   7  -7  -8  137.51   10.34
   7   7  -7    2.28    1.73
   7  -7  -7    4.87    2.22
  -7   7  -7    6.29    2.38
   7  -7  -7   10.16    3.72
   7   7  -6   24.32    4.59
  -7   7  -6   19.97    3.86
   7  -7  -6   25.34    4.90
   7  -7  -6   22.48    4.23
   7   7  -5   13.01    3.02
  -7   7  -5    8.57    2.73
   7  -7  -5    9.63    3.37
   7   7  -5    9.61    2.69
   7  -7  -5   14.50    3.26
   7   7  -4   55.62    6.56
  -7   7  -4   49.13    6.15
   7  -7  -4   60.81    6.72
   7  -7  -4   57.07    6.39
   7   7  -4   56.29    6.00
   7   7  -3    1.11    1.43
  -7   7  -3   -0.65    1.11
   7  -7  -3    0.68    0.99
   7   7  -3    0.01    0.80
   7  -7  -3    0.22    1.48
   7   7  -2   60.08    6.81
  -7   7  -2   62.95    6.93
   7  -7  -2   79.34    7.59
   7  -7  -2   80.74    7.89
   7   7  -2   73.72    6.89
   7  -7  -1    8.31    2.61
   7   7  -1   11.46    2.69
   7   7  -1   10.99    2.87
  -7   7  -1    7.85    2.67
   7  -7  -1    4.67    2.01
   7  -7   0    1.00    1.76
   7   7   0    1.95    1.77
   7   7   0    2.00    1.69
  -7   7   0    1.74    1.56
   7  -7   0    3.20    2.26
   7  -7   1   13.18    3.37
   7   7   1   14.35    3.14
   7   7   1   13.61    3.13
  -7   7   1    8.13    2.65
   7  -7   1    4.20    1.82
   7   7   2   75.95    7.66
   7  -7   2   76.37    7.68
  -7   7   2   86.24    7.92
   7  -7   2   83.96    7.64
   7   7   2   68.24    7.00
   7  -7   3    0.96    1.12
  -7   7   3    1.45    1.61
   7   7   3    1.08    1.47
   7   7   3    0.80    1.66
   7  -7   3    1.30    2.20
   7   7   4   65.75    7.14
   7  -7   4   44.73    5.93
  -7   7   4   48.98    6.04
   7  -7   4   51.68    6.10
   7   7   4   43.97    5.55
   7  -7   5   10.54    2.89
   7   7   5   11.88    2.99
   7   7   5    7.30    1.95
   7  -7   5   10.98    3.33
  -7   7   5   14.80    3.61
   7   7   6   18.60    3.73
   7   7   6   22.35    4.19
   7  -7   6   25.38    4.77
   7  -7   6   28.98    4.66
   7  -7   7    3.79    1.95
   7   7   7    5.64    1.85
   7   7   7    3.90    2.02
   7  -7   7    8.97    2.40
   7   7   8  161.39   11.22
   7  -7   8  136.74   10.38
   7   7   8  134.13   10.21
   7  -7   9    1.04    1.17
   7   7   9    6.19    2.73
   7   7   9    8.53    3.10
   7  -7   9    1.59    2.40
   7  -7  10   -2.17    1.68
   7   7  10    1.86    2.07
   7   7  10    1.14    2.02
   7  -7  10   -0.58    1.62
   7   7  11    7.76    2.54
   7  -7  11    6.33    2.36
   7   7  11    9.06    2.58
   7   7  12   96.58    8.97
  -7   7  12   91.95    8.54
   7   7  12   93.10    8.72
   7  -7  12   98.69    8.83
   7   7  13    4.90    1.51
   7  -7  13    8.47    2.93
   7   7  13    7.61    2.80
  -7   7  13   10.14    3.12
   7  -7  14   20.08    4.15
  -7   7  14   17.14    4.40
   7   7  14   19.34    3.73
   7   7  15    3.50    2.30
  -7   7  15    1.16    1.77
   7   7  15    0.25    1.75
   7   7  16    0.30    1.33
  -7   7  16    2.32    1.46
   7   7  16    2.39    2.24
   7   7  17   10.88    2.95
  -7   7  17    5.23    2.27
   7   7  17   11.17    3.69
   7   7  18   68.63    8.30
  -7   7  18   72.21    8.16
   7   7  18   56.80    7.22
  -7   7  19    3.95    2.54
   7   7  19    2.28    1.57
   7   7  20   21.14    4.74
  -7   7  20   14.97    3.51
  -7   7  21    6.61    2.78
   7   7  21    2.94    2.83
   7   7  22   15.72    3.71
  -7   7  22   10.57    4.16
   7  -8 -20   -1.43    2.42
   7  -8 -20    0.37    1.43
   7  -8 -19   -1.96    3.11
   7  -8 -19   -0.18    1.77
   7  -8 -18    0.30    1.42
   7  -8 -18    2.46    2.70
   7  -8 -17    2.23    1.29
   7  -8 -17    4.95    2.57
   7  -8 -16    0.48    1.83
   7  -8 -16   -0.15    1.12
   7  -8 -15    1.99    2.11
   7  -8 -15    1.80    2.07
   7   8 -14    7.81    2.55
   7  -8 -14    5.51    2.32
   7  -8 -14    3.36    2.20
   7   8 -13    2.85    2.67
   7  -8 -13    4.21    2.41
   7  -8 -13    5.11    2.76
   7   8 -12    1.95    1.99
   7  -8 -12   -1.08    1.51
   7  -8 -12    0.78    1.37
   7   8 -11    6.09    2.31
   7  -8 -11    5.98    2.89
   7  -8 -11    4.79    2.61
   7   8 -10   -1.43    1.13
   7  -8 -10   -1.56    1.55
   7  -8 -10   -0.53    1.65
   7   8  -9    6.01    2.52
   7  -8  -9    4.14    2.13
   7  -8  -9    8.17    3.33
   7   8  -8    3.82    2.38
   7  -8  -8    4.84    2.43
  -7   8  -8    5.66    2.53
   7  -8  -8    2.58    2.24
  -7   8  -7    3.36    2.69
   7   8  -7    0.82    1.22
   7  -8  -7    2.52    2.28
   7  -8  -7   -0.90    1.85
   7  -8  -6    3.28    1.64
  -7   8  -6    3.86    1.55
   7  -8  -6    5.11    2.12
   7   8  -5    1.71    2.05
  -7   8  -5    7.44    2.58
   7  -8  -5    0.28    2.22
   7  -8  -5    2.40    2.31
   7   8  -4    5.93    3.18
   7   8  -4    3.44    1.92
  -7   8  -4    0.35    0.98
   7  -8  -4    2.59    1.88
   7  -8  -4    8.53    3.31
   7   8  -3    0.01    1.30
   7   8  -3   -0.14    1.43
  -7   8  -3    1.09    1.97
   7  -8  -3   -0.85    1.43
   7  -8  -3   -1.95    1.81
   7   8  -2    5.39    2.42
   7   8  -2    3.67    2.26
  -7   8  -2    8.42    2.93
   7  -8  -2    6.65    1.95
   7  -8  -2    3.45    2.17
   7   8  -1    1.99    1.89
   7   8  -1    0.41    1.44
  -7   8  -1    1.46    2.39
   7  -8  -1    1.60    1.14
   7  -8  -1    1.02    1.84
   7   8   0    0.74    1.03
   7   8   0    0.38    1.09
   7  -8   0    2.41    2.64
  -7   8   0    0.29    1.41
   7  -8   0    0.38    1.72
   7   8   1    1.62    1.29
   7   8   1   -0.18    0.88
  -7   8   1    0.77    1.28
   7  -8   1    1.06    1.25
   7   8   2    2.72    2.18
   7   8   2    4.61    2.23
  -7   8   2    1.74    1.43
   7  -8   2    1.42    1.70
   7  -8   2    2.62    1.72
   7  -8   3   -0.29    1.19
  -7   8   3    0.46    1.52
   7   8   3    0.12    1.52
   7   8   3    2.36    1.54
   7  -8   3    0.02    2.43
   7  -8   4    5.71    2.46
  -7   8   4    3.49    2.00
   7   8   4    3.58    2.15
   7   8   4    4.31    1.90
   7  -8   4    1.14    1.38
   7  -8   5    2.23    1.66
   7   8   5    5.03    2.03
   7   8   5    4.49    2.68
  -7   8   5    2.42    2.48
   7  -8   6    1.80    1.62
   7   8   6    4.79    2.82
   7   8   6    6.84    2.07
  -7   8   6    2.32    1.41
   7  -8   7   -1.69    1.49
   7   8   7    1.06    1.37
   7   8   7    2.53    1.46
  -7   8   7    3.35    2.17
   7  -8   8    2.04    1.22
   7   8   8    2.85    1.56
   7   8   8    2.67    1.55
  -7   8   8    2.25    1.94
   7  -8   9    4.95    2.35
   7   8   9    3.50    1.74
   7   8   9    6.28    2.78
  -7   8   9    3.54    1.87
   7   8  10   -0.90    1.04
   7   8  10   -0.84    1.78
  -7   8  10   -1.67    1.43
   7  -8  11    5.31    2.67
  -7   8  11    1.75    1.85
   7   8  11    7.45    2.39
   7   8  11    1.47    1.49
   7  -8  12    1.07    1.18
   7   8  12    1.96    2.28
   7   8  12    0.38    1.47
  -7   8  12   -1.19    2.15
   7   8  13   -0.22    1.51
   7   8  13    3.93    2.71
  -7   8  13    4.17    2.58
   7   8  14    8.52    3.37
   7   8  14    7.55    2.50
  -7   8  14    6.32    2.93
  -7   8  15    1.74    1.95
   7   8  15    1.41    1.27
  -7   8  16    2.28    3.16
   7   8  16    1.81    2.46
   7   8  16    1.25    1.43
   7   8  17    2.54    2.23
  -7   8  17    6.21    2.60
   7   8  17    5.07    2.40
   7   8  18    0.03    3.03
  -7   8  18   -1.30    1.30
   7   8  18    0.86    2.25
  -7   8  19   -1.53    2.44
   7   8  19   -0.05    1.57
  -7   8  20    1.19    2.07
   7   8  20    0.98    1.73
   7  -9 -17    4.81    2.80
   7  -9 -17    6.03    2.67
   7  -9 -16    0.58    1.68
   7  -9 -16    1.58    1.34
   7  -9 -15    3.87    2.16
   7  -9 -15    5.60    2.32
   7   9 -14   29.52    5.65
   7  -9 -14   33.42    5.98
   7  -9 -14   32.83    5.64
   7   9 -13    1.22    1.63
   7  -9 -13    1.86    2.73
   7  -9 -13    0.47    1.67
   7   9 -12   39.38    5.92
   7  -9 -12   52.31    6.88
   7  -9 -12   53.44    7.30
   7   9 -11    5.59    2.48
   7  -9 -11    7.44    2.98
   7  -9 -11    2.19    1.82
   7  -9 -10    1.81    1.62
   7   9 -10    3.97    1.82
   7  -9 -10    4.73    2.60
   7   9  -9    2.95    2.47
   7  -9  -9    2.69    1.78
   7  -9  -9   -0.09    1.23
   7   9  -8  101.00    9.46
   7  -9  -8   91.45    9.11
   7  -9  -8   82.10    9.06
   7   9  -7    4.08    2.04
  -7   9  -7    3.77    2.95
   7  -9  -7    0.34    1.76
   7  -9  -7   -0.35    2.39
   7   9  -6   25.44    4.78
  -7   9  -6   24.12    4.65
   7  -9  -6   23.60    4.95
   7  -9  -6   26.19    4.94
   7   9  -5    3.03    2.01
  -7   9  -5    2.75    1.62
   7  -9  -5    6.55    2.69
   7  -9  -5    4.83    2.84
   7   9  -4   33.92    5.47
  -7   9  -4   30.03    5.40
   7  -9  -4   32.40    5.36
   7  -9  -4   35.31    5.54
   7  -9  -3    0.08    1.64
   7   9  -3   -0.25    1.68
  -7   9  -3    1.35    1.89
   7  -9  -3    2.00    2.00
   7   9  -2   66.86    7.37
   7  -9  -2   54.36    6.75
  -7   9  -2   59.20    6.91
   7  -9  -2   52.98    6.87
   7   9  -2   48.77    6.78
   7   9  -1    1.05    1.85
   7   9  -1    2.95    1.51
  -7   9  -1    3.77    2.13
   7  -9  -1    2.25    2.16
   7   9   0    5.72    2.89
   7   9   0    2.31    1.57
  -7   9   0    2.38    2.10
   7  -9   0    4.68    2.94
  -7   9   1   -1.42    2.34
   7   9   1    6.10    2.97
   7   9   1    1.35    1.82
   7  -9   1    5.05    1.98
   7   9   2   46.60    6.12
   7   9   2   50.76    6.55
  -7   9   2   57.77    7.34
   7  -9   2   70.76    8.03
   7  -9   3    0.38    1.27
   7   9   3    1.19    1.13
  -7   9   3   -1.88    2.25
   7   9   4   35.42    5.55
   7   9   4   24.61    4.41
  -7   9   4   36.01    5.51
   7  -9   4   32.81    5.34
  -7   9   5    3.95    2.41
   7   9   5    5.71    2.33
   7   9   5    6.05    1.35
   7  -9   5    0.71    1.10
   7   9   6   30.16    5.04
   7   9   6   24.85    4.60
  -7   9   6   17.91    3.96
   7  -9   6   20.78    4.40
   7   9   7    0.53    2.00
   7   9   7   -0.01    1.18
  -7   9   7    1.10    1.23
   7  -9   7    4.15    1.97
   7   9   8   96.08    9.49
  -7   9   8   90.65    9.04
   7  -9   8  102.17    9.69
   7   9   8   91.94    9.01
   7   9   9    5.85    3.05
   7   9   9    1.31    1.36
  -7   9   9    5.14    2.85
   7  -9   9    8.50    3.20
   7   9  10    1.27    1.18
   7   9  10    7.16    2.73
  -7   9  10    2.42    2.43
   7  -9  10    3.01    2.31
   7   9  11    3.62    1.68
   7   9  11    1.45    1.31
  -7   9  11    6.71    2.92
   7  -9  11    0.02    2.33
   7   9  12   61.12    7.25
  -7   9  12   41.94    6.23
   7   9  12   49.89    7.23
   7   9  13    0.82    1.99
   7   9  13    3.50    3.26
  -7   9  13   -0.53    2.21
   7   9  14   38.39    6.91
  -7   9  14   38.29    6.26
   7   9  14   35.11    5.67
   7   9  15    1.37    2.10
   7   9  15    7.40    2.55
  -7   9  15    4.73    2.19
   7   9  16    1.43    1.82
  -7   9  16    0.94    1.74
   7   9  16    2.62    1.39
   7   9  17    2.65    1.71
   7   9  17   -0.13    1.50
  -7   9  17    1.77    1.30
   7  10 -12    0.92    1.69
   7 -10 -12   -1.52    2.94
   7 -10 -12    5.29    2.85
   7  10 -11    6.89    2.75
   7 -10 -11    6.63    2.60
   7 -10 -11   12.14    4.11
   7  10 -10    2.40    2.52
   7 -10 -10    8.20    3.78
   7 -10 -10    1.87    2.05
   7  10  -9   -0.92    1.38
   7 -10  -9    2.44    1.39
   7  10  -8    1.95    2.09
   7 -10  -8    1.55    1.05
   7  10  -7   17.98    4.28
   7 -10  -7   15.42    4.25
   7  10  -6    0.52    2.42
  -7  10  -6    0.30    1.63
   7 -10  -6    2.34    2.45
   7  10  -5    8.56    2.49
   7 -10  -5   18.45    4.46
  -7  10  -5   15.93    4.41
   7  10  -4    2.28    1.08
  -7  10  -4   -1.48    1.89
   7 -10  -4    1.40    1.96
   7  10  -3    0.26    1.94
  -7  10  -3    1.55    2.06
   7 -10  -3    1.25    1.35
   7  10  -2    2.72    2.43
  -7  10  -2   -0.89    1.26
   7 -10  -2    3.25    2.62
   7  10  -1   -0.05    1.89
  -7  10  -1    0.83    2.52
   7 -10  -1    4.21    2.52
   7  10   0    0.51    1.93
   7  10   0   -1.20    1.32
  -7  10   0   -1.88    2.45
   7 -10   0    0.26    1.74
   7  10   1    1.44    1.67
   7  10   1    1.13    1.47
  -7  10   1    4.66    1.58
   7 -10   1    0.61    1.59
   7  10   2   -0.61    1.83
   7  10   2   -1.17    1.63
  -7  10   2   -0.08    1.29
   7 -10   2   -0.81    1.12
   7  10   3    2.87    1.30
   7  10   3    0.75    1.99
  -7  10   3   -2.40    2.08
   7 -10   3   -1.93    2.07
   7  10   4    0.04    1.43
   7  10   4    2.77    2.82
  -7  10   4    1.91    1.06
   7 -10   4    4.51    2.24
   7  10   5   13.18    3.36
   7  10   5   16.67    4.24
  -7  10   5   15.62    4.47
   7 -10   5   11.67    3.84
   7  10   6    2.36    2.22
   7  10   6    0.06    1.10
  -7  10   6   -0.03    1.18
   7 -10   6    1.02    1.96
   7  10   7    8.97    2.72
   7  10   7   13.71    3.60
  -7  10   7   11.76    3.37
   7 -10   7    7.03    2.55
   7  10   8    7.05    2.55
   7  10   8    3.36    2.29
  -7  10   8    3.24    2.40
   7 -10   8    3.73    2.64
   7  10   9   -1.53    2.06
   7  10   9    2.23    2.42
  -7  10   9    1.15    1.22
   7 -10   9   -1.07    1.75
   7  10  10    4.65    2.88
   7  10  10    1.29    1.85
  -7  10  10    0.09    1.63
   7  10  11   11.81    3.96
   7  10  11   16.26    4.33
  -7  10  11    6.99    3.28
   7  10  12    0.51    1.39
   7  10  12   -1.67    1.89
  -7  10  12    1.33    2.12
   7  11  -2   17.56    4.21
  -7  11  -2   15.96    4.62
   7 -11  -2   11.83    3.54
   7  11  -1    0.86    1.89
  -7  11  -1   -1.68    1.88
   7 -11  -1    0.48    1.51
   7  11   0    3.73    1.49
  -7  11   0    1.88    2.33
   7 -11   0   -2.79    2.88
   7 -11   1    4.00    2.78
   7  11   1    1.53    2.33
  -7  11   1   -2.74    2.69
   7  11   2   13.08    4.36
   7  11   2   13.18    4.36
  -7  11   2    8.46    3.48
   7 -11   2   15.65    4.44
   8   0 -28   -4.14    2.06
   8   0 -27   15.35    3.58
   8   0 -26   31.06    5.60
   8   0 -25   17.00    4.39
   8   0 -24    9.32    2.45
   8   0 -23    1.44    1.79
   8   0 -22   10.60    3.33
   8   0 -21   45.21    5.75
   8   0 -20    6.56    2.61
   8   0 -19   37.70    5.27
   8   0 -18   86.26    7.72
   8   0 -17  153.29   10.44
   8   0 -16   27.07    4.42
   8   0 -15  153.29    9.71
   8   0 -14   62.09    6.36
   8   0 -13   51.98    5.54
   8   0 -13   52.56    4.59
   8   0 -12  359.84   14.22
   8   0 -12  345.47   12.00
   8   0 -11  320.60   11.37
   8   0 -11  288.03   12.56
   8   0 -10   60.68    4.93
   8   0 -10   63.60    5.96
   8   0  -9  749.08   17.22
   8   0  -9  749.87   19.66
   8   0  -8  448.53   13.25
   8   0  -8  470.11   15.27
   8   0  -8  485.70   15.39
   8   0  -7    8.87    1.76
   8   0  -7    8.69    2.34
   8   0  -7    9.41    2.20
   8   0  -6  265.71   10.20
   8   0  -6  263.55   11.18
   8   0  -6  277.57   11.36
   8   0  -5   24.96    3.34
   8   0  -5   27.79    3.32
   8   0  -5   31.61    3.86
   8   0  -4  527.22   15.71
   8   0  -4  543.64   14.69
   8   0  -4  513.96   15.06
   8   0  -3  917.02   20.44
   8   0  -3  925.91   19.17
   8   0  -3  940.57   20.07
   8   0  -2  441.31   13.72
   8   0  -2  438.77   14.08
   8   0  -2  468.62   13.97
   8   0  -1   60.82    4.96
   8   0  -1   65.91    5.39
   8   0  -1   62.61    5.04
   8   0   0  694.52   17.08
   8   0   0  735.75   18.14
   8   0   0  714.08   16.95
   8   0   1   67.76    5.34
   8   0   1   78.48    5.52
   8   0   2  483.37   14.34
   8   0   2  455.52   13.28
   8   0   3  898.29   19.88
   8   0   3  887.63   18.23
   8   0   4  541.98   15.44
   8   0   4  529.36   13.85
   8   0   5   22.91    3.15
   8   0   5   23.51    2.87
   8   0   6  266.64    9.68
   8   0   6  266.10   11.18
   8   0   7    5.02    1.93
   8   0   7    3.83    1.33
   8   0   8  458.91   15.20
   8   0   8  479.10   12.74
   8   0   9  784.03   20.04
   8   0   9  719.35   15.87
   8   0  10   57.92    5.62
   8   0  10   61.73    4.47
   8   0  11  285.30   12.45
   8   0  11  307.38    9.87
   8   0  12  362.41   14.40
   8   0  12  361.81   10.62
   8   0  13   57.95    6.00
   8   0  13   54.04    4.12
   8   0  14   64.31    6.39
   8   0  15  131.27    9.19
   8   0  16   19.74    3.87
   8   0  17  135.30    9.69
   8   0  18  110.47    8.90
   8   0  19   39.08    5.33
   8   0  20    2.24    0.99
   8   0  21   45.30    6.08
   8   0  22   17.69    3.71
   8   0  23    0.84    1.62
   8  -1 -28    2.20    2.69
   8  -1 -27    5.95    3.15
   8  -1 -26    2.66    2.07
   8  -1 -25   -1.38    1.14
   8  -1 -24    2.87    2.30
   8   1 -23   -1.40    1.75
   8  -1 -23    0.50    1.04
   8   1 -22    7.24    2.74
   8  -1 -22    5.50    2.81
   8   1 -21    3.98    1.77
   8  -1 -21   -0.69    1.63
   8   1 -20    4.15    1.08
   8  -1 -20    1.29    1.81
   8   1 -19   10.52    2.93
   8  -1 -19    9.21    2.73
   8   1 -18   14.25    3.22
   8  -1 -18   20.97    4.19
   8   1 -17   24.61    3.95
   8  -1 -17   28.80    4.43
   8  -1 -16   20.45    3.83
   8   1 -16   16.03    3.32
   8   1 -15    7.32    2.45
   8  -1 -15    9.18    2.84
   8   1 -14    3.07    1.67
   8  -1 -14    5.73    1.81
   8  -1 -14    4.54    1.94
   8  -1 -13    1.25    0.63
   8   1 -13    1.42    0.77
   8  -1 -13    3.99    1.95
   8   1 -13    4.99    2.13
   8  -1 -12    0.99    0.62
   8  -1 -12    4.14    1.78
   8   1 -12    3.10    1.71
   8   1 -12    2.45    0.92
   8   1 -12    1.52    0.67
   8   1 -11   24.72    2.92
   8  -1 -11   21.03    3.39
   8  -1 -11   26.56    3.63
   8   1 -11   30.44    3.96
   8   1 -10   16.18    2.38
   8   1 -10   14.93    3.01
   8  -1 -10   18.17    3.15
   8   1 -10   14.84    3.13
   8  -1 -10   15.81    3.01
   8  -1  -9    8.83    2.09
   8   1  -9    9.17    1.85
   8  -1  -9    6.68    2.02
   8   1  -9   12.90    2.43
   8   1  -9    9.69    2.45
   8  -1  -8   20.59    2.82
   8   1  -8   25.97    3.12
   8  -1  -8   25.30    3.72
   8   1  -8   24.82    3.48
   8   1  -8   26.09    3.55
   8  -1  -7   42.85    4.32
   8   1  -7   37.70    3.68
   8  -1  -7   38.39    4.58
   8   1  -7   39.31    4.28
   8   1  -7   35.45    4.04
   8  -1  -6   12.32    2.34
   8   1  -6   11.93    2.26
   8   1  -6   12.59    2.57
   8  -1  -6   10.29    2.10
   8   1  -6    7.55    1.99
   8  -1  -5    9.67    2.19
   8  -1  -5    5.63    2.05
   8   1  -5    7.77    1.98
   8   1  -5    5.41    1.44
   8   1  -5    5.24    1.79
   8   1  -4    9.85    2.17
   8  -1  -4    9.44    2.00
   8   1  -4   13.39    2.31
   8  -1  -4   10.88    2.21
   8   1  -4   10.76    2.27
   8  -1  -3   31.08    3.64
   8   1  -3   34.98    3.86
   8   1  -3   29.09    3.34
   8  -1  -3   33.05    4.07
   8   1  -3   31.61    3.57
   8  -1  -2   43.78    4.31
   8   1  -2   48.91    4.58
   8   1  -2   57.17    4.65
   8  -1  -2   57.02    5.12
   8   1  -2   44.27    4.37
   8  -1  -1   56.78    4.95
   8   1  -1   60.22    4.92
   8  -1  -1   62.01    5.41
   8   1  -1   65.60    5.30
   8   1  -1   61.65    4.97
   8   1   0    2.13    1.25
   8   1   0    0.79    0.86
   8  -1   0    1.41    0.90
   8  -1   0    2.38    1.00
   8  -1   1   56.92    5.09
   8   1   1   64.16    5.08
   8  -1   2   43.54    4.48
   8   1   2   49.26    4.67
   8   1   2   49.97    4.46
   8   1   3   30.29    3.36
   8  -1   3   33.59    3.95
   8   1   3   30.16    3.81
   8   1   4    7.70    1.60
   8   1   4    8.87    2.11
   8  -1   4    8.52    1.91
   8   1   5    8.40    1.86
   8   1   5    3.64    1.05
   8  -1   5    6.84    1.88
   8   1   6    7.64    2.00
   8   1   6   13.23    2.39
   8  -1   6   10.72    2.36
   8   1   7   32.12    3.95
   8  -1   7   33.54    4.04
   8   1   7   31.91    3.52
   8   1   8   24.77    3.60
   8  -1   8   18.06    2.98
   8   1   8   26.79    3.12
   8  -1   9    9.94    2.32
   8   1   9    9.96    2.47
   8   1   9   12.40    2.24
   8  -1  10   13.86    2.73
   8   1  10   14.98    2.47
   8   1  10   16.12    2.41
   8   1  11   24.37    3.78
   8  -1  11   28.67    4.05
   8   1  11   25.97    3.19
   8   1  12    3.55    1.18
   8  -1  12    1.34    1.27
   8   1  12    3.05    1.66
   8   1  13    2.79    0.96
   8  -1  13    2.84    1.26
   8   1  13    2.44    1.48
   8   1  14    3.62    1.30
   8  -1  14    2.76    1.27
   8   1  14    3.23    1.19
   8  -1  15    5.00    1.98
   8   1  15    9.70    2.44
   8  -1  16   14.00    3.13
   8   1  16   11.35    2.39
   8   1  17   36.86    4.90
   8  -1  17   32.64    4.74
   8  -1  18   19.47    3.59
   8   1  18   14.11    3.21
   8  -1  19   15.68    3.55
   8   1  19   10.52    3.38
   8  -1  20    1.38    1.47
   8   1  20    6.81    2.48
   8  -1  21    1.12    1.14
   8   1  21   -0.04    1.65
   8  -1  22    5.40    1.41
   8   1  22    7.12    2.44
   8   1  23    1.36    1.95
   8   1  24    2.68    1.30
   8  -2 -28   15.73    4.18
   8  -2 -27   18.34    4.15
   8  -2 -26    5.16    2.41
   8  -2 -25   16.72    4.01
   8  -2 -24   32.20    5.13
   8  -2 -23   11.72    3.03
   8  -2 -22   22.58    4.57
   8  -2 -21   64.47    7.38
   8  -2 -20    4.54    2.40
   8  -2 -19   13.34    3.16
   8   2 -18   41.40    5.77
   8  -2 -18   52.09    6.26
   8   2 -17   43.11    5.31
   8  -2 -17   26.32    4.53
   8   2 -17   37.30    5.04
   8   2 -16   39.29    4.88
   8  -2 -16   42.29    5.73
   8  -2 -16   35.91    4.71
   8   2 -16   44.49    5.70
   8   2 -15  101.57    7.49
   8  -2 -15   97.56    8.39
   8  -2 -15   95.25    7.66
   8   2 -15  117.32    8.43
   8   2 -14   47.83    5.13
   8  -2 -14   37.08    5.30
   8  -2 -14   47.33    5.29
   8   2 -14   45.44    5.13
   8  -2 -13   13.90    2.90
   8   2 -13   12.74    2.56
   8  -2 -13   13.62    3.26
   8   2 -13   14.89    3.09
   8   2 -12   88.61    6.74
   8  -2 -12  111.69    8.36
   8  -2 -12   95.01    7.19
   8   2 -12   94.13    7.11
   8   2 -11  165.71    8.84
   8  -2 -11  156.83    9.92
   8   2 -11  145.37    8.85
   8  -2 -11  164.38    9.37
   8   2 -10   14.92    2.71
   8  -2 -10   19.82    3.35
   8   2 -10   20.99    3.24
   8  -2 -10   15.56    3.11
   8   2  -9   81.48    5.16
   8   2  -9   73.74    5.84
   8   2  -9   82.56    6.51
   8  -2  -9   78.33    6.51
   8  -2  -9   77.34    6.75
   8  -2  -8  106.99    7.30
   8   2  -8   97.61    5.72
   8  -2  -8  117.27    8.19
   8   2  -8  101.29    6.50
   8   2  -8   99.48    7.02
   8  -2  -7   74.98    6.01
   8   2  -7   85.98    5.46
   8   2  -7   77.59    5.86
   8   2  -7   71.65    6.06
   8   2  -6    7.60    2.01
   8   2  -6    9.14    1.81
   8  -2  -6   11.13    2.78
   8  -2  -6    6.22    1.60
   8   2  -6    6.98    1.81
   8  -2  -5  129.82    7.99
   8   2  -5  145.78    7.33
   8  -2  -5  143.14    8.78
   8   2  -5  152.37    7.88
   8   2  -5  154.90    8.63
   8  -2  -4  172.34    9.20
   8  -2  -4  191.61   10.23
   8   2  -4  180.01    8.42
   8   2  -4  180.87    8.27
   8   2  -4  166.33    8.85
   8  -2  -3  159.20    8.70
   8  -2  -3  157.09    9.15
   8   2  -3  166.35    8.07
   8   2  -3  152.18    7.74
   8   2  -3  166.81    8.81
   8  -2  -2  271.35   11.40
   8  -2  -2  303.14   12.68
   8   2  -2  265.57   10.28
   8   2  -2  284.84   10.89
   8   2  -2  270.55   11.16
   8  -2  -1  261.16   11.18
   8  -2  -1  275.45   11.99
   8   2  -1  286.60   10.94
   8   2  -1  265.54   11.24
   8   2   0  117.72    7.05
   8  -2   0  121.53    7.55
   8  -2   0  122.31    7.94
   8   2   0  116.32    7.34
   8   2   1  282.69   11.14
   8  -2   1  256.66   11.11
   8  -2   1  274.96   11.71
   8   2   1  252.93   10.82
   8   2   2  269.24   11.10
   8  -2   2  300.01   12.03
   8  -2   2  297.30   12.35
   8   2   2  264.71   10.93
   8   2   3  171.10    8.89
   8  -2   3  165.56    9.05
   8  -2   3  163.84    9.09
   8   2   3  152.87    8.14
   8   2   4  180.03    8.89
   8   2   4  169.72    9.05
   8  -2   4  172.11    9.12
   8  -2   5  146.90    8.49
   8   2   5  163.72    8.43
   8   2   6    9.46    2.05
   8  -2   6   10.00    2.13
   8   2   6   10.32    2.20
   8   2   7   73.04    5.67
   8   2   7   79.24    6.54
   8  -2   7   92.19    6.88
   8   2   8  116.06    7.12
   8   2   8  115.78    7.84
   8  -2   8   98.25    7.19
   8   2   9   81.96    6.06
   8   2   9   70.01    6.37
   8  -2   9   72.22    6.39
   8   2  10   16.14    2.77
   8   2  10   20.62    3.55
   8  -2  10   21.25    3.40
   8   2  11  156.93    9.69
   8  -2  11  148.97    9.24
   8   2  11  164.64    8.58
   8   2  12   99.99    7.80
   8  -2  12  101.21    7.79
   8   2  12  100.56    6.75
   8   2  13   11.09    2.22
   8   2  13   13.89    3.05
   8  -2  13   16.53    3.35
   8   2  14   35.14    5.16
   8  -2  14   37.96    4.86
   8   2  14   40.43    4.14
   8   2  15   99.93    8.32
   8  -2  15  105.47    8.12
   8   2  15  101.39    6.64
   8   2  16   42.59    5.57
   8  -2  16   46.62    5.43
   8   2  17   41.95    5.45
   8  -2  17   40.09    5.06
   8   2  18   46.74    6.05
   8  -2  18   40.66    5.45
   8   2  19   11.26    3.32
   8  -2  19   12.16    3.26
   8   2  20    6.15    3.02
   8  -2  20    7.03    2.68
   8   2  21   43.88    6.21
   8  -2  21   45.84    5.94
   8   2  22   24.70    4.85
   8   2  23    6.89    2.69
   8   2  24   24.85    4.93
   8   2  25   12.46    3.55
   8  -3 -27   -0.15    1.87
   8  -3 -26   -0.60    1.19
   8  -3 -25    0.03    1.19
   8  -3 -24    2.16    1.96
   8  -3 -23    1.06    1.77
   8  -3 -22   -0.01    1.13
   8  -3 -21    2.06    1.74
   8  -3 -20    2.31    1.04
   8  -3 -19    3.17    1.46
   8   3 -19    4.22    2.65
   8  -3 -18    2.66    2.13
   8   3 -18    6.98    2.85
   8  -3 -17   89.28    8.35
   8  -3 -17   65.34    6.80
   8   3 -17   82.52    7.48
   8  -3 -16   59.11    6.50
   8  -3 -16   53.73    6.14
   8   3 -16   63.67    6.47
   8  -3 -15   31.42    4.85
   8  -3 -15   39.84    5.44
   8   3 -15   32.88    4.54
   8  -3 -14   29.49    4.94
   8  -3 -14   30.56    4.34
   8   3 -14   28.54    4.23
   8   3 -13   20.45    3.40
   8  -3 -13   20.40    4.12
   8  -3 -13   23.94    3.74
   8   3 -12    0.56    1.01
   8  -3 -12    2.02    1.70
   8   3 -12    0.41    1.24
   8  -3 -12    0.72    1.24
   8   3 -11   19.74    2.67
   8  -3 -11   24.04    3.90
   8  -3 -11   23.07    3.62
   8   3 -11   20.99    3.53
   8   3 -10   27.14    3.31
   8  -3 -10   26.84    4.23
   8  -3 -10   32.47    4.31
   8   3 -10   33.67    4.28
   8  -3  -9   31.92    4.46
   8   3  -9   29.75    3.24
   8  -3  -9   35.22    4.50
   8   3  -9   33.11    3.35
   8   3  -9   34.39    4.50
   8   3  -8   29.02    3.41
   8  -3  -8   33.50    4.62
   8   3  -8   27.69    3.14
   8  -3  -8   27.47    3.97
   8   3  -8   25.91    3.68
   8  -3  -7   50.49    5.69
   8   3  -7   48.59    4.34
   8   3  -7   47.06    4.15
   8   3  -7   44.14    4.85
   8  -3  -7   39.92    4.84
   8   3  -6   16.01    3.00
   8  -3  -6   21.25    3.74
   8   3  -6   19.75    2.77
   8   3  -6   22.57    2.87
   8  -3  -6   21.49    3.47
   8   3  -5    7.07    1.87
   8  -3  -5    6.97    1.66
   8   3  -5    2.51    0.99
   8  -3  -5    8.68    2.48
   8   3  -5    3.59    1.24
   8   3  -4    0.52    0.93
   8  -3  -4    1.85    1.11
   8   3  -4    0.80    0.96
   8  -3  -4    0.20    0.65
   8   3  -4    0.55    0.95
   8  -3  -3   21.25    3.45
   8   3  -3   28.59    3.62
   8  -3  -3   22.17    3.57
   8   3  -3   28.62    3.22
   8   3  -3   17.73    3.22
   8   3  -2   26.20    3.79
   8  -3  -2   30.13    4.04
   8   3  -2   30.40    3.68
   8  -3  -2   27.56    3.99
   8   3  -2   25.74    3.07
   8   3  -1   16.69    2.93
   8   3  -1   15.13    2.78
   8  -3  -1    9.71    2.22
   8  -3  -1    8.33    2.11
   8   3   0    4.15    1.64
   8   3   0    7.03    1.62
   8  -3   0    6.92    2.16
   8  -3   0    7.40    2.11
   8   3   1    9.99    2.42
   8  -3   1   11.37    2.60
   8  -3   1   12.08    2.58
   8   3   1    9.11    1.96
   8   3   2   27.24    3.80
   8  -3   2   34.91    4.21
   8   3   2   29.59    3.80
   8  -3   2   25.60    3.71
   8   3   3   19.70    3.37
   8  -3   3   30.72    4.09
   8   3   3   26.52    3.52
   8  -3   3   22.54    3.58
   8   3   4    1.59    1.46
   8  -3   4    0.87    0.74
   8  -3   4   -0.52    1.00
   8   3   4    0.35    0.92
   8  -3   5    8.39    2.35
   8   3   5    6.09    2.16
   8   3   5    5.54    1.74
   8  -3   5    3.56    1.55
   8   3   6   17.28    2.88
   8   3   6   13.42    3.15
   8  -3   6   14.62    2.72
   8   3   7   48.95    4.91
   8  -3   7   48.82    5.07
   8   3   7   51.75    5.42
   8   3   8   30.96    3.70
   8  -3   8   32.57    4.23
   8   3   8   27.77    4.26
   8   3   9   32.22    4.03
   8  -3   9   34.02    4.20
   8   3   9   37.51    5.07
   8   3  10   26.61    3.63
   8  -3  10   30.69    4.33
   8   3  10   24.80    4.20
   8   3  11   24.41    3.38
   8   3  11   20.08    3.77
   8  -3  11   26.04    3.90
   8   3  12    1.32    1.58
   8   3  12    1.26    1.04
   8  -3  12    2.59    1.05
   8   3  13   21.68    3.14
   8   3  13   27.37    4.49
   8  -3  13   18.17    3.42
   8   3  14   28.73    3.88
   8   3  14   22.68    4.11
   8  -3  14   28.03    4.58
   8   3  15   28.35    3.91
   8   3  15   26.46    4.08
   8  -3  15   29.52    4.39
   8   3  16   61.94    6.58
   8  -3  16   49.86    5.91
   8   3  17   68.87    7.60
   8  -3  17   77.02    7.46
   8  -3  18    7.22    1.82
   8   3  18    8.78    2.73
   8  -3  19    5.42    2.65
   8   3  19   10.57    3.11
   8  -3  20    0.82    1.33
   8   3  20    3.26    2.51
   8   3  21    3.86    2.20
   8   3  22    2.29    1.80
   8   3  23    2.31    1.56
   8   3  24    3.77    2.28
   8   3  25    2.39    1.76
   8   3  26    1.87    1.62
   8  -4 -26    3.44    2.31
   8  -4 -25   12.88    3.74
   8  -4 -24   29.48    5.04
   8  -4 -23    2.24    1.39
   8  -4 -22   13.84    3.62
   8  -4 -21   29.39    5.11
   8  -4 -20    0.53    1.20
   8  -4 -19    4.07    2.47
   8  -4 -19   12.82    4.30
   8  -4 -18   15.94    3.75
   8  -4 -18   17.96    4.16
   8   4 -18   10.76    3.31
   8  -4 -17    2.54    1.72
   8  -4 -17    3.85    1.87
   8   4 -17    3.61    2.24
   8  -4 -16   61.60    7.05
   8  -4 -16   59.60    6.70
   8   4 -16   75.03    7.14
   8  -4 -15  105.05    9.30
   8  -4 -15  105.34    8.75
   8   4 -15  110.43    8.55
   8  -4 -14   27.52    4.62
   8  -4 -14   26.94    4.50
   8   4 -14   30.17    4.56
   8  -4 -13   25.44    4.17
   8   4 -13   20.20    3.86
   8  -4 -13   21.52    3.93
   8  -4 -12   20.45    3.86
   8  -4 -12   17.69    3.93
   8   4 -12   21.26    3.77
   8  -4 -11   69.72    6.92
   8  -4 -11   69.76    7.02
   8   4 -11   73.53    6.72
   8  -4 -10   13.83    3.12
   8  -4 -10   18.76    3.87
   8   4 -10   22.19    3.95
   8  -4  -9   16.41    3.24
   8   4  -9   12.08    3.45
   8  -4  -9   19.53    3.98
   8   4  -8    5.49    1.98
   8  -4  -8    9.87    2.49
   8   4  -8    5.14    1.59
   8  -4  -8    3.32    1.46
   8   4  -7   61.62    5.10
   8  -4  -7   68.51    6.77
   8  -4  -7   69.72    6.59
   8   4  -7   66.08    6.10
   8   4  -6   13.82    2.60
   8   4  -6   11.33    2.69
   8  -4  -6   13.15    3.01
   8  -4  -6   12.76    2.93
   8   4  -5  232.03   11.49
   8   4  -5  207.09    9.72
   8  -4  -5  239.50   12.26
   8   4  -5  219.48    8.48
   8  -4  -5  223.93   11.55
   8   4  -4  109.39    6.98
   8  -4  -4   97.71    7.85
   8   4  -4  102.85    5.80
   8   4  -4  102.94    7.50
   8  -4  -4  104.35    7.83
   8   4  -3   34.99    4.61
   8   4  -3   33.17    4.09
   8  -4  -3   37.23    4.86
   8   4  -3   37.65    3.58
   8  -4  -3   41.47    5.09
   8  -4  -2  193.65   10.62
   8   4  -2  187.97   10.42
   8   4  -2  183.02    9.46
   8  -4  -2  177.27   10.33
   8   4  -2  194.15    8.32
   8  -4  -1  372.81   14.65
   8   4  -1  354.07   13.89
   8   4  -1  367.19   13.44
   8  -4  -1  341.17   14.45
   8   4   0   47.56    5.27
   8  -4   0   38.10    4.91
   8   4   0   43.19    4.70
   8  -4   0   41.32    5.06
   8   4   1  349.36   13.72
   8  -4   1  346.88   14.15
   8   4   1  349.03   13.50
   8  -4   1  332.38   14.16
   8   4   2  190.74   10.37
   8  -4   2  208.83   10.90
   8   4   2  193.30   10.26
   8  -4   2  194.12   10.69
   8   4   3   31.97    4.40
   8  -4   3   32.35    4.42
   8   4   3   38.15    4.60
   8  -4   3   31.15    4.22
   8   4   4  104.72    7.60
   8  -4   4   97.41    7.41
   8   4   4  117.72    8.03
   8  -4   4  110.68    8.17
   8   4   5  222.31   11.13
   8  -4   5  222.81   11.37
   8   4   5  203.39   10.67
   8  -4   5  218.90   11.46
   8   4   6   17.25    3.48
   8   4   6   11.61    2.71
   8  -4   6   10.58    2.91
   8  -4   6   20.01    3.32
   8   4   7   70.17    6.34
   8  -4   7   60.15    6.15
   8   4   7   70.80    6.48
   8  -4   7   59.59    6.14
   8   4   8   12.94    2.95
   8   4   8    5.63    2.11
   8  -4   8    8.81    2.70
   8   4   9   22.80    3.96
   8  -4   9   22.38    3.75
   8   4   9   18.91    3.46
   8   4  10   16.79    2.96
   8  -4  10   16.08    2.85
   8   4  10   20.53    3.57
   8   4  11   69.45    6.60
   8  -4  11   75.30    6.79
   8   4  11   74.19    7.03
   8   4  12   24.82    4.01
   8  -4  12   30.69    4.52
   8   4  12   19.93    3.93
   8   4  13   27.55    4.08
   8  -4  13   21.86    4.01
   8   4  13   21.98    3.91
   8   4  14   28.35    4.13
   8  -4  14   23.79    4.05
   8   4  14   30.35    4.51
   8   4  15   96.75    7.71
   8  -4  15   94.67    8.09
   8   4  15   90.85    8.08
   8   4  16   63.61    6.60
   8  -4  16   73.46    7.35
   8   4  16   59.12    6.64
   8   4  17    4.71    2.75
   8  -4  17    3.45    2.15
   8   4  18   22.76    4.55
   8  -4  18   15.51    3.43
   8   4  19   13.10    3.32
   8   4  20    0.01    1.22
   8   4  21   20.62    4.40
   8   4  22   21.51    4.10
   8   4  23    3.15    2.12
   8   4  24   17.88    3.82
   8   4  25   23.22    4.87
   8   4  26    1.26    1.79
   8  -5 -25   -0.08    1.82
   8  -5 -24    2.31    1.39
   8  -5 -23   -0.38    1.23
   8  -5 -22   -0.38    1.53
   8  -5 -21    1.52    1.42
   8  -5 -20    2.76    2.77
   8  -5 -20    8.31    4.38
   8  -5 -19    4.13    2.37
   8  -5 -19    2.71    1.28
   8  -5 -18    3.89    2.30
   8  -5 -18    3.02    0.99
   8   5 -17   11.90    3.61
   8  -5 -17    8.68    2.81
   8  -5 -17    7.07    2.62
   8  -5 -16   20.91    4.51
   8  -5 -16   20.93    4.07
   8   5 -16   22.23    4.43
   8   5 -15   18.82    3.78
   8  -5 -15   13.57    3.94
   8  -5 -15   20.52    4.29
   8   5 -14   17.02    3.37
   8  -5 -14   16.38    4.09
   8  -5 -14   17.20    3.74
   8   5 -13    7.59    2.31
   8  -5 -13   10.95    3.33
   8  -5 -13    7.88    2.58
   8   5 -12   19.38    3.76
   8  -5 -12   11.91    3.15
   8  -5 -12   12.55    2.89
   8   5 -11    7.92    2.29
   8  -5 -11    7.65    2.54
   8  -5 -11    8.41    2.66
   8   5 -10    1.58    1.83
  -8   5 -10    0.04    0.47
   8  -5 -10   -0.22    1.19
   8  -5 -10    2.37    1.59
   8  -5  -9    4.65    2.36
   8   5  -9    4.79    1.95
   8  -5  -9    0.74    0.88
   8  -5  -8    8.17    2.38
   8   5  -8   11.00    2.54
   8  -5  -8    9.81    3.11
   8   5  -7   41.29    5.01
   8  -5  -7   38.34    5.40
   8  -5  -7   38.94    5.04
   8  -5  -6   13.31    2.86
   8   5  -6   13.74    2.97
   8   5  -6   16.11    2.97
   8  -5  -6   18.20    3.70
   8   5  -5    8.27    2.01
   8  -5  -5   10.38    2.56
   8   5  -5   11.52    2.76
   8  -5  -5   13.42    3.05
   8   5  -4   33.52    4.50
   8   5  -4   37.16    4.44
   8  -5  -4   34.65    4.96
   8  -5  -4   24.05    3.79
   8   5  -3   27.64    4.27
   8  -5  -3   26.58    4.48
   8   5  -3   20.00    3.36
   8  -5  -3   27.39    4.32
   8  -5  -2   17.86    3.19
   8   5  -2   23.61    4.17
   8   5  -2   20.58    3.51
   8  -5  -2   20.18    3.73
   8   5  -1   10.35    2.57
   8  -5  -1    9.51    2.54
   8   5  -1    3.62    1.38
   8  -5  -1   12.26    2.88
   8   5   0   11.40    2.64
   8  -5   0   18.70    3.42
   8   5   0   14.86    2.78
   8  -5   0   14.06    3.55
   8   5   1    9.43    2.97
   8  -5   1    9.89    2.80
   8   5   1    8.67    2.55
   8  -5   1   11.98    3.13
   8   5   2   15.52    2.87
   8  -5   2   19.90    3.65
   8   5   2   12.83    3.07
   8  -5   2   19.66    3.60
   8  -5   3   23.85    4.00
   8   5   3   31.89    4.46
   8   5   3   24.53    3.85
   8  -5   3   34.24    4.88
   8  -5   4   33.92    4.68
   8   5   4   31.71    4.31
   8   5   4   32.94    4.54
   8  -5   4   39.46    4.96
   8   5   5   14.04    2.88
   8  -5   5    9.70    3.05
   8   5   5   11.58    3.10
   8  -5   5   11.15    2.34
   8   5   6   11.61    2.33
   8  -5   6   17.14    3.41
   8   5   6   19.83    3.59
   8  -5   6    7.52    2.47
   8  -5   7   38.29    4.95
   8   5   7   29.84    4.30
   8   5   7   35.20    4.75
   8  -5   7   37.99    5.06
   8   5   8   13.82    3.47
   8  -5   8    4.84    1.50
   8   5   8   12.51    3.03
   8  -5   8   14.89    3.39
   8   5   9    4.32    1.62
   8  -5   9    5.52    2.25
   8   5   9    2.62    1.21
   8  -5   9    1.41    1.14
   8   5  10    0.90    1.35
   8  -5  10   -0.45    1.55
   8   5  10    0.90    1.27
   8  -5  10   -1.17    1.42
   8   5  11    9.98    3.10
   8  -5  11    5.53    1.57
   8   5  11    9.49    2.54
   8  -5  12    9.30    2.70
   8   5  12   13.16    3.07
   8   5  13    6.85    2.73
   8  -5  13    6.25    2.62
   8   5  13    0.90    1.86
   8   5  14   15.92    3.17
   8  -5  14   14.31    3.37
   8   5  14   14.83    3.74
   8   5  15   26.19    4.01
   8  -5  15   21.46    4.36
   8   5  15   19.13    3.75
   8   5  16   23.32    4.33
   8  -5  16   18.42    4.09
   8   5  16   25.46    4.47
   8   5  17    7.64    3.13
   8   5  17    8.70    2.61
   8  -5  17    9.25    3.11
   8   5  18    5.94    2.96
   8   5  19    5.99    2.17
   8   5  20    1.93    2.45
   8   5  21    3.48    1.99
   8   5  22    0.28    1.49
   8   5  23    2.65    2.03
   8   5  24   -0.02    1.42
   8   5  25    1.67    3.13
   8  -6 -24   17.28    4.24
   8  -6 -23    0.19    1.86
   8  -6 -22    1.00    1.31
   8  -6 -21   10.70    3.55
   8  -6 -20    0.48    1.85
   8  -6 -20    1.09    1.81
   8  -6 -19    9.96    3.32
   8  -6 -19    8.73    3.04
   8  -6 -18   25.97    5.08
   8  -6 -18   24.40    5.19
   8  -6 -17   20.93    4.63
   8  -6 -17   13.42    4.04
   8   6 -17   22.84    5.14
   8   6 -16    8.95    2.86
   8  -6 -16    8.69    2.85
   8  -6 -16   13.96    3.42
   8  -6 -15   62.69    7.21
   8  -6 -15   64.72    7.53
   8   6 -15   53.43    6.30
   8   6 -14   23.67    4.36
   8  -6 -14   24.96    4.38
   8  -6 -14   19.15    4.28
   8   6 -13   -0.82    1.72
   8  -6 -13    0.79    1.31
   8  -6 -13    1.50    1.97
   8  -6 -12   43.12    5.87
   8  -6 -12   35.35    5.26
   8   6 -12   44.18    5.81
   8   6 -11   78.67    7.84
   8  -6 -11   79.69    7.77
   8  -6 -11   79.03    7.86
   8   6 -10   16.13    3.27
   8  -6 -10   12.57    3.33
   8  -6 -10   17.26    3.82
   8   6  -9   57.49    6.41
  -8   6  -9   42.31    5.26
   8  -6  -9   44.73    5.97
   8  -6  -9   42.33    5.64
   8   6  -8   24.73    4.16
   8  -6  -8   18.78    3.46
   8  -6  -8   24.86    4.30
  -8   6  -8   22.72    4.05
   8  -6  -7   15.97    3.55
  -8   6  -7   13.94    3.22
   8   6  -7   12.05    2.78
   8  -6  -7   15.17    3.54
   8   6  -6   89.52    7.98
   8   6  -6   87.10    7.28
  -8   6  -6  101.63    8.31
   8  -6  -6  101.16    8.73
   8  -6  -6  105.34    8.87
   8   6  -5  113.92    8.89
   8   6  -5  135.65    8.72
   8  -6  -5  124.22    9.55
   8  -6  -4    6.11    2.23
   8   6  -4   12.03    2.82
   8   6  -4    8.01    2.12
   8  -6  -4   11.31    3.23
   8   6  -3   35.27    4.88
   8   6  -3   33.74    4.71
   8  -6  -3   31.46    4.89
   8  -6  -3   25.71    4.27
   8   6  -2   47.69    5.55
   8   6  -2   45.39    5.19
   8  -6  -2   36.95    5.32
   8  -6  -2   33.18    4.80
   8   6  -1   53.86    6.10
   8  -6  -1   57.73    6.49
   8   6  -1   47.10    5.55
   8  -6  -1   58.95    6.63
   8   6   0   69.27    6.75
   8  -6   0   53.83    6.20
   8   6   0   64.84    6.26
   8  -6   0   55.54    6.51
   8   6   1   54.40    6.31
   8  -6   1   53.21    6.01
   8   6   1   57.22    6.08
   8  -6   1   51.50    6.08
   8   6   2   46.02    5.69
   8  -6   2   44.25    5.50
   8   6   2   39.69    5.01
   8  -6   2   34.99    4.85
   8   6   3   34.75    5.01
   8  -6   3   29.35    4.77
   8   6   3   22.05    4.20
   8  -6   3   23.13    4.21
   8  -6   4    5.57    2.17
   8   6   4    8.72    3.02
   8   6   4   11.99    3.08
   8  -6   4    8.53    2.28
   8   6   5  118.92    9.11
   8  -6   5  126.40    9.73
   8   6   5  129.40    9.41
   8  -6   5  134.88    9.73
   8   6   6  104.03    8.52
   8  -6   6  105.57    8.88
   8   6   6  100.41    8.34
   8  -6   6  119.09    9.11
   8  -6   7    8.49    2.94
   8   6   7   12.56    3.10
   8   6   7   12.94    3.13
   8  -6   7   13.34    3.51
   8   6   8   26.66    4.31
   8   6   8   20.75    3.75
   8  -6   8   34.41    5.09
   8  -6   8   23.79    4.41
   8  -6   9   43.48    5.81
   8   6   9   41.86    5.69
   8   6   9   51.89    6.29
   8  -6   9   52.91    6.18
   8  -6  10    7.87    2.84
   8   6  10   17.31    3.94
   8   6  10   11.85    2.86
   8  -6  10    8.62    2.99
   8  -6  11   77.94    7.66
   8   6  11   78.00    7.38
   8   6  11   84.29    7.74
   8  -6  11   88.91    8.36
   8  -6  12   39.50    5.62
   8   6  12   43.31    5.78
   8   6  12   37.93    5.33
   8  -6  12   38.59    5.74
   8   6  13    0.81    1.51
   8  -6  13    1.45    1.66
   8   6  13    0.41    1.35
   8  -6  13    4.51    2.86
   8   6  14   27.28    4.84
   8  -6  14   13.23    4.66
   8   6  14   25.49    4.66
   8  -6  14   31.59    5.17
   8   6  15   64.13    7.44
   8   6  15   66.96    7.40
   8   6  16    5.68    1.75
   8  -6  16    6.79    2.95
   8   6  16    8.54    2.34
   8   6  17    8.88    3.37
   8   6  17   11.58    3.41
   8   6  18   25.29    4.73
   8   6  19   12.50    3.70
   8   6  20    1.77    2.40
   8   6  21   19.85    4.57
   8   6  22    2.38    1.49
   8   6  23   -1.39    2.56
  -8   6  23    2.08    2.76
   8   6  24   20.69    5.05
  -8   6  24    7.81    3.12
   8  -7 -22   -2.25    2.11
   8  -7 -21    2.37    1.53
   8  -7 -21    6.61    2.72
   8  -7 -20    8.64    3.32
   8  -7 -20    4.75    2.23
   8  -7 -19    5.65    3.00
   8  -7 -19    0.46    1.81
   8  -7 -18    6.00    1.83
   8  -7 -18    2.47    2.04
   8  -7 -17   -1.00    1.37
   8  -7 -17   -0.93    1.89
   8   7 -16    0.06    1.42
   8  -7 -16    1.39    1.99
   8  -7 -16    2.98    2.18
   8   7 -15   -2.22    2.21
   8  -7 -15   -0.33    1.42
   8  -7 -15    1.60    1.93
   8   7 -14    0.93    1.88
   8  -7 -14    5.20    2.01
   8  -7 -14    2.21    1.29
   8  -7 -13    3.44    2.48
   8   7 -13    5.13    2.12
   8  -7 -13    6.62    2.69
   8   7 -12   19.05    4.13
   8  -7 -12   19.49    4.60
   8  -7 -12   29.74    5.02
   8   7 -11   34.58    5.33
   8  -7 -11   25.62    4.52
   8  -7 -11   25.86    4.84
   8   7 -10   12.60    3.68
   8  -7 -10   12.41    3.60
   8  -7 -10   10.47    3.27
   8   7  -9    3.09    1.96
   8  -7  -9    1.31    1.33
   8  -7  -9    0.49    1.71
   8   7  -8   30.70    5.02
  -8   7  -8   26.35    4.52
   8  -7  -8   25.28    4.48
   8  -7  -8   29.95    4.90
   8   7  -7   24.08    4.45
  -8   7  -7   21.72    4.11
   8  -7  -7   17.91    4.01
   8  -7  -7   22.45    4.57
   8   7  -6    9.78    3.08
  -8   7  -6   13.58    3.12
   8  -7  -6    8.18    2.76
   8  -7  -6    8.36    2.94
   8   7  -5   45.58    5.70
  -8   7  -5   32.77    5.16
   8  -7  -5   37.17    5.58
   8  -7  -5   34.35    5.29
   8  -7  -4   12.18    3.44
   8   7  -4   16.52    3.59
   8   7  -4   15.00    3.21
  -8   7  -4   13.56    3.16
   8  -7  -4   17.27    4.09
   8   7  -3   24.11    4.33
  -8   7  -3   21.94    4.06
   8   7  -3   25.34    4.15
   8  -7  -3   22.44    4.22
   8  -7  -3   31.35    5.02
   8   7  -2   25.10    4.57
  -8   7  -2   18.40    3.69
   8   7  -2   15.19    3.42
   8  -7  -2   20.18    3.97
   8  -7  -2   23.84    4.47
   8   7  -1   41.24    5.59
  -8   7  -1   33.04    5.18
   8   7  -1   43.29    5.38
   8  -7  -1   37.84    5.26
   8  -7  -1   45.42    5.83
   8   7   0   61.27    6.83
  -8   7   0   43.50    5.87
   8   7   0   63.36    6.62
   8  -7   0   50.87    6.29
   8  -7   0   50.35    6.10
   8   7   1   44.31    5.66
   8  -7   1   40.89    5.35
   8   7   1   39.13    5.46
   8  -7   1   32.40    4.88
   8  -7   2   16.98    3.86
   8   7   2   18.27    3.94
   8  -7   2   18.19    3.63
   8   7   2   17.17    3.35
   8   7   3   19.82    3.93
   8  -7   3   23.53    4.28
   8   7   3   16.35    3.47
   8  -7   3   27.23    4.84
   8  -7   4    9.63    3.23
   8  -7   4    9.12    2.58
   8   7   4   11.76    2.37
   8   7   5   41.47    5.36
   8   7   5   43.56    5.81
   8  -7   5   52.81    6.66
   8  -7   5   42.67    6.01
   8  -7   6   19.33    4.20
   8   7   6   11.55    3.20
   8  -7   6   10.40    3.41
   8   7   6   11.36    2.72
   8  -7   7   25.23    4.61
   8   7   7   22.01    4.12
   8  -7   7   25.73    4.81
   8   7   7   33.98    5.18
   8   7   8   29.96    4.77
   8  -7   8   20.15    3.83
   8   7   8   38.48    5.53
   8  -7   8   29.87    5.11
   8  -7   9   -1.68    1.12
   8   7   9   -0.92    1.90
   8  -7   9    0.80    1.21
   8   7   9    0.59    1.43
   8  -7  10   10.06    2.75
   8  -7  10    5.62    2.15
   8   7  10   11.26    3.04
   8  -7  11   25.55    4.34
   8   7  11   21.80    4.20
   8   7  11   28.42    4.93
   8  -7  11   24.27    4.93
   8   7  12   28.68    5.24
   8  -7  12   15.57    3.78
   8   7  12   22.69    3.97
   8  -7  13    5.75    2.50
   8   7  13    5.02    2.59
   8   7  13    5.05    1.74
   8  -7  14    1.13    1.50
   8   7  14    3.81    2.05
   8   7  14    0.65    0.99
   8   7  15   -0.34    2.58
   8   7  15   -0.14    1.84
   8   7  16    5.96    2.80
   8   7  16    5.09    3.12
   8   7  17    1.61    1.84
   8   7  17   -0.75    1.68
  -8   7  17   -1.89    1.43
   8   7  18    0.43    1.88
  -8   7  18    5.49    2.79
   8   7  19    2.97    2.12
  -8   7  19   -0.03    1.78
   8   7  20    2.65    1.55
  -8   7  20   -0.31    1.65
   8   7  21    4.10    2.47
  -8   7  21    2.65    1.66
   8   7  22    0.36    1.36
   8  -8 -19    7.67    3.27
   8  -8 -19    5.41    1.98
   8  -8 -18   12.45    3.68
   8  -8 -18    9.13    3.31
   8  -8 -17   30.77    5.38
   8  -8 -17   15.88    4.74
   8  -8 -16    0.06    1.28
   8  -8 -16    1.60    1.94
   8   8 -15    9.96    3.37
   8  -8 -15   21.58    4.24
   8  -8 -15   19.42    4.21
   8   8 -14   12.91    3.77
   8  -8 -14    8.38    3.61
   8  -8 -14   13.24    3.91
   8   8 -13    0.19    1.52
   8  -8 -13   -1.32    1.44
   8  -8 -13   -0.33    1.79
   8  -8 -12   28.79    5.26
   8   8 -12   24.93    4.80
   8  -8 -12   22.33    4.44
   8   8 -11   42.44    5.84
   8  -8 -11   49.11    6.52
   8   8 -10    3.14    1.70
   8  -8 -10    5.47    2.84
   8  -8 -10    1.05    2.16
   8   8  -9   31.71    5.15
   8  -8  -9   31.03    5.50
   8  -8  -9   26.77    4.82
   8   8  -8   36.47    5.61
  -8   8  -8   35.04    6.24
   8  -8  -8   36.96    5.44
   8  -8  -8   39.07    5.70
   8  -8  -7   12.42    3.26
   8   8  -7    8.25    3.16
  -8   8  -7   10.32    2.99
   8  -8  -7   13.77    3.75
   8   8  -6   13.77    3.64
  -8   8  -6   13.47    3.69
   8  -8  -6   10.55    3.28
   8  -8  -6   11.52    3.11
   8   8  -5   47.72    6.26
  -8   8  -5   40.79    5.77
   8  -8  -5   43.27    6.04
   8  -8  -5   44.70    6.44
   8   8  -4    7.45    2.48
  -8   8  -4    4.81    2.62
   8  -8  -4    4.92    1.65
   8  -8  -4    3.98    1.42
   8   8  -3    4.52    2.44
  -8   8  -3    2.69    1.74
   8  -8  -3    7.37    3.26
   8   8  -3    4.46    2.10
   8  -8  -3    8.77    2.85
   8   8  -2   23.53    4.37
   8  -8  -2   28.14    5.09
  -8   8  -2   17.93    3.79
   8   8  -2   21.91    4.29
   8  -8  -2   22.30    4.68
   8   8  -1   21.92    4.52
  -8   8  -1   22.30    4.29
   8  -8  -1   13.74    3.52
   8   8  -1   20.59    4.20
   8  -8  -1   14.30    3.52
   8  -8   0    3.31    1.61
  -8   8   0    1.75    1.93
   8   8   0    2.53    1.41
   8  -8   0    2.98    1.87
   8   8   0    3.24    2.53
   8  -8   1   18.19    3.96
   8   8   1   24.27    4.51
  -8   8   1   19.52    4.65
   8  -8   1   21.78    4.49
   8   8   1   14.85    3.36
   8  -8   2   17.85    3.80
   8   8   2   24.08    4.93
  -8   8   2   30.81    5.29
   8  -8   2   34.21    5.76
   8   8   2   24.14    4.83
   8  -8   3    4.30    1.12
   8   8   3    3.91    2.35
   8  -8   3    1.06    1.67
   8   8   3    3.54    1.88
   8  -8   4    8.05    2.79
   8   8   4   12.81    3.58
  -8   8   4   10.65    2.98
   8  -8   4   10.77    3.88
   8   8   4    8.42    2.95
   8   8   5   34.65    5.69
  -8   8   5   44.63    6.11
   8  -8   5   47.67    6.40
   8  -8   5   40.35    5.72
   8   8   5   29.89    5.47
   8  -8   6    7.14    2.68
   8   8   6    3.73    2.35
   8   8   6    5.95    2.34
   8  -8   7    6.42    2.56
   8   8   7   11.15    3.43
  -8   8   7   13.90    3.33
   8   8   7   10.77    2.68
   8   8   8   33.44    5.21
  -8   8   8   36.86    5.60
   8  -8   8   32.13    5.52
   8   8   8   29.84    4.86
   8  -8   9   29.41    4.98
   8   8   9   20.10    4.33
  -8   8   9   26.19    4.59
   8   8   9   36.14    5.76
   8  -8  10    6.19    2.70
   8   8  10    5.71    2.69
  -8   8  10    6.05    2.68
   8   8  10    4.83    2.32
   8   8  11   48.91    6.87
  -8   8  11   35.30    5.69
   8   8  11   51.56    6.81
   8  -8  11   39.28    6.11
   8  -8  12   17.44    4.08
   8   8  12   26.15    4.94
  -8   8  12   22.01    4.24
   8   8  12   22.42    4.56
   8  -8  13    0.51    1.57
   8   8  13    0.95    2.01
   8   8  13    1.25    1.49
  -8   8  13    1.19    2.05
   8   8  14   14.13    3.98
  -8   8  14    7.94    3.19
   8   8  14   12.91    2.85
   8   8  15   23.68    4.46
  -8   8  15   17.33    4.35
   8   8  15   14.20    3.41
   8   8  16   -0.10    2.06
  -8   8  16   -0.70    1.16
   8   8  16    2.17    2.06
   8   8  17   18.11    4.16
  -8   8  17   16.31    3.92
  -8   8  18   18.36    5.07
   8   8  18   11.09    2.93
   8   8  19    0.84    1.25
  -8   8  19    2.68    2.19
   8  -9 -15    6.54    3.19
   8  -9 -15    5.34    2.53
   8   9 -14    4.69    3.30
   8  -9 -14    7.32    3.35
   8  -9 -14    1.64    1.79
   8   9 -13    6.27    2.78
   8  -9 -13    2.16    1.54
   8  -9 -13    7.53    3.03
   8   9 -12    7.10    3.12
   8  -9 -12    1.23    2.13
   8  -9 -12    1.20    1.76
   8   9 -11    5.31    3.10
   8  -9 -11    2.23    1.57
   8  -9 -11    6.60    2.94
   8   9 -10   -0.96    1.39
   8  -9 -10    4.13    2.64
   8  -9 -10    4.03    2.41
   8   9  -9    1.64    2.49
   8  -9  -9    1.89    2.80
   8  -9  -9    2.16    1.82
   8   9  -8    6.70    3.28
   8  -9  -8    3.82    2.25
   8  -9  -8    7.28    3.14
   8   9  -7    2.99    2.35
  -8   9  -7   -1.16    1.50
   8  -9  -7   -0.75    1.57
   8   9  -6    0.25    1.68
  -8   9  -6    1.23    2.11
   8  -9  -6    3.02    1.97
   8  -9  -6    1.34    1.83
   8   9  -5    3.41    1.62
  -8   9  -5    2.01    2.32
   8  -9  -5    7.95    2.88
   8  -9  -5    4.97    2.41
   8   9  -4   -0.68    2.08
  -8   9  -4   -0.39    2.07
   8  -9  -4    0.27    1.59
   8  -9  -4    1.54    2.17
   8   9  -3    0.86    1.67
  -8   9  -3    7.22    3.13
   8  -9  -3    5.19    2.05
   8  -9  -3    0.81    1.83
   8   9  -2    4.81    2.65
  -8   9  -2    4.83    1.63
   8  -9  -2    3.46    2.06
   8  -9  -2    6.12    3.09
   8   9  -1    4.39    2.08
  -8   9  -1    5.11    2.21
   8  -9  -1    3.08    1.92
   8   9  -1    4.90    3.09
   8  -9  -1    2.84    1.81
   8   9   0    0.90    2.11
  -8   9   0    1.34    1.57
   8   9   0    1.15    1.41
   8  -9   0    1.51    1.13
   8   9   1    6.13    2.75
  -8   9   1    5.65    2.26
   8   9   1    1.57    1.15
   8  -9   1    1.80    2.00
   8   9   2   13.19    3.96
  -8   9   2    9.22    3.76
   8   9   2    3.24    1.55
   8  -9   2    6.38    2.33
   8   9   3    0.13    1.58
   8   9   3    3.68    2.52
  -8   9   3    4.18    2.15
   8  -9   3    5.01    2.28
   8   9   4    2.69    1.16
   8   9   4    2.37    1.61
  -8   9   4    4.69    2.67
   8  -9   4    2.86    2.25
   8   9   5    7.95    2.66
   8   9   5    9.40    3.36
  -8   9   5    6.33    2.64
   8  -9   5   11.88    3.60
   8   9   6    2.86    2.57
   8   9   6   -1.50    2.16
  -8   9   6    1.91    1.75
   8  -9   6   -1.17    1.52
   8   9   7   -0.93    1.86
   8   9   7    1.20    1.32
  -8   9   7   -1.99    1.82
   8  -9   7    0.36    1.85
   8   9   8    7.24    3.49
  -8   9   8    5.03    2.74
   8   9   8    2.95    2.00
   8  -9   8    5.02    1.76
   8   9   9   -0.60    1.70
   8   9   9    1.39    2.34
  -8   9   9   -1.84    2.07
   8  -9   9   -2.69    2.45
   8  -9  10    7.34    1.99
   8   9  10    1.12    1.67
  -8   9  10    3.24    1.78
   8   9  10    5.02    2.79
   8  -9  11    3.06    2.51
   8   9  11    4.35    2.27
  -8   9  11    0.61    1.77
   8   9  11    4.34    2.76
   8   9  12    7.82    2.73
  -8   9  12    1.66    1.51
   8   9  12    7.93    3.04
   8   9  13    5.84    2.78
  -8   9  13    4.89    2.65
   8   9  13    7.80    2.76
   8   9  14   -0.26    2.16
  -8   9  14    5.63    2.28
   8   9  14    2.19    1.46
   8   9  15    1.44    2.03
  -8   9  15    3.17    1.60
   8  10 -10    2.49    2.15
   8 -10 -10    0.79    2.00
   8 -10 -10    0.37    1.88
   8  10  -9   16.93    4.06
   8 -10  -9   11.50    3.92
   8 -10  -9   10.21    3.40
   8  10  -8    6.35    2.93
   8 -10  -8    7.98    2.84
   8 -10  -8    4.96    2.95
   8  10  -7    3.18    2.01
   8 -10  -7    4.59    2.28
  -8  10  -6   -1.27    1.96
   8 -10  -6   -0.17    2.21
   8  10  -5   17.92    4.47
  -8  10  -5   16.19    4.44
   8 -10  -5   21.02    4.39
   8  10  -4    3.90    1.93
  -8  10  -4    5.06    3.03
   8 -10  -4    0.99    1.57
   8  10  -3    0.14    1.14
  -8  10  -3    0.39    1.94
   8 -10  -3    3.23    2.97
   8  10  -2    3.93    2.03
  -8  10  -2    2.26    1.34
   8 -10  -2    4.20    2.91
   8  10  -1   10.87    3.75
  -8  10  -1    5.92    2.19
   8 -10  -1   11.47    3.12
   8  10   0    1.68    1.60
  -8  10   0   -2.69    2.92
   8  10   0    0.14    1.30
   8 -10   0    2.33    1.47
   8  10   1   13.94    4.30
  -8  10   1    7.51    1.92
   8 -10   1    8.14    3.10
   8  10   1    7.55    2.82
   8  10   2   10.77    2.76
  -8  10   2    6.21    2.89
   8 -10   2   12.75    3.70
   8  10   2    3.45    1.30
   8  10   3    3.60    2.70
  -8  10   3    0.08    1.58
   8 -10   3   -0.66    1.91
   8  10   3    0.50    1.54
   8  10   4    5.90    3.11
  -8  10   4    2.52    1.76
   8 -10   4    2.15    2.37
   8  10   4    7.64    2.71
   8  10   5   24.06    4.76
   8  10   5   20.18    4.94
  -8  10   5   27.23    5.54
   8 -10   5   23.27    4.47
   8  10   6    6.54    3.31
  -8  10   6    2.00    1.99
   8 -10   6    1.54    1.49
   8  10   6    0.17    2.14
   8  10   7    4.76    2.55
  -8  10   7   -0.06    1.80
   8 -10   7    2.97    3.25
   8  10   7    2.57    1.24
   8  10   8   12.38    2.86
  -8  10   8    7.41    2.68
   8 -10   8    8.70    3.89
   8  10   8   10.01    3.40
   8  10   9   14.10    4.40
  -8  10   9   14.41    3.88
   8  10   9    5.05    2.02
   8 -10   9   15.32    4.42
   8  10  10   -1.99    2.48
  -8  10  10   -0.74    1.27
   8  10  10    0.01    1.18
   9   0 -27   -5.09    2.26
   9   0 -26   -1.23    1.54
   9   0 -25   -2.05    2.93
   9   0 -24    0.01    1.34
   9   0 -23    2.95    2.47
   9   0 -22   -0.38    1.59
   9   0 -21    0.96    1.18
   9   0 -20   -0.87    1.36
   9   0 -19    0.93    1.55
   9   0 -18    0.85    1.52
   9   0 -17   -1.08    1.46
   9   0 -16    0.51    1.36
   9   0 -15   -0.12    1.00
   9   0 -14   -0.64    1.70
   9   0 -13    0.88    0.79
   9   0 -13    1.99    1.59
   9   0 -12    0.67    0.94
   9   0 -12    0.51    1.07
   9   0 -11    0.24    1.03
   9   0 -11   -0.80    0.87
   9   0 -10    0.14    0.86
   9   0 -10   -0.62    1.01
   9   0  -9   -0.23    0.79
   9   0  -9   -0.36    1.22
   9   0  -8   -0.07    0.72
   9   0  -8   -0.23    0.77
   9   0  -7    0.07    0.60
   9   0  -7    0.45    1.00
   9   0  -7   -0.01    0.82
   9   0  -6    1.48    1.26
   9   0  -6   -0.05    0.65
   9   0  -6   -0.93    1.14
   9   0  -5    0.21    0.71
   9   0  -5    0.02    0.66
   9   0  -5   -0.27    0.98
   9   0  -4   -0.50    1.29
   9   0  -4   -0.11    0.81
   9   0  -4   -0.25    0.90
   9   0  -3   -0.33    0.69
   9   0  -3    0.49    1.58
   9   0  -3    0.49    0.67
   9   0  -2   -0.01    0.59
   9   0  -2    0.42    1.11
   9   0  -2   -0.06    0.95
   9   0  -1    1.26    1.19
   9   0  -1    0.24    1.22
   9   0  -1   -0.22    1.02
   9   0   0   -0.11    0.54
   9   0   0    0.50    0.71
   9   0   0    0.07    1.06
   9   0   1    0.02    0.62
   9   0   1   -0.43    0.64
   9   0   2   -0.32    0.50
   9   0   2   -0.51    0.64
   9   0   3    0.02    0.51
   9   0   3   -0.17    0.63
   9   0   4   -0.22    0.95
   9   0   4   -0.42    0.45
   9   0   5   -0.19    0.64
   9   0   5   -0.06    0.71
   9   0   6    0.40    0.91
   9   0   6   -0.44    1.00
   9   0   7    1.03    1.56
   9   0   7    0.10    1.04
   9   0   8   -0.73    1.24
   9   0   8   -0.07    0.76
   9   0   9   -0.04    1.01
   9   0   9   -0.45    0.57
   9   0  10   -0.67    0.98
   9   0  10   -0.55    0.99
   9   0  11   -0.58    0.74
   9   0  11    0.69    1.26
   9   0  12    0.80    1.59
   9   0  12   -0.05    0.81
   9   0  13    1.66    1.59
   9   0  13    0.35    0.82
   9   0  14    0.69    1.07
   9   0  15   -0.20    1.04
   9   0  16   -0.23    1.52
   9   0  17   -1.04    1.74
   9   0  18    0.75    1.03
   9   0  19   -0.42    1.75
   9   0  20   -1.19    0.96
   9   0  21   -0.16    1.41
   9   0  22    1.85    2.45
   9   0  23   -2.25    1.72
   9   0  24   -1.45    1.85
   9  -1 -28    6.60    3.47
   9  -1 -27   15.32    3.87
   9  -1 -26   23.25    4.70
   9  -1 -25   11.92    3.50
   9  -1 -24    1.38    2.66
   9  -1 -23   12.14    3.44
   9   1 -22   24.63    5.54
   9  -1 -22   21.69    4.13
   9  -1 -21   50.86    6.94
   9   1 -21    1.46    2.78
   9   1 -20    8.14    2.65
   9  -1 -20   11.79    3.09
   9   1 -19   39.36    5.53
   9  -1 -19   36.42    5.13
   9   1 -18    3.15    1.16
   9  -1 -18    2.03    1.75
   9   1 -17  273.65   13.63
   9  -1 -17  260.65   13.68
   9   1 -16   46.91    5.66
   9  -1 -16   48.02    5.94
   9   1 -15  159.35   10.12
   9  -1 -15  173.65   10.81
   9  -1 -14    3.84    1.51
   9   1 -14    5.54    1.30
   9  -1 -14    4.38    1.69
   9  -1 -13    0.66    1.10
   9   1 -13    2.34    0.87
   9  -1 -13    5.03    2.15
   9   1 -13    1.97    1.61
   9  -1 -12   58.25    6.17
   9   1 -12   51.99    5.48
   9   1 -12   70.08    6.30
   9  -1 -12   56.80    5.59
   9   1 -11  471.75   13.99
   9   1 -11  468.98   16.26
   9  -1 -11  520.99   17.88
   9   1 -11  512.61   17.12
   9  -1 -11  469.78   15.80
   9  -1 -10   31.47    4.24
   9   1 -10   30.63    3.54
   9   1 -10   37.60    4.72
   9  -1 -10   34.59    4.81
   9   1 -10   44.68    5.07
   9  -1  -9  335.87   12.93
   9   1  -9  346.36   12.11
   9  -1  -9  360.98   14.75
   9   1  -9  348.17   13.55
   9   1  -9  348.43   13.54
   9  -1  -8  105.46    7.23
   9   1  -8  107.98    6.71
   9  -1  -8   95.41    7.55
   9   1  -8   90.92    6.79
   9   1  -8   91.53    6.87
   9  -1  -7  119.87    7.72
   9   1  -7  108.81    6.72
   9  -1  -7  112.19    8.21
   9   1  -7  119.38    7.70
   9   1  -7  109.32    7.48
   9  -1  -6  112.62    7.39
   9   1  -6  123.06    7.15
   9  -1  -6  117.74    8.18
   9   1  -6  122.01    7.84
   9   1  -6  118.13    7.70
   9  -1  -5  259.71   11.20
   9   1  -5  293.21   11.12
   9  -1  -5  283.20   12.63
   9   1  -5  276.68   11.85
   9   1  -5  285.21   11.86
   9  -1  -4  194.89    9.72
   9   1  -4  182.95    8.85
   9  -1  -4  202.03   10.51
   9   1  -4  202.17    9.98
   9   1  -4  165.22    9.07
   9  -1  -3  264.72   11.32
   9  -1  -3  274.44   12.16
   9   1  -3  289.46   11.82
   9   1  -3  262.52   11.40
   9   1  -3  274.64   10.86
   9  -1  -2  162.81    8.91
   9   1  -2  150.56    8.09
   9  -1  -2  131.22    8.29
   9   1  -2  150.98    8.43
   9   1  -2  142.44    8.26
   9  -1  -1  420.57   14.33
   9   1  -1  411.53   13.57
   9  -1  -1  430.93   15.01
   9   1  -1  455.54   14.75
   9   1  -1  437.03   14.39
   9  -1   0  619.79   17.30
   9   1   0  686.74   17.81
   9  -1   0  642.73   18.57
   9   1   0  631.42   17.14
   9  -1   1  438.06   14.70
   9   1   1  425.76   14.22
   9  -1   1  429.37   15.23
   9   1   1  422.59   13.82
   9   1   2  129.54    7.93
   9   1   2  143.12    8.07
   9  -1   3  263.32   11.62
   9   1   3  277.85   11.76
   9   1   3  270.21   10.97
   9  -1   4  211.45   10.35
   9   1   4  194.25    9.90
   9   1   4  203.46    9.51
   9   1   5  287.66   12.27
   9   1   5  258.18   10.71
   9  -1   6  123.29    8.06
   9   1   6  125.50    8.12
   9   1   6  123.00    7.32
   9  -1   7  120.56    7.98
   9   1   7  111.61    6.84
   9   1   7  109.82    7.75
   9   1   8  102.15    6.73
   9   1   8  104.08    7.72
   9  -1   8   92.24    6.98
   9  -1   9  342.65   13.89
   9   1   9  366.66   14.49
   9  -1  10   34.06    4.59
   9   1  10   35.62    3.90
   9   1  10   29.72    4.02
   9   1  11  473.81   14.31
   9   1  11  449.91   16.65
   9  -1  12   56.09    5.86
   9   1  12   54.70    4.90
   9   1  12   65.31    6.31
   9   1  13    1.92    0.81
   9  -1  13   -0.26    0.74
   9   1  13   -0.01    1.11
   9  -1  14    2.89    1.41
   9   1  14    2.75    1.71
   9   1  14    4.50    1.10
   9  -1  15  147.13    9.89
   9   1  15  158.16   10.40
   9  -1  16   45.36    5.68
   9   1  16   45.13    5.64
   9  -1  17  269.51   13.85
   9   1  17  248.47   13.59
   9  -1  18    3.87    1.63
   9   1  18    3.12    1.96
   9  -1  19   38.06    5.37
   9   1  19   36.16    5.38
   9  -1  20    7.04    1.94
   9   1  20    4.34    1.81
   9  -1  21   53.02    6.56
   9   1  21   62.20    7.42
   9   1  22   23.77    3.89
   9  -1  22   33.47    5.31
   9   1  23    7.70    2.83
   9   1  24    1.76    2.38
   9   1  25   10.94    3.55
   9  -2 -27   -0.29    1.21
   9  -2 -26    1.88    1.92
   9  -2 -25    3.11    2.36
   9  -2 -24    1.15    1.07
   9  -2 -23   -1.68    1.77
   9  -2 -22    3.41    2.54
   9  -2 -21    2.70    2.14
   9  -2 -20    0.56    1.28
   9  -2 -19    3.97    2.12
   9  -2 -18   14.59    3.49
   9  -2 -17    2.47    1.49
   9   2 -17    1.81    1.47
   9   2 -16    5.21    2.15
   9  -2 -16    6.92    2.54
   9   2 -16    5.31    2.18
   9  -2 -15   -0.03    1.10
   9   2 -15    1.25    1.27
   9   2 -15    0.08    1.31
   9  -2 -15    1.29    1.71
   9  -2 -14    2.85    1.68
   9  -2 -14    1.84    1.25
   9   2 -14    4.45    1.51
   9   2 -14    3.48    1.34
   9  -2 -13    2.28    1.02
   9   2 -13    2.42    1.67
   9  -2 -13    1.24    1.62
   9   2 -13    1.57    1.25
   9  -2 -12    9.18    2.38
   9   2 -12   13.43    2.80
   9  -2 -12   16.58    3.39
   9   2 -12   15.19    2.96
   9  -2 -11   11.39    2.61
   9  -2 -11    7.86    2.28
   9   2 -11    5.49    2.03
   9   2 -11   14.38    2.66
   9  -2 -10   -0.22    1.21
   9   2 -10   -0.35    1.23
   9  -2 -10    0.42    1.22
   9   2 -10    0.43    0.91
   9   2 -10    0.88    1.47
   9  -2  -9   -0.71    1.15
   9  -2  -9    3.56    2.02
   9   2  -9    3.46    1.81
   9   2  -9    0.22    0.53
   9   2  -9   -0.99    1.03
   9  -2  -8   19.64    3.18
   9   2  -8   21.07    2.99
   9   2  -8   19.05    3.32
   9  -2  -8   18.33    3.36
   9   2  -8   26.33    3.87
   9   2  -7   12.63    2.62
   9  -2  -7   11.78    2.45
   9   2  -7   15.05    2.54
   9  -2  -7   11.48    2.88
   9   2  -7   10.81    2.23
   9   2  -6    7.76    2.10
   9   2  -6    5.02    1.70
   9  -2  -6    2.75    1.42
   9  -2  -6    8.08    2.29
   9   2  -6    8.07    2.26
   9   2  -5    3.05    1.15
   9   2  -5    2.92    1.05
   9  -2  -5    0.10    1.09
   9   2  -5    2.26    0.58
   9   2  -4    1.09    1.15
   9   2  -4    2.95    1.30
   9  -2  -4    2.48    1.19
   9  -2  -4    3.12    1.40
   9   2  -4    2.93    1.50
   9   2  -3    8.78    2.02
   9   2  -3    5.44    1.27
   9  -2  -3    6.00    1.86
   9  -2  -3    5.79    2.15
   9   2  -3    8.97    2.25
   9   2  -2   11.24    2.31
   9   2  -2    8.38    1.85
   9  -2  -2    5.06    1.71
   9  -2  -2    9.42    2.47
   9   2  -2    5.84    1.76
   9  -2  -1   28.55    3.93
   9  -2  -1   32.52    4.30
   9   2  -1   32.68    3.94
   9   2  -1   35.35    4.05
   9   2  -1   31.75    3.96
   9  -2   0   14.91    2.83
   9   2   0   12.77    2.58
   9  -2   0   12.08    2.86
   9   2   0   14.03    2.72
   9  -2   1   33.70    4.17
   9  -2   1   31.34    4.28
   9   2   1   41.73    4.50
   9   2   1   36.69    4.15
   9   2   2   10.24    2.14
   9   2   2   11.52    2.26
   9  -2   2    9.08    2.45
   9  -2   2    7.24    2.28
   9   2   3    4.41    1.94
   9   2   3    5.48    1.69
   9  -2   3    4.57    1.73
   9  -2   3    8.51    2.09
   9   2   4    3.50    1.59
   9   2   4    2.81    1.63
   9  -2   4    2.55    1.13
   9   2   5    2.45    1.34
   9   2   5    1.80    1.13
   9  -2   5    3.36    1.29
   9   2   6    5.93    1.75
   9  -2   6    4.02    1.35
   9   2   6    3.34    1.27
   9   2   7   10.56    2.37
   9   2   7   11.81    2.62
   9  -2   7   10.34    2.47
   9   2   8   19.76    3.59
   9  -2   8   25.61    3.80
   9   2   8   20.36    3.21
   9   2   9    0.60    1.12
   9   2   9    1.66    1.66
   9  -2   9    1.93    1.67
   9   2  10    0.59    0.81
   9   2  10    0.64    0.91
   9  -2  10    0.91    1.18
   9   2  11    7.25    1.95
   9   2  11    7.57    2.79
   9  -2  11   12.49    3.07
   9   2  12   12.34    2.74
   9   2  12   11.98    3.31
   9  -2  12   16.73    3.06
   9   2  13    3.81    1.80
   9   2  13    2.67    0.75
   9  -2  13    3.92    1.86
   9   2  14    3.30    1.45
   9   2  14    4.03    2.07
   9  -2  14    6.66    2.43
   9   2  15    0.47    1.45
   9  -2  15   -0.15    1.25
   9   2  16    8.80    2.74
   9  -2  16    3.33    1.58
   9   2  17    1.55    1.38
   9  -2  17    4.97    2.28
   9   2  18   12.55    3.07
   9  -2  18    7.31    2.09
   9   2  19   -0.28    1.56
   9  -2  19   -1.76    1.50
   9   2  20   -0.83    1.77
   9  -2  20    0.72    1.41
   9   2  21   -0.38    1.54
   9  -2  21    4.01    2.71
   9   2  22    8.86    2.80
   9   2  23    1.47    1.19
   9   2  24    3.38    2.15
   9   2  25    1.56    2.31
   9   2  26    1.08    2.64
   9  -3 -27   48.46    6.79
   9  -3 -26    1.61    2.15
   9  -3 -25   56.78    7.14
   9  -3 -24   19.92    4.35
   9  -3 -23    5.96    2.15
   9  -3 -20    0.08    1.27
   9  -3 -19   17.71    4.03
   9   3 -19   12.97    3.07
   9  -3 -18   46.75    6.25
   9   3 -18   51.06    6.43
   9  -3 -17   29.34    4.89
   9  -3 -17   38.24    5.21
   9   3 -17   25.27    4.42
   9  -3 -16  277.80   14.63
   9  -3 -16  248.78   13.57
   9   3 -16  265.90   13.41
   9  -3 -15   34.94    5.46
   9  -3 -15   35.57    5.09
   9   3 -15   36.20    4.94
   9  -3 -14   52.69    6.24
   9  -3 -14   47.21    5.78
   9  -3 -13   42.25    5.68
   9  -3 -13   51.65    5.82
   9   3 -13   53.23    6.08
   9  -3 -12  280.52   14.07
   9  -3 -12  240.68   12.28
   9   3 -12  262.58   12.84
   9  -3 -11  299.81   14.43
   9  -3 -11  332.49   14.47
   9   3 -11  313.15   13.74
   9   3 -10  381.22   13.26
   9  -3 -10  411.55   16.83
   9  -3 -10  437.67   16.67
   9   3 -10  420.07   15.77
   9   3  -9    3.44    2.08
   9  -3  -9    2.02    1.30
   9   3  -9    2.54    1.24
   9  -3  -9    2.76    1.63
   9   3  -9    1.94    1.11
   9  -3  -8   66.75    6.70
   9   3  -8   73.16    5.68
   9   3  -8   74.90    5.43
   9   3  -8   76.08    6.64
   9  -3  -8   67.90    6.44
   9  -3  -7  760.56   22.14
   9   3  -7  746.87   18.01
   9   3  -7  726.61   20.50
   9  -3  -7  745.85   20.97
   9  -3  -6   46.91    5.41
   9  -3  -6   48.81    5.56
   9   3  -6   45.37    4.56
   9   3  -6   52.42    4.67
   9   3  -6   41.98    4.97
   9  -3  -5  961.76   23.72
   9  -3  -5  939.37   24.60
   9   3  -5  913.10   20.47
   9   3  -5 1025.06   21.47
   9   3  -5 1026.64   24.16
   9  -3  -4  434.72   15.74
   9  -3  -4  436.62   16.60
   9   3  -4  408.22   13.29
   9   3  -4  417.33   13.99
   9   3  -3    2.56    1.75
   9  -3  -3    0.63    1.68
   9   3  -3    1.22    0.96
   9  -3  -3   -0.28    1.04
   9   3  -3    0.63    0.94
   9   3  -2   30.00    3.76
   9  -3  -2   21.53    3.36
   9  -3  -2   25.30    4.27
   9   3  -2   31.20    3.72
   9   3  -2   31.51    4.22
   9   3  -1 1469.96   26.83
   9  -3  -1 1423.93   28.77
   9   3  -1 1489.42   28.55
   9   3   0    6.21    1.75
   9  -3   0    7.36    2.42
   9   3   0   12.79    2.51
   9  -3   0    5.23    1.91
   9   3   1 1405.06   27.78
   9  -3   1 1442.88   28.32
   9  -3   1 1383.95   28.92
   9   3   2   21.73    3.14
   9   3   2   24.94    3.66
   9  -3   2   23.21    3.57
   9  -3   2   19.11    3.36
   9   3   3    0.00    0.94
   9   3   3    0.76    0.95
   9  -3   3    0.85    1.06
   9   3   4  452.97   15.56
   9  -3   4  459.37   16.05
   9  -3   4  451.71   16.57
   9   3   5  970.43   22.77
   9   3   5 1006.95   23.78
   9  -3   5  999.17   23.82
   9  -3   5  986.46   24.41
   9   3   6   51.59    5.28
   9   3   6   53.95    5.60
   9  -3   6   49.32    5.48
   9   3   7  727.36   19.72
   9   3   7  730.26   20.84
   9  -3   7  687.77   20.26
   9   3   8   69.59    6.19
   9   3   8   86.42    7.22
   9  -3   8   78.79    6.96
   9   3   9    3.38    1.78
   9  -3   9    1.69    1.57
   9   3   9    0.32    1.10
   9   3  10  429.16   15.19
   9   3  10  404.77   16.14
   9  -3  10  402.36   15.83
   9   3  11  312.96   13.28
   9   3  11  335.94   14.77
   9  -3  11  345.27   14.95
   9   3  12  265.91   12.15
   9   3  12  275.01   13.31
   9  -3  12  264.34   13.27
   9   3  13   54.11    5.77
   9  -3  13   63.94    6.64
   9   3  14   64.62    6.02
   9   3  14   57.28    6.53
   9  -3  14   63.99    6.74
   9   3  15   35.53    4.54
   9   3  15   30.32    4.94
   9  -3  15   43.79    5.79
   9   3  16  267.79   14.18
   9  -3  16  288.96   14.43
   9   3  17   29.29    4.65
   9  -3  17   27.74    4.51
   9   3  18   50.41    6.45
   9  -3  18   49.11    6.28
   9  -3  19    8.41    2.95
   9   3  19   14.25    3.84
   9  -3  20    3.39    2.28
   9   3  20    0.59    1.84
   9   3  21   58.61    7.54
   9   3  22   55.45    7.49
   9   3  23    3.24    3.18
   9   3  24   17.45    4.43
   9   3  25   42.09    6.63
   9   3  26   -0.12    1.87
   9   3  27   38.51    6.67
   9  -4 -26    5.63    2.79
   9  -4 -25    1.07    2.39
   9  -4 -24    0.68    2.81
   9  -4 -23   10.15    2.43
   9  -4 -22    1.22    1.76
   9  -4 -21   -0.20    1.37
   9  -4 -20   -0.37    1.53
   9  -4 -19   -1.21    1.31
   9  -4 -18    1.54    2.22
   9  -4 -18    2.83    2.04
   9   4 -18    0.74    1.43
   9  -4 -17  102.92    9.35
   9  -4 -17   98.56    8.80
   9   4 -17   94.80    8.51
   9  -4 -16    0.65    1.29
   9  -4 -16    0.47    0.95
   9   4 -16   -0.76    1.44
   9   4 -15    7.13    2.77
   9  -4 -15    8.34    2.76
   9  -4 -15    7.31    2.35
   9   4 -14    8.15    2.34
   9  -4 -14    8.99    2.83
   9  -4 -14   10.80    3.03
   9   4 -13    4.68    2.20
   9  -4 -13    3.27    1.48
   9  -4 -13    3.75    1.13
   9  -4 -12   39.59    5.34
   9  -4 -12   39.06    5.29
   9   4 -12   33.03    4.73
   9  -4 -11  141.96   10.26
   9  -4 -11  134.19    9.64
   9   4 -11  126.22    9.02
   9   4 -10    1.25    1.64
   9  -4 -10    0.23    0.94
   9  -4 -10    4.01    2.23
   9  -4  -9   89.06    7.98
   9  -4  -9   90.65    8.01
   9   4  -9   92.74    7.69
   9  -4  -8   57.78    6.41
   9   4  -8   78.27    6.07
   9  -4  -8   59.15    6.42
   9   4  -8   63.92    6.34
   9   4  -7    0.43    1.66
   9  -4  -7   -0.93    1.15
   9   4  -7   -0.89    1.34
   9  -4  -7    0.94    0.89
   9  -4  -6  110.43    8.80
   9  -4  -6  130.68    9.19
   9   4  -6  133.38    7.97
   9   4  -6  115.36    8.48
   9   4  -5   57.62    5.22
   9  -4  -5   44.99    5.85
   9  -4  -5   65.41    6.46
   9   4  -5   54.50    5.75
   9   4  -4   46.54    4.79
   9  -4  -4   36.71    5.17
   9   4  -4   41.52    4.10
   9  -4  -4   43.41    5.27
   9   4  -3   17.99    3.46
   9  -4  -3   12.06    2.54
   9   4  -3    9.69    2.42
   9  -4  -3   15.26    3.27
   9   4  -3   13.44    2.44
   9   4  -2   79.24    6.98
   9  -4  -2   88.12    7.27
   9   4  -2   95.61    7.12
   9  -4  -2   83.90    7.48
   9   4  -2   92.92    6.32
   9   4  -1   -1.24    1.48
   9  -4  -1   -0.40    1.30
   9  -4  -1    1.51    1.37
   9   4  -1   -0.67    0.75
   9   4   0  258.62   12.25
   9  -4   0  250.92   12.49
   9   4   0  253.84   11.71
   9  -4   0  266.42   13.29
   9   4   1    3.40    1.81
   9  -4   1   -0.15    1.05
   9  -4   1    0.23    1.94
   9   4   1    2.11    1.91
   9   4   2   89.65    7.23
   9  -4   2   94.61    7.69
   9   4   2   82.63    6.92
   9  -4   2   94.04    8.00
   9   4   3   10.01    2.38
   9   4   3    8.45    2.54
   9  -4   3   13.99    2.96
   9  -4   3   15.45    3.57
   9   4   4   47.98    5.22
   9  -4   4   40.67    5.19
   9   4   4   31.27    4.29
   9  -4   4   35.12    5.12
   9   4   5   52.89    5.54
   9  -4   5   56.03    6.05
   9   4   5   52.35    5.61
   9  -4   5   57.68    6.20
   9   4   6  119.47    8.44
   9  -4   6  131.80    9.12
   9   4   6  106.31    8.28
   9  -4   6  135.83    9.53
   9   4   7   -0.46    1.26
   9   4   7   -1.13    1.07
   9  -4   7    1.45    1.87
   9  -4   7    0.42    1.48
   9   4   8   73.28    6.74
   9  -4   8   67.87    6.72
   9   4   8   65.97    6.62
   9  -4   8   67.81    6.89
   9   4   9   98.38    7.56
   9  -4   9   90.62    7.71
   9   4   9   99.57    8.34
   9   4  10    1.73    1.33
   9   4  10    1.19    0.88
   9  -4  10    4.80    1.77
   9   4  11  135.97    9.07
   9  -4  11  143.99    9.89
   9   4  11  152.97   10.23
   9   4  12   40.29    5.05
   9  -4  12   35.23    4.97
   9   4  12   36.79    5.29
   9   4  13    1.25    1.95
   9  -4  13   -0.12    1.00
   9   4  14   10.98    2.89
   9   4  14   10.70    2.51
   9  -4  14   10.48    2.97
   9   4  15    6.02    2.39
   9   4  15    6.54    2.13
   9  -4  15    3.15    1.50
   9   4  16    0.15    1.05
   9   4  16    0.12    1.46
   9  -4  16    1.11    1.64
   9  -4  17   91.17    8.40
   9   4  17  120.28    9.76
   9  -4  18    0.77    1.57
   9   4  18    1.45    2.40
   9  -4  19    3.84    2.32
   9   4  19    1.02    1.06
   9   4  20    2.16    1.70
   9   4  21   -0.20    1.23
   9   4  22    3.42    2.42
   9   4  23   10.17    4.04
   9   4  24    2.00    2.28
   9   4  25   -0.13    1.53
   9   4  26    6.86    3.50
   9  -5 -24   -0.24    1.07
   9  -5 -23    2.40    2.10
   9  -5 -22   10.02    3.11
   9  -5 -21   22.76    4.92
   9  -5 -20    4.36    2.27
   9  -5 -19   10.29    2.84
   9  -5 -19   10.92    3.17
   9  -5 -18   -0.34    2.07
   9  -5 -18    0.08    1.07
   9   5 -17    3.71    1.84
   9  -5 -17    7.15    3.28
   9  -5 -17    5.28    2.79
   9   5 -16   10.50    3.21
   9  -5 -16    9.27    2.37
   9  -5 -16   15.44    3.43
   9  -5 -15  100.14    9.04
   9  -5 -15  105.06    9.31
   9   5 -15  107.53    8.93
   9   5 -14   12.76    3.16
   9  -5 -14   11.00    3.40
   9  -5 -14   15.61    3.70
   9   5 -13    1.80    0.95
   9  -5 -13    0.61    1.47
   9   5 -12   23.05    4.12
   9  -5 -12   19.95    3.76
   9  -5 -12   23.25    4.48
   9  -5 -11  130.56    9.93
   9  -5 -11  121.95    9.79
   9   5 -11  131.45    9.61
   9  -5 -10    3.96    1.63
   9   5 -10    8.38    3.11
   9  -5 -10    4.06    1.49
   9  -5  -9    3.32    1.20
   9   5  -9    5.19    2.38
   9  -5  -8    0.26    1.16
   9   5  -8    1.07    0.84
   9  -5  -8    0.99    1.75
   9   5  -7   26.18    4.28
   9  -5  -7   33.34    4.73
   9  -5  -7   33.24    4.71
   9  -5  -6   16.52    3.54
   9   5  -6   17.88    3.48
   9  -5  -6   10.97    3.69
   9   5  -6   13.18    2.57
   9   5  -5  249.10   12.77
   9   5  -5  227.84   11.16
   9  -5  -5  244.79   13.21
   9  -5  -5  207.33   12.02
   9   5  -4   16.58    3.52
   9   5  -4   19.31    3.40
   9  -5  -4   30.83    4.99
   9  -5  -4   30.86    4.73
   9   5  -3   11.27    2.38
   9  -5  -3    6.09    2.36
   9  -5  -3    9.94    2.76
   9   5  -3    7.81    1.90
   9   5  -2    6.99    1.77
   9   5  -2    9.74    2.79
   9  -5  -2    9.20    2.88
   9  -5  -2   10.00    3.24
   9   5  -1  219.71   11.74
   9   5  -1  225.48   11.66
   9  -5  -1  206.41   12.17
   9  -5  -1  239.68   12.62
   9   5   0   23.91    3.73
   9  -5   0   20.47    3.84
   9   5   0   24.15    3.97
   9  -5   0   20.84    4.01
   9  -5   1  236.26   12.62
   9   5   1  233.51   12.28
   9   5   1  218.94   11.60
   9  -5   1  213.04   12.28
   9   5   2    4.45    2.31
   9   5   2    7.58    2.38
   9  -5   2    5.04    2.26
   9  -5   2    4.32    1.23
   9   5   3    6.98    2.64
   9   5   3   12.44    2.96
   9  -5   3   10.52    2.76
   9  -5   3    9.01    2.33
   9   5   4   25.18    4.34
   9  -5   4   18.59    3.65
   9   5   4   24.75    3.76
   9  -5   4   20.31    3.60
   9  -5   5  219.40   12.24
   9   5   5  221.22   12.06
   9   5   5  220.46   11.96
   9  -5   5  234.71   12.93
   9   5   6   14.63    3.44
   9   5   6   15.02    3.29
   9  -5   6   13.08    2.92
   9  -5   6   18.20    3.77
   9   5   7   27.74    4.25
   9  -5   7   30.60    4.60
   9   5   7   31.68    4.74
   9  -5   7   22.21    4.14
   9   5   8    0.02    1.45
   9   5   8    1.06    1.47
   9  -5   8   -0.06    1.57
   9  -5   8    0.65    1.62
   9   5   9    6.67    2.32
   9   5   9    3.17    1.51
   9  -5   9    6.93    2.43
   9  -5   9    5.81    2.44
   9   5  10    5.65    2.09
   9   5  10   10.03    2.90
   9  -5  10    5.34    1.99
   9  -5  10    7.87    2.93
   9   5  11  115.42    9.03
   9  -5  11  123.83    9.54
   9   5  11  136.64    9.92
   9  -5  11  132.41    9.90
   9   5  12   22.12    3.71
   9  -5  12   22.45    4.06
   9   5  12   26.63    4.44
   9   5  13    0.60    1.22
   9   5  13   -0.69    1.50
   9  -5  13    2.89    1.70
   9   5  14   19.81    3.79
   9   5  14   12.05    3.49
   9  -5  14   10.89    3.02
   9   5  15  118.60    9.19
   9  -5  15  120.81    9.87
   9   5  15   94.70    8.83
   9   5  16   14.72    3.79
   9   5  16    8.16    2.82
   9  -5  16   10.60    2.85
   9   5  17    4.96    2.12
   9  -5  17    5.70    2.74
   9   5  18    1.14    1.55
   9   5  19   10.18    2.45
   9   5  20    6.38    2.97
   9   5  21   19.03    3.89
   9   5  22   12.54    3.34
   9   5  23    7.15    3.41
   9   5  24    0.38    2.35
   9  -6 -23    0.68    1.22
   9  -6 -22    4.32    1.31
   9  -6 -21    8.03    3.83
   9  -6 -20   -0.79    1.62
   9  -6 -20    2.74    2.60
   9  -6 -19    3.32    2.26
   9  -6 -19   16.49    4.51
   9  -6 -18    3.35    2.79
   9  -6 -18    8.41    2.93
   9   6 -17    6.90    3.04
   9  -6 -17    6.47    2.20
   9  -6 -17    5.07    2.80
   9   6 -16   17.32    3.83
   9  -6 -16    9.82    3.15
   9  -6 -16    7.91    2.82
   9   6 -15   12.31    3.11
   9  -6 -15   18.55    3.97
   9  -6 -15   21.85    4.78
   9   6 -14    5.04    2.41
   9  -6 -14    3.34    2.63
   9  -6 -14   -0.44    1.77
   9   6 -13    8.88    2.74
   9  -6 -13   10.65    3.35
   9  -6 -13   10.11    3.11
   9   6 -12    1.18    1.02
   9  -6 -12    4.52    2.44
   9  -6 -12    1.96    1.07
   9   6 -11    1.30    2.07
   9  -6 -11    0.69    1.41
   9  -6 -11   -0.63    0.83
   9   6 -10   15.52    3.61
   9  -6 -10   11.36    3.32
   9  -6 -10   20.55    4.55
   9   6  -9    4.33    2.35
   9  -6  -9    4.15    1.91
   9  -6  -9    2.82    1.24
   9   6  -8   32.64    4.89
  -9   6  -8   39.34    5.36
   9  -6  -8   27.85    4.75
   9  -6  -8   29.89    4.81
   9   6  -7   39.45    5.30
   9  -6  -7   33.78    5.18
   9  -6  -7   32.37    5.10
   9  -6  -6    2.03    1.73
   9   6  -6    3.45    2.23
   9  -6  -6    1.30    1.01
   9  -6  -5    2.19    1.84
   9   6  -5    3.62    1.76
   9  -6  -5    1.05    2.30
   9   6  -5    4.07    1.72
   9   6  -4   11.03    2.81
   9  -6  -4    5.34    1.98
   9   6  -4   10.01    2.98
   9  -6  -4    5.93    2.39
   9  -6  -3    1.79    1.76
   9   6  -3    3.33    1.59
   9   6  -3    5.45    2.39
   9  -6  -3    4.79    2.17
   9  -6  -2    0.55    1.28
   9   6  -2    2.66    2.12
   9   6  -2    3.63    1.57
   9  -6  -2    1.93    1.42
   9   6  -1   30.30    4.50
   9   6  -1   27.82    4.20
   9  -6  -1   35.09    5.08
   9  -6  -1   29.20    4.90
   9   6   0   44.56    5.58
   9   6   0   37.40    5.18
   9  -6   0   47.07    5.73
   9  -6   0   39.83    5.42
   9   6   1   34.04    4.92
   9   6   1   29.93    4.48
   9  -6   1   30.25    4.65
   9  -6   1   31.52    4.89
   9  -6   2    4.41    2.05
   9   6   2    7.25    2.56
   9   6   2    2.55    1.39
   9  -6   2    3.49    2.05
   9  -6   3    0.95    1.69
   9   6   3    7.70    2.45
   9   6   3    8.12    2.13
   9  -6   3    5.18    2.09
   9   6   4   10.35    3.08
   9  -6   4    9.29    2.63
   9   6   4    4.61    2.07
   9  -6   4    7.73    2.26
   9   6   5    4.85    2.10
   9  -6   5    1.08    0.93
   9   6   5    2.34    1.63
   9  -6   5    3.41    1.28
   9   6   6    1.90    2.00
   9  -6   6    0.43    1.23
   9   6   6    3.62    2.06
   9  -6   6   -0.17    1.69
   9  -6   7   34.06    5.36
   9   6   7   35.95    5.24
   9   6   7   23.94    3.97
   9  -6   7   29.63    4.96
   9  -6   8   37.49    5.30
   9   6   8   36.94    5.29
   9   6   8   35.38    5.14
   9  -6   8   33.30    5.22
   9   6   9    4.95    1.77
   9  -6   9    3.34    1.69
   9   6   9    4.44    2.21
   9  -6   9    3.62    1.37
   9   6  10   14.79    3.57
   9  -6  10   14.08    3.67
   9   6  10    9.87    2.65
   9  -6  10   16.10    3.49
   9   6  11   -0.19    1.28
   9  -6  11    1.31    1.81
   9   6  11   -1.23    0.87
   9  -6  11    0.92    1.88
   9   6  12    2.22    2.61
   9  -6  12    4.53    2.55
   9   6  12    4.35    2.05
   9  -6  12    1.21    2.06
   9   6  13   11.54    3.23
   9  -6  13   13.07    3.73
   9   6  13   10.03    2.98
   9  -6  13    6.13    2.01
   9   6  14    7.84    2.70
   9  -6  14    4.61    2.57
   9   6  14    2.17    1.96
   9  -6  14    2.17    1.85
   9   6  15   26.30    4.49
   9  -6  15   25.43    4.84
   9   6  15   18.56    4.10
   9  -6  15   22.03    4.28
   9   6  16   12.26    3.72
   9  -6  16   17.94    3.92
   9   6  16   19.93    4.11
   9   6  17   11.42    3.51
   9   6  18   10.49    3.42
   9   6  19   10.36    3.23
   9   6  20    0.42    2.45
   9   6  21    0.55    1.96
   9   6  22    2.89    1.26
   9   6  23   -2.22    2.50
   9  -7 -21   17.06    4.43
   9  -7 -21    7.30    3.46
   9  -7 -20    0.86    2.10
   9  -7 -20    8.72    3.28
   9  -7 -19    2.85    2.68
   9  -7 -19    4.06    2.61
   9  -7 -18    3.91    1.38
   9  -7 -18    5.50    2.88
   9  -7 -17   14.51    3.46
   9  -7 -17   16.11    3.95
   9   7 -16    2.28    1.79
   9  -7 -16    2.03    2.00
   9  -7 -16    3.48    2.67
   9  -7 -15   81.78    8.79
   9  -7 -15   78.32    8.62
   9   7 -15   64.80    7.57
   9   7 -14    4.56    2.15
   9  -7 -14    2.15    2.46
   9  -7 -14    1.73    1.86
   9   7 -13    5.15    2.17
   9  -7 -13    0.09    1.54
   9  -7 -13    5.40    2.61
   9   7 -12    4.10    2.55
   9  -7 -12    1.04    2.17
   9  -7 -12    6.27    3.27
   9   7 -11   89.42    8.96
   9  -7 -11   75.91    8.25
   9  -7 -11   84.70    8.70
   9   7 -10   11.08    3.11
   9  -7 -10    9.55    3.20
   9  -7 -10    6.72    2.32
   9   7  -9   26.16    4.64
   9  -7  -9   16.79    3.28
   9  -7  -9   23.76    4.18
   9   7  -8    8.63    2.96
   9  -7  -8    8.86    3.54
  -9   7  -8    8.76    2.92
   9  -7  -8   10.28    2.91
   9   7  -7    3.80    1.67
  -9   7  -7    4.22    2.06
   9  -7  -7    3.21    2.00
   9  -7  -7    4.48    1.90
   9   7  -6   29.49    4.92
   9  -7  -6   32.08    5.30
  -9   7  -6   23.86    4.52
   9  -7  -6   33.82    5.10
   9   7  -5  127.00    9.77
  -9   7  -5  124.27    9.71
   9  -7  -5  119.16    9.75
   9  -7  -5  102.91    9.25
   9  -7  -4   -0.77    1.17
   9   7  -4    4.01    1.57
   9   7  -4    1.77    1.82
  -9   7  -4   -0.12    1.19
   9  -7  -4    0.91    1.69
   9  -7  -3   10.30    2.99
   9   7  -3   17.79    4.00
   9   7  -3   13.46    3.23
  -9   7  -3   13.82    3.31
   9  -7  -3   16.32    3.90
   9  -7  -2    0.28    1.12
   9   7  -2    0.10    1.03
   9   7  -2    0.18    1.03
   9  -7  -2    3.11    1.92
   9   7  -1   77.55    7.67
   9   7  -1   72.21    7.58
   9  -7  -1   66.06    7.22
   9  -7  -1   55.06    6.75
   9   7   0  141.67   10.27
   9   7   0  112.13    9.35
   9  -7   0  129.74   10.29
   9  -7   0  119.44    9.54
   9   7   1   76.10    7.73
   9   7   1   72.35    7.20
   9  -7   1   58.58    6.98
   9  -7   1   72.39    7.30
   9  -7   2    4.24    3.07
   9   7   2    2.17    1.64
   9   7   2    2.95    2.19
   9  -7   2    1.63    1.56
   9  -7   3    8.48    3.07
   9   7   3   16.36    4.10
   9   7   3   15.21    3.17
   9  -7   3    9.57    2.78
   9  -7   4    0.20    1.47
   9   7   4    1.32    1.96
   9   7   4    0.42    1.61
   9  -7   4    0.63    1.60
   9   7   5  101.92    8.80
   9  -7   5  108.61    9.41
   9   7   5  115.88    9.27
   9  -7   5  102.41    9.04
   9   7   6   35.18    5.22
   9   7   6   41.04    5.62
   9  -7   6   26.75    5.16
   9  -7   6   32.04    4.93
   9  -7   7    0.97    1.15
   9   7   7    3.77    2.17
   9   7   7    3.54    2.16
   9  -7   7    5.32    2.94
   9  -7   8    2.23    2.69
   9   7   8    4.90    2.26
   9   7   8    5.61    2.78
   9  -7   8    9.28    3.28
   9  -7   9   14.08    3.32
   9   7   9   21.75    3.99
   9   7   9   20.25    4.19
   9  -7   9   18.98    4.48
   9  -7  10   11.49    4.16
   9   7  10   10.66    3.25
   9   7  10   13.33    3.62
   9  -7  10    7.82    2.71
   9   7  11  101.97    9.01
   9   7  11  100.78    9.09
   9  -7  11   85.81    8.84
   9  -7  11  104.44    9.27
   9  -7  12    3.74    2.28
   9   7  12    3.55    2.11
   9   7  12    2.89    1.63
   9  -7  12    0.41    2.02
   9  -7  13    7.58    3.09
   9   7  13    4.04    2.34
   9   7  13    7.62    2.66
   9  -7  14   -1.79    1.49
   9   7  14    2.50    2.86
   9   7  14    3.14    1.83
   9   7  15   67.99    7.81
   9   7  15   76.68    8.14
   9  -7  15   86.88    8.86
   9   7  16    2.69    2.39
   9   7  16    3.32    2.07
   9   7  17    9.65    2.94
   9   7  17   16.50    4.36
   9   7  18    0.43    1.29
   9   7  19    3.27    2.75
  -9   7  20    3.42    1.62
   9   7  20    9.82    3.59
   9   7  21    9.54    3.01
  -9   7  21   11.49    3.88
   9  -8 -18    8.47    3.94
   9  -8 -18    0.79    1.68
   9  -8 -17   -1.93    2.87
   9  -8 -17   -0.28    1.92
   9  -8 -16    1.84    1.61
   9  -8 -16   -1.53    1.26
   9   8 -15    0.16    1.76
   9  -8 -15    3.62    2.03
   9  -8 -15    1.59    1.27
   9   8 -14    1.72    1.67
   9  -8 -14    2.54    1.49
   9   8 -13   -0.09    1.72
   9  -8 -13   -2.75    3.01
   9  -8 -13    0.85    1.65
   9  -8 -12   -1.34    2.19
   9   8 -12    0.02    0.99
   9  -8 -12    1.79    1.95
   9   8 -11    0.67    1.25
   9  -8 -11    3.88    2.43
   9  -8 -11    1.16    1.70
   9   8 -10    4.02    2.03
   9  -8 -10    3.34    1.58
   9  -8 -10    3.82    2.24
   9   8  -9    3.05    2.19
   9  -8  -9    0.75    1.58
   9  -8  -9    0.72    2.28
   9   8  -8    5.40    2.81
   9  -8  -8    3.97    2.47
   9  -8  -8    1.46    1.59
   9   8  -7    5.12    2.09
  -9   8  -7    6.15    2.77
   9  -8  -7    3.38    1.95
   9  -8  -7    4.19    2.20
   9   8  -6   12.19    3.05
  -9   8  -6   17.21    3.90
   9  -8  -6   10.93    3.43
   9  -8  -6   19.06    3.88
   9   8  -5   -1.11    1.87
  -9   8  -5    4.26    2.79
   9  -8  -5    0.06    1.49
   9  -8  -5    1.57    1.75
   9   8  -4    4.58    2.58
  -9   8  -4    2.56    2.27
   9  -8  -4    2.65    1.81
   9  -8  -4    2.44    1.67
   9   8  -3    3.49    1.50
   9   8  -3    1.25    2.01
  -9   8  -3    3.26    2.52
   9  -8  -3    4.35    2.03
   9  -8  -3    0.63    1.32
   9  -8  -2    7.81    2.19
   9   8  -2   10.37    2.98
   9   8  -2    9.63    2.71
  -9   8  -2   13.27    3.56
   9  -8  -2   13.75    4.42
   9  -8  -1    3.01    2.47
   9   8  -1   -0.21    1.17
   9   8  -1    0.29    1.02
  -9   8  -1    4.16    2.91
   9  -8  -1    0.67    1.19
   9  -8   0    6.85    2.56
   9   8   0    3.50    1.55
   9   8   0    3.78    1.86
  -9   8   0    2.85    1.65
   9  -8   0    4.21    2.52
   9  -8   1    3.36    1.90
   9   8   1   -1.24    1.82
  -9   8   1   -1.05    1.90
   9  -8   1    2.14    1.67
   9   8   1    1.20    1.58
   9  -8   2    9.57    3.02
   9   8   2    5.80    2.50
  -9   8   2   11.35    3.35
   9   8   2   11.95    3.27
   9  -8   2    8.49    3.44
   9  -8   3    5.68    2.69
   9   8   3    1.08    1.24
   9   8   3    7.54    2.37
   9  -8   3    7.26    3.01
  -9   8   3    7.62    2.67
   9  -8   4    2.77    1.62
   9   8   4    2.10    1.14
  -9   8   4    6.57    2.86
   9   8   4    0.95    1.15
   9  -8   4    2.14    2.14
   9  -8   5   -0.76    1.91
   9  -8   5    0.77    1.37
   9   8   5    2.56    2.27
  -9   8   5    1.55    1.92
   9   8   5   -0.22    1.60
   9  -8   6   14.27    3.44
   9   8   6   22.11    4.47
  -9   8   6   17.53    3.93
   9   8   6   15.40    3.84
   9  -8   6   16.73    4.01
   9  -8   7    7.61    2.62
   9   8   7    7.83    2.96
   9   8   7    9.81    2.73
  -9   8   7    3.84    2.04
   9  -8   8    3.85    1.95
   9   8   8    2.59    2.08
  -9   8   8    5.45    2.46
   9   8   8    4.35    2.05
   9  -8   9   -0.75    1.70
   9   8   9   -1.12    1.70
  -9   8   9    3.94    2.28
   9   8   9    1.46    1.03
   9  -8  10    5.71    2.54
   9   8  10    4.54    2.47
   9   8  10    4.64    2.01
  -9   8  10    5.66    2.55
   9  -8  11    3.85    1.69
   9   8  11    1.18    1.33
  -9   8  11    5.61    2.75
   9   8  11    6.28    2.71
   9  -8  12    2.74    2.85
   9   8  12    6.24    3.07
   9   8  12    2.47    1.35
  -9   8  12    4.27    3.26
   9  -8  13   -0.42    1.47
   9   8  13    4.10    2.48
   9   8  13    0.30    1.13
  -9   8  13   -1.19    2.20
   9   8  14    3.30    1.68
   9   8  14    5.91    2.49
  -9   8  14    2.50    1.87
   9   8  15    1.72    2.06
   9   8  15    1.28    1.20
   9   8  16    3.72    2.02
   9   8  16   -1.45    1.90
  -9   8  16   -2.48    2.56
  -9   8  17   -3.01    2.30
   9   8  17   -0.26    2.76
   9   8  17    1.21    1.90
   9   8  18    2.38    2.65
  -9   8  18    5.94    2.40
   9   9 -14    1.67    2.60
   9  -9 -14    0.03    2.98
   9  -9 -14   -0.40    1.18
   9   9 -13    3.21    2.48
   9  -9 -13   -0.37    2.22
   9  -9 -13    8.16    3.26
   9   9 -12    0.67    1.56
   9  -9 -12   -1.38    2.50
   9   9 -11   22.31    4.76
   9  -9 -11   25.77    4.92
   9  -9 -11   24.71    5.16
   9   9 -10   32.59    5.62
   9  -9 -10   40.56    6.47
   9  -9 -10   34.61    6.02
   9   9  -9   27.56    4.58
   9  -9  -9   14.32    3.39
   9  -9  -9   23.86    4.54
   9   9  -8   -0.48    1.66
   9  -9  -8   -0.96    1.71
   9  -9  -8   -1.61    1.71
   9   9  -7   15.02    3.65
   9  -9  -7   18.50    4.35
   9  -9  -7   10.80    2.87
   9   9  -6   16.77    4.13
  -9   9  -6   12.94    3.90
   9  -9  -6   25.14    5.39
   9  -9  -6   19.07    4.46
   9   9  -5   81.87    8.53
  -9   9  -5   67.34    8.26
   9  -9  -5   53.63    7.24
   9  -9  -5   79.21    8.83
   9   9  -4    3.07    2.42
  -9   9  -4    4.57    2.69
   9  -9  -4    7.95    3.29
   9  -9  -4    8.31    2.50
   9   9  -3    1.45    1.74
  -9   9  -3    1.71    1.80
   9  -9  -3    1.50    3.13
   9  -9  -3   -0.98    1.42
   9   9  -2    1.77    2.01
  -9   9  -2   -1.76    1.54
   9  -9  -2   -2.52    2.86
   9  -9  -2   -1.28    1.92
   9   9  -1   30.40    5.11
  -9   9  -1   24.51    4.71
   9   9  -1   33.75    5.81
   9  -9  -1   34.14    6.03
   9  -9  -1   26.55    4.87
   9   9   0   27.41    5.32
  -9   9   0   40.59    5.93
   9  -9   0   42.28    6.46
   9   9   0   30.18    5.29
   9  -9   0   29.77    5.15
   9   9   1   34.75    5.64
  -9   9   1   27.77    4.99
   9   9   1   37.35    5.92
   9  -9   1   32.79    5.78
   9   9   2    1.97    2.24
  -9   9   2    0.74    1.90
   9   9   2    0.99    1.35
   9  -9   2    1.19    2.08
   9   9   3    0.49    1.68
  -9   9   3    1.54    2.22
   9   9   3   -0.46    1.35
   9  -9   3    2.01    1.95
   9  -9   4    6.18    2.06
   9   9   4    4.64    2.22
  -9   9   4    3.61    1.63
   9   9   4    5.46    2.65
   9   9   5   70.93    7.90
  -9   9   5   85.58    8.89
   9   9   5   51.08    6.76
   9  -9   5   74.44    8.38
   9  -9   6   10.19    3.50
  -9   9   6   15.72    4.16
   9   9   6   19.92    4.69
   9  -9   7   19.86    4.29
   9   9   7   17.03    3.69
  -9   9   7   12.98    3.52
   9   9   7   15.21    3.80
   9  -9   8    2.69    3.03
   9   9   8    1.87    1.39
   9   9   8    1.29    1.34
  -9   9   8    0.66    1.95
   9  -9   9   22.84    5.07
   9   9   9   27.56    5.35
  -9   9   9   25.78    5.22
   9   9   9   15.49    3.73
   9  -9  10   31.27    5.55
   9   9  10   42.06    6.07
  -9   9  10   31.55    5.29
   9   9  10   26.51    4.92
   9  -9  11   21.38    4.66
   9   9  11   23.53    5.29
  -9   9  11   32.36    5.99
   9   9  11   25.89    4.94
   9  -9  12    5.69    3.87
   9   9  12    0.53    2.12
  -9   9  12    0.16    1.92
   9   9  12   -0.62    1.65
   9   9  13   -0.41    2.22
  -9   9  13    0.47    1.43
   9   9  13    3.19    2.11
   9   9  14    0.35    2.21
   9   9  14    0.17    0.89
  -9   9  14    3.48    2.64
   9 -10  -9   15.24    4.43
   9  10  -9   25.69    5.49
   9 -10  -9   24.74    4.90
   9  10  -8   20.36    4.51
   9 -10  -8   19.64    4.23
   9 -10  -8   18.74    4.41
   9  10  -7    6.63    2.58
   9 -10  -7    2.86    1.24
   9  10  -6   43.84    6.38
   9 -10  -6   38.74    6.36
   9  10  -5    7.57    2.46
  -9  10  -5    6.69    2.54
   9 -10  -5    9.50    3.45
   9  10  -4    2.70    1.76
  -9  10  -4    2.75    2.06
   9 -10  -4    1.42    1.61
   9  10  -3    0.88    1.19
  -9  10  -3    2.15    1.70
   9 -10  -3    0.18    2.34
   9  10  -2   19.23    4.59
  -9  10  -2   18.15    3.95
   9 -10  -2   20.14    4.63
   9  10  -1    4.09    2.40
  -9  10  -1    5.75    3.20
   9 -10  -1    4.79    2.29
   9  10   0   42.97    6.48
  -9  10   0   52.60    7.38
   9 -10   0   53.17    7.17
   9  10   1    0.79    1.14
  -9  10   1    3.25    3.01
   9  10   1    5.78    2.92
   9 -10   1    3.10    2.36
   9  10   2   21.75    3.95
  -9  10   2   17.40    4.05
   9  10   2   26.72    5.30
   9 -10   2   28.00    5.40
   9  10   3   -1.35    1.71
  -9  10   3    2.29    2.77
   9  10   3    1.92    1.98
   9 -10   3   -0.16    1.36
   9  10   4    5.74    2.94
  -9  10   4    1.77    1.50
   9  10   4    5.06    2.28
   9 -10   4    7.15    3.91
   9  10   5   10.25    3.86
  -9  10   5    7.43    2.36
   9  10   5   13.28    3.83
   9 -10   5   14.07    3.77
   9  10   6   39.11    6.32
  -9  10   6   38.78    6.63
   9  10   6   49.94    7.09
   9 -10   6   28.61    5.68
   9  10   7    8.34    3.76
  -9  10   7    3.56    1.62
   9  10   7    4.43    2.38
   9 -10   7    9.75    3.22
   9  10   8   22.68    4.92
  -9  10   8   15.48    4.08
   9  10   8   18.34    4.43
   9 -10   8   24.04    5.50
   9  10   9   37.22    6.49
  -9  10   9   28.29    5.21
   9  10   9   23.52    4.71
   9 -10   9   23.59    5.40
  10   0 -25    3.58    2.25
  10   0 -24   38.88    6.06
  10   0 -23   48.92    6.60
  10   0 -22   15.07    4.19
  10   0 -21   66.32    7.61
  10   0 -20   27.04    5.13
  10   0 -19   37.96    5.37
  10   0 -18  103.35    8.94
  10   0 -17  132.31    9.95
  10   0 -16   45.99    6.15
  10   0 -15  154.47   10.39
  10   0 -14   59.17    6.36
  10   0 -13  123.67    9.21
  10   0 -12  154.31    8.93
  10   0 -12  155.69   10.04
  10   0 -11  136.13    8.60
  10   0 -11  161.84    9.95
  10   0 -10   54.83    5.42
  10   0 -10   53.35    5.76
  10   0  -9  121.38    8.00
  10   0  -9  125.73    8.75
  10   0  -8  127.42    8.03
  10   0  -8  122.97    8.70
  10   0  -7   74.13    6.13
  10   0  -7   66.85    6.40
  10   0  -7   76.46    6.70
  10   0  -6   35.18    4.09
  10   0  -6   32.28    4.49
  10   0  -6   41.38    4.98
  10   0  -5  127.48    8.00
  10   0  -5  118.07    8.26
  10   0  -5  139.03    8.79
  10   0  -4  176.21    9.35
  10   0  -4  187.14   10.24
  10   0  -3  154.79    8.87
  10   0  -3  168.18    9.72
  10   0  -3  161.18    9.11
  10   0  -2  108.66    7.47
  10   0  -2  121.33    8.29
  10   0  -2  100.59    7.40
  10   0  -1   65.76    5.97
  10   0  -1   72.14    6.25
  10   0  -1   58.94    5.36
  10   0   0    1.03    0.97
  10   0   0   -0.31    0.71
  10   0   0    0.86    0.60
  10   0   1   66.49    5.97
  10   0   1   64.30    6.13
  10   0   1   67.84    5.75
  10   0   2  117.50    7.86
  10   0   2  108.78    7.38
  10   0   3  142.02    8.70
  10   0   3  159.64    8.72
  10   0   4  148.88    8.99
  10   0   4  189.48    9.69
  10   0   5  115.11    7.89
  10   0   5  126.95    7.79
  10   0   6   36.15    4.59
  10   0   6   23.82    3.43
  10   0   7   82.04    7.01
  10   0   7   76.86    5.86
  10   0   8  128.04    8.68
  10   0   8  126.60    7.68
  10   0   9  149.76    9.40
  10   0   9  104.66    6.97
  10   0  10   55.02    5.73
  10   0  10   57.32    5.08
  10   0  11  150.58    9.77
  10   0  11  161.03    8.64
  10   0  12  188.54   10.97
  10   0  12  163.70    8.63
  10   0  13  122.54    9.23
  10   0  14   76.73    7.42
  10   0  15  129.87    9.78
  10   0  16   52.34    6.40
  10   0  17  140.72   10.33
  10   0  18   96.89    8.54
  10   0  19   39.77    5.86
  10   0  20   24.05    4.53
  10   0  21   79.56    8.18
  10   0  22   21.57    4.11
  10   0  23   42.51    6.36
  10   0  24   33.88    5.66
  10  -1 -27   -2.49    1.62
  10  -1 -26    1.42    1.92
  10  -1 -25    4.64    2.13
  10  -1 -24    0.51    1.44
  10  -1 -23    1.24    2.03
  10  -1 -22    1.02    1.66
  10   1 -21    9.36    4.27
  10  -1 -21    0.65    1.15
  10   1 -20    3.29    1.78
  10  -1 -20    1.44    1.42
  10   1 -19    1.25    0.96
  10  -1 -19    2.56    2.39
  10   1 -18    0.99    1.22
  10  -1 -18    2.12    1.52
  10   1 -17    9.08    2.72
  10  -1 -17    7.20    3.00
  10   1 -16    1.43    1.00
  10  -1 -16    5.43    2.67
  10   1 -15    2.58    1.26
  10  -1 -15    7.28    2.36
  10  -1 -14    2.55    2.42
  10   1 -14    1.84    1.09
  10  -1 -14    1.05    1.88
  10  -1 -13   17.22    3.40
  10   1 -13   15.36    3.38
  10  -1 -13   16.11    3.28
  10   1 -13   21.11    4.04
  10  -1 -12   13.09    2.77
  10  -1 -12   21.50    3.89
  10   1 -12   15.07    3.16
  10   1 -12   17.40    3.06
  10  -1 -11    0.73    0.74
  10   1 -11    1.02    1.00
  10   1 -11   -1.05    1.34
  10  -1 -11   -0.75    1.11
  10   1 -11    1.52    1.32
  10  -1 -10    1.05    0.82
  10   1 -10   -0.31    0.88
  10  -1 -10    1.14    1.47
  10   1 -10    2.05    0.97
  10   1 -10    2.37    2.04
  10  -1  -9    5.89    1.98
  10   1  -9    4.28    1.68
  10  -1  -9    6.26    2.31
  10   1  -9    3.89    1.23
  10   1  -9    2.38    0.91
  10  -1  -8    1.50    1.21
  10   1  -8    1.79    0.76
  10  -1  -8    0.17    0.90
  10   1  -8    0.34    1.22
  10   1  -8    0.68    0.97
  10  -1  -7   17.52    3.05
  10   1  -7   19.72    3.27
  10  -1  -7   21.56    3.73
  10   1  -7   22.60    3.90
  10   1  -7   21.78    3.68
  10   1  -6   14.88    2.77
  10  -1  -6   15.74    2.84
  10  -1  -6   11.86    2.99
  10   1  -6    6.37    1.90
  10   1  -6    9.41    2.59
  10  -1  -5    0.77    1.04
  10  -1  -5    1.76    1.25
  10   1  -5   -0.15    1.25
  10   1  -5    0.24    1.17
  10   1  -5    1.45    0.63
  10  -1  -4    1.51    1.09
  10  -1  -4    1.60    1.14
  10   1  -4    2.32    1.69
  10   1  -4    1.85    1.29
  10   1  -4    1.88    1.36
  10  -1  -3    2.60    1.81
  10  -1  -3    3.08    1.53
  10   1  -3    4.52    1.79
  10   1  -3    2.41    1.22
  10   1  -3    1.77    0.88
  10   1  -2    2.36    1.40
  10  -1  -2    3.97    1.65
  10  -1  -2    4.37    1.71
  10   1  -2    5.09    1.83
  10   1  -2    3.36    0.69
  10  -1  -1   19.44    3.27
  10   1  -1   17.36    2.89
  10   1  -1   19.60    3.22
  10  -1  -1   18.98    3.22
  10   1  -1   18.02    3.26
  10   1   0   14.75    2.94
  10  -1   0   13.11    2.82
  10   1   0   19.83    3.31
  10  -1   0   12.28    2.63
  10   1   0   15.68    3.10
  10   1   1   17.85    2.89
  10  -1   1   21.63    3.59
  10   1   1   19.18    2.95
  10   1   2    5.37    1.87
  10   1   2    2.56    1.59
  10  -1   2    5.90    1.79
  10  -1   2    2.58    1.02
  10   1   3    3.00    1.73
  10   1   3    4.16    1.42
  10  -1   3    5.81    2.12
  10   1   4    2.25    1.38
  10   1   4    0.54    0.80
  10  -1   4    1.99    1.34
  10   1   5    1.26    0.84
  10   1   5    0.34    1.07
  10  -1   5   -0.18    1.06
  10   1   6   14.30    2.96
  10   1   6   15.39    2.81
  10  -1   6    9.17    2.67
  10   1   7   12.49    3.07
  10  -1   7   20.53    3.52
  10   1   7   24.83    3.58
  10   1   8    2.48    1.49
  10   1   8   -1.17    1.36
  10  -1   8    2.09    1.34
  10   1   9    5.71    1.91
  10   1   9    4.21    1.83
  10  -1   9    7.70    2.16
  10   1  10    1.41    0.77
  10   1  10    2.79    1.32
  10  -1  10    3.05    1.63
  10   1  11    0.18    1.10
  10  -1  11   -0.60    0.78
  10   1  11    0.24    0.76
  10   1  12    9.62    2.71
  10   1  12    9.37    2.16
  10  -1  12   13.61    2.88
  10   1  13   18.26    3.38
  10   1  13   11.40    2.39
  10  -1  13   16.55    3.52
  10  -1  14   -0.22    1.38
  10   1  14    2.34    1.62
  10  -1  15    6.66    2.43
  10   1  15   10.18    2.59
  10  -1  16    2.55    1.47
  10   1  16    2.99    2.12
  10   1  17    5.03    2.25
  10  -1  17    3.33    1.38
  10   1  18   -0.41    2.04
  10  -1  18    1.56    1.52
  10   1  19    2.17    1.74
  10  -1  19    3.82    1.82
  10   1  20    2.41    1.39
  10  -1  20    6.46    3.15
  10   1  21    2.03    1.66
  10  -1  21    2.03    2.49
  10   1  22    5.85    2.17
  10  -1  22    1.88    1.53
  10   1  23    2.34    2.14
  10  -1  23    0.88    1.82
  10   1  24    4.13    2.76
  10   1  25    1.21    2.61
  10  -2 -26    6.86    3.26
  10  -2 -25   23.44    4.86
  10  -2 -24   15.89    3.88
  10  -2 -23    1.53    2.52
  10  -2 -22    9.33    3.28
  10  -2 -21   21.38    4.27
  10  -2 -20    5.99    2.62
  10  -2 -19   21.72    4.14
  10  -2 -18   58.13    6.80
  10  -2 -17   77.19    7.68
  10   2 -16   15.86    3.97
  10  -2 -16   24.59    4.84
  10   2 -16   19.13    3.62
  10   2 -15   71.07    7.09
  10  -2 -15   83.73    8.09
  10  -2 -15   88.04    7.60
  10   2 -15   82.36    7.49
  10   2 -14   44.83    5.35
  10  -2 -14   54.80    6.45
  10  -2 -14   54.24    6.08
  10   2 -14   63.73    6.29
  10   2 -13   42.31    5.11
  10  -2 -13   51.14    5.87
  10   2 -13   47.47    5.47
  10  -2 -13   45.19    5.64
  10   2 -12  123.81    8.55
  10  -2 -12  114.07    9.11
  10   2 -12  130.36    8.96
  10  -2 -12  134.86    9.14
  10   2 -11  200.41   10.63
  10  -2 -11  205.90   11.90
  10   2 -11  189.95   10.81
  10  -2 -11  190.65   10.94
  10   2 -10   58.37    5.36
  10   2 -10   68.85    6.17
  10  -2 -10   42.79    5.40
  10   2 -10   59.96    6.01
  10  -2 -10   56.21    5.92
  10  -2  -9  106.77    8.19
  10   2  -9   99.20    6.74
  10  -2  -9  102.84    8.36
  10   2  -9  111.08    7.81
  10   2  -9  113.71    8.11
  10  -2  -8   96.79    7.76
  10   2  -8  111.31    7.13
  10  -2  -8  116.10    8.81
  10   2  -8   93.97    7.65
  10   2  -8  118.92    8.53
  10  -2  -7   43.98    5.13
  10   2  -7   42.91    4.53
  10  -2  -7   40.62    5.27
  10   2  -7   43.72    4.68
  10   2  -7   50.95    5.43
  10  -2  -6   36.90    4.77
  10   2  -6   51.57    4.91
  10  -2  -6   51.10    5.76
  10   2  -6   49.71    5.34
  10   2  -6   51.74    5.37
  10  -2  -5  137.69    9.56
  10   2  -5  141.95    8.37
  10   2  -5  148.54    8.92
  10   2  -5  150.98    9.16
  10  -2  -4   68.04    6.24
  10  -2  -4   77.20    7.12
  10   2  -4   90.37    6.53
  10   2  -4   87.95    6.76
  10   2  -4   89.42    7.20
  10  -2  -3  135.94    8.76
  10   2  -3  146.08    8.50
  10   2  -3  161.45    9.06
  10  -2  -3  145.44    9.75
  10   2  -3  157.01    9.28
  10  -2  -2  218.74   11.21
  10  -2  -2  236.51   12.18
  10   2  -2  234.08   11.06
  10   2  -2  228.89   10.76
  10   2  -2  231.90   11.10
  10  -2  -1  170.56    9.83
  10  -2  -1  157.88    9.82
  10   2  -1  150.10    8.86
  10   2  -1  157.88    8.98
  10   2  -1  168.31    9.47
  10  -2   0   42.89    4.91
  10  -2   0   40.08    5.16
  10   2   0   44.95    4.97
  10   2   0   36.44    4.76
  10  -2   1  151.34    9.37
  10  -2   1  159.28    9.98
  10   2   1  168.36    9.53
  10   2   1  144.12    8.70
  10  -2   2  222.17   11.44
  10  -2   2  221.34   11.85
  10   2   2  213.57   10.83
  10   2   2  235.63   11.20
  10  -2   3  147.58    9.35
  10  -2   3  134.99    9.24
  10   2   3  143.71    8.92
  10   2   3  155.74    9.07
  10  -2   4   80.90    6.87
  10  -2   4   92.36    7.62
  10   2   4   80.14    6.62
  10   2   4   91.71    7.24
  10  -2   5  147.40    9.36
  10   2   5  137.33    8.64
  10   2   5  134.19    8.93
  10   2   6   49.68    5.53
  10  -2   6   49.10    5.63
  10   2   6   47.03    5.22
  10   2   7   44.84    5.38
  10  -2   7   47.73    5.36
  10   2   7   47.95    5.19
  10   2   8  110.50    8.28
  10  -2   8  119.90    8.68
  10   2   8  117.26    7.89
  10   2   9  102.61    8.02
  10  -2   9  111.25    8.55
  10   2   9   96.29    7.16
  10   2  10   54.59    6.12
  10  -2  10   59.33    6.19
  10   2  10   52.41    5.39
  10   2  11  218.62   12.27
  10  -2  11  191.50   11.38
  10   2  11  209.04   10.59
  10   2  12  122.96    9.20
  10  -2  12  122.17    9.13
  10   2  12  109.30    7.80
  10   2  13   51.50    6.18
  10  -2  13   51.17    5.94
  10   2  13   53.51    5.51
  10   2  14   44.86    5.57
  10  -2  14   49.95    5.89
  10   2  14   54.51    5.41
  10   2  15   86.39    7.92
  10  -2  15   98.11    8.33
  10   2  16   22.90    4.27
  10  -2  16   24.80    4.43
  10   2  17   60.98    7.11
  10  -2  17   63.27    7.03
  10   2  18   58.02    6.71
  10  -2  18   58.45    7.01
  10   2  19   27.26    5.02
  10  -2  19   22.81    4.51
  10   2  20    5.08    2.57
  10  -2  20    6.09    2.79
  10   2  21   28.34    4.91
  10  -2  21   22.56    4.64
  10   2  22   10.87    3.09
  10  -2  22   12.04    4.00
  10   2  23    8.12    2.67
  10   2  24   15.52    4.15
  10   2  25   12.54    3.69
  10   2  26    2.98    2.64
  10  -3 -26    2.06    2.42
  10  -3 -25   -0.45    1.77
  10  -3 -24    1.69    1.72
  10  -3 -23    2.56    1.50
  10  -3 -22   -0.28    2.41
  10  -3 -21    0.45    1.34
  10  -3 -20    0.48    1.67
  10  -3 -19    0.44    1.47
  10   3 -19    0.60    2.21
  10  -3 -18   -0.76    1.43
  10   3 -18    1.77    1.48
  10  -3 -17    0.83    2.18
  10   3 -17    0.03    1.46
  10  -3 -16    3.52    2.11
  10   3 -16    8.68    2.69
  10  -3 -16    2.44    1.61
  10  -3 -15    0.61    1.18
  10   3 -15   -0.98    1.38
  10  -3 -15   -0.61    1.25
  10  -3 -14    0.67    1.59
  10  -3 -14    0.17    1.00
  10   3 -14    1.03    1.53
  10  -3 -13    8.52    2.98
  10  -3 -13   10.69    3.15
  10   3 -13    8.40    2.56
  10  -3 -12    2.91    1.55
  10  -3 -12    6.76    2.57
  10   3 -12    4.12    1.63
  10   3 -11    0.45    1.27
  10  -3 -11   -0.11    0.85
  10  -3 -11    1.50    1.24
  10   3 -10   13.86    3.24
  10  -3 -10   13.33    3.00
  10  -3 -10   20.15    3.76
  10   3  -9    3.78    2.03
  10  -3  -9    4.14    1.58
  10  -3  -9    2.83    0.90
  10   3  -9    2.42    1.48
  10   3  -8    0.10    1.53
  10  -3  -8   -0.84    1.58
  10  -3  -8   -0.39    1.24
  10   3  -8   -0.97    1.00
  10   3  -8   -0.24    0.72
  10  -3  -7   19.53    3.55
  10   3  -7   15.90    3.22
  10   3  -7   18.19    2.88
  10  -3  -7   10.25    2.41
  10   3  -7   14.93    2.70
  10   3  -6   11.20    2.68
  10   3  -6   14.69    2.76
  10  -3  -6    8.61    2.54
  10  -3  -6   12.33    2.83
  10   3  -6    6.50    2.00
  10   3  -5    1.82    1.22
  10   3  -5    1.30    0.68
  10  -3  -5    2.35    1.91
  10  -3  -5    1.08    1.04
  10   3  -5    1.29    0.87
  10  -3  -4    9.41    2.49
  10  -3  -4   10.84    2.89
  10   3  -4   11.82    2.63
  10   3  -4   17.58    2.96
  10   3  -4   16.01    3.50
  10   3  -3    1.30    1.91
  10   3  -3    0.18    1.07
  10  -3  -3    1.58    1.18
  10  -3  -3    1.77    1.60
  10   3  -3    1.14    1.03
  10   3  -2    2.10    0.84
  10  -3  -2    6.93    1.73
  10   3  -2    8.60    2.40
  10  -3  -2    2.77    2.26
  10   3  -2    3.32    1.83
  10   3  -1   11.73    2.86
  10  -3  -1    6.10    2.25
  10   3  -1    6.56    1.95
  10  -3  -1    9.90    2.87
  10   3  -1    3.53    1.70
  10   3   0   10.21    3.26
  10  -3   0    6.38    1.99
  10   3   0    5.02    2.04
  10  -3   0    6.75    2.49
  10   3   1    4.90    2.54
  10  -3   1    8.34    1.97
  10   3   1    9.63    2.48
  10  -3   1    9.06    2.95
  10   3   2    5.33    2.01
  10  -3   2    4.32    1.46
  10   3   2    4.13    1.73
  10  -3   2    1.49    1.27
  10   3   3    2.00    2.16
  10  -3   3    3.69    2.05
  10   3   3    0.13    0.74
  10  -3   3    2.23    1.49
  10   3   4   14.59    2.74
  10  -3   4   10.70    2.85
  10   3   4    7.40    2.21
  10  -3   4   12.70    2.78
  10   3   5    1.40    0.97
  10  -3   5    4.01    1.99
  10   3   5    0.43    1.26
  10  -3   5    1.75    1.25
  10   3   6    8.89    2.55
  10  -3   6   10.07    2.42
  10   3   6   12.85    2.94
  10  -3   6    9.53    2.30
  10   3   7   14.60    3.14
  10   3   7   21.38    3.70
  10  -3   7   18.46    3.21
  10   3   8    0.48    1.91
  10  -3   8    0.83    1.25
  10   3   8    1.11    0.82
  10   3   9    3.44    1.95
  10  -3   9    4.08    2.07
  10   3   9    2.94    1.47
  10   3  10   13.56    3.28
  10   3  10   17.44    3.58
  10  -3  10   12.87    2.94
  10   3  11    1.77    2.10
  10  -3  11    1.95    1.57
  10   3  11    3.50    1.70
  10   3  12    6.09    2.25
  10  -3  12    4.87    1.59
  10   3  12   10.60    2.68
  10   3  13    7.51    2.13
  10  -3  13    7.57    2.78
  10   3  13    7.41    2.43
  10   3  14   -0.75    1.57
  10  -3  14    0.16    1.03
  10   3  14   -0.21    1.08
  10   3  15   -1.88    2.05
  10  -3  15    2.76    1.86
  10   3  15    1.19    2.32
  10  -3  16    0.71    1.11
  10   3  16    5.82    2.43
  10  -3  17    2.09    1.96
  10   3  17    1.84    1.59
  10  -3  18    1.07    1.61
  10   3  18    1.60    1.12
  10   3  19   -0.63    1.07
  10  -3  19    0.79    1.48
  10   3  20   -0.97    1.85
  10  -3  20    0.97    1.51
  10   3  21   -2.04    2.22
  10   3  22    0.71    1.67
  10   3  23    0.18    2.14
  10   3  24    1.10    2.36
  10   3  25   -0.52    2.06
  10   3  26    0.18    1.45
  10  -4 -25    6.58    2.39
  10  -4 -24   14.97    3.30
  10  -4 -23    3.85    2.06
  10  -4 -22    4.80    1.63
  10  -4 -21   11.86    3.56
  10  -4 -20    7.52    2.63
  10  -4 -19   10.08    2.88
  10   4 -19   30.42    5.67
  10  -4 -18   36.86    5.75
  10   4 -18   44.89    5.91
  10  -4 -17   24.97    4.57
  10  -4 -17   37.05    5.53
  10   4 -17   29.17    4.91
  10  -4 -16   20.19    4.10
  10  -4 -16   20.86    4.25
  10   4 -16   12.39    3.28
  10  -4 -15   52.85    6.71
  10  -4 -15   53.09    6.76
  10   4 -15   45.37    5.77
  10  -4 -14   56.55    6.76
  10  -4 -14   53.86    6.45
  10   4 -14   49.31    6.10
  10  -4 -13   36.77    5.86
  10  -4 -13   37.08    5.49
  10   4 -13   32.14    4.96
  10  -4 -12   77.09    7.73
  10  -4 -12   55.72    6.53
  10   4 -12   66.66    6.80
  10  -4 -11  132.05    9.94
  10  -4 -11  134.35    9.87
  10   4 -11  123.73    9.19
  10  -4 -10   51.07    6.50
  10  -4 -10   40.92    5.29
  10   4 -10   45.13    5.62
  10  -4  -9   45.33    5.79
  10  -4  -9   47.11    5.69
  10   4  -9   41.64    5.18
  10  -4  -8   74.56    7.45
  10  -4  -8   62.02    6.73
  10   4  -8   65.39    6.73
  10   4  -7   15.93    2.94
  10  -4  -7   19.73    4.08
  10  -4  -7   25.70    4.05
  10   4  -7   19.72    3.90
  10  -4  -6   17.38    3.75
  10  -4  -6   17.45    3.45
  10   4  -6   19.38    3.16
  10   4  -6   28.91    4.59
  10  -4  -5   76.80    7.63
  10   4  -5   89.41    6.93
  10   4  -5   89.19    7.80
  10  -4  -5   99.48    8.32
  10   4  -4   32.84    4.17
  10  -4  -4   37.38    4.93
  10  -4  -4   37.10    5.46
  10   4  -4   36.92    4.78
  10  -4  -3   35.87    4.79
  10   4  -3   35.11    4.43
  10  -4  -3   35.71    5.06
  10   4  -3   45.19    4.74
  10   4  -3   44.08    5.44
  10  -4  -2  118.40    8.94
  10   4  -2  108.66    7.88
  10  -4  -2  138.43    9.99
  10   4  -2  115.79    7.64
  10   4  -2  144.89    9.69
  10   4  -1  126.41    9.06
  10  -4  -1  127.33    9.34
  10   4  -1  126.80    8.60
  10  -4  -1  149.48   10.40
  10   4   0   80.35    7.04
  10  -4   0   80.53    7.22
  10   4   0   70.88    6.40
  10  -4   0   81.96    7.69
  10   4   1  123.45    8.82
  10  -4   1  135.10    9.34
  10  -4   1  137.13    9.84
  10   4   2  138.88    9.31
  10  -4   2  134.32    9.37
  10  -4   2  124.77    9.37
  10   4   3   36.40    4.99
  10  -4   3   38.05    5.07
  10   4   3   37.58    4.73
  10  -4   3   40.39    5.40
  10   4   4   36.95    5.11
  10  -4   4   38.61    5.07
  10   4   4   32.18    4.50
  10  -4   4   38.32    5.14
  10   4   5   78.94    7.00
  10  -4   5   67.58    6.62
  10   4   5   88.80    7.58
  10  -4   5   80.01    7.61
  10   4   6   25.17    4.23
  10  -4   6   21.35    3.93
  10   4   6   21.74    3.83
  10  -4   6   28.48    4.54
  10   4   7   21.83    3.96
  10  -4   7   17.57    3.57
  10  -4   7   16.22    3.38
  10   4   7   16.12    3.34
  10   4   8   68.22    6.67
  10  -4   8   62.80    6.54
  10   4   8   61.83    6.78
  10  -4   8   64.84    7.01
  10   4   9   46.99    5.52
  10  -4   9   40.90    5.28
  10   4   9   47.64    5.64
  10   4  10   43.27    5.26
  10  -4  10   45.92    5.74
  10   4  10   35.39    4.92
  10   4  11  110.46    8.61
  10  -4  11  132.65    9.80
  10   4  11  126.15    9.61
  10   4  12   65.93    6.62
  10  -4  12   64.14    6.83
  10   4  12   57.82    6.83
  10   4  13   37.77    5.18
  10  -4  13   36.72    5.19
  10   4  13   38.22    5.42
  10   4  14   53.01    5.95
  10  -4  14   57.84    6.66
  10   4  14   39.49    5.52
  10   4  15   51.59    6.06
  10   4  15   59.01    6.76
  10  -4  15   51.72    6.34
  10  -4  16   16.24    3.62
  10   4  16   18.59    4.06
  10   4  17   27.97    4.96
  10  -4  17   33.01    5.21
  10   4  18   34.24    5.42
  10  -4  18   32.34    5.41
  10  -4  19   15.12    3.70
  10   4  19    9.96    3.32
  10   4  20    3.22    2.70
  10   4  21   15.17    3.52
  10   4  22   10.74    3.51
  10   4  23    1.47    1.88
  10   4  24   16.98    4.31
  10   4  25   14.93    4.49
  10  -5 -23   -1.10    1.18
  10  -5 -22    3.61    1.51
  10  -5 -21    3.67    1.48
  10  -5 -20   -0.59    1.57
  10  -5 -19    4.65    2.51
  10  -5 -19   -2.92    1.63
  10  -5 -18    0.63    1.60
  10  -5 -18    0.98    1.44
  10   5 -18   -1.17    1.47
  10   5 -17    2.37    2.40
  10  -5 -17    0.56    1.48
  10  -5 -17    3.83    2.50
  10   5 -16    5.71    2.47
  10  -5 -16    5.88    2.72
  10  -5 -16   11.74    3.24
  10   5 -15    8.72    2.32
  10  -5 -15    4.35    1.31
  10  -5 -15    9.49    2.90
  10   5 -14    2.15    1.28
  10  -5 -14    4.27    3.15
  10  -5 -14    5.13    2.10
  10   5 -13    0.13    0.94
  10  -5 -13    2.41    1.42
  10  -5 -13    1.03    1.51
  10  -5 -12    2.99    1.93
  10   5 -12    3.89    1.91
  10  -5 -12    2.58    1.45
  10  -5 -11    0.41    0.94
  10   5 -11    2.84    2.15
  10  -5 -11    0.34    1.56
  10  -5 -10   12.31    3.60
  10   5 -10   13.40    3.05
  10  -5 -10   11.45    3.44
  10  -5  -9    2.63    1.51
  10   5  -9    4.86    2.20
  10  -5  -9   -0.63    1.65
  10   5  -8   19.65    4.06
  10  -5  -8   19.88    4.06
  10  -5  -8   18.54    4.12
  10   5  -7    8.70    2.61
  10  -5  -7   10.10    2.83
  10  -5  -7   11.27    3.28
  10   5  -6    4.49    1.99
  10   5  -6    2.25    1.68
  10  -5  -6    8.29    2.71
  10  -5  -6    5.28    2.70
  10   5  -5    5.72    2.42
  10  -5  -5    6.12    2.06
  10   5  -5    4.35    1.74
  10  -5  -5    2.54    1.40
  10   5  -4   21.92    4.02
  10  -5  -4   24.78    4.63
  10   5  -4   14.93    3.17
  10  -5  -4   21.44    4.07
  10   5  -3    8.70    3.12
  10  -5  -3    9.80    2.79
  10  -5  -3    6.87    2.59
  10   5  -3    9.23    2.71
  10   5  -2   27.38    3.98
  10   5  -2   23.00    3.73
  10  -5  -2   20.73    4.18
  10  -5  -2   32.97    4.79
  10  -5  -1   79.82    7.54
  10   5  -1   73.16    7.33
  10   5  -1   62.70    6.29
  10  -5  -1   60.88    6.99
  10  -5   0   50.20    5.88
  10   5   0   53.66    6.07
  10   5   0   40.82    5.04
  10  -5   0   46.15    5.88
  10  -5   1   64.78    6.58
  10   5   1   65.73    6.46
  10   5   1   73.83    6.84
  10  -5   1   70.84    7.41
  10   5   2   30.97    4.60
  10  -5   2   27.48    4.62
  10   5   2   22.18    3.74
  10  -5   2   23.42    4.53
  10   5   3    9.36    2.33
  10   5   3   10.78    2.89
  10  -5   3   10.02    2.93
  10  -5   3    5.63    2.60
  10   5   4   21.67    3.94
  10  -5   4   20.75    3.97
  10   5   4   34.35    4.94
  10  -5   4   21.11    3.65
  10   5   5    5.05    2.48
  10   5   5    7.29    2.71
  10  -5   5    2.73    1.67
  10  -5   5    8.86    2.69
  10   5   6    5.51    1.79
  10   5   6    6.03    1.99
  10  -5   6    6.25    2.08
  10  -5   6    3.13    1.92
  10   5   7   15.78    3.18
  10   5   7   11.92    3.16
  10  -5   7   10.23    2.84
  10  -5   7   11.56    2.93
  10   5   8   19.41    3.73
  10   5   8   15.49    3.12
  10  -5   8   14.03    3.77
  10  -5   8   20.48    4.30
  10   5   9    2.74    1.53
  10   5   9    0.74    1.60
  10  -5   9    4.20    2.36
  10  -5   9    0.90    1.05
  10   5  10   18.17    3.68
  10   5  10    9.70    2.84
  10  -5  10   11.89    2.97
  10  -5  10   14.84    3.28
  10   5  11    3.93    1.46
  10   5  11    2.45    1.65
  10  -5  11    6.64    1.90
  10  -5  11    1.19    2.08
  10   5  12    2.09    2.00
  10   5  12    1.17    2.24
  10  -5  12   -0.82    1.91
  10  -5  12    1.24    1.75
  10   5  13    1.49    1.89
  10   5  13    0.01    1.47
  10  -5  13   -1.04    1.23
  10   5  14   -0.12    1.29
  10   5  14    1.49    1.36
  10  -5  14    1.61    1.75
  10   5  15    7.45    2.58
  10   5  15   14.13    3.48
  10  -5  15   18.46    3.87
  10   5  16    7.28    2.83
  10   5  16    4.34    1.39
  10  -5  16    6.91    2.46
  10  -5  17    0.64    1.88
  10   5  17    2.18    2.59
  10  -5  18    2.61    2.14
  10   5  18   -0.15    1.39
  10   5  19   -1.16    1.68
  10   5  20    3.10    2.67
  10   5  21    3.68    1.87
  10   5  22    0.62    1.42
  10   5  23    2.97    2.27
  10  -6 -22   10.34    2.99
  10  -6 -21   20.87    4.82
  10  -6 -20   26.11    5.45
  10  -6 -19   12.06    4.06
  10  -6 -19    5.92    2.73
  10  -6 -18   27.78    5.06
  10  -6 -18   23.78    4.96
  10   6 -17   26.76    4.92
  10  -6 -17   27.64    5.37
  10  -6 -17   25.18    5.21
  10  -6 -16   22.03    4.82
  10  -6 -16   29.18    5.23
  10   6 -16   29.65    5.25
  10  -6 -15   61.09    7.50
  10  -6 -15   57.00    6.94
  10   6 -15   54.00    6.45
  10  -6 -14   44.60    6.58
  10  -6 -14   29.19    5.40
  10   6 -14   38.00    5.68
  10   6 -13   20.81    4.11
  10  -6 -13   27.06    4.96
  10  -6 -13   27.09    4.97
  10  -6 -12   20.52    4.66
  10   6 -12   25.81    4.71
  10  -6 -12   21.40    4.63
  10  -6 -11   25.58    5.03
  10   6 -11   28.63    5.04
  10  -6 -11   19.88    3.85
  10  -6 -10   18.14    3.93
  10   6 -10   16.78    4.53
  10  -6 -10   24.20    4.52
  10  -6  -9   27.91    5.24
  10  -6  -9   37.57    5.67
  10   6  -9   34.98    5.11
  10  -6  -8   44.83    6.39
  10  -6  -8   34.72    5.23
  10   6  -8   37.99    5.55
  10  -6  -7    5.41    2.32
  10   6  -7    9.11    3.23
  10  -6  -7    7.92    3.14
  10  -6  -6   15.75    4.14
  10   6  -6   23.96    4.08
  10  -6  -6   16.34    3.51
  10   6  -5   60.53    6.40
  10   6  -5   57.56    6.17
  10  -6  -5   48.24    6.30
  10  -6  -5   49.49    6.24
  10   6  -4   26.22    4.19
  10  -6  -4   34.02    5.18
  10   6  -4   21.28    3.60
  10  -6  -4   31.29    5.33
  10  -6  -3    2.97    1.89
  10   6  -3    2.12    2.11
  10  -6  -3    2.83    1.39
  10   6  -3    1.85    1.00
  10   6  -2   22.89    4.25
  10  -6  -2   26.36    4.34
  10  -6  -2   25.00    4.49
  10   6  -2   23.07    3.89
  10   6  -1   56.05    6.51
  10   6  -1   67.94    6.83
  10  -6  -1   57.15    6.65
  10  -6  -1   40.72    5.75
  10   6   0   60.32    6.93
  10   6   0   55.53    6.49
  10  -6   0   59.44    6.66
  10  -6   0   57.10    6.76
  10   6   1   61.66    6.75
  10   6   1   56.65    6.57
  10  -6   1   61.24    6.89
  10  -6   1   54.65    6.46
  10   6   2   19.28    3.92
  10  -6   2   20.43    4.03
  10   6   2   27.28    4.42
  10  -6   2   30.37    4.89
  10   6   3    2.73    1.92
  10   6   3   -0.22    0.98
  10  -6   3    2.62    2.31
  10  -6   3    5.84    2.43
  10   6   4   27.06    4.58
  10   6   4   23.10    3.97
  10  -6   4   39.04    5.66
  10  -6   4   34.51    5.31
  10  -6   5   54.90    6.46
  10   6   5   47.73    5.89
  10   6   5   49.37    6.15
  10  -6   5   45.40    6.27
  10   6   6   19.43    4.11
  10   6   6   19.22    3.67
  10  -6   6   19.42    3.90
  10  -6   6   23.17    4.45
  10   6   7    8.74    2.83
  10   6   7   11.12    2.75
  10  -6   7   11.85    2.47
  10  -6   7    9.00    2.81
  10  -6   8   35.53    5.44
  10   6   8   39.57    5.49
  10   6   8   35.84    5.21
  10  -6   8   30.81    5.07
  10  -6   9   30.18    5.05
  10   6   9   42.35    5.89
  10   6   9   35.02    5.27
  10  -6   9   28.14    4.86
  10   6  10   19.61    4.04
  10  -6  10   22.82    4.32
  10   6  10   25.10    4.80
  10  -6  10   24.89    4.73
  10  -6  11   31.61    5.38
  10   6  11   21.01    4.06
  10   6  11   21.94    4.19
  10  -6  11   31.37    5.30
  10   6  12   21.77    4.17
  10   6  12   20.58    3.92
  10  -6  12   17.85    4.30
  10  -6  12   27.30    4.87
  10   6  13   25.44    5.18
  10   6  13   21.23    4.17
  10  -6  13   23.68    4.48
  10  -6  13   18.79    4.17
  10  -6  14   44.71    6.38
  10   6  14   38.18    5.92
  10   6  14   36.94    5.53
  10  -6  14   40.72    6.03
  10  -6  15   71.88    8.14
  10   6  15   65.79    7.46
  10   6  15   61.18    7.55
  10  -6  15   61.38    8.03
  10   6  16   27.77    4.86
  10   6  16   27.39    5.18
  10  -6  16   23.49    5.13
  10  -6  16   23.86    4.75
  10   6  17   27.53    4.83
  10   6  18   23.49    4.59
  10   6  19    3.89    2.02
  10   6  20   19.14    4.36
  10   6  21   27.37    4.77
  10   6  22   14.65    4.02
  10  -7 -20    3.97    2.90
  10  -7 -20    3.80    2.58
  10  -7 -19    1.44    1.53
  10  -7 -19    5.24    2.34
  10  -7 -18    3.47    2.25
  10  -7 -18    7.32    3.34
  10   7 -17    5.29    3.56
  10  -7 -17    4.66    2.86
  10  -7 -17    2.47    2.33
  10   7 -16    8.35    2.94
  10  -7 -16    6.90    2.95
  10  -7 -16    8.30    3.14
  10   7 -15    5.24    3.04
  10  -7 -15    1.93    1.45
  10  -7 -15    3.44    2.17
  10   7 -14    5.37    2.37
  10  -7 -14    7.08    2.48
  10  -7 -14    8.01    2.48
  10   7 -13    5.00    3.05
  10  -7 -13    5.23    3.08
  10  -7 -13    0.41    1.32
  10   7 -12    2.43    1.37
  10  -7 -12    5.67    2.72
  10  -7 -12    7.24    2.91
  10   7 -11   16.47    3.92
  10  -7 -11   22.43    4.91
  10  -7 -11   11.13    3.53
  10   7 -10   16.15    3.59
  10  -7 -10   16.80    4.09
  10  -7 -10   16.83    4.08
  10   7  -9   18.96    4.18
  10  -7  -9   12.22    3.86
  10  -7  -9   11.39    3.30
  10   7  -8   13.33    3.30
  10  -7  -8   10.23    2.58
  10  -7  -8   13.69    3.43
  10  -7  -7    3.60    2.63
  10   7  -7   -0.24    1.19
 -10   7  -7   -0.29    1.28
  10  -7  -7    4.96    2.09
  10  -7  -6    3.13    2.08
  10   7  -6    2.62    2.08
 -10   7  -6    2.95    1.40
  10  -7  -6    8.77    3.33
  10  -7  -5    1.11    1.04
  10   7  -5    4.32    2.31
 -10   7  -5    2.89    2.00
  10  -7  -5    3.30    2.01
  10  -7  -4    2.53    1.76
  10   7  -4    3.84    2.41
  10  -7  -4    3.54    1.61
  10  -7  -3    5.89    2.13
  10   7  -3    6.70    2.30
  10   7  -3    6.14    2.19
  10  -7  -3    1.75    1.52
  10  -7  -2   11.05    3.22
  10   7  -2    9.74    2.71
  10   7  -2    9.90    2.90
  10  -7  -2   10.07    3.94
  10   7  -1   26.27    4.68
  10   7  -1   29.90    5.08
  10  -7  -1   31.51    5.16
  10  -7  -1   26.50    5.03
  10  -7   0   12.05    3.50
  10   7   0   11.48    3.62
  10   7   0   14.34    3.43
  10  -7   0    6.89    2.82
  10   7   1   25.29    4.82
  10   7   1   24.83    4.41
  10  -7   1   28.15    5.50
  10  -7   1   27.47    5.00
  10  -7   2   12.69    3.50
  10   7   2    9.47    2.79
  10   7   2   13.93    3.25
  10  -7   2    6.13    2.72
  10  -7   3    3.16    1.56
  10   7   3    4.82    2.99
  10   7   3    9.29    3.15
  10  -7   3    7.79    3.11
  10  -7   4    6.83    2.50
  10   7   4    5.73    2.47
  10   7   4    2.20    1.76
  10  -7   4    3.39    2.32
  10  -7   5    2.04    1.49
  10   7   5    3.51    1.63
  10   7   5    4.77    2.62
  10  -7   5    3.78    2.34
  10  -7   6    1.06    1.09
  10   7   6    3.91    1.50
  10  -7   6    4.94    2.96
  10  -7   7    3.15    2.16
  10   7   7    1.04    2.43
  10   7   7    1.58    1.34
  10  -7   7   -1.22    1.28
  10  -7   8   10.14    2.86
  10   7   8   11.04    2.79
  10   7   8   15.56    3.61
  10  -7   8   10.67    2.97
  10  -7   9    7.89    3.15
  10   7   9   12.54    3.01
  10   7   9    6.95    2.47
  10  -7   9   12.20    3.82
  10  -7  10   13.87    3.95
  10   7  10   14.70    3.82
  10   7  10   13.34    3.23
  10  -7  10   12.45    2.85
  10  -7  11   13.20    3.21
  10   7  11   15.54    3.73
  10   7  11   15.06    4.13
  10  -7  11   13.12    3.70
  10   7  12    5.25    2.28
  10  -7  12    2.38    2.07
  10   7  12    4.21    1.83
  10  -7  12    3.69    2.26
  10   7  13    0.62    1.39
  10  -7  13    7.74    2.80
  10   7  13    5.06    2.48
  10  -7  13    4.84    1.68
  10   7  14    8.63    2.98
  10  -7  14    4.39    2.12
  10   7  14    6.25    2.15
  10   7  15    3.45    2.73
  10  -7  15    2.27    1.92
  10   7  15    1.55    1.14
  10   7  16    7.84    3.32
  10   7  16    7.28    2.60
  10   7  17   -0.27    1.44
  10   7  18    1.00    1.68
  10   7  19    2.04    2.22
  10   7  20    4.71    3.14
  10  -8 -17    0.63    1.82
  10  -8 -17    1.34    1.74
  10  -8 -16    0.90    2.01
  10  -8 -16    2.99    1.30
  10   8 -15   24.11    4.94
  10  -8 -15   27.46    6.10
  10  -8 -15   22.22    4.66
  10   8 -14   14.86    4.15
  10  -8 -14   15.69    3.91
  10  -8 -14   18.83    4.61
  10   8 -13    3.31    3.09
  10  -8 -13    9.21    3.28
  10  -8 -13    7.46    3.04
  10   8 -12   14.15    3.58
  10  -8 -12    9.33    3.50
  10  -8 -12    3.39    1.30
  10   8 -11    9.61    2.71
  10  -8 -11   10.37    3.97
  10  -8 -11   10.42    3.34
  10   8 -10    6.88    3.04
  10  -8 -10    3.52    2.15
  10  -8 -10    9.60    2.99
  10   8  -9   23.64    4.55
  10  -8  -9   17.77    4.20
  10  -8  -9   27.92    5.32
  10   8  -8   36.56    5.75
  10  -8  -8   21.76    4.66
  10  -8  -8   37.28    5.94
  10   8  -7    7.15    2.61
 -10   8  -7    1.71    2.77
  10  -8  -7    2.70    0.99
  10   8  -6   37.23    5.89
 -10   8  -6   31.61    5.34
  10  -8  -6   30.54    5.43
  10  -8  -6   40.94    6.23
  10   8  -5   53.45    6.56
  10  -8  -5   58.69    7.54
  10  -8  -5   53.80    6.96
  10   8  -4   38.64    5.62
 -10   8  -4   37.00    6.02
  10  -8  -4   31.53    5.38
  10  -8  -4   35.72    5.41
  10  -8  -3    2.86    1.99
  10   8  -3   10.02    2.91
 -10   8  -3    5.54    2.85
  10  -8  -3   10.09    2.46
  10  -8  -2    9.76    3.07
  10   8  -2    9.38    3.41
  10   8  -2   11.16    3.24
 -10   8  -2   10.08    3.09
  10  -8  -2    3.44    2.00
  10  -8  -1    6.99    2.56
  10   8  -1    6.95    2.37
  10   8  -1   14.08    3.75
  10  -8  -1    9.97    3.32
 -10   8  -1    7.96    2.70
  10  -8   0   17.85    4.49
  10   8   0   20.77    4.20
  10   8   0   18.35    3.83
 -10   8   0   17.12    3.90
  10  -8   0   15.12    4.24
  10  -8   1   10.71    2.95
  10   8   1   12.90    3.59
  10   8   1   13.94    3.57
 -10   8   1   13.75    3.60
  10  -8   1   11.36    3.72
  10  -8   2    5.91    2.59
  10   8   2    9.97    3.03
  10   8   2    7.96    2.38
 -10   8   2    7.74    2.38
  10  -8   2   10.85    3.02
  10  -8   3    6.79    2.44
  10   8   3    7.27    2.68
  10   8   3    9.51    3.22
 -10   8   3   15.56    4.09
  10  -8   3    5.28    1.42
  10   8   4   40.91    5.82
  10  -8   4   30.75    5.46
  10  -8   4   36.86    5.68
  10   8   5   56.67    6.91
  10  -8   5   52.81    7.16
  10  -8   5   49.77    6.62
  10   8   6   29.23    4.86
  10   8   6   33.85    5.75
  10  -8   6   28.91    5.58
  10  -8   6   35.12    5.53
  10  -8   7    5.49    2.98
  10   8   7    3.25    2.09
  10   8   7    3.63    2.03
  10  -8   7    8.60    4.04
  10   8   8   30.07    5.40
  10   8   8   18.23    3.79
  10  -8   8   31.93    5.72
  10  -8   9   10.58    3.63
  10   8   9   20.99    4.58
  10   8   9   21.01    4.31
  10  -8  10   11.34    3.63
  10   8  10    6.79    2.64
  10   8  10    6.95    2.90
  10  -8  11    8.00    3.18
  10   8  11   15.33    3.45
  10   8  11   10.75    3.40
  10  -8  12    7.81    3.36
  10   8  12   15.17    3.65
  10   8  12   10.27    3.55
  10  -8  13    3.31    1.75
  10   8  13    6.41    2.04
  10   8  14   15.98    3.94
  10   8  14   23.59    5.11
 -10   8  14   15.72    4.21
  10   8  15   11.28    3.94
  10   8  15   24.17    4.94
 -10   8  15   28.27    4.83
  10   8  16   -0.16    1.86
  10   8  16    4.33    1.95
 -10   8  16    8.20    3.21
  10   8  17    5.62    3.09
 -10   8  17    3.09    2.79
  10   9 -13    3.30    2.89
  10  -9 -13    4.39    3.43
  10  -9 -13    0.36    1.54
  10   9 -12    3.49    1.96
  10  -9 -12    0.31    3.14
  10  -9 -12    0.69    1.23
  10   9 -11    1.19    1.53
  10  -9 -11    5.83    3.39
  10  -9 -11    4.77    2.55
  10   9 -10    2.99    1.56
  10  -9 -10    4.79    2.24
  10  -9 -10    0.85    1.67
  10   9  -9    1.38    2.50
  10  -9  -9   -0.28    1.95
  10  -9  -9    0.16    1.14
  10   9  -8    1.36    2.33
  10  -9  -8    2.61    1.44
  10  -9  -8    1.20    1.86
  10   9  -7    2.13    2.33
  10  -9  -7   -1.98    2.49
  10  -9  -7    0.74    1.84
  10   9  -6   -0.09    1.38
  10  -9  -6    5.94    3.17
  10  -9  -6    2.54    2.39
  10   9  -5    2.80    1.84
 -10   9  -5    2.74    1.32
  10  -9  -5    0.06    1.88
  10  -9  -5   -0.44    1.34
  10   9  -4    4.37    2.40
 -10   9  -4    2.67    1.51
  10  -9  -4    9.38    4.06
  10  -9  -4    3.55    2.36
  10   9  -3    7.89    3.09
 -10   9  -3    4.51    2.45
  10  -9  -3    2.02    2.57
  10  -9  -3    1.28    1.35
  10   9  -2   -0.05    1.61
 -10   9  -2    0.03    1.82
  10  -9  -2    2.59    1.73
  10  -9  -2    2.37    2.12
  10   9  -1    4.20    2.23
 -10   9  -1    8.86    3.20
  10  -9  -1    5.13    3.42
  10  -9  -1    3.87    1.21
  10   9   0    4.49    2.31
  10   9   0    7.20    2.45
 -10   9   0   11.39    3.74
  10  -9   0    6.50    3.57
  10  -9   0    4.11    2.40
  10   9   1    8.47    2.95
  10   9   1   10.20    3.44
 -10   9   1    7.42    2.78
  10  -9   1    3.75    1.76
  10  -9   1    1.19    1.41
  10  -9   2   -1.59    1.10
  10   9   2   -1.20    1.88
 -10   9   2    1.63    2.41
  10  -9   3    2.79    1.83
  10   9   3    7.62    2.79
  10   9   3    0.29    2.00
 -10   9   3    3.45    2.02
  10  -9   4   10.78    3.53
  10   9   4    3.32    1.56
  10   9   4    7.40    3.13
 -10   9   4    4.34    2.94
  10  -9   5   -0.63    1.68
  10   9   5    2.02    2.50
  10   9   5    3.66    2.42
 -10   9   5   -0.71    1.58
  10  -9   6    6.70    2.00
  10   9   6    3.52    2.70
  10   9   6    4.18    2.34
 -10   9   6    0.47    1.71
  10  -9   7   -1.29    1.69
  10   9   7   -0.71    1.67
 -10   9   7   -1.56    1.30
  10  -9   8    2.43    2.53
  10   9   8    5.56    2.94
  10   9   8    3.86    2.66
 -10   9   8    1.69    1.81
  10  -9   9    1.84    2.05
  10   9   9    1.19    1.53
  10   9   9   -0.59    1.75
 -10   9   9    0.90    1.41
  10  -9  10    5.89    3.18
  10   9  10    4.00    2.46
  10   9  10    4.72    3.27
 -10   9  10    4.88    2.92
  10  -9  11    6.77    3.21
  10   9  11    2.02    2.47
  10   9  11    4.26    1.94
 -10   9  11   -0.93    2.19
  10  -9  12    3.98    2.24
  10   9  12    1.04    1.91
  10   9  12   -1.35    1.28
 -10   9  12    0.91    1.65
  10   9  13    1.29    1.72
  10   9  13   -1.32    2.29
 -10   9  13   -0.93    1.62
  10  10  -6   10.97    3.51
  10 -10  -6   15.19    3.75
  10  10  -5   11.16    3.37
 -10  10  -5   21.99    6.12
  10 -10  -5   14.14    4.32
  10  10  -4    5.94    2.14
 -10  10  -4   11.34    4.16
  10 -10  -4    7.40    1.86
  10  10  -3    2.06    1.88
 -10  10  -3    1.53    1.63
  10 -10  -3    2.55    1.64
  10  10  -2   11.19    3.26
 -10  10  -2   11.35    4.32
  10 -10  -2   19.70    4.98
  10  10  -1    4.66    3.17
 -10  10  -1    4.41    3.34
  10 -10  -1    2.76    2.34
  10  10   0    3.38    2.79
 -10  10   0    1.36    1.59
  10 -10   0    4.01    2.74
  10  10   1    5.26    2.28
 -10  10   1    3.12    1.84
  10 -10   1    2.77    1.42
  10  10   2   15.47    4.15
  10  10   2    5.87    1.71
 -10  10   2   10.09    3.36
  10 -10   2    7.08    2.49
  10  10   3    0.39    1.65
  10  10   3   -0.84    1.54
 -10  10   3   -1.09    1.75
  10 -10   3    2.93    2.73
  10  10   4    2.96    1.58
  10  10   4    6.49    3.17
 -10  10   4    9.40    3.68
  10 -10   4    9.35    3.66
  10  10   5    5.54    2.39
  10  10   5    4.01    2.33
 -10  10   5    7.28    3.04
  10 -10   5   -0.31    3.15
  10  10   6   13.90    3.96
  10  10   6   11.37    2.97
 -10  10   6   17.59    4.84
  10 -10   6    9.19    2.82
  11   0 -24   -1.83    2.24
  11   0 -23   -0.29    1.85
  11   0 -22   -0.33    1.35
  11   0 -21   -1.13    1.83
  11   0 -20    0.78    1.39
  11   0 -19    1.47    2.43
  11   0 -18    0.64    1.93
  11   0 -17    1.29    1.27
  11   0 -16    0.70    1.32
  11   0 -15    2.45    2.03
  11   0 -14   -0.86    1.02
  11   0 -13   -0.83    1.36
  11   0 -12    0.41    1.08
  11   0 -12   -0.13    1.65
  11   0 -11   -0.22    0.72
  11   0 -11    0.26    1.53
  11   0 -10    0.34    0.91
  11   0 -10    0.33    1.61
  11   0  -9    0.14    0.71
  11   0  -9    0.19    1.29
  11   0  -8    0.01    1.01
  11   0  -8    0.82    0.79
  11   0  -7    0.12    0.61
  11   0  -7    0.68    0.97
  11   0  -6    0.85    1.52
  11   0  -6   -0.25    1.17
  11   0  -6   -1.02    1.29
  11   0  -5   -0.38    0.97
  11   0  -5    0.90    1.48
  11   0  -5    0.61    0.84
  11   0  -4    0.54    1.25
  11   0  -4    0.04    1.24
  11   0  -4    1.05    1.35
  11   0  -3    0.13    0.92
  11   0  -3   -0.02    1.03
  11   0  -3   -0.51    1.09
  11   0  -2   -0.43    0.93
  11   0  -2    0.62    1.50
  11   0  -2    0.63    1.12
  11   0  -1    0.34    1.22
  11   0  -1   -0.26    0.96
  11   0  -1   -0.54    0.82
  11   0   0   -0.63    1.04
  11   0   0   -0.38    0.73
  11   0   0   -0.77    0.84
  11   0   1    0.52    0.72
  11   0   1    0.03    1.05
  11   0   1    0.76    1.37
  11   0   2   -1.61    1.87
  11   0   2   -0.85    1.40
  11   0   3   -0.45    0.96
  11   0   3    0.18    0.72
  11   0   4    0.80    1.26
  11   0   4   -1.05    0.96
  11   0   5   -0.34    1.06
  11   0   5    0.42    0.72
  11   0   6   -0.87    0.70
  11   0   6    0.52    1.09
  11   0   7   -0.66    1.18
  11   0   7   -0.71    1.53
  11   0   8    0.35    1.03
  11   0   8   -0.98    1.40
  11   0   9    0.48    1.20
  11   0   9   -0.77    0.78
  11   0  10    1.59    1.71
  11   0  10    0.06    1.09
  11   0  11    0.07    1.28
  11   0  11    0.30    0.89
  11   0  12    0.30    0.85
  11   0  13   -0.42    1.15
  11   0  14   -0.08    1.82
  11   0  15    0.04    1.23
  11   0  16   -1.07    1.25
  11   0  17    0.41    1.59
  11   0  18    0.37    1.54
  11   0  19    0.35    1.76
  11   0  20   -0.92    1.01
  11   0  21    0.02    1.79
  11   0  22   -0.01    1.43
  11   0  23    0.45    1.90
  11   0  24    2.59    2.97
  11  -1 -26    0.43    1.30
  11  -1 -25    8.22    3.24
  11  -1 -24   24.04    4.39
  11  -1 -23    6.51    3.18
  11  -1 -22    1.47    2.49
  11  -1 -21    8.43    3.12
  11  -1 -20    6.66    2.56
  11   1 -19   35.98    5.32
  11  -1 -19   44.67    6.34
  11   1 -18  121.54    9.81
  11  -1 -18  135.20   10.61
  11   1 -17   22.27    4.48
  11  -1 -17   21.68    4.11
  11   1 -16   -1.37    1.92
  11  -1 -16    1.78    2.00
  11   1 -15   35.17    5.12
  11  -1 -15   27.42    4.44
  11   1 -14  113.00    8.96
  11  -1 -14   98.66    8.76
  11   1 -13  257.57   13.47
  11  -1 -13  224.92   12.00
  11   1 -12  285.28   13.92
  11  -1 -12  249.30   13.77
  11   1 -12  278.56   13.78
  11  -1 -12  251.34   13.14
  11  -1 -11   13.76    2.78
  11   1 -11   12.00    2.84
  11   1 -11   12.64    3.08
  11  -1 -11   20.49    4.01
  11   1 -11   13.93    2.99
  11  -1 -10  118.19    8.48
  11  -1 -10  118.43    9.12
  11   1 -10  139.59    9.47
  11   1 -10  118.87    8.71
  11  -1  -9  125.62    8.82
  11   1  -9  127.03    8.21
  11  -1  -9  119.86    9.14
  11   1  -9  142.38    9.39
  11   1  -9  137.38    9.38
  11  -1  -8   97.94    7.76
  11   1  -8  118.37    7.99
  11  -1  -8  115.13    8.94
  11   1  -8  128.74    9.12
  11   1  -8  128.08    8.98
  11  -1  -7  131.81    8.95
  11   1  -7  148.36    8.91
  11  -1  -7  159.24   10.46
  11   1  -7  165.96   10.20
  11   1  -7  145.16    9.14
  11  -1  -6   87.51    7.24
  11   1  -6   86.36    6.81
  11  -1  -6  103.76    8.34
  11   1  -6  101.61    7.95
  11   1  -6   78.24    6.76
  11  -1  -5   30.11    4.25
  11   1  -5   25.72    3.80
  11  -1  -5   26.15    4.11
  11   1  -5   26.21    4.35
  11   1  -5   26.22    4.16
  11  -1  -4   17.42    3.31
  11   1  -4   19.07    3.36
  11  -1  -4   24.67    4.28
  11   1  -4   16.75    3.26
  11   1  -4   15.93    2.99
  11  -1  -3  184.91   10.45
  11   1  -3  181.12    9.95
  11  -1  -3  173.00   10.64
  11   1  -3  178.68   10.21
  11   1  -3  193.70   10.67
  11  -1  -2  459.45   16.37
  11   1  -2  463.11   15.89
  11  -1  -2  456.55   17.29
  11   1  -2  436.86   16.22
  11   1  -2  477.48   16.37
  11  -1  -1   29.71    4.07
  11   1  -1   27.23    3.91
  11  -1  -1   35.51    4.78
  11   1  -1   23.15    3.92
  11   1  -1   29.50    4.13
  11   1   0    1.18    0.78
  11  -1   0    1.93    1.27
  11  -1   0    0.93    0.92
  11   1   0    1.76    1.64
  11   1   0    1.66    1.73
  11  -1   1   27.23    3.91
  11   1   1   22.90    3.49
  11  -1   1   29.52    4.38
  11   1   1   32.80    4.21
  11  -1   2  445.76   16.37
  11   1   2  462.00   16.19
  11  -1   2  480.73   17.65
  11   1   2  461.03   15.95
  11  -1   3  179.54   10.52
  11   1   3  171.21    9.88
  11  -1   3  185.96   10.82
  11   1   3  172.58    9.72
  11   1   4   13.69    3.06
  11  -1   4   15.71    3.21
  11   1   4   15.48    2.86
  11  -1   5   25.94    4.18
  11   1   5   21.41    3.71
  11   1   5   27.31    3.95
  11   1   6  103.90    7.89
  11   1   6   85.74    6.78
  11  -1   7  148.36    9.61
  11   1   7  143.98    9.72
  11   1   7  152.43    9.11
  11  -1   8  134.85    9.31
  11   1   8  125.73    8.89
  11   1   8  135.73    8.71
  11  -1   9  122.28    9.06
  11   1   9  117.30    9.04
  11   1   9  133.57    8.44
  11  -1  10  121.52    9.15
  11   1  10  123.06    9.25
  11   1  10  113.56    7.87
  11   1  11   16.97    3.78
  11  -1  11    9.81    2.40
  11   1  11    9.55    2.64
  11  -1  12  268.63   13.69
  11   1  12  280.28   14.04
  11   1  12  269.09   12.04
  11  -1  13  258.85   13.56
  11   1  13  254.67   13.51
  11   1  13  247.88   11.53
  11  -1  14   96.03    8.54
  11   1  14   97.17    8.55
  11  -1  15   43.01    5.65
  11   1  15   44.58    5.86
  11   1  16    0.32    1.74
  11  -1  16    1.65    1.42
  11   1  17   20.45    4.09
  11  -1  17   23.26    4.19
  11  -1  18  130.96   10.51
  11   1  18   99.54    9.11
  11   1  19   33.15    5.44
  11  -1  19   23.88    4.90
  11   1  20    7.18    1.88
  11  -1  20    6.53    2.88
  11   1  21    6.74    2.80
  11  -1  21    8.66    3.19
  11   1  22   -1.73    1.23
  11  -1  22   -0.21    1.32
  11   1  23    3.77    2.02
  11  -1  23    1.65    2.67
  11   1  24   37.23    6.26
  11   1  25   11.84    3.86
  11  -2 -25    2.44    1.97
  11  -2 -24   -0.61    1.30
  11  -2 -23   18.35    4.64
  11  -2 -22    3.99    2.80
  11  -2 -21    0.44    1.71
  11  -2 -20    9.75    2.92
  11  -2 -19   -1.07    2.01
  11  -2 -18    0.42    0.92
  11  -2 -17    2.67    2.16
  11  -2 -16    1.37    2.19
  11   2 -16    3.48    1.77
  11  -2 -15   -0.39    1.90
  11   2 -15   -4.28    1.76
  11  -2 -15    2.22    2.54
  11   2 -15    1.05    1.67
  11  -2 -14   10.24    2.79
  11   2 -14    9.36    2.88
  11  -2 -14    7.65    2.61
  11   2 -14    9.76    2.74
  11  -2 -13   11.17    3.02
  11   2 -13   12.11    2.70
  11  -2 -13   13.81    3.41
  11   2 -13    4.14    1.91
  11  -2 -12    0.63    1.62
  11   2 -12    1.33    1.55
  11  -2 -12    1.50    0.95
  11   2 -12    2.84    1.75
  11  -2 -11    2.84    1.39
  11   2 -11   -1.43    2.04
  11  -2 -11   -0.58    1.42
  11   2 -11    2.46    1.72
  11  -2 -10    4.49    2.53
  11  -2 -10    2.97    1.73
  11   2 -10    2.64    1.29
  11   2 -10    2.95    2.31
  11  -2  -9    1.32    0.99
  11   2  -9    3.19    1.46
  11  -2  -9    1.20    0.92
  11   2  -9    2.63    2.10
  11   2  -9    2.53    1.41
  11  -2  -8   41.81    5.14
  11   2  -8   35.62    4.36
  11  -2  -8   32.98    5.17
  11   2  -8   39.85    4.95
  11   2  -8   38.10    5.01
  11  -2  -7   16.79    3.24
  11  -2  -7   11.68    3.00
  11   2  -7    8.91    2.09
  11   2  -7   11.83    2.50
  11   2  -7   14.19    2.79
  11  -2  -6    2.79    1.31
  11  -2  -6    2.00    1.31
  11   2  -6    1.68    1.39
  11   2  -6    1.87    1.07
  11   2  -6    2.63    1.86
  11  -2  -5   12.01    2.86
  11  -2  -5   12.02    2.93
  11   2  -5   17.53    2.87
  11   2  -5   19.19    3.60
  11   2  -5   13.12    2.67
  11   2  -4    0.57    1.24
  11   2  -4    4.00    1.71
  11  -2  -4    2.27    1.17
  11  -2  -4    2.49    1.59
  11   2  -4    1.46    0.82
  11  -2  -3  216.78   11.65
  11   2  -3  228.60   11.18
  11  -2  -3  216.90   12.34
  11   2  -3  215.61   11.26
  11   2  -3  209.27   11.23
  11   2  -2    7.09    1.83
  11   2  -2    6.91    1.55
  11  -2  -2    7.15    2.23
  11  -2  -2    7.57    2.22
  11   2  -2    6.63    2.21
  11  -2  -1  150.04    9.57
  11  -2  -1  144.32    9.86
  11   2  -1  156.88    9.32
  11   2  -1  145.34    9.22
  11   2  -1  136.06    8.95
  11   2   0    0.15    1.19
  11   2   0    0.60    1.25
  11  -2   0    0.24    1.07
  11  -2   0    0.63    1.44
  11   2   0    0.47    1.16
  11  -2   1  137.82    9.20
  11  -2   1  152.60    9.90
  11   2   1  142.58    9.13
  11   2   1  158.82    9.67
  11   2   2    5.95    1.87
  11   2   2    6.12    2.17
  11  -2   2    7.54    1.89
  11  -2   2    5.62    2.35
  11  -2   3  217.99   11.63
  11  -2   3  202.95   11.75
  11   2   3  211.58   11.31
  11   2   3  231.97   11.61
  11   2   4    3.08    1.82
  11   2   4    2.90    1.86
  11  -2   4    3.18    1.34
  11  -2   4   -0.55    1.90
  11   2   5   14.60    3.10
  11  -2   5   18.76    3.42
  11   2   5   18.25    3.47
  11   2   6    3.44    2.10
  11   2   6    3.13    2.12
  11  -2   6    3.18    1.43
  11   2   7   10.74    2.69
  11  -2   7   15.06    3.26
  11   2   7   18.42    3.59
  11  -2   8   33.68    4.74
  11   2   8   47.54    5.32
  11   2   8   48.72    5.80
  11   2   9    0.81    1.77
  11   2   9    2.41    1.90
  11  -2   9    4.19    1.79
  11   2  10    2.46    0.77
  11   2  10    2.69    2.18
  11  -2  10    4.05    1.65
  11   2  11    1.86    1.61
  11   2  11    1.51    1.92
  11  -2  11    5.89    2.36
  11   2  12    0.04    1.32
  11   2  12    1.06    0.84
  11  -2  12   -0.47    1.64
  11   2  13   13.81    3.03
  11   2  13    9.80    2.98
  11  -2  13   10.71    3.04
  11   2  14    5.24    2.27
  11  -2  14    4.39    2.37
  11   2  15    0.05    0.98
  11  -2  15    1.41    2.25
  11   2  16    3.58    1.36
  11  -2  16    2.69    2.16
  11   2  17    1.77    2.47
  11  -2  17   -0.41    1.76
  11   2  18    3.54    2.08
  11  -2  18    3.10    2.26
  11   2  19    1.32    1.39
  11  -2  19    3.93    2.65
  11   2  20    8.90    3.19
  11  -2  20    4.57    2.60
  11   2  21   -0.87    1.59
  11  -2  21   -0.61    1.65
  11   2  22   -0.77    1.22
  11  -2  22    0.03    1.41
  11   2  23   10.20    2.98
  11   2  24   -0.30    1.47
  11   2  25    0.69    1.88
  11  -3 -25   32.97    6.16
  11  -3 -24   14.60    3.62
  11  -3 -23   27.87    5.10
  11  -3 -22    8.20    3.36
  11  -3 -21    0.83    2.12
  11  -3 -20   15.40    3.57
  11  -3 -19    9.44    3.63
  11   3 -19   21.16    4.38
  11  -3 -18   55.41    7.09
  11   3 -18   72.65    7.53
  11  -3 -17   25.55    4.99
  11   3 -17   33.04    5.22
  11  -3 -16   -0.13    1.35
  11   3 -16   -0.90    1.51
  11  -3 -15   11.10    3.29
  11  -3 -15   20.37    4.15
  11   3 -15   13.64    3.24
  11  -3 -14   43.97    5.89
  11  -3 -14   44.94    5.88
  11   3 -14   54.67    6.39
  11  -3 -13   56.13    6.57
  11  -3 -13   50.32    6.03
  11   3 -13   55.80    6.24
  11  -3 -12   60.91    6.86
  11  -3 -12   48.09    5.85
  11   3 -12   60.58    6.55
  11  -3 -11   78.30    8.01
  11   3 -11   89.06    7.85
  11  -3 -11   71.26    7.17
  11   3 -10   13.48    3.40
  11  -3 -10   18.12    3.82
  11  -3 -10   14.59    4.19
  11  -3  -9  384.06   17.02
  11   3  -9  395.29   16.18
  11  -3  -9  437.18   17.42
  11  -3  -8  141.33   10.03
  11   3  -8  112.63    7.71
  11  -3  -8  122.15    9.72
  11   3  -8  131.26    9.19
  11  -3  -7   50.68    5.79
  11   3  -7   47.96    5.04
  11  -3  -7   50.08    6.12
  11   3  -7   38.62    4.73
  11   3  -7   48.53    5.56
  11  -3  -6   33.73    4.99
  11  -3  -6   34.33    5.35
  11   3  -6   31.52    4.27
  11   3  -6   24.32    3.65
  11   3  -6   28.33    4.48
  11  -3  -5  254.71   13.04
  11  -3  -5  282.19   14.32
  11   3  -5  264.38   12.27
  11   3  -5  256.78   11.88
  11   3  -5  272.72   13.19
  11  -3  -4  109.51    8.59
  11  -3  -4  126.48    9.50
  11   3  -4  128.14    8.43
  11   3  -4  133.33    8.57
  11   3  -4  120.71    8.82
  11  -3  -3  929.26   25.01
  11  -3  -3  987.39   26.86
  11   3  -3  955.26   23.29
  11   3  -3  980.79   24.65
  11  -3  -2  157.88   10.37
  11  -3  -2  170.15   11.10
  11   3  -2  150.94    9.46
  11   3  -2  160.19    9.69
  11   3  -2  171.38   10.15
  11  -3  -1  874.79   23.89
  11  -3  -1  851.53   24.63
  11   3  -1  851.27   22.26
  11   3  -1  857.95   22.53
  11   3  -1  864.04   23.18
  11  -3   0   32.95    4.67
  11  -3   0   38.80    5.36
  11   3   0   27.45    4.07
  11   3   0   29.68    4.57
  11  -3   1  819.21   23.08
  11  -3   1  846.80   24.76
  11   3   1  808.58   22.68
  11   3   1  823.29   22.20
  11   3   2  167.96   10.17
  11  -3   2  142.08    9.62
  11  -3   2  176.92   11.10
  11   3   2  173.95   10.30
  11   3   3  942.04   24.60
  11  -3   3 1007.70   25.64
  11  -3   3  993.99   26.31
  11   3   3  936.69   24.21
  11   3   4  113.62    8.57
  11  -3   4  122.65    9.22
  11  -3   4  133.15    9.97
  11   3   4  123.07    8.80
  11   3   5  267.87   13.16
  11  -3   5  245.51   12.81
  11  -3   5  273.29   14.01
  11   3   5  267.10   12.74
  11   3   6   29.70    4.59
  11  -3   6   29.65    4.48
  11  -3   6   23.09    4.07
  11   3   7   53.81    5.95
  11  -3   7   48.62    5.77
  11   3   7   57.13    6.20
  11   3   8  119.31    9.33
  11  -3   8  118.71    9.13
  11   3   8  143.61    9.42
  11   3   9  458.17   17.76
  11   3   9  445.43   16.78
  11   3  10   13.42    2.93
  11  -3  10   16.66    3.42
  11   3  10   13.38    2.90
  11   3  11   86.55    7.96
  11  -3  11   81.08    7.94
  11   3  11   69.33    7.20
  11   3  12   60.42    6.62
  11  -3  12   56.47    6.51
  11   3  12   60.37    6.56
  11   3  13   62.51    7.05
  11  -3  13   54.56    6.68
  11   3  13   55.65    6.27
  11   3  14   44.01    5.88
  11   3  14   39.18    5.19
  11   3  15   10.16    3.24
  11  -3  15   11.99    3.12
  11   3  16    1.27    2.13
  11  -3  16    0.09    1.34
  11   3  17   31.81    5.19
  11  -3  17   42.13    6.38
  11   3  18   58.18    7.07
  11  -3  18   55.39    6.82
  11   3  19   14.18    3.52
  11  -3  19   15.71    4.22
  11   3  20   10.22    3.47
  11  -3  20   19.93    4.06
  11   3  21    2.94    2.29
  11  -3  21    8.86    2.96
  11   3  22   10.69    3.59
  11   3  23   30.87    5.40
  11   3  24   20.56    5.08
  11   3  25   39.39    6.44
  11  -4 -24    3.52    2.70
  11  -4 -23    3.87    1.54
  11  -4 -22   10.12    3.34
  11  -4 -21    5.73    2.85
  11  -4 -20    0.99    1.13
  11  -4 -19    4.29    2.56
  11   4 -19    2.16    1.62
  11  -4 -18    1.84    2.38
  11   4 -18   -0.17    1.52
  11  -4 -17    1.70    1.84
  11  -4 -17    1.08    1.17
  11   4 -17    1.64    1.87
  11  -4 -16    3.45    2.84
  11  -4 -16    1.18    1.34
  11   4 -16   -1.16    1.41
  11  -4 -15    1.33    1.57
  11   4 -15    2.47    1.71
  11  -4 -15    5.87    2.34
  11  -4 -14    1.31    1.72
  11  -4 -14    0.41    2.48
  11   4 -14    0.45    1.61
  11   4 -13   -0.19    1.20
  11  -4 -13   -0.20    1.14
  11  -4 -13    0.98    2.22
  11   4 -12   20.77    3.94
  11  -4 -12   17.10    3.68
  11  -4 -12   25.09    4.45
  11   4 -11    7.82    2.31
  11  -4 -11    6.57    2.17
  11  -4 -11   10.38    3.36
  11  -4 -10   21.41    4.21
  11  -4 -10   24.89    4.61
  11   4 -10   33.58    4.82
  11   4  -9    5.74    2.37
  11  -4  -9    5.60    2.31
  11  -4  -9    3.11    1.77
  11  -4  -8   61.18    7.02
  11   4  -8   60.71    6.45
  11  -4  -8   57.33    6.61
  11   4  -7   14.62    3.32
  11   4  -7   10.10    2.48
  11  -4  -7    9.88    2.67
  11  -4  -7    3.80    1.85
  11   4  -6    2.20    1.67
  11  -4  -6    4.07    2.05
  11   4  -6    2.69    1.32
  11  -4  -6    4.88    2.02
  11   4  -5    2.94    1.88
  11  -4  -5    0.70    1.57
  11   4  -5    1.30    1.14
  11  -4  -5    1.02    1.92
  11  -4  -4  388.15   16.66
  11  -4  -4  369.86   16.74
  11   4  -4  401.47   15.72
  11   4  -4  425.87   16.93
  11  -4  -3   48.11    5.84
  11  -4  -3   42.36    5.78
  11   4  -3   38.74    5.00
  11   4  -3   45.16    5.64
  11   4  -2  113.38    8.22
  11  -4  -2   95.17    8.38
  11  -4  -2  105.53    9.13
  11   4  -2  104.36    7.78
  11   4  -2  100.86    8.17
  11   4  -1  127.96    8.95
  11  -4  -1  135.58    9.75
  11  -4  -1  127.35    9.87
  11   4  -1  128.51    8.73
  11   4  -1  123.56    9.12
  11   4   0    1.21    1.58
  11  -4   0    1.91    1.17
  11   4   0    0.71    0.88
  11  -4   0   -0.22    1.33
  11   4   1  151.41   10.00
  11  -4   1  142.26    9.81
  11   4   1  151.38   10.03
  11  -4   2   88.07    7.83
  11   4   2   80.61    7.46
  11  -4   2   97.42    8.88
  11   4   2   94.30    7.81
  11   4   3   44.08    5.34
  11  -4   3   51.24    6.28
  11  -4   3   36.11    4.94
  11   4   3   55.44    6.09
  11   4   4  371.93   15.91
  11   4   4  375.49   16.13
  11  -4   4  418.48   17.14
  11  -4   4  392.37   17.02
  11   4   5    4.05    1.17
  11  -4   5    7.02    2.82
  11   4   5    2.86    2.11
  11  -4   5    3.16    2.09
  11   4   6    3.03    1.50
  11  -4   6    5.00    2.23
  11   4   6    6.27    2.42
  11  -4   6    4.79    2.00
  11   4   7    8.68    2.70
  11  -4   7    5.85    1.47
  11   4   7    5.72    2.68
  11  -4   7    3.92    1.47
  11   4   8   69.20    6.67
  11   4   8   61.54    6.60
  11  -4   8   59.88    6.50
  11  -4   8   55.66    6.71
  11   4   9    3.19    2.04
  11  -4   9    0.80    1.00
  11   4   9    3.46    2.06
  11  -4   9    5.19    2.10
  11   4  10   24.17    4.03
  11   4  10   31.15    5.16
  11  -4  10   28.32    4.70
  11   4  11   10.00    2.86
  11  -4  11    5.02    0.93
  11   4  11    5.20    2.62
  11   4  12   21.05    4.09
  11  -4  12   24.15    4.35
  11   4  12   17.11    3.82
  11   4  13    0.65    1.07
  11  -4  13   -1.20    1.70
  11   4  13   -0.04    1.19
  11   4  14   -0.04    1.35
  11  -4  14   -0.88    2.10
  11   4  14    0.56    1.98
  11   4  15    8.72    2.68
  11  -4  15    3.78    2.84
  11   4  15    7.18    2.51
  11  -4  16    0.12    1.35
  11   4  16    1.24    1.34
  11  -4  17    0.82    1.39
  11   4  17    1.28    1.51
  11  -4  18    0.54    1.91
  11   4  18   -0.26    0.99
  11  -4  19    2.49    1.80
  11   4  19    2.80    2.40
  11   4  20    1.72    1.52
  11   4  21    3.82    1.93
  11   4  22   11.06    4.03
  11   4  23    8.30    3.32
  11   4  24    2.34    1.75
  11  -5 -22   18.19    4.04
  11  -5 -21    2.50    1.32
  11  -5 -20   16.64    3.96
  11  -5 -19   10.47    3.30
  11  -5 -18   23.15    4.76
  11  -5 -18   13.88    3.89
  11   5 -18   18.18    4.23
  11  -5 -17   12.80    3.23
  11  -5 -17    6.22    2.37
  11   5 -17   13.14    3.31
  11   5 -16    1.88    1.08
  11  -5 -16    0.34    1.14
  11   5 -15   15.98    3.95
  11  -5 -15   17.97    4.04
  11  -5 -15    9.08    2.81
  11  -5 -14   32.27    5.32
  11  -5 -14   38.01    5.89
  11   5 -14   40.25    5.62
  11  -5 -13   27.34    4.96
  11  -5 -13   43.68    5.99
  11   5 -13   44.54    5.97
  11  -5 -12   10.12    3.08
  11   5 -12    8.08    2.60
  11  -5 -12    7.21    2.91
  11  -5 -11   -0.33    0.87
  11   5 -11    2.05    1.23
  11  -5 -11    0.84    1.30
  11   5 -10    0.45    1.33
  11  -5 -10    4.45    2.61
  11  -5 -10    0.78    2.05
  11  -5  -9   44.50    6.11
  11  -5  -9   41.97    5.90
  11   5  -9   48.39    6.07
  11  -5  -8  165.06   11.70
  11  -5  -8  128.58   10.19
  11   5  -8  155.61   10.85
  11  -5  -7   32.03    5.00
  11  -5  -7   30.94    5.00
  11   5  -7   34.93    5.44
  11   5  -6   17.06    3.52
  11  -5  -6   18.55    3.83
  11  -5  -6   14.82    3.77
  11   5  -5    2.78    1.73
  11  -5  -5    1.07    1.34
  11   5  -5    5.70    1.74
  11  -5  -5    2.26    2.03
  11   5  -4  156.10   10.00
  11  -5  -4  153.60   11.21
  11  -5  -4  158.28   11.09
  11   5  -4  159.08   10.85
  11   5  -3   27.13    4.39
  11  -5  -3   25.22    4.48
  11  -5  -3   34.07    4.97
  11   5  -3   29.12    4.37
  11  -5  -2   54.32    6.79
  11   5  -2   49.32    5.98
  11  -5  -2   56.18    6.68
  11   5  -2   48.61    5.86
  11   5  -1  106.16    8.61
  11  -5  -1   99.36    8.62
  11   5  -1   89.07    7.67
  11  -5  -1   98.94    8.85
  11   5   0    1.70    2.21
  11  -5   0    3.09    2.10
  11   5   0   -0.77    0.77
  11  -5   0    0.74    1.64
  11   5   1  101.74    8.66
  11  -5   1   86.78    8.00
  11   5   1  108.91    8.69
  11  -5   1   94.50    8.87
  11   5   2   52.98    5.96
  11  -5   2   51.81    6.39
  11   5   2   60.90    6.52
  11  -5   2   49.89    6.54
  11   5   3   29.75    4.74
  11  -5   3   31.32    4.98
  11   5   3   32.38    4.89
  11  -5   3   40.48    6.10
  11   5   4  161.24   10.73
  11  -5   4  172.57   11.34
  11   5   4  161.67   10.58
  11  -5   4  151.06   11.08
  11   5   5    3.94    2.02
  11  -5   5    4.02    2.38
  11  -5   5    1.84    1.56
  11   5   5    3.05    1.86
  11   5   6   18.30    3.89
  11   5   6   21.97    4.03
  11  -5   6   13.93    3.31
  11  -5   6   19.14    4.14
  11   5   7   28.19    4.81
  11  -5   7   23.93    4.62
  11   5   7   18.69    3.80
  11   5   8  141.47    9.96
  11  -5   8  142.63   10.57
  11   5   8  166.15   11.06
  11  -5   8  161.66   11.65
  11   5   9   48.19    5.91
  11  -5   9   41.81    5.83
  11   5   9   43.02    5.83
  11  -5   9   46.24    6.07
  11   5  10    2.47    1.68
  11  -5  10    0.94    2.01
  11  -5  10    1.34    1.09
  11   5  10    0.40    0.95
  11   5  11    0.42    1.94
  11  -5  11    0.65    1.08
  11  -5  11    0.68    1.16
  11   5  11    1.70    1.87
  11   5  12    9.47    3.06
  11  -5  12    4.29    2.34
  11   5  12    4.36    1.94
  11   5  13   41.93    6.02
  11  -5  13   34.78    5.62
  11   5  13   44.27    5.88
  11  -5  13   32.81    5.31
  11   5  14   35.64    5.49
  11  -5  14   33.99    5.65
  11   5  14   40.60    5.98
  11   5  15   16.53    4.01
  11  -5  15   11.50    3.93
  11   5  15   10.62    3.35
  11  -5  16    2.52    2.68
  11   5  16    2.86    2.79
  11  -5  17   13.17    3.60
  11   5  17    9.00    2.98
  11   5  18   26.93    4.92
  11  -5  18   22.70    5.77
  11   5  19   10.53    3.11
  11   5  20   12.80    3.86
  11   5  21    2.96    2.33
  11   5  22    7.55    2.44
  11  -6 -21   -0.85    1.91
  11  -6 -20    9.93    3.40
  11  -6 -19    1.43    2.17
  11  -6 -19    2.78    1.73
  11   6 -18    4.58    3.53
  11  -6 -18    2.44    2.52
  11  -6 -18    2.32    1.30
  11   6 -17    1.71    2.55
  11  -6 -17    0.48    1.40
  11  -6 -17    3.00    2.26
  11   6 -16    1.41    2.08
  11  -6 -16    2.06    2.03
  11  -6 -16   -3.89    2.61
  11   6 -15    2.88    2.86
  11  -6 -15    4.81    2.13
  11  -6 -15    5.56    2.32
  11   6 -14   14.46    3.71
  11  -6 -14    5.01    2.92
  11  -6 -14   10.09    3.36
  11   6 -13    8.82    2.84
  11  -6 -13    6.67    3.38
  11  -6 -13    9.32    3.45
  11   6 -12    0.18    1.34
  11  -6 -12   -0.93    1.89
  11  -6 -12    3.87    2.70
  11  -6 -11    2.48    2.49
  11   6 -11    1.03    1.93
  11  -6 -11    2.08    2.47
  11  -6 -10   22.75    4.40
  11   6 -10   19.56    3.85
  11  -6 -10   21.86    4.59
  11  -6  -9    0.24    1.14
  11   6  -9    2.58    1.50
  11  -6  -9    3.97    2.36
  11  -6  -8   18.88    3.74
  11   6  -8   12.42    3.54
  11  -6  -8   21.74    4.23
  11  -6  -7    4.56    1.97
  11   6  -7    3.34    1.89
  11  -6  -7    3.83    1.95
  11   6  -6   21.51    3.93
  11  -6  -6   18.83    4.47
  11  -6  -6   23.75    4.59
  11  -6  -5    5.39    2.70
  11   6  -5    9.58    3.04
  11  -6  -5    5.73    2.03
  11   6  -4    1.36    1.89
  11  -6  -4   -0.49    1.02
  11   6  -4    1.98    1.21
  11  -6  -4    1.16    2.19
  11   6  -3    3.44    2.34
  11  -6  -3    2.45    1.06
  11  -6  -3    4.00    2.41
  11   6  -3    1.52    1.83
  11   6  -2   47.04    5.78
  11   6  -2   29.69    5.01
  11  -6  -2   50.64    6.57
  11  -6  -2   39.22    5.51
  11   6  -1    1.83    1.71
  11  -6  -1    2.71    1.72
  11  -6  -1    6.81    3.31
  11   6  -1    4.76    1.44
  11   6   0    0.63    1.55
  11  -6   0   -0.14    0.97
  11  -6   0    1.30    1.46
  11   6   0    0.20    1.47
  11   6   1    5.67    2.53
  11  -6   1    1.68    1.43
  11  -6   1    5.73    2.81
  11   6   1    6.63    2.64
  11   6   2   44.94    5.88
  11   6   2   36.12    5.36
  11  -6   2   40.07    6.25
  11  -6   2   38.29    6.08
  11   6   3    1.33    1.69
  11  -6   3    4.06    2.10
  11  -6   3    2.05    1.97
  11   6   3    0.77    1.60
  11   6   4    1.49    1.21
  11   6   4    2.95    1.40
  11  -6   4    5.50    2.29
  11  -6   4    2.33    1.14
  11   6   5    8.03    3.35
  11   6   5    6.25    2.38
  11  -6   5    2.91    2.13
  11  -6   5    1.77    2.48
  11   6   6   27.76    4.47
  11  -6   6   15.24    3.89
  11   6   6   24.17    4.50
  11  -6   6   25.36    5.06
  11   6   7    4.08    2.19
  11   6   7    0.48    1.49
  11  -6   7    1.55    1.50
  11  -6   7    3.72    1.97
  11   6   8   22.71    4.20
  11   6   8   14.30    3.14
  11  -6   8   23.10    4.10
  11  -6   8   16.66    3.82
  11   6   9    3.19    0.92
  11   6   9    5.16    2.05
  11  -6   9    4.49    2.47
  11  -6   9    3.28    2.70
  11   6  10   28.53    5.05
  11  -6  10   21.88    4.19
  11   6  10   31.46    5.24
  11  -6  10   28.05    4.96
  11   6  11    5.77    2.31
  11   6  11    3.00    2.36
  11  -6  11    0.38    1.24
  11  -6  11    3.26    2.19
  11   6  12   -0.47    1.42
  11   6  12    3.28    2.52
  11  -6  12   -0.36    2.28
  11  -6  12    1.02    1.46
  11   6  13   13.22    3.28
  11   6  13   11.05    3.30
  11  -6  13    7.59    3.06
  11  -6  13    7.28    3.98
  11   6  14   10.91    2.91
  11   6  14    9.36    3.21
  11  -6  14    9.74    3.36
  11  -6  14    5.45    2.34
  11   6  15    3.35    2.20
  11   6  15   -0.51    2.17
  11  -6  15    4.90    2.78
  11  -6  15    4.26    2.28
  11  -6  16    2.21    2.74
  11  -6  16    3.35    2.67
  11   6  16    3.72    2.66
  11  -6  17    1.45    1.92
  11  -6  17    5.09    4.02
  11   6  17   -0.86    1.95
  11  -6  18    2.19    3.10
  11   6  18    1.24    1.85
  11   6  19    2.91    3.08
  11   6  20   11.83    4.02
  11   6  21    2.06    1.73
  11  -7 -18    8.34    3.03
  11  -7 -18    9.02    3.25
  11   7 -17    3.77    2.50
  11  -7 -17    4.49    2.68
  11  -7 -17    6.09    3.12
  11   7 -16    2.45    1.49
  11  -7 -16    0.19    1.69
  11  -7 -16    3.39    2.32
  11   7 -15   12.48    3.66
  11  -7 -15    8.27    3.06
  11  -7 -15   11.22    3.27
  11  -7 -14   35.93    5.49
  11  -7 -14   32.79    5.48
  11   7 -14   34.54    5.77
  11  -7 -13   32.33    5.57
  11  -7 -13   24.74    4.92
  11   7 -13   37.75    5.86
  11   7 -12   15.53    4.04
  11  -7 -12   11.35    3.82
  11  -7 -12   13.03    4.14
  11   7 -11    2.70    2.27
  11  -7 -11    7.10    3.32
  11  -7 -11    3.23    2.33
  11   7 -10    3.24    2.28
  11  -7 -10    3.43    2.56
  11  -7 -10    3.85    1.67
  11   7  -9   20.75    4.29
  11  -7  -9   13.60    4.08
  11  -7  -9   21.08    4.58
  11  -7  -8   51.08    6.78
  11  -7  -8   65.07    7.65
  11   7  -8   57.66    7.10
 -11   7  -7   66.21    8.35
  11  -7  -7   52.43    7.06
  11  -7  -7   60.83    7.36
  11   7  -6   28.33    5.01
  11  -7  -6   16.36    3.68
 -11   7  -6   16.50    3.94
  11  -7  -6   20.95    5.07
  11  -7  -5    0.47    1.31
  11   7  -5    0.06    1.19
  11  -7  -5    0.71    1.36
  11  -7  -4   19.16    3.95
  11   7  -4   19.43    4.42
  11  -7  -4   22.75    4.75
  11   7  -3   68.03    7.62
  11   7  -3   64.14    7.19
  11  -7  -3   62.12    7.29
  11  -7  -3   57.27    6.86
  11  -7  -2   15.82    3.91
  11   7  -2    8.61    3.03
  11  -7  -2   11.82    3.83
  11   7  -2   14.79    3.57
  11  -7  -1    2.01    1.14
  11   7  -1    1.68    1.48
  11  -7  -1    0.50    1.99
  11   7  -1    5.36    2.51
  11   7   0    2.39    1.89
  11  -7   0    2.91    2.20
  11   7   0    0.57    1.80
  11  -7   0    0.05    2.12
  11   7   1    0.11    0.97
  11  -7   1   -0.29    1.09
  11   7   1   -0.16    1.23
  11  -7   1   -0.56    1.49
  11   7   2   12.71    3.49
  11  -7   2   17.24    3.73
  11   7   2   12.79    3.61
  11  -7   2   10.20    3.07
  11   7   3   58.80    6.74
  11   7   3   61.86    7.06
  11  -7   3   65.68    8.13
  11  -7   3   70.52    7.63
  11  -7   4   20.98    4.91
  11   7   4   27.75    4.86
  11   7   4   24.42    4.60
  11  -7   4   31.55    5.31
  11   7   5    0.20    1.10
  11   7   5    1.40    1.18
  11  -7   5    3.35    1.95
  11  -7   5    2.39    2.23
  11   7   6   16.28    4.08
  11   7   6   18.41    3.91
  11  -7   6   24.32    4.85
  11  -7   6   21.58    5.42
  11   7   7   68.89    7.74
  11   7   7   60.31    7.11
  11  -7   7   57.41    7.47
  11  -7   7   57.56    7.05
  11   7   8   63.44    7.56
  11   7   8   59.47    7.24
  11  -7   8   56.55    7.10
  11  -7   8   52.54    6.87
  11   7   9   22.41    4.54
  11   7   9   20.77    4.58
  11  -7   9   20.33    4.57
  11  -7   9   21.26    5.33
  11   7  10    0.66    1.71
  11   7  10    5.10    2.33
  11  -7  10    8.21    2.67
  11  -7  10   -0.38    1.61
  11   7  11    4.65    2.72
  11   7  11    2.69    1.99
  11  -7  11    4.88    2.93
  11  -7  11    3.67    1.79
  11   7  12   17.29    3.78
  11   7  12   14.54    3.82
  11  -7  12   20.65    4.64
  11  -7  12   15.52    4.51
  11   7  13   39.92    6.34
  11  -7  13   24.53    5.29
  11   7  13   39.47    5.91
  11  -7  13   31.96    5.74
  11   7  14   27.95    5.36
  11  -7  14   28.78    5.45
  11   7  14   32.26    5.41
  11   7  15    5.31    1.88
  11   7  15    5.54    2.59
  11  -7  15    7.38    2.82
  11   7  16    1.00    1.71
  11   7  16    6.61    3.34
  11   7  17    6.44    3.38
  11   7  18    9.48    3.30
  11   8 -15    5.10    2.36
  11  -8 -15    0.47    2.14
  11  -8 -15    2.62    1.63
  11   8 -14   -1.11    1.28
  11  -8 -14    0.65    1.39
  11  -8 -14    1.46    2.03
  11   8 -13    4.69    2.58
  11  -8 -13    0.25    1.51
  11  -8 -13    1.16    1.64
  11   8 -12    0.04    1.67
  11  -8 -12   -0.30    1.69
  11  -8 -12    0.58    1.43
  11   8 -11    3.10    2.15
  11  -8 -11    4.72    3.15
  11  -8 -11   -0.52    1.64
  11   8 -10    0.32    1.35
  11  -8 -10   -0.80    1.97
  11  -8 -10   -1.22    1.91
  11   8  -9    4.34    1.88
  11  -8  -9    4.25    2.83
  11  -8  -9    3.54    1.32
  11   8  -8    4.17    2.66
  11  -8  -8    2.63    2.68
  11  -8  -8    0.78    1.51
  11   8  -7    1.95    1.89
  11  -8  -7   -1.10    2.14
  11  -8  -7    0.02    1.99
  11   8  -6    0.12    1.67
 -11   8  -6    2.13    1.23
  11  -8  -6    4.00    2.63
  11  -8  -6   -0.81    1.33
  11  -8  -5    7.24    3.08
  11   8  -5    1.76    1.89
 -11   8  -5    1.60    2.72
  11  -8  -5    2.22    1.42
  11  -8  -4    4.30    1.43
  11   8  -4    3.59    1.59
 -11   8  -4    2.35    1.22
  11  -8  -4   -0.70    1.33
  11  -8  -3    6.83    3.48
  11   8  -3    1.30    1.83
 -11   8  -3    2.09    1.71
  11  -8  -3    2.13    2.41
  11  -8  -2    1.91    1.09
  11   8  -2    0.62    1.73
 -11   8  -2    3.93    1.81
  11  -8  -2    1.92    1.66
  11  -8  -1   12.56    3.56
  11   8  -1   22.17    4.62
  11   8  -1    5.93    2.36
 -11   8  -1   15.53    4.07
  11  -8  -1   20.89    4.70
  11  -8   0    2.18    1.99
  11   8   0    1.16    2.28
  11   8   0    2.13    1.85
 -11   8   0    2.72    2.17
  11  -8   0    2.94    2.01
  11  -8   1   21.40    4.70
  11   8   1   17.88    4.15
  11   8   1   12.77    3.70
  11  -8   1   15.71    3.94
  11  -8   2    2.63    2.42
  11   8   2    1.21    1.66
  11   8   2   -1.22    2.01
  11  -8   2   -0.62    2.41
  11  -8   3    0.26    1.34
  11   8   3   -0.82    1.39
  11   8   3    1.96    1.68
  11  -8   3    0.98    2.30
  11  -8   4   -2.16    2.34
  11   8   4   -0.14    2.12
  11   8   4    0.88    1.72
  11  -8   4    4.85    3.93
  11  -8   5   -0.14    1.18
  11   8   5    3.13    1.78
  11   8   5    1.95    1.98
  11  -8   5    0.39    1.46
  11  -8   6    4.58    2.68
  11   8   6    4.77    2.45
  11   8   6    3.55    2.57
  11  -8   6    1.72    2.69
  11  -8   7   -0.39    1.24
  11   8   7    0.24    1.31
  11   8   7    0.57    1.03
  11  -8   7   -0.43    1.83
  11  -8   8    4.53    2.32
  11   8   8    0.61    1.64
  11   8   8    1.39    1.91
  11  -8   8    2.54    1.86
  11  -8   9    7.88    2.65
  11   8   9    3.39    1.65
  11   8   9    5.61    3.04
  11  -8  10    1.23    1.40
  11   8  10   -1.01    1.45
  11   8  10    3.13    2.36
  11  -8  11    2.33    1.73
  11   8  11    0.16    1.78
  11   8  11    1.18    2.10
  11  -8  12   -0.49    1.96
  11   8  12   -2.21    1.63
  11   8  12    2.81    1.55
  11  -8  13    2.01    2.89
  11   8  13    0.77    1.97
  11   8  13   -0.60    2.60
  11  -8  14   -0.85    2.14
  11   8  14   -1.81    1.82
  11   8  14   -2.17    2.12
  11   8  15   -0.93    1.77
  11   8  15    5.59    3.35
  11   9 -11   -0.26    1.98
  11  -9 -11    2.35    2.41
  11  -9 -11   -0.86    2.46
  11   9 -10   -2.53    2.50
  11  -9 -10    1.43    2.57
  11  -9 -10    0.08    1.58
  11   9  -9   10.41    3.62
  11  -9  -9    9.65    3.71
  11  -9  -9   11.12    3.16
  11   9  -8    6.54    2.83
  11  -9  -8   16.22    3.68
  11  -9  -8    7.82    3.08
  11   9  -7   24.50    5.33
  11  -9  -7   29.96    5.36
  11  -9  -7   33.15    5.67
  11  -9  -6    3.39    1.64
  11  -9  -6    2.67    1.68
  11   9  -5    6.09    2.88
 -11   9  -5    5.92    3.14
  11  -9  -5    9.63    3.05
  11  -9  -5   13.55    4.23
  11   9  -4    3.87    2.27
 -11   9  -4    6.79    3.30
  11  -9  -4    2.89    1.67
  11  -9  -4    0.42    1.77
  11   9  -3   64.69    7.98
 -11   9  -3   67.78    8.12
  11  -9  -3   74.88    8.82
  11  -9  -3   70.45    8.06
  11   9  -2    9.22    3.22
 -11   9  -2   11.07    3.75
  11  -9  -2   14.25    3.72
  11  -9  -2    5.67    3.26
  11   9  -1    4.72    2.44
 -11   9  -1    2.64    2.43
  11  -9  -1    1.92    2.05
  11  -9  -1   -0.37    1.17
  11  -9   0    2.83    2.44
  11   9   0   -1.09    1.37
 -11   9   0    0.92    1.03
  11  -9   0    4.29    2.73
  11  -9   1    3.68    2.15
  11   9   1    1.96    1.77
  11   9   1    2.42    1.37
 -11   9   1    2.61    2.70
  11  -9   1    4.08    3.30
  11  -9   2   14.30    3.88
  11   9   2    7.49    3.09
  11   9   2   11.26    3.52
 -11   9   2    8.43    3.03
  11   9   3   87.09    8.71
 -11   9   3   81.51    8.75
  11   9   3   71.74    8.12
  11  -9   3   63.81    8.00
  11  -9   4    0.22    1.56
  11   9   4    4.56    2.96
  11   9   4    5.77    2.09
 -11   9   4    0.46    1.95
  11   9   5    4.00    2.54
 -11   9   5    0.80    1.19
  11  -9   6    5.54    3.03
  11   9   6    3.83    2.11
  11   9   6    4.31    2.12
 -11   9   6   11.37    3.98
  11  -9   7   24.04    4.60
  11   9   7   26.22    5.33
  11   9   7   29.78    5.27
 -11   9   7   32.12    5.48
  11  -9   8    4.84    2.86
  11   9   8   13.10    4.00
  11   9   8   10.29    3.38
 -11   9   8    4.37    2.42
  11  -9   9    3.53    2.23
  11   9   9   11.85    3.58
  11   9   9   12.46    3.56
 -11   9   9   11.40    3.42
  11  -9  10    0.26    1.53
  11   9  10    1.72    1.41
  11   9  10    4.04    2.66
 -11   9  10   -2.30    2.46
  11  -9  11   -2.81    1.94
  11   9  11   -0.35    1.89
  11   9  11    0.15    2.59
 -11   9  11    2.57    2.43
  12   0 -23    4.76    1.37
  12   0 -22    5.59    2.88
  12   0 -21   -1.11    1.55
  12   0 -20   14.89    4.19
  12   0 -19   44.25    6.12
  12   0 -18   36.55    5.60
  12   0 -17   95.84    8.99
  12   0 -16   62.76    7.27
  12   0 -15    3.94    1.76
  12   0 -14  133.27   10.30
  12   0 -13  262.58   14.11
  12   0 -12   -0.71    0.74
  12   0 -12  106.98    9.15
  12   0 -11  113.98    8.35
  12   0 -11  128.49    9.77
  12   0 -10  165.92   10.50
  12   0 -10  159.89   10.86
  12   0  -9   38.20    4.96
  12   0  -9   26.59    4.39
  12   0  -8   92.72    7.63
  12   0  -8  108.40    8.76
  12   0  -7   12.84    3.19
  12   0  -7   15.85    3.59
  12   0  -6   82.40    7.21
  12   0  -6   77.95    7.24
  12   0  -5  139.50    9.35
  12   0  -5  137.16    9.73
  12   0  -5  151.99    9.81
  12   0  -4   75.28    6.86
  12   0  -4   70.32    7.03
  12   0  -4   76.96    6.90
  12   0  -3   16.37    3.32
  12   0  -3    9.92    2.77
  12   0  -3   15.11    3.24
  12   0  -2  290.18   13.44
  12   0  -2  264.88   13.43
  12   0  -2  287.91   13.30
  12   0  -1  575.58   18.98
  12   0  -1  573.66   19.76
  12   0  -1  607.06   19.39
  12   0   0  298.38   13.74
  12   0   0  310.44   14.40
  12   0   0  313.33   13.74
  12   0   1  611.99   19.52
  12   0   1  618.88   20.42
  12   0   1  554.05   18.12
  12   0   2  260.09   12.91
  12   0   2  297.69   14.17
  12   0   2  290.59   13.29
  12   0   3   18.75    3.60
  12   0   3   24.09    3.94
  12   0   4   75.15    6.85
  12   0   4   76.40    6.76
  12   0   5  128.62    9.20
  12   0   5  154.85    9.53
  12   0   6   67.18    6.74
  12   0   6   67.80    6.31
  12   0   7    8.04    2.45
  12   0   7   17.91    3.14
  12   0   8  108.32    8.55
  12   0   8   98.80    7.54
  12   0   9   29.79    4.60
  12   0   9   29.79    4.26
  12   0  10  163.14   10.66
  12   0  10  173.57   10.13
  12   0  11  129.97    9.78
  12   0  12  123.88    9.51
  12   0  13  276.12   14.32
  12   0  14  146.87   10.71
  12   0  15    3.55    2.21
  12   0  16   64.62    7.04
  12   0  17  109.51    9.67
  12   0  18   26.67    4.87
  12   0  19   41.84    5.81
  12   0  20   27.99    4.83
  12   0  21    2.66    1.38
  12   0  22    5.31    3.19
  12   0  23    0.60    1.43
  12   0  24   13.11    4.16
  12   0  25   26.65    5.32
  12  -1 -25    1.49    2.25
  12  -1 -24    2.49    1.90
  12  -1 -23    2.58    2.33
  12  -1 -22    6.28    2.95
  12  -1 -21    7.62    2.97
  12  -1 -20    2.23    1.78
  12   1 -19   -4.35    1.25
  12  -1 -19    2.78    2.24
  12   1 -18    2.22    2.03
  12  -1 -18    0.14    1.91
  12   1 -17    7.08    2.74
  12  -1 -17   12.45    3.34
  12   1 -16    3.80    2.37
  12  -1 -16    3.05    2.27
  12   1 -15    2.33    1.92
  12  -1 -15    5.59    2.21
  12   1 -14    7.77    2.85
  12  -1 -14    7.17    2.37
  12  -1 -13    5.06    3.04
  12   1 -13    5.77    2.54
  12  -1 -13    0.28    0.98
  12  -1 -12    5.50    2.60
  12   1 -12    5.97    2.36
  12  -1 -12    3.61    1.84
  12  -1 -11   25.30    4.24
  12   1 -11   32.44    4.86
  12  -1 -11   25.36    4.54
  12   1 -11   35.59    5.14
  12  -1 -10   13.64    3.10
  12   1 -10   16.61    3.24
  12  -1 -10   22.29    3.92
  12   1 -10   11.88    3.19
  12   1 -10   23.01    3.82
  12  -1  -9   27.80    4.23
  12   1  -9   19.43    3.57
  12  -1  -9   23.91    4.16
  12   1  -9   24.41    4.33
  12   1  -9   24.77    4.05
  12  -1  -8   10.21    2.67
  12   1  -8   11.53    2.79
  12  -1  -8   12.07    3.15
  12   1  -8    8.06    2.59
  12   1  -8   11.28    2.96
  12  -1  -7    2.48    1.31
  12   1  -7    1.91    1.41
  12  -1  -7    1.51    0.92
  12   1  -7    1.13    1.59
  12   1  -7    0.41    0.77
  12  -1  -6   11.27    2.62
  12   1  -6    8.49    2.59
  12  -1  -6    8.79    2.81
  12   1  -6    4.59    1.49
  12   1  -6    8.85    2.37
  12  -1  -5   26.18    4.19
  12   1  -5   18.47    3.46
  12  -1  -5   22.70    4.34
  12   1  -5   20.32    3.51
  12   1  -5   21.84    3.86
  12  -1  -4   50.90    5.83
  12   1  -4   39.75    4.84
  12  -1  -4   48.30    6.02
  12   1  -4   50.61    5.99
  12   1  -4   29.52    4.47
  12  -1  -3  117.09    8.60
  12   1  -3  119.05    8.40
  12  -1  -3  126.78    9.55
  12   1  -3  109.88    8.44
  12   1  -3   92.00    7.54
  12  -1  -2   63.34    6.36
  12   1  -2   56.10    5.72
  12  -1  -2   67.75    6.85
  12   1  -2   63.64    6.51
  12   1  -2   67.04    6.42
  12  -1  -1   37.56    5.04
  12   1  -1   25.53    3.90
  12  -1  -1   25.15    4.01
  12   1  -1   21.84    3.83
  12   1  -1   22.54    3.54
  12   1   0   12.04    2.95
  12  -1   0   10.66    2.47
  12  -1   0    9.07    2.64
  12   1   0    6.92    2.33
  12   1   0   10.12    2.33
  12  -1   1   20.96    3.71
  12   1   1   24.51    4.00
  12  -1   1   34.77    5.14
  12   1   1   25.79    4.08
  12   1   1   28.26    4.02
  12  -1   2   65.90    6.56
  12   1   2   64.40    6.37
  12  -1   2   68.66    6.96
  12   1   2   58.91    5.86
  12  -1   3  115.56    8.57
  12   1   3  102.23    8.15
  12  -1   3  112.41    8.92
  12   1   3  109.88    8.06
  12  -1   4   48.21    5.73
  12   1   4   38.41    5.06
  12   1   4   42.63    5.02
  12   1   5   17.57    3.29
  12  -1   5   17.08    3.54
  12   1   5   18.79    3.45
  12   1   6    9.68    2.20
  12  -1   6    8.69    2.57
  12   1   6    9.57    2.18
  12   1   7    0.76    1.55
  12  -1   7    1.71    1.83
  12   1   7    1.94    1.50
  12   1   8   12.76    3.11
  12  -1   8    8.57    2.50
  12   1   8   11.07    2.61
  12   1   9   16.45    3.27
  12  -1   9   26.58    4.32
  12   1   9   22.79    4.18
  12   1  10   19.97    3.67
  12  -1  10   16.06    3.39
  12   1  10   13.70    2.95
  12   1  11   26.52    4.49
  12  -1  11   17.70    3.54
  12   1  11   18.12    3.33
  12   1  12    6.03    2.78
  12  -1  12    6.77    2.68
  12   1  12    1.14    1.32
  12   1  13    1.58    1.28
  12  -1  13    0.76    1.43
  12   1  14    5.67    2.09
  12  -1  14    5.13    2.29
  12   1  15    2.16    1.50
  12  -1  15    2.06    1.47
  12   1  16    5.83    2.24
  12  -1  16    4.65    2.31
  12   1  17    8.34    2.93
  12  -1  17   12.17    3.54
  12   1  18    1.09    0.98
  12  -1  18    0.41    1.36
  12   1  19   -0.66    1.45
  12  -1  19   -0.56    2.06
  12   1  20    4.42    2.44
  12  -1  20    2.52    2.35
  12   1  21    3.64    2.06
  12  -1  21    2.28    1.79
  12   1  22   11.75    3.69
  12  -1  22   10.55    3.70
  12   1  23    5.78    3.33
  12  -1  23    2.25    1.47
  12   1  24    6.41    2.76
  12   1  25   -0.77    2.46
  12  -2 -24   18.16    4.10
  12  -2 -23    0.76    1.78
  12  -2 -22   10.85    3.08
  12  -2 -21    8.05    2.27
  12  -2 -20   16.08    3.80
  12  -2 -19   14.51    3.71
  12  -2 -18   30.82    5.75
  12  -2 -17   31.86    5.58
  12  -2 -16   24.14    4.23
  12   2 -16   18.38    3.99
  12  -2 -15   15.15    4.29
  12   2 -15   26.08    4.61
  12  -2 -14   35.21    5.36
  12   2 -14   40.08    5.73
  12  -2 -14   45.50    6.26
  12   2 -13   77.15    7.57
  12  -2 -13   76.27    7.93
  12   2 -13   82.90    7.96
  12  -2 -13   77.78    7.72
  12   2 -12   59.17    6.54
  12  -2 -12   57.77    6.95
  12   2 -12   56.67    6.55
  12  -2 -12   69.38    7.43
  12   2 -11   30.28    4.81
  12  -2 -11   34.00    5.31
  12   2 -11   34.45    4.85
  12  -2 -11   36.58    5.11
  12  -2 -10   42.41    5.60
  12  -2 -10   30.48    5.12
  12   2 -10   40.17    5.42
  12   2 -10   29.74    4.79
  12   2  -9   67.34    6.43
  12  -2  -9   64.66    7.02
  12   2  -9   65.45    7.04
  12   2  -9   59.97    6.39
  12  -2  -8   96.61    8.25
  12   2  -8   97.63    7.76
  12  -2  -8   98.25    8.88
  12   2  -8   89.51    8.05
  12   2  -8  100.65    8.19
  12  -2  -7   45.94    5.80
  12   2  -7   49.34    5.37
  12  -2  -7   56.90    6.68
  12   2  -7   34.80    5.09
  12   2  -7   54.40    6.04
  12  -2  -6   39.48    5.19
  12   2  -6   25.52    4.07
  12  -2  -6   42.13    5.76
  12   2  -6   30.94    4.71
  12   2  -6   33.55    4.77
  12  -2  -5   79.23    7.51
  12   2  -5   76.41    6.63
  12  -2  -5   70.59    7.32
  12   2  -5   79.32    7.28
  12   2  -5   78.44    7.22
  12  -2  -4  141.76    9.61
  12   2  -4  127.26    8.69
  12  -2  -4  138.53   10.23
  12   2  -4  124.66    9.21
  12   2  -4  147.29    9.68
  12  -2  -3   32.67    4.43
  12   2  -3   21.55    3.54
  12   2  -3   22.84    4.06
  12  -2  -3   23.16    4.08
  12   2  -3   24.22    4.09
  12  -2  -2  177.88   10.81
  12   2  -2  173.44   10.17
  12  -2  -2  170.17   11.17
  12   2  -2  178.32   10.71
  12   2  -2  181.67   10.77
  12  -2  -1  292.33   13.77
  12   2  -1  276.66   12.98
  12  -2  -1  294.00   14.56
  12   2  -1  290.07   13.79
  12   2  -1  279.37   13.23
  12  -2   0  151.42   10.02
  12   2   0  159.04    9.85
  12  -2   0  167.17   11.13
  12   2   0  140.65    9.60
  12   2   0  159.86   10.10
  12  -2   1  276.27   13.73
  12  -2   1  310.66   14.81
  12   2   1  290.38   13.55
  12   2   1  293.48   13.45
  12  -2   2  168.11   10.73
  12  -2   2  157.67   10.81
  12   2   2  162.55   10.16
  12   2   2  182.66   10.67
  12  -2   3   28.43    4.38
  12  -2   3   23.95    4.25
  12   2   3   24.35    4.12
  12   2   3   31.00    4.23
  12  -2   4  125.79    9.28
  12  -2   4  130.95    9.70
  12   2   4  141.74    9.66
  12   2   4  124.86    8.73
  12  -2   5   73.84    7.05
  12  -2   5   73.90    7.40
  12   2   5   78.10    7.43
  12   2   5   84.84    7.24
  12  -2   6   23.92    4.08
  12   2   6   30.78    4.62
  12   2   6   33.26    4.57
  12  -2   7   42.05    5.29
  12   2   7   35.67    4.85
  12   2   7   34.27    4.78
  12  -2   8  102.10    8.66
  12   2   8   92.95    7.96
  12   2   8  102.98    8.17
  12  -2   9   59.15    6.48
  12   2   9   65.43    6.93
  12   2   9   61.73    6.48
  12  -2  10   31.01    4.91
  12   2  10   40.58    5.55
  12   2  10   31.17    4.56
  12   2  11   24.34    3.92
  12  -2  11   33.81    5.22
  12   2  11   35.46    4.74
  12  -2  12   58.20    6.47
  12   2  12   61.81    6.76
  12   2  12   47.12    5.77
  12  -2  13   81.71    7.85
  12   2  13   90.04    8.71
  12   2  13   77.08    7.04
  12  -2  14   38.06    5.62
  12   2  14   42.45    5.99
  12   2  15   12.92    3.27
  12  -2  15   12.87    3.76
  12   2  16   17.64    3.98
  12  -2  16   13.07    3.61
  12  -2  17   25.05    4.83
  12   2  17   27.71    5.16
  12  -2  18   33.34    5.22
  12   2  18   36.57    5.84
  12   2  19    8.60    2.55
  12  -2  19   15.06    4.12
  12   2  20   10.69    3.54
  12  -2  20    7.65    3.61
  12   2  21    8.33    3.48
  12  -2  21    9.47    2.53
  12   2  22   14.50    3.30
  12  -2  22   13.46    3.62
  12   2  23    3.69    2.43
  12   2  24   21.33    4.67
  12  -3 -24   -0.09    1.09
  12  -3 -23    4.24    1.58
  12  -3 -22    1.16    1.34
  12  -3 -21    7.28    3.64
  12  -3 -20    4.65    2.70
  12  -3 -19    0.02    1.56
  12   3 -19    1.04    1.29
  12  -3 -18   16.10    3.98
  12   3 -18   11.49    3.07
  12  -3 -17    4.62    1.95
  12   3 -17    5.20    2.16
  12  -3 -16    0.63    1.26
  12   3 -16    2.48    1.59
  12  -3 -15    0.22    1.04
  12  -3 -15    2.54    1.94
  12   3 -15    0.51    1.59
  12  -3 -14    3.55    1.24
  12  -3 -14    5.79    2.81
  12   3 -14    3.03    2.35
  12  -3 -13    2.75    1.45
  12  -3 -13    1.42    1.41
  12   3 -13    0.18    1.47
  12  -3 -12   28.46    4.72
  12   3 -12   31.41    4.94
  12  -3 -12   33.76    5.23
  12  -3 -11   22.31    4.31
  12  -3 -11   28.34    4.97
  12   3 -11   20.69    3.99
  12  -3 -10   19.40    4.00
  12  -3 -10   25.62    4.93
  12   3 -10   21.24    3.74
  12   3  -9   15.30    3.46
  12  -3  -9   15.82    3.27
  12  -3  -9   18.83    3.82
  12   3  -8   13.56    3.24
  12  -3  -8   13.62    3.24
  12  -3  -8    6.71    2.72
  12   3  -8   10.84    2.49
  12   3  -7    5.93    2.22
  12  -3  -7    4.52    1.95
  12  -3  -7    1.98    1.42
  12   3  -7    4.56    2.04
  12   3  -7    3.35    2.04
  12   3  -6    2.33    1.54
  12   3  -6    0.49    1.27
  12  -3  -6    3.04    1.14
  12  -3  -6    4.38    2.60
  12   3  -6    3.61    2.13
  12   3  -5   14.98    3.32
  12   3  -5   18.69    3.38
  12  -3  -5   16.81    3.61
  12  -3  -5   15.35    4.13
  12   3  -5   15.09    3.23
  12  -3  -4  108.50    8.67
  12  -3  -4  111.29    9.37
  12   3  -4  102.83    7.96
  12   3  -4  101.81    8.14
  12   3  -4  101.20    8.31
  12  -3  -3  191.68   11.60
  12  -3  -3  176.15   11.60
  12   3  -3  177.72   10.85
  12   3  -3  187.91   10.85
  12   3  -3  175.47   10.91
  12  -3  -2   88.92    7.86
  12  -3  -2   85.87    8.18
  12   3  -2   92.08    7.65
  12   3  -2   86.49    7.36
  12   3  -2  100.95    8.15
  12   3  -1   15.07    3.54
  12   3  -1   17.24    3.35
  12  -3  -1   12.83    2.93
  12  -3  -1   14.41    3.24
  12   3  -1   18.06    3.28
  12   3   0   15.62    3.31
  12   3   0   13.00    3.10
  12  -3   0   14.39    3.41
  12  -3   0    5.76    1.84
  12   3   0   13.08    3.47
  12   3   1   15.77    3.16
  12  -3   1   23.42    4.01
  12  -3   1   21.65    4.03
  12   3   1   20.00    3.74
  12  -3   2   87.59    7.94
  12  -3   2   93.31    8.47
  12   3   2   79.49    7.34
  12   3   2  100.56    7.95
  12  -3   3  188.23   11.49
  12  -3   3  176.72   11.48
  12   3   3  192.01   11.48
  12   3   3  181.36   10.87
  12  -3   4   92.94    8.00
  12  -3   4  113.47    9.30
  12   3   4  101.14    8.07
  12   3   4   90.16    7.72
  12   3   5   13.90    3.29
  12   3   5   18.65    3.55
  12  -3   5   16.67    3.58
  12  -3   5   14.40    3.19
  12   3   6    0.34    1.31
  12   3   6    3.76    2.07
  12  -3   6    0.63    0.98
  12  -3   6    5.75    2.40
  12   3   7    4.05    2.03
  12   3   7    4.38    1.45
  12  -3   7    3.61    1.96
  12  -3   7    8.43    2.49
  12   3   8   18.40    3.97
  12   3   8    9.45    2.94
  12  -3   8   13.61    3.46
  12   3   9   12.35    3.03
  12   3   9   11.97    3.08
  12  -3   9   19.56    4.21
  12   3  10   23.25    4.14
  12  -3  10   22.43    4.35
  12   3  10   16.32    3.23
  12   3  11   26.54    4.82
  12   3  11   19.20    4.16
  12  -3  11   18.26    3.72
  12  -3  12   42.55    5.85
  12   3  12   35.33    5.19
  12   3  13   -0.20    2.01
  12   3  13    0.06    1.08
  12  -3  13    2.76    1.52
  12   3  14    3.44    1.37
  12   3  14    3.68    1.96
  12  -3  14    0.56    1.39
  12   3  15    0.12    1.24
  12  -3  15   -0.01    1.42
  12   3  16    1.07    1.66
  12  -3  16    0.81    2.07
  12   3  17    7.43    2.90
  12  -3  17    1.04    2.25
  12   3  18   15.12    3.66
  12  -3  18   18.34    4.24
  12   3  19    2.00    1.80
  12  -3  19    1.82    2.00
  12   3  20    1.49    1.70
  12  -3  20    0.19    1.70
  12   3  21    1.27    1.23
  12  -3  21    3.76    1.40
  12   3  22    5.00    2.10
  12   3  23    2.03    1.39
  12   3  24   -0.57    1.68
  12  -4 -23   11.10    3.57
  12  -4 -22   22.87    5.05
  12  -4 -21    5.58    3.38
  12  -4 -20   16.76    4.43
  12  -4 -19    2.87    1.74
  12   4 -19    4.17    2.28
  12  -4 -18    9.61    2.92
  12   4 -18   11.31    3.28
  12  -4 -17   15.55    4.07
  12   4 -17    6.68    2.54
  12  -4 -16    9.08    3.31
  12   4 -16   12.36    3.33
  12  -4 -16    9.03    3.20
  12  -4 -15    3.55    1.50
  12  -4 -15    5.32    3.18
  12   4 -15   11.60    3.52
  12  -4 -14   14.68    3.37
  12  -4 -14   11.07    3.78
  12   4 -14   11.98    3.31
  12  -4 -13   22.02    4.10
  12  -4 -13   28.06    4.87
  12   4 -13   20.23    3.77
  12  -4 -12    2.02    1.31
  12  -4 -12    0.08    1.72
  12   4 -11    3.52    2.01
  12  -4 -11    6.26    1.94
  12  -4 -11    1.94    1.75
  12   4 -10   20.37    3.62
  12  -4 -10   17.43    3.79
  12  -4 -10   21.16    4.38
  12  -4  -9   39.49    5.39
  12   4  -9   52.48    6.21
  12  -4  -9   48.55    6.28
  12  -4  -8  112.95    9.74
  12   4  -8  101.45    8.72
  12  -4  -8  101.11    8.90
  12  -4  -7  113.43    9.77
  12   4  -7  122.56    9.47
  12  -4  -7  126.24   10.00
  12  -4  -6   39.88    5.85
  12  -4  -6   30.01    5.46
  12   4  -6   46.52    5.36
  12   4  -6   37.90    5.29
  12  -4  -5   93.03    8.32
  12  -4  -5  102.81    9.14
  12   4  -5   88.05    7.46
  12   4  -5   79.84    7.50
  12  -4  -4  194.29   12.10
  12  -4  -4  193.33   12.53
  12   4  -4  175.93   10.81
  12   4  -4  177.77   11.34
  12  -4  -3  123.13    9.67
  12  -4  -3  136.10   10.77
  12   4  -3  136.42    9.48
  12   4  -3  140.79   10.12
  12  -4  -2  157.66   10.92
  12  -4  -2  180.17   12.07
  12   4  -2  171.87   10.80
  12   4  -2  159.25   10.66
  12  -4  -1   65.81    6.78
  12  -4  -1   75.78    7.93
  12   4  -1   75.93    7.09
  12   4  -1   80.66    7.49
  12   4  -1   80.93    7.80
  12   4   0   18.69    3.85
  12  -4   0   21.12    3.98
  12   4   0   19.63    3.74
  12  -4   0   16.67    3.73
  12   4   0   14.12    3.24
  12   4   1   78.57    7.30
  12  -4   1   70.79    7.36
  12  -4   1   75.12    7.87
  12   4   1   66.99    7.01
  12   4   2  183.21   11.24
  12  -4   2  175.26   11.47
  12  -4   2  162.54   11.49
  12   4   2  156.12   10.76
  12   4   3  150.48   10.26
  12  -4   3  144.48   10.38
  12  -4   3  155.68   11.18
  12   4   3  139.63   10.18
  12   4   4  194.37   11.85
  12  -4   4  183.22   11.77
  12  -4   4  173.66   11.92
  12   4   5   93.20    8.24
  12  -4   5   90.14    8.44
  12  -4   5   89.37    8.36
  12   4   5   82.66    7.76
  12   4   6   44.25    5.77
  12  -4   6   46.97    6.04
  12  -4   6   55.43    6.96
  12   4   6   47.95    6.11
  12   4   7  104.88    8.75
  12  -4   7  111.43    8.93
  12  -4   7  116.39    9.63
  12   4   7  117.70    9.07
  12   4   8  102.55    8.72
  12  -4   8   99.45    8.91
  12  -4   8  108.53    9.37
  12   4   8  112.47    8.91
  12   4   9   42.50    5.69
  12  -4   9   51.91    6.28
  12  -4   9   51.24    6.43
  12   4   9   49.24    5.89
  12   4  10   17.11    3.55
  12  -4  10   16.47    3.90
  12   4  10   18.79    3.79
  12  -4  10   12.82    3.55
  12   4  11    4.63    1.52
  12  -4  11    5.43    2.18
  12   4  11    6.73    2.71
  12   4  12    2.83    2.55
  12  -4  12    1.02    1.26
  12   4  12    2.30    1.80
  12   4  13   22.12    4.03
  12   4  13   25.25    4.86
  12  -4  13   23.91    4.56
  12   4  14   20.19    4.00
  12  -4  14    9.98    2.81
  12   4  14   15.79    3.99
  12  -4  15    3.89    2.07
  12   4  15    7.14    2.14
  12  -4  16    8.39    3.24
  12   4  16   12.56    3.79
  12  -4  17    6.99    2.97
  12   4  17    7.84    3.17
  12  -4  18   13.43    3.75
  12   4  18    9.72    3.19
  12  -4  19    4.85    1.81
  12   4  19    3.81    2.27
  12  -4  20   10.91    3.80
  12   4  20    4.52    2.98
  12   4  21   11.53    3.84
  12   4  22   19.41    4.61
  12   4  23    9.94    3.98
  12  -5 -21    0.62    1.33
  12  -5 -20    1.40    2.05
  12  -5 -19    1.49    1.40
  12   5 -19   20.05    5.66
  12  -5 -18    4.40    2.66
  12   5 -18   -0.25    2.00
  12  -5 -17    4.65    2.26
  12  -5 -17    4.94    2.24
  12   5 -17    9.47    2.75
  12  -5 -16    1.22    2.36
  12  -5 -16    0.33    1.89
  12   5 -16    0.74    1.83
  12   5 -15   -0.65    1.46
  12  -5 -15   -0.66    1.12
  12  -5 -15    1.80    2.60
  12   5 -14   -0.41    1.04
  12  -5 -14   -2.08    1.64
  12  -5 -14    0.35    1.05
  12  -5 -13    7.33    2.69
  12   5 -13   11.79    3.32
  12  -5 -13   10.34    3.55
  12   5 -12    6.90    2.58
  12  -5 -12    3.71    2.05
  12  -5 -12    3.73    1.94
  12   5 -11    5.59    2.16
  12  -5 -11    4.04    2.26
  12  -5 -11    6.23    2.86
  12   5 -10   14.74    3.42
  12  -5 -10   21.03    4.15
  12  -5 -10   12.76    3.50
  12   5  -9    5.89    1.82
  12  -5  -9    9.22    2.97
  12  -5  -9   11.69    2.94
  12   5  -8    0.15    1.62
  12  -5  -8   -0.37    1.28
  12  -5  -8    0.97    2.67
  12   5  -7    7.00    2.39
  12  -5  -7    4.11    1.71
  12  -5  -7    2.02    1.45
  12   5  -6    0.46    1.37
  12  -5  -6    4.17    2.06
  12  -5  -6    0.50    1.64
  12   5  -5   -0.24    1.30
  12  -5  -5   -0.08    1.57
  12   5  -5    0.78    1.73
  12  -5  -5   -0.21    1.74
  12   5  -4   -0.08    1.39
  12  -5  -4    0.35    1.29
  12   5  -4   -0.85    1.16
  12  -5  -4   -0.38    1.52
  12   5  -3    7.31    2.58
  12   5  -3   17.17    3.33
  12  -5  -3   10.47    2.96
  12  -5  -3   17.69    4.33
  12  -5  -2   29.21    4.69
  12   5  -2   25.94    4.26
  12  -5  -2   28.35    5.31
  12   5  -2   34.25    4.93
  12   5  -1   18.15    3.65
  12  -5  -1   12.32    3.27
  12   5  -1   21.26    3.94
  12  -5  -1   23.05    4.10
  12   5   0    7.34    2.74
  12  -5   0    8.91    2.25
  12   5   0    6.25    1.83
  12  -5   0    7.96    2.89
  12   5   1   23.66    4.18
  12  -5   1   14.54    3.31
  12   5   1   21.67    3.92
  12  -5   1   19.55    4.23
  12  -5   2   37.12    5.20
  12   5   2   32.03    5.12
  12  -5   2   32.40    5.21
  12   5   2   32.88    4.96
  12   5   3   14.32    3.64
  12  -5   3   12.98    3.56
  12  -5   3   24.82    5.06
  12   5   3   14.98    3.35
  12   5   4    0.12    1.51
  12  -5   4    3.41    2.85
  12   5   4    0.39    0.95
  12  -5   4   -0.46    2.00
  12   5   5   -0.35    1.10
  12  -5   5    1.01    1.53
  12   5   5    0.36    0.96
  12  -5   5    3.11    2.58
  12   5   6    0.98    1.46
  12  -5   6    4.55    2.33
  12   5   6    1.33    2.17
  12  -5   6    2.05    1.88
  12   5   7    5.47    2.12
  12  -5   7    5.82    2.82
  12   5   7    4.61    2.68
  12  -5   7    2.88    2.48
  12   5   8    1.87    1.74
  12  -5   8    3.67    2.39
  12   5   8    1.68    0.99
  12  -5   8   -0.86    1.78
  12   5   9   11.08    2.99
  12  -5   9    5.76    2.76
  12   5   9    9.40    3.03
  12  -5   9   12.85    3.55
  12   5  10   16.36    4.18
  12  -5  10   17.11    3.98
  12   5  10   20.56    4.16
  12  -5  10   17.36    4.07
  12   5  11    6.40    2.53
  12  -5  11    4.75    2.34
  12   5  11    6.90    3.10
  12  -5  11    7.64    2.61
  12   5  12    8.41    3.09
  12  -5  12    6.55    2.33
  12   5  12    6.93    2.70
  12  -5  12    3.21    1.50
  12   5  13   10.45    3.27
  12  -5  13    9.65    3.25
  12   5  13    4.06    2.58
  12   5  14    1.40    2.28
  12  -5  14    0.75    2.30
  12   5  14   -0.73    1.71
  12  -5  14    2.42    2.93
  12  -5  15    0.36    1.83
  12   5  15    3.22    2.29
  12  -5  16   -0.09    1.86
  12   5  16    2.48    2.20
  12  -5  17    7.22    3.42
  12   5  17    9.58    2.96
  12  -5  18    5.95    3.48
  12   5  18    6.89    2.99
  12   5  19    5.89    2.64
  12   5  20   -0.36    1.59
  12   5  21    3.74    2.34
  12  -6 -19   11.69    4.02
  12  -6 -18   -1.73    1.36
  12  -6 -18    2.08    1.23
  12   6 -18    1.54    2.07
  12   6 -17   27.20    4.93
  12  -6 -17   22.22    4.93
  12  -6 -17   26.12    5.15
  12   6 -16   12.52    3.66
  12  -6 -16    7.00    2.53
  12  -6 -16   10.08    3.30
  12   6 -15    1.39    1.43
  12  -6 -15    1.70    1.68
  12  -6 -15    1.19    1.87
  12  -6 -14   30.11    5.74
  12   6 -14   37.08    5.52
  12  -6 -14   25.10    4.96
  12  -6 -13   44.49    6.65
  12  -6 -13   41.58    6.39
  12   6 -13   49.75    6.34
  12   6 -12    4.41    1.64
  12  -6 -12    1.18    1.68
  12  -6 -12    1.43    1.17
  12  -6 -11   21.21    4.50
  12  -6 -11   17.46    3.87
  12   6 -11   31.01    5.09
  12  -6 -10   22.49    4.48
  12   6 -10   20.46    4.02
  12  -6 -10   20.06    4.48
  12  -6  -9   18.14    3.97
  12   6  -9   18.02    4.26
  12  -6  -9   11.09    3.15
  12  -6  -8   57.42    7.21
  12  -6  -8   64.90    7.36
  12   6  -8   78.41    8.11
  12  -6  -7   77.25    8.14
  12  -6  -7   68.71    7.68
  12   6  -7   85.02    8.33
  12   6  -6   18.68    4.46
  12  -6  -6   17.51    4.32
  12  -6  -6   12.68    2.41
  12  -6  -5   18.72    4.27
  12  -6  -5   29.94    5.15
  12   6  -5   27.75    4.78
  12   6  -4   45.25    6.20
  12  -6  -4   53.27    6.98
  12  -6  -4   47.70    6.23
  12   6  -4   45.95    5.85
  12   6  -3   71.06    7.40
  12  -6  -3   85.69    8.80
  12  -6  -3   84.97    8.67
  12   6  -3   74.76    7.63
  12   6  -2   58.75    7.02
  12  -6  -2   68.97    7.89
  12  -6  -2   60.61    7.14
  12   6  -2   74.51    7.62
  12   6  -1   13.46    3.65
  12  -6  -1   11.59    3.25
  12   6  -1   18.09    3.60
  12  -6  -1   14.05    4.07
  12   6   0    0.39    1.56
  12  -6   0    1.57    1.89
  12   6   0   -0.23    1.44
  12  -6   0    2.96    2.52
  12   6   1   19.34    4.21
  12   6   1   24.31    4.56
  12  -6   1   12.14    3.47
  12  -6   1   20.06    4.19
  12  -6   2   73.00    8.14
  12   6   2   76.12    7.86
  12  -6   2   80.56    8.49
  12  -6   3   75.83    8.02
  12   6   3   84.92    8.23
  12   6   3   84.99    8.12
  12  -6   3   83.55    8.63
  12   6   4   51.20    6.48
  12   6   4   49.54    6.06
  12  -6   4   51.48    6.96
  12  -6   5   26.17    4.88
  12   6   5   15.68    3.73
  12   6   5   31.46    4.92
  12  -6   5   13.26    3.39
  12   6   6   16.46    4.27
  12  -6   6   19.85    4.21
  12  -6   6   22.38    4.91
  12   6   6   14.44    3.86
  12   6   7   85.62    8.34
  12  -6   7   66.57    7.66
  12   6   7   80.18    8.21
  12  -6   7   72.40    8.13
  12   6   8   56.88    7.09
  12  -6   8   57.31    7.56
  12   6   8   59.94    6.82
  12  -6   8   48.10    6.78
  12   6   9   14.68    4.17
  12  -6   9    6.45    3.14
  12  -6   9    5.74    1.89
  12   6   9   14.74    3.38
  12  -6  10   28.57    5.48
  12   6  10   29.65    5.08
  12   6  10   24.20    4.67
  12  -6  10   29.58    5.35
  12   6  11   17.05    3.76
  12   6  11   25.89    4.61
  12  -6  11   24.01    4.87
  12  -6  11   19.02    4.74
  12   6  12    2.48    2.70
  12  -6  12    2.94    2.17
  12  -6  12    3.51    2.83
  12   6  12    2.57    1.15
  12   6  13   39.93    5.82
  12  -6  13   49.90    7.35
  12   6  13   44.96    6.12
  12  -6  13   46.96    7.06
  12  -6  14   23.00    4.81
  12  -6  14   21.22    4.75
  12   6  14   23.95    4.77
  12   6  15    4.77    2.89
  12  -6  15    5.58    2.79
  12  -6  15    6.42    2.59
  12   6  15    1.54    1.98
  12  -6  16   12.57    3.80
  12  -6  16   13.28    4.32
  12   6  16   12.04    3.40
  12  -6  17   11.50    3.45
  12   6  17   16.55    4.22
  12  -6  17   16.50    5.12
  12   6  18    2.09    1.93
  12  -6  18    1.22    3.11
  12   6  19   15.38    4.00
  12  -6  19   20.35    5.92
  12   7 -17   -1.43    2.42
  12  -7 -17   -1.31    1.95
  12  -7 -17    1.32    2.26
  12   7 -16    0.23    2.32
  12  -7 -16    0.04    2.54
  12  -7 -16   -0.70    2.42
  12   7 -15   12.07    3.58
  12  -7 -15   12.74    3.81
  12  -7 -15   14.71    3.90
  12   7 -14    1.28    1.59
  12  -7 -14    0.87    1.90
  12  -7 -14    1.92    2.22
  12   7 -13    9.77    3.07
  12  -7 -13   11.96    4.06
  12  -7 -13   10.57    3.32
  12   7 -12    5.21    2.78
  12  -7 -12    7.53    3.06
  12  -7 -12    4.56    2.70
  12   7 -11   -0.30    1.91
  12  -7 -11   -1.51    2.19
  12  -7 -11   -0.35    1.33
  12   7 -10    8.20    2.83
  12  -7 -10    8.64    3.38
  12  -7 -10    7.80    3.44
  12   7  -9   26.05    4.99
  12  -7  -9   30.60    5.35
  12  -7  -9   31.28    5.77
  12  -7  -8    8.16    2.94
  12   7  -8    5.19    2.94
  12  -7  -8    5.12    2.09
  12  -7  -7   11.02    3.65
  12   7  -7   16.60    3.89
  12  -7  -7   17.22    4.53
  12   7  -6   -1.35    2.24
  12  -7  -6    1.35    1.46
  12  -7  -5    1.49    1.57
  12   7  -5   -2.10    1.85
  12  -7  -5    0.18    1.62
  12  -7  -4   17.57    4.23
  12   7  -4   17.75    4.04
  12  -7  -4   14.75    3.92
  12  -7  -3    7.05    3.05
  12   7  -3    9.37    3.09
  12  -7  -3    5.26    1.40
  12  -7  -2    7.36    2.94
  12   7  -2    8.06    2.49
  12  -7  -2    6.86    3.27
  12   7  -2   10.70    3.35
  12  -7  -1   24.00    5.03
  12   7  -1   12.84    3.26
  12  -7  -1   15.26    4.24
  12   7  -1   22.41    4.81
  12   7   0   10.02    3.35
  12  -7   0    5.32    2.50
  12  -7   0   13.12    3.48
  12   7   0    5.72    2.98
  12   7   1   14.92    4.36
  12  -7   1   18.02    4.54
  12  -7   1   17.36    3.82
  12   7   1   13.32    2.98
  12   7   2   12.12    3.86
  12  -7   2    7.44    2.89
  12  -7   2    7.52    2.44
  12   7   2    6.88    2.56
  12   7   3    8.26    2.54
  12  -7   3    7.80    2.86
  12  -7   3   12.20    3.83
  12   7   3    7.18    2.25
  12   7   4   18.18    4.68
  12  -7   4   17.46    4.17
  12  -7   4   12.73    4.03
  12   7   4   13.18    3.14
  12   7   5    2.91    2.32
  12  -7   5    0.82    1.53
  12  -7   5    1.80    2.95
  12   7   5    0.02    1.53
  12   7   6    4.13    1.90
  12  -7   6    2.97    2.19
  12  -7   6    0.40    1.72
  12   7   6    3.15    1.99
  12   7   7    6.59    2.59
  12   7   7   16.61    3.87
  12  -7   7    9.96    3.40
  12  -7   7   18.24    3.82
  12   7   8    8.07    2.94
  12   7   8    5.42    2.70
  12  -7   8    9.08    3.12
  12  -7   8    6.01    3.11
  12   7   9   28.97    5.51
  12  -7   9   28.29    5.10
  12   7   9   31.44    5.41
  12  -7   9   31.65    5.96
  12   7  10   10.86    3.50
  12   7  10   11.54    3.74
  12  -7  10   12.26    3.39
  12  -7  10    7.04    3.07
  12   7  11    0.94    2.04
  12   7  11    0.48    1.56
  12  -7  11   -1.63    1.89
  12  -7  11    0.37    2.27
  12   7  12    2.18    2.11
  12  -7  12    6.34    2.72
  12  -7  12    7.49    3.30
  12   7  12   10.47    2.83
  12   7  13   11.87    3.03
  12  -7  13    6.44    3.70
  12  -7  13    7.93    3.67
  12   7  13    7.30    2.69
  12   7  14    7.26    4.02
  12  -7  14    7.86    2.71
  12  -7  14   -1.87    2.61
  12   7  14   -0.09    1.44
  12   7  15   26.29    5.31
  12  -7  15   18.26    5.15
  12   7  15   10.70    3.38
  12  -7  16    1.15    2.76
  12   7  16    2.64    2.20
  12   7  17    3.63    2.80
  12   8 -13   12.96    3.63
  12  -8 -13   21.53    4.73
  12  -8 -13   17.85    4.38
  12   8 -12   23.04    4.95
  12  -8 -12   15.02    4.23
  12  -8 -12   15.67    4.29
  12   8 -11    4.37    1.43
  12  -8 -11   -0.47    1.76
  12  -8 -11    4.80    1.94
  12   8 -10    6.93    2.69
  12  -8 -10   10.45    4.10
  12  -8 -10    9.42    3.94
  12   8  -9    8.13    2.83
  12  -8  -9    6.97    2.61
  12  -8  -9    4.93    2.18
  12   8  -8    7.18    2.46
  12  -8  -8    6.56    3.46
  12  -8  -8   10.99    3.39
  12   8  -7   14.71    3.88
  12  -8  -7   20.55    4.45
  12  -8  -7   21.74    5.03
  12  -8  -6   11.43    3.55
  12   8  -6   11.56    3.29
  12  -8  -6   13.43    3.68
  12  -8  -5   -0.78    1.24
  12   8  -5    3.54    1.15
 -12   8  -5    1.10    1.29
  12  -8  -4    1.16    1.69
  12   8  -4    3.48    2.81
 -12   8  -4    6.38    2.81
  12  -8  -4    5.73    3.31
  12  -8  -3   24.08    5.02
  12   8  -3   17.09    4.05
 -12   8  -3   21.54    4.73
  12  -8  -3   31.39    5.78
  12  -8  -2   11.40    3.81
  12   8  -2   11.23    3.32
 -12   8  -2    2.08    2.40
  12  -8  -2    4.85    1.72
  12  -8  -1    0.64    1.36
  12   8  -1    1.80    2.49
  12  -8  -1    0.95    2.74
  12  -8   0    0.13    2.17
  12   8   0    1.59    2.33
  12  -8   0   -1.43    2.43
  12   8   0    0.43    1.41
  12  -8   1    1.22    1.39
  12   8   1    2.34    2.43
  12  -8   1    0.06    2.51
  12   8   1   -0.07    1.69
  12  -8   2    4.08    2.31
  12   8   2    7.95    2.75
  12  -8   2    6.13    2.27
  12   8   2    7.33    2.57
  12   8   3   26.95    5.20
  12  -8   3   31.02    5.47
  12   8   3   27.74    5.04
  12  -8   3   12.45    4.47
  12   8   4    1.23    1.19
  12  -8   4    4.65    2.77
  12   8   4    8.55    3.05
  12  -8   4    3.49    1.65
  12   8   5   -0.90    2.46
  12  -8   5    0.90    2.30
  12   8   5   -0.01    1.52
  12  -8   5    4.18    3.15
  12   8   6   12.70    3.66
  12  -8   6   10.44    2.95
  12   8   6   10.30    3.12
  12  -8   6   10.15    4.33
  12   8   7   22.60    4.88
  12  -8   7   28.12    5.43
  12   8   7   25.66    4.64
  12  -8   7   23.32    4.69
  12   8   8   13.41    3.89
  12  -8   8    5.71    2.56
  12   8   8    5.82    2.98
  12  -8   8    4.98    2.46
  12   8   9    5.08    1.46
  12  -8   9   10.83    4.24
  12   8   9   11.76    3.20
  12   8  10    3.74    2.15
  12  -8  10    8.36    2.60
  12   8  10    9.64    2.76
  12   8  11    3.63    2.23
  12  -8  11    3.40    2.86
  12   8  11    5.93    1.55
  12   8  12   22.96    5.01
  12  -8  12   15.59    4.04
  12   8  12   15.92    3.60
  12   8  13   19.30    4.46
  12  -8  13   18.53    4.07
  12   8  13   17.79    4.83
  12   9  -8   -2.61    2.95
  12  -9  -8   -0.20    2.02
  12  -9  -8   -0.68    1.70
  12   9  -7    3.94    2.55
  12  -9  -7    1.31    2.14
  12  -9  -7    3.65    2.56
  12   9  -6    3.75    2.81
  12  -9  -6   -0.83    1.61
  12  -9  -6    5.22    2.93
  12   9  -5    5.26    2.77
  12  -9  -5    3.68    2.97
  12  -9  -5    2.45    1.95
  12   9  -4    0.65    1.18
 -12   9  -4   -1.48    2.40
  12  -9  -4    0.27    1.52
  12  -9  -4    2.22    1.90
  12   9  -3    7.68    3.06
 -12   9  -3   13.59    4.33
  12  -9  -3   15.21    4.48
  12  -9  -3    3.93    2.03
  12  -9  -2   -0.22    1.61
  12   9  -2    1.58    1.97
 -12   9  -2   -0.68    2.30
  12  -9  -2   -2.24    2.36
  12  -9  -1    1.30    2.34
  12   9  -1    0.48    1.53
  12  -9  -1    0.01    1.74
  12  -9   0    0.94    1.86
  12   9   0   -0.06    1.79
 -12   9   0   -0.34    2.01
  12  -9   0    1.49    3.49
  12   9   1    6.87    3.14
  12  -9   1    3.38    2.43
  12   9   1    3.58    2.54
 -12   9   1    3.13    2.53
  12  -9   1    1.47    2.75
  12  -9   2   -1.18    1.83
  12   9   2   -0.98    1.61
  12   9   2   -0.74    1.79
 -12   9   2    0.22    1.62
  12  -9   2    2.91    3.09
  12   9   3    8.60    3.68
  12   9   3   10.18    2.90
 -12   9   3    4.38    1.84
  12  -9   4    3.98    2.93
  12   9   4    0.89    2.77
  12   9   4   -0.59    1.13
 -12   9   4   -1.23    2.36
  12  -9   5   -3.46    2.53
  12   9   5    7.83    2.94
  12   9   5    0.53    2.87
 -12   9   5    4.01    2.45
  12  -9   6    1.31    1.12
  12   9   6    0.89    1.41
  12   9   6    0.62    1.88
 -12   9   6   -0.61    1.22
  12  -9   7    2.17    2.05
  12   9   7    2.89    1.89
  12   9   7    2.69    2.41
 -12   9   7    1.97    1.50
  12  -9   8    2.78    2.36
  12   9   8    4.31    2.62
  12   9   8    0.70    1.75
 -12   9   8    3.88    2.23
  13   0 -22   14.49    5.00
  13   0 -21   -2.01    2.20
  13   0 -20    2.44    2.69
  13   0 -19   -1.63    1.97
  13   0 -18    1.39    2.67
  13   0 -17    0.65    1.37
  13   0 -16    1.36    1.54
  13   0 -15   -0.03    1.80
  13   0 -14   -0.25    1.22
  13   0 -13    0.46    1.17
  13   0 -12    0.19    1.91
  13   0 -11    0.92    1.39
  13   0 -11   -0.80    1.59
  13   0 -10    0.31    1.37
  13   0 -10   -0.22    1.41
  13   0  -9    0.09    1.20
  13   0  -9   -0.38    1.70
  13   0  -8    0.33    1.06
  13   0  -8    0.55    0.96
  13   0  -7    1.57    1.64
  13   0  -7    0.40    1.05
  13   0  -6    0.49    1.47
  13   0  -6   -0.15    0.94
  13   0  -5   -0.26    0.82
  13   0  -5   -0.27    1.27
  13   0  -4    0.92    0.90
  13   0  -4    1.94    1.38
  13   0  -3   -0.91    1.56
  13   0  -3    0.21    1.92
  13   0  -3    2.19    2.27
  13   0  -2    0.11    1.54
  13   0  -2    0.66    1.37
  13   0  -2   -0.77    1.65
  13   0  -1   -0.15    0.76
  13   0  -1    0.56    1.55
  13   0  -1   -0.04    1.05
  13   0   0   -0.08    1.44
  13   0   0   -0.01    1.31
  13   0   0    0.50    1.61
  13   0   1    1.04    2.04
  13   0   1   -0.70    1.42
  13   0   1   -1.04    1.33
  13   0   2   -0.33    1.28
  13   0   2   -0.28    0.73
  13   0   2    1.36    1.24
  13   0   3   -0.33    1.24
  13   0   3   -0.73    1.18
  13   0   3    0.73    1.06
  13   0   4    1.67    0.93
  13   0   4    0.75    1.49
  13   0   5   -0.21    1.01
  13   0   5   -0.13    0.97
  13   0   6    1.39    1.28
  13   0   6    1.47    1.62
  13   0   7    0.48    0.99
  13   0   7    0.83    0.85
  13   0   8    0.20    1.17
  13   0   8    0.37    0.86
  13   0   9    0.18    0.95
  13   0   9   -1.01    1.56
  13   0  10   -0.16    1.39
  13   0  11   -0.25    1.84
  13   0  12    2.77    2.04
  13   0  13    0.80    1.41
  13   0  14    0.89    1.81
  13   0  15   -0.13    1.40
  13   0  16   -0.11    1.05
  13   0  17   -0.76    1.05
  13   0  18    0.44    2.35
  13   0  19    1.45    1.87
  13   0  20   -0.17    1.43
  13   0  21   -0.94    2.37
  13   0  22   -1.32    2.59
  13   0  23   -0.60    1.62
  13   0  24    1.53    2.64
  13  -1 -24   -1.21    1.63
  13  -1 -23   -0.22    1.49
  13  -1 -22   -0.69    1.37
  13  -1 -21   32.47    5.82
  13  -1 -20   46.22    6.94
  13  -1 -19    3.24    2.87
  13  -1 -18    4.76    2.88
  13   1 -17   12.82    3.74
  13  -1 -17    3.98    2.19
  13   1 -16   75.96    7.80
  13  -1 -16   54.53    6.84
  13   1 -15   20.59    4.34
  13  -1 -15   20.20    3.97
  13   1 -14   47.77    6.05
  13  -1 -14   49.78    6.59
  13   1 -13    3.66    1.63
  13  -1 -13    8.25    2.93
  13  -1 -12   32.18    5.13
  13   1 -12   34.17    5.46
  13  -1 -12   29.62    4.92
  13  -1 -11    5.51    2.82
  13  -1 -11    3.17    2.14
  13   1 -11    5.12    2.28
  13   1 -11    1.68    1.86
  13  -1 -10   67.21    7.00
  13   1 -10   78.15    7.49
  13  -1 -10   63.30    7.14
  13   1 -10   77.10    7.63
  13   1 -10   66.02    7.08
  13  -1  -9   74.41    7.67
  13   1  -9   71.35    6.70
  13  -1  -9   75.78    7.70
  13   1  -9   73.25    7.33
  13  -1  -8   11.47    3.34
  13   1  -8   16.00    3.57
  13  -1  -8    9.55    3.05
  13   1  -8    9.62    3.29
  13   1  -8    9.58    2.95
  13  -1  -7   24.26    4.24
  13   1  -7   25.83    4.18
  13  -1  -7   19.17    3.82
  13   1  -7   18.36    3.78
  13   1  -7   15.97    3.65
  13  -1  -6   41.62    5.45
  13   1  -6   41.48    5.29
  13  -1  -6   34.59    5.29
  13   1  -6   43.02    5.50
  13   1  -6   34.99    4.96
  13  -1  -5  200.58   11.89
  13   1  -5  183.67   11.28
  13  -1  -5  196.87   12.22
  13   1  -5  202.24   12.40
  13   1  -5  176.43   11.15
  13  -1  -4   28.93    4.58
  13  -1  -4   24.33    4.03
  13   1  -4   19.89    3.37
  13   1  -4   18.38    3.58
  13   1  -4   18.58    3.81
  13  -1  -3   59.49    6.42
  13   1  -3   60.77    6.52
  13  -1  -3   61.40    6.92
  13   1  -3   65.03    6.76
  13   1  -3   56.82    5.95
  13  -1  -2   66.05    6.76
  13   1  -2   75.98    7.09
  13  -1  -2   75.11    7.53
  13   1  -2   77.66    7.48
  13   1  -2   83.79    7.35
  13  -1  -1   38.81    5.28
  13   1  -1   46.23    5.42
  13  -1  -1   39.58    5.52
  13   1  -1   35.47    4.76
  13   1  -1   42.15    5.28
  13  -1   0  676.67   21.75
  13   1   0  726.59   21.92
  13  -1   0  755.94   23.70
  13   1   0  772.04   23.53
  13   1   0  695.31   21.10
  13  -1   1   46.53    5.91
  13   1   1   45.99    5.55
  13  -1   1   45.07    5.69
  13   1   1   39.67    5.37
  13   1   1   45.05    5.79
  13  -1   2   80.00    7.57
  13   1   2   85.40    7.53
  13  -1   2   88.26    8.23
  13   1   2   64.88    6.81
  13   1   2   86.61    7.77
  13  -1   3   62.98    6.59
  13   1   3   55.65    6.26
  13  -1   3   53.52    6.25
  13   1   3   57.67    6.20
  13  -1   4   21.93    3.89
  13   1   4   22.89    4.08
  13  -1   4   27.26    4.42
  13   1   4   25.66    4.14
  13  -1   5  188.68   11.54
  13   1   5  185.34   11.44
  13   1   5  177.15   10.85
  13  -1   6   38.54    5.38
  13   1   6   31.95    4.78
  13   1   6   32.68    4.70
  13   1   7   16.13    3.79
  13  -1   7    8.63    2.80
  13   1   7   17.93    3.50
  13   1   8    4.58    2.12
  13  -1   8    9.16    2.57
  13   1   8   10.78    2.52
  13  -1   9   54.43    6.47
  13   1   9   62.40    7.03
  13   1   9   70.52    6.76
  13  -1  10   78.99    7.71
  13   1  10   89.80    8.13
  13   1  10   69.44    6.70
  13   1  11    4.86    1.93
  13  -1  11    5.98    2.11
  13   1  11    3.11    2.00
  13   1  12   25.42    4.48
  13   1  12   25.37    4.11
  13   1  13    7.09    2.17
  13  -1  13    5.40    1.90
  13  -1  14   47.78    6.16
  13   1  14   54.68    6.73
  13   1  15   24.29    4.73
  13  -1  15   21.33    4.42
  13  -1  16   59.61    7.13
  13   1  16   66.38    7.54
  13   1  17    8.11    2.59
  13  -1  17    6.47    2.59
  13   1  18    3.62    1.76
  13  -1  18    0.77    1.06
  13   1  19    1.12    2.49
  13  -1  19    2.85    2.19
  13  -1  20   52.13    7.14
  13   1  20   48.79    6.66
  13   1  21   24.88    5.50
  13  -1  21   25.91    5.12
  13   1  22    5.65    2.71
  13  -1  22    2.90    1.87
  13   1  23   -0.87    2.32
  13  -1  23    2.37    2.20
  13   1  24    4.97    3.29
  13  -1  24    1.84    2.45
  13  -2 -23    6.97    3.28
  13  -2 -22   -1.51    1.28
  13  -2 -21    3.19    1.88
  13  -2 -20    1.33    1.67
  13  -2 -19   -0.96    2.07
  13  -2 -18    3.53    2.44
  13  -2 -17   31.81    5.13
  13  -2 -16    0.29    1.56
  13  -2 -15    2.68    1.03
  13   2 -15    6.07    2.85
  13  -2 -14    4.93    2.43
  13   2 -14    3.77    1.06
  13  -2 -13    6.53    2.65
  13  -2 -13    7.66    2.97
  13   2 -13    0.77    1.57
  13  -2 -12   30.67    4.59
  13   2 -12   28.12    5.44
  13  -2 -12   27.23    4.89
  13   2 -12   30.43    4.95
  13  -2 -11   89.72    8.59
  13   2 -11   94.62    8.35
  13  -2 -11   93.28    8.90
  13   2 -11   95.62    8.31
  13  -2 -10    6.22    2.40
  13  -2 -10    5.32    2.50
  13   2 -10    4.95    2.23
  13   2 -10    4.96    2.05
  13  -2  -9    6.28    2.24
  13  -2  -9    7.84    2.75
  13   2  -9    6.77    3.22
  13   2  -9    7.76    3.07
  13  -2  -8   32.49    5.07
  13   2  -8   26.34    4.16
  13   2  -8   29.87    4.52
  13  -2  -8   22.92    4.43
  13   2  -8   24.65    4.43
  13  -2  -7   17.42    3.29
  13   2  -7   21.34    3.94
  13  -2  -7   20.74    3.86
  13   2  -7   10.63    2.95
  13   2  -7   17.36    3.17
  13  -2  -6    2.49    1.90
  13  -2  -6    1.86    1.92
  13   2  -6    4.68    2.68
  13   2  -6    0.19    1.10
  13   2  -6    3.10    2.32
  13  -2  -5    0.57    1.29
  13  -2  -5    0.30    1.77
  13   2  -5    1.99    1.96
  13   2  -5   -0.08    1.16
  13   2  -5   -0.60    1.68
  13  -2  -4   13.38    2.93
  13  -2  -4   10.68    3.26
  13   2  -4    6.15    2.44
  13   2  -4   11.90    2.70
  13   2  -4    9.73    2.69
  13  -2  -3   41.15    5.50
  13   2  -3   43.12    5.22
  13  -2  -3   46.55    6.14
  13   2  -3   40.62    5.41
  13   2  -3   40.07    5.48
  13  -2  -2   20.53    3.80
  13   2  -2   19.72    3.82
  13   2  -2   21.79    4.05
  13  -2  -2   19.66    4.18
  13   2  -2   20.40    3.75
  13  -2  -1   22.94    4.12
  13   2  -1   23.27    3.84
  13  -2  -1   17.06    4.01
  13   2  -1   25.31    4.00
  13   2  -1   19.48    3.94
  13  -2   0  303.05   14.65
  13   2   0  325.32   14.69
  13  -2   0  321.45   15.85
  13   2   0  303.09   14.72
  13   2   0  309.16   14.33
  13  -2   1   19.70    4.16
  13   2   1   20.49    3.67
  13  -2   1   28.76    4.99
  13   2   1   17.26    3.72
  13   2   1   25.99    4.14
  13   2   2   17.05    3.34
  13  -2   2   25.08    4.50
  13   2   2   19.93    3.78
  13  -2   2   21.49    4.30
  13  -2   3   42.46    5.28
  13  -2   3   53.30    6.43
  13   2   3   46.52    5.51
  13   2   3   49.35    5.69
  13   2   4    8.24    2.42
  13   2   4   14.50    2.95
  13  -2   4    9.82    2.77
  13  -2   4    8.99    2.71
  13   2   5   -0.13    1.01
  13   2   5   -0.05    1.28
  13  -2   5    0.87    1.64
  13  -2   5   -0.77    1.05
  13   2   6    3.86    2.26
  13   2   6    1.50    1.45
  13  -2   6    2.55    1.61
  13  -2   6    7.74    2.86
  13   2   7   21.81    4.04
  13   2   7   17.20    3.89
  13  -2   7   23.85    4.18
  13  -2   8   31.87    4.95
  13   2   8   31.23    4.88
  13   2   8   28.32    4.39
  13   2   9    6.82    2.78
  13   2   9    3.80    2.68
  13  -2   9    7.92    2.33
  13   2  10    8.14    2.47
  13   2  10    6.53    2.17
  13  -2  10    7.23    3.08
  13  -2  11   99.79    8.76
  13   2  11   89.92    8.49
  13   2  11   77.78    7.45
  13  -2  12   21.63    4.04
  13   2  12   26.38    4.73
  13   2  12   24.13    4.22
  13   2  13    6.02    3.10
  13  -2  13    6.31    2.25
  13   2  14   -0.13    1.24
  13  -2  14    1.63    1.03
  13   2  15    4.76    2.16
  13  -2  15    1.05    1.85
  13   2  16    5.88    3.56
  13  -2  16    6.00    2.22
  13  -2  17   36.07    5.78
  13   2  17   31.81    5.22
  13   2  18    1.42    1.45
  13  -2  18    1.12    2.49
  13   2  19   -0.22    1.47
  13  -2  19   -0.36    2.04
  13   2  20   -1.19    1.82
  13  -2  20   -1.90    2.62
  13   2  21    9.12    3.26
  13  -2  21    9.39    3.64
  13   2  22    1.32    1.70
  13  -2  22    2.13    2.26
  13   2  23    5.05    1.87
  13  -2  23    4.68    2.41
  13  -3 -23   -1.62    1.51
  13  -3 -22   14.93    3.87
  13  -3 -21    1.11    1.72
  13  -3 -20    9.79    2.95
  13  -3 -19    5.60    2.66
  13  -3 -18    5.74    1.76
  13   3 -18    5.12    1.88
  13  -3 -17    8.61    3.08
  13   3 -17    4.28    2.66
  13  -3 -16  115.49   10.11
  13   3 -16  134.02   10.89
  13  -3 -15   19.95    4.06
  13   3 -15   12.74    3.50
  13  -3 -14   70.97    7.91
  13   3 -14   52.68    6.67
  13  -3 -13   18.30    4.15
  13  -3 -13   14.55    3.88
  13   3 -13   19.76    3.88
  13  -3 -12   86.95    8.92
  13   3 -12   77.70    7.74
  13  -3 -12   79.53    8.29
  13  -3 -11    3.06    1.95
  13  -3 -11    3.96    1.59
  13   3 -11    6.10    2.04
  13  -3 -10  173.56   12.08
  13   3 -10  186.61   11.69
  13  -3 -10  160.02   11.46
  13  -3  -9   21.16    4.48
  13  -3  -9   17.40    3.69
  13   3  -9   20.61    4.37
  13  -3  -8   27.84    5.06
  13  -3  -8   27.00    5.26
  13   3  -8   29.67    4.66
  13   3  -7   19.10    3.68
  13  -3  -7   20.11    4.70
  13  -3  -7   12.22    3.27
  13   3  -7   16.93    3.43
  13  -3  -6   29.48    4.83
  13   3  -6   51.27    5.85
  13  -3  -6   43.91    6.02
  13   3  -6   34.90    5.00
  13   3  -6   37.44    5.41
  13   3  -5    5.51    2.38
  13   3  -5    6.27    1.78
  13  -3  -5    3.09    1.48
  13  -3  -5    1.17    0.99
  13   3  -5    2.64    1.79
  13  -3  -4  139.26   10.22
  13   3  -4  131.95    9.39
  13  -3  -4  138.00   10.56
  13   3  -4  137.12    9.80
  13   3  -4  155.20   10.42
  13   3  -3   13.19    3.23
  13   3  -3   14.60    3.34
  13  -3  -3   19.74    4.06
  13  -3  -3   16.97    3.31
  13   3  -3   17.10    3.78
  13   3  -2    2.48    1.86
  13   3  -2    2.32    1.27
  13  -3  -2    4.55    1.95
  13  -3  -2    0.70    1.11
  13   3  -2    0.06    0.89
  13   3  -1   16.01    3.60
  13   3  -1   11.76    2.97
  13  -3  -1   11.82    3.17
  13  -3  -1    7.94    2.93
  13   3  -1   10.43    3.10
  13  -3   0   46.90    5.97
  13  -3   0   49.34    6.60
  13   3   0   53.33    6.33
  13   3   0   51.91    6.11
  13   3   0   49.43    5.87
  13   3   1   16.61    3.56
  13   3   1    9.52    2.70
  13  -3   1   12.22    3.12
  13  -3   1   13.33    3.49
  13   3   1    8.57    2.28
  13   3   2    3.68    1.61
  13   3   2    0.05    1.36
  13  -3   2    2.52    1.61
  13  -3   2   -0.24    1.73
  13   3   3   23.72    4.19
  13  -3   3   23.64    4.36
  13   3   3   18.41    3.51
  13  -3   3   12.58    3.29
  13  -3   4  148.98   10.50
  13  -3   4  137.70   10.50
  13   3   4  148.58   10.44
  13   3   4  121.46    9.26
  13   3   5    4.05    2.18
  13   3   5    4.83    2.18
  13  -3   5    4.04    1.98
  13  -3   5    8.10    3.09
  13  -3   6   35.19    5.13
  13  -3   6   29.57    4.70
  13   3   6   32.07    4.88
  13   3   6   39.87    5.40
  13   3   7   14.10    3.34
  13   3   7   18.96    3.79
  13  -3   7   19.99    3.33
  13  -3   7   17.25    3.88
  13   3   8   22.55    4.28
  13  -3   8   26.80    4.64
  13  -3   8   37.97    5.70
  13   3   8   32.01    5.02
  13   3   9   18.00    3.56
  13  -3   9   12.86    3.76
  13   3   9   24.37    4.48
  13  -3  10  179.11   12.11
  13   3  10  167.82   11.24
  13   3  10  189.82   12.25
  13   3  11    5.57    2.44
  13   3  11    3.20    1.72
  13  -3  11    5.37    2.71
  13  -3  12   84.50    8.42
  13   3  12   79.25    7.53
  13   3  12   81.55    8.11
  13   3  13   25.28    4.27
  13   3  13   19.95    4.32
  13  -3  13   25.10    4.46
  13  -3  14   66.99    7.67
  13   3  14   64.66    7.26
  13   3  15   13.69    3.97
  13  -3  15   13.16    3.45
  13  -3  16  119.02   10.27
  13   3  16  136.08   10.89
  13   3  17    5.42    2.59
  13  -3  17    7.91    3.37
  13   3  18   11.09    3.39
  13  -3  18    6.50    2.37
  13   3  19    0.94    1.27
  13  -3  19    7.01    2.96
  13   3  20   12.05    3.58
  13  -3  20   15.78    4.56
  13   3  21    6.08    2.40
  13  -3  21    6.37    2.91
  13   3  22   23.91    5.07
  13   3  23    0.28    1.59
  13  -4 -21    7.61    3.42
  13  -4 -20    2.08    1.20
  13   4 -20    8.66    3.95
  13  -4 -19    8.43    2.93
  13   4 -19   11.82    1.77
  13  -4 -18    0.70    1.48
  13   4 -18    3.47    1.90
  13  -4 -17   13.87    3.52
  13   4 -17    4.67    1.48
  13  -4 -16    2.75    1.98
  13   4 -16    3.02    1.69
  13  -4 -16    7.59    4.23
  13  -4 -15    6.86    3.03
  13  -4 -15    8.14    2.94
  13   4 -15   12.97    3.36
  13  -4 -14    3.53    2.35
  13  -4 -14    5.56    2.85
  13   4 -14    4.39    2.43
  13  -4 -13   -1.10    1.96
  13  -4 -13    1.07    1.30
  13   4 -13   -0.71    1.51
  13  -4 -12    3.79    2.05
  13  -4 -12    4.22    2.38
  13   4 -12    7.98    2.76
  13   4 -11   -1.11    1.69
  13  -4 -11   -0.20    1.36
  13  -4 -11   -0.12    1.46
  13   4 -10    4.86    2.59
  13  -4 -10    2.53    1.72
  13  -4 -10    2.35    1.71
  13  -4  -9   92.74    8.74
  13   4  -9   82.20    8.03
  13  -4  -9   88.01    8.77
  13   4  -8   -0.68    1.37
  13  -4  -8    0.11    1.30
  13  -4  -8    0.19    2.48
  13   4  -7    8.77    2.90
  13  -4  -7    4.90    1.94
  13  -4  -7    4.23    2.22
  13  -4  -6   55.46    6.67
  13  -4  -6   56.99    6.91
  13   4  -6   49.52    6.35
  13   4  -6   51.26    6.21
  13   4  -5    2.88    1.73
  13   4  -5    2.13    1.48
  13  -4  -5    2.73    1.88
  13  -4  -5    1.84    0.97
  13   4  -4   12.92    3.25
  13   4  -4   21.76    3.99
  13  -4  -4    9.93    3.19
  13  -4  -4   11.64    3.50
  13   4  -3    2.94    1.66
  13   4  -3    2.38    2.21
  13  -4  -3    1.75    1.91
  13  -4  -3    1.24    1.66
  13  -4  -2   75.02    7.66
  13  -4  -2   71.34    7.80
  13   4  -2   82.45    7.76
  13   4  -2   87.20    8.01
  13  -4  -1   32.99    5.06
  13  -4  -1   44.36    6.14
  13   4  -1   42.05    5.40
  13   4  -1   52.80    6.33
  13   4   0    0.46    1.52
  13  -4   0    2.08    1.65
  13   4   0   -0.27    1.15
  13  -4   0   -1.27    1.23
  13   4   0    0.75    1.73
  13  -4   1   41.46    5.73
  13  -4   1   40.80    5.89
  13   4   1   54.39    6.29
  13   4   1   34.60    5.49
  13  -4   2   80.91    7.88
  13  -4   2   83.03    8.44
  13   4   2   82.85    7.82
  13   4   2   74.95    7.56
  13   4   3    2.18    1.80
  13  -4   3    0.19    0.88
  13   4   3    2.09    1.70
  13  -4   3    2.45    2.12
  13  -4   4   11.70    3.41
  13   4   4   14.50    3.44
  13  -4   4   11.05    3.14
  13   4   5    2.21    2.14
  13  -4   5    3.16    1.69
  13   4   5    6.87    2.10
  13  -4   5    1.45    1.71
  13   4   6   51.33    6.27
  13  -4   6   52.15    6.58
  13  -4   6   46.92    6.62
  13   4   6   61.45    6.99
  13   4   7    4.83    2.50
  13  -4   7    4.92    1.82
  13   4   7    8.26    2.17
  13  -4   7    3.59    2.83
  13   4   8   -0.06    1.50
  13  -4   8   -0.66    2.10
  13   4   8   -0.67    1.53
  13  -4   8    0.39    2.54
  13   4   9   78.00    7.91
  13  -4   9   85.46    8.37
  13  -4   9  100.16    9.49
  13   4   9   89.14    8.58
  13   4  10    0.68    1.29
  13  -4  10    4.26    2.16
  13   4  10    1.46    1.24
  13  -4  10    1.21    1.19
  13   4  11    2.78    1.82
  13  -4  11   -0.23    0.98
  13   4  11    1.49    1.31
  13  -4  11    1.53    2.27
  13   4  12    5.54    2.66
  13  -4  12    6.60    2.90
  13   4  12    5.07    2.60
  13   4  13    0.64    2.68
  13  -4  13   -0.44    2.54
  13   4  13   -0.05    1.62
  13  -4  14    1.18    1.41
  13   4  14   -1.79    1.82
  13  -4  15    8.73    2.77
  13   4  15    8.47    2.91
  13  -4  16   -0.60    1.88
  13   4  16    1.12    1.68
  13  -4  17    7.32    3.68
  13   4  17   16.44    4.32
  13  -4  18    2.28    1.57
  13   4  18   -1.75    2.50
  13   4  19   14.77    3.94
  13  -4  19    8.30    3.32
  13   4  20    6.77    2.63
  13  -4  20   -1.16    2.36
  13   4  21   12.40    3.31
  13  -5 -20    8.59    3.15
  13  -5 -19    2.98    1.82
  13   5 -19    0.13    1.27
  13  -5 -18    2.06    2.24
  13   5 -18   -0.64    1.36
  13  -5 -17    6.20    2.07
  13   5 -17    6.96    2.32
  13  -5 -16   13.37    3.49
  13  -5 -16   11.69    3.79
  13   5 -16   16.70    4.06
  13  -5 -15    5.33    3.18
  13  -5 -15    2.28    2.47
  13   5 -15    4.87    2.48
  13  -5 -14   13.36    3.76
  13  -5 -14   17.55    4.35
  13   5 -14   13.27    3.68
  13   5 -13    6.22    2.35
  13  -5 -13   -0.71    1.97
  13  -5 -13    3.26    2.54
  13   5 -12    5.12    2.52
  13  -5 -12   12.82    3.32
  13  -5 -12   10.08    3.54
  13  -5 -11   27.25    4.87
  13  -5 -11   27.76    5.14
  13   5 -11   30.12    5.15
  13  -5 -10   15.67    3.91
  13  -5 -10   15.64    4.06
  13   5 -10   24.54    4.73
  13   5  -9    0.41    1.81
  13  -5  -9    1.08    1.91
  13  -5  -9   -0.47    2.09
  13   5  -8    5.93    2.59
  13  -5  -8    5.14    2.19
  13  -5  -8    4.15    1.82
  13  -5  -7   23.22    4.39
  13  -5  -7   28.92    5.41
  13   5  -7   27.60    4.71
  13  -5  -6   50.05    6.87
  13   5  -6   46.56    6.30
  13  -5  -6   55.02    6.92
  13   5  -5   14.99    3.56
  13  -5  -5   12.43    3.44
  13  -5  -5   11.90    3.38
  13  -5  -4   58.47    7.33
  13   5  -4   36.06    5.34
  13   5  -4   42.24    5.88
  13  -5  -4   42.93    6.41
  13  -5  -3   32.81    5.21
  13   5  -3   26.54    4.33
  13  -5  -3   39.29    6.11
  13   5  -3   43.61    6.11
  13  -5  -2   86.48    8.66
  13  -5  -2   93.22    9.04
  13   5  -2   89.69    8.30
  13   5  -2  104.18    9.06
  13  -5  -1   68.76    7.44
  13  -5  -1   71.74    8.06
  13   5  -1   70.18    7.16
  13   5  -1   64.92    7.31
  13   5   0   11.66    3.65
  13  -5   0    9.72    2.97
  13   5   0   12.95    3.27
  13  -5   0    9.33    3.79
  13   5   1   63.20    7.15
  13  -5   1   68.88    7.34
  13  -5   1   60.13    7.25
  13   5   1   70.76    7.49
  13   5   2   82.58    8.32
  13  -5   2   85.60    8.37
  13  -5   2  101.43    9.48
  13   5   3   22.71    4.65
  13  -5   3   38.48    5.83
  13  -5   3   34.65    5.39
  13   5   3   33.03    5.43
  13   5   4   47.70    6.09
  13  -5   4   54.90    6.82
  13  -5   4   55.42    7.21
  13   5   4   50.66    6.54
  13   5   5    8.77    2.52
  13  -5   5   15.20    3.98
  13   5   5    9.48    3.30
  13  -5   5   14.16    3.38
  13  -5   6   49.50    6.67
  13   5   6   47.01    6.30
  13  -5   6   58.21    7.22
  13   5   6   53.59    6.58
  13   5   7   26.65    4.79
  13   5   7   24.81    4.74
  13  -5   7   15.16    3.58
  13  -5   7   16.44    4.01
  13   5   8    0.01    2.06
  13  -5   8    2.75    1.61
  13   5   8    6.06    2.31
  13  -5   8    4.24    2.65
  13   5   9    0.94    1.85
  13  -5   9    1.50    1.31
  13   5   9    0.82    0.80
  13  -5   9    0.71    1.28
  13   5  10   25.39    4.52
  13  -5  10   13.27    3.57
  13   5  10   17.73    3.97
  13  -5  10   15.20    4.04
  13   5  11   37.58    5.81
  13  -5  11   36.98    5.81
  13  -5  11   25.81    5.00
  13   5  11   44.43    6.05
  13   5  12    9.27    3.81
  13  -5  12   11.99    3.89
  13   5  12   11.58    3.15
  13  -5  12   10.21    3.41
  13   5  13    6.51    2.32
  13  -5  13    3.25    2.27
  13   5  13    4.04    2.04
  13  -5  13    7.39    2.82
  13   5  14   12.98    3.46
  13  -5  14   13.49    3.88
  13   5  14   11.75    3.06
  13  -5  14    9.82    3.00
  13  -5  15    5.94    2.17
  13   5  15    8.46    2.95
  13  -5  15    2.40    1.93
  13  -5  16   10.50    4.29
  13   5  16   11.47    3.43
  13  -5  17   14.14    4.32
  13   5  17    7.59    2.88
  13  -5  18    4.26    1.89
  13   5  18    6.78    2.73
  13  -5  19    7.06    4.52
  13   5  19    2.51    2.99
  13   5  20   12.13    3.77
  13  -6 -18    1.13    3.21
  13  -6 -18    0.21    0.96
  13   6 -18   -4.17    3.16
  13  -6 -17   -0.49    1.81
  13  -6 -17    1.32    2.26
  13   6 -17    0.75    2.22
  13  -6 -16    1.97    1.78
  13  -6 -16    2.73    2.31
  13   6 -16   -1.42    1.56
  13   6 -15    3.89    1.99
  13  -6 -15    2.00    2.49
  13  -6 -15    1.24    1.64
  13   6 -14    5.00    2.01
  13  -6 -14    4.05    2.60
  13  -6 -14    5.95    2.73
  13   6 -13    1.83    1.57
  13  -6 -13    5.68    2.67
  13  -6 -13    5.03    3.21
  13  -6 -12   -0.22    1.26
  13   6 -12    3.38    2.47
  13  -6 -12    2.71    1.57
  13  -6 -11    7.20    2.55
  13   6 -11    3.20    2.77
  13  -6 -11    2.99    2.39
  13   6 -10    3.61    1.65
  13  -6 -10    6.03    2.88
  13  -6 -10   -1.33    1.48
  13   6  -9    4.01    1.92
  13  -6  -9    2.13    2.14
  13  -6  -9   -0.08    2.27
  13   6  -8    3.61    2.18
  13  -6  -8    3.48    1.01
  13  -6  -8    0.98    1.89
  13   6  -7    4.06    2.37
  13  -6  -7    4.61    2.54
  13  -6  -7    2.12    2.44
  13   6  -6    0.99    1.09
  13  -6  -6    3.06    1.93
  13  -6  -6    0.75    1.95
  13   6  -5    0.06    1.73
  13  -6  -5   -0.73    1.77
  13  -6  -5    2.38    2.38
  13   6  -4   -1.65    1.62
  13  -6  -4   -0.85    1.67
  13  -6  -4    0.02    1.72
  13   6  -3    9.75    2.45
  13  -6  -3    5.22    2.92
  13   6  -3    7.97    2.90
  13  -6  -3    5.82    1.84
  13   6  -2    7.88    2.07
  13  -6  -2    3.11    1.97
  13   6  -2    2.00    1.00
  13  -6  -2    2.46    2.70
  13   6  -1    6.10    2.44
  13  -6  -1    4.33    3.13
  13   6  -1    6.01    2.10
  13  -6  -1    4.17    2.10
  13   6   0   -1.11    1.06
  13  -6   0    1.14    1.14
  13   6   0    0.21    1.66
  13  -6   0    1.99    2.21
  13   6   1    5.17    2.91
  13  -6   1    3.83    2.27
  13   6   1    5.10    2.23
  13  -6   1    4.48    2.19
  13   6   2    3.51    2.48
  13  -6   2    1.99    1.75
  13   6   2    1.67    0.98
  13  -6   2    3.75    1.89
  13  -6   3    3.33    2.32
  13   6   3    7.62    3.27
  13  -6   3    2.37    1.27
  13   6   4    0.52    1.73
  13  -6   4   -1.07    1.71
  13   6   4   -0.47    1.50
  13  -6   4   -1.07    2.13
  13   6   5    0.70    1.52
  13  -6   5   -0.82    1.79
  13   6   5   -1.17    1.97
  13  -6   5    1.08    1.79
  13   6   6    1.32    1.76
  13  -6   6    1.11    1.87
  13   6   6    3.31    1.64
  13  -6   6    2.68    2.88
  13   6   7    7.14    2.38
  13  -6   7    2.46    2.21
  13   6   7    0.66    1.00
  13  -6   7    3.97    2.50
  13   6   8    0.01    1.44
  13  -6   8   -0.29    1.72
  13   6   8    1.23    1.95
  13  -6   8    1.20    2.35
  13   6   9    4.32    2.52
  13  -6   9    1.45    2.86
  13   6   9    3.95    2.56
  13  -6   9    2.84    2.75
  13   6  10    6.05    2.87
  13  -6  10    3.43    2.61
  13   6  10   -0.97    1.17
  13  -6  10    2.65    2.85
  13   6  11   11.44    4.06
  13  -6  11    0.96    2.06
  13   6  11    8.51    2.62
  13  -6  11    5.65    2.29
  13   6  12    4.48    2.70
  13  -6  12    3.16    2.04
  13   6  12    0.97    2.12
  13  -6  12    0.20    2.07
  13   6  13    5.62    3.26
  13  -6  13    2.01    1.80
  13   6  13    0.82    1.72
  13  -6  13    1.97    1.85
  13   6  14    6.61    2.64
  13  -6  14    0.27    1.51
  13   6  14    4.99    2.77
  13  -6  14    5.41    3.28
  13  -6  15    2.93    2.19
  13   6  15   -0.72    1.20
  13  -6  15    5.45    3.50
  13  -6  16   -0.42    1.74
  13   6  16    2.29    2.59
  13  -6  16   -3.47    3.33
  13  -6  17    2.89    2.59
  13   6  17   -0.11    1.35
  13  -6  17   -0.74    3.14
  13   6  18    0.11    1.28
  13  -6  18   -5.23    3.40
  13   7 -15    6.09    2.62
  13  -7 -15    3.85    1.93
  13  -7 -15    1.83    1.45
  13   7 -14    7.21    2.85
  13  -7 -14   15.64    4.68
  13  -7 -14    9.76    3.81
  13   7 -13   -0.42    1.57
  13  -7 -13   -1.97    1.83
  13  -7 -13    2.94    2.95
  13   7 -12    0.50    1.52
  13  -7 -12    2.17    1.71
  13  -7 -12    4.06    2.95
  13   7 -11    4.99    2.53
  13  -7 -11    8.84    3.90
  13  -7 -11    6.29    2.60
  13  -7 -10   27.82    5.12
  13   7 -10   25.74    4.97
  13  -7 -10   27.05    5.04
  13  -7  -9    2.03    1.03
  13   7  -9    5.64    2.94
  13  -7  -9    7.00    2.46
  13  -7  -8    6.95    2.25
  13   7  -8    6.12    2.84
  13  -7  -8   10.59    3.63
  13  -7  -7    6.38    2.72
  13   7  -7    5.30    2.49
  13  -7  -7    7.93    3.24
  13  -7  -6   26.92    4.77
  13   7  -6   27.92    5.08
  13  -7  -6   27.56    5.27
  13  -7  -5    6.95    2.87
  13   7  -5    2.49    2.05
  13  -7  -5    6.71    3.44
  13  -7  -4   17.97    3.88
  13   7  -4   19.60    4.11
  13  -7  -4   21.94    4.71
  13   7  -3    9.63    3.06
  13  -7  -3   11.33    2.80
  13  -7  -3    6.65    2.70
  13   7  -2    7.23    3.17
  13  -7  -2   14.60    3.96
  13  -7  -2    8.29    3.48
  13   7  -1   14.76    4.13
  13  -7  -1    7.65    2.76
  13   7  -1    5.50    1.75
  13  -7  -1   12.37    4.26
  13   7   0    7.15    2.38
  13  -7   0   10.01    3.51
  13   7   0    4.85    2.01
  13  -7   0    7.34    2.74
  13   7   1    9.23    3.76
  13  -7   1    6.51    2.41
  13   7   1    6.14    2.56
  13  -7   1    8.09    2.63
  13   7   2   15.06    3.73
  13  -7   2   17.55    4.22
  13  -7   2   14.34    3.92
  13   7   2   11.71    3.45
  13   7   3    9.92    3.38
  13  -7   3    5.57    2.54
  13  -7   3   10.24    3.34
  13   7   3    9.56    3.09
  13   7   4   19.00    4.25
  13  -7   4   20.32    4.17
  13  -7   4   15.45    3.87
  13   7   4   11.89    3.31
  13   7   5   -2.14    2.70
  13  -7   5    3.57    2.33
  13  -7   5    0.37    2.34
  13   7   5    1.43    1.78
  13   7   6   24.99    4.82
  13  -7   6   23.43    4.52
  13  -7   6   23.83    4.94
  13   7   6   27.92    4.97
  13   7   7    3.17    1.78
  13  -7   7    6.52    3.05
  13  -7   7    5.08    2.49
  13   7   7    4.22    1.76
  13   7   8    8.00    2.94
  13  -7   8    5.31    2.51
  13  -7   8   14.70    4.39
  13   7   8    5.21    2.68
  13   7   9    4.90    2.93
  13  -7   9    7.81    2.91
  13  -7   9    8.01    2.61
  13   7   9    4.72    2.34
  13   7  10   39.57    6.01
  13   7  10   43.20    6.32
  13  -7  10   26.41    5.89
  13  -7  10   29.78    6.25
  13   7  11    6.78    3.57
  13  -7  11   10.66    3.67
  13  -7  11    0.82    2.29
  13   7  11    6.19    2.19
  13   7  12   -0.80    2.35
  13  -7  12    4.24    2.99
  13  -7  12    1.39    1.63
  13   7  12    2.63    1.15
  13   7  13    3.76    1.72
  13  -7  13    2.00    2.47
  13  -7  13    3.48    3.05
  13   7  13    4.06    2.69
  13   7  14    7.03    3.02
  13  -7  14    8.61    3.63
  13  -7  14    8.49    2.69
  13   7  14    8.45    3.60
  13  -7  15    4.87    2.87
  13   7  15    6.69    2.66
  13   8 -11    0.36    2.15
  13  -8 -11    4.01    2.94
  13  -8 -11    4.61    1.84
  13   8 -10    0.35    1.60
  13  -8 -10    0.68    1.42
  13  -8 -10   -1.34    1.36
  13   8  -9   -1.52    1.44
  13  -8  -9    4.03    2.66
  13  -8  -9    1.53    1.60
  13   8  -8    2.29    2.87
  13  -8  -8    0.61    1.83
  13  -8  -8    1.96    2.41
  13  -8  -7    4.03    2.16
  13   8  -7    6.85    3.41
  13  -8  -7    4.60    3.18
  13  -8  -6    4.84    2.98
  13   8  -6    2.12    2.01
  13  -8  -6    2.48    1.78
  13  -8  -5    0.70    1.68
  13   8  -5    1.58    1.86
  13  -8  -5    3.31    2.38
  13  -8  -4    1.02    1.19
  13   8  -4   -0.84    1.08
 -13   8  -4    0.49    1.53
  13  -8  -4   -0.91    2.04
  13  -8  -3    1.30    2.07
  13   8  -3    4.68    2.19
  13  -8  -3    1.98    1.33
  13  -8  -2    6.58    3.34
  13   8  -2    1.71    1.74
  13  -8  -2    1.62    2.19
  13  -8  -1    1.07    1.95
  13   8  -1    0.50    1.38
  13  -8  -1    1.85    2.14
  13  -8   0    1.71    1.41
  13   8   0    0.11    1.83
  13  -8   0   -2.35    2.51
  13   8   0    3.17    2.39
  13  -8   1    3.98    3.34
  13   8   1    0.82    2.04
  13  -8   1   -1.00    1.90
  13   8   1   -1.83    1.94
  13  -8   2    5.76    2.97
  13   8   2    2.59    2.39
  13  -8   2    2.30    2.00
  13   8   2    1.38    1.16
  13  -8   3    1.34    3.04
  13   8   3    6.44    2.59
  13  -8   3    0.62    2.52
  13   8   3    5.01    2.21
  13  -8   4    0.34    1.89
  13   8   4    0.99    2.37
  13  -8   4   -0.11    1.64
  13   8   4    2.74    2.13
  13  -8   5    4.30    2.83
  13   8   5    1.55    2.54
  13  -8   5    0.35    1.52
  13   8   5    6.67    2.64
  13   8   6   -0.50    2.18
  13  -8   6    0.16    1.82
  13  -8   6   -2.03    2.69
  13   8   6   -0.45    1.40
  13   8   7    5.21    2.91
  13  -8   7    7.12    2.94
  13  -8   7    3.24    2.47
  13   8   7    7.68    3.17
  13   8   8   -0.71    1.82
  13  -8   8    4.09    1.82
  13  -8   8    4.65    2.84
  13   8   8    2.26    2.36
  13   8   9    0.50    2.01
  13  -8   9    1.16    2.27
  13  -8   9    4.16    4.23
  13   8   9   -0.51    2.41
  13   8  10   -0.20    2.08
  13  -8  10   -1.33    2.19
  13   8  10   -1.92    1.83
  13   8  11    4.12    1.99
  13  -8  11   -2.31    3.43
  13   8  11    4.04    2.81
  13  -9  -3    3.19    2.14
  13   9  -3    4.88    2.71
 -13   9  -3   -0.69    2.49
  13  -9  -3    5.53    2.09
  13  -9  -2    1.04    1.68
  13   9  -2    3.06    2.22
 -13   9  -2    0.87    1.60
  13  -9  -2    4.06    2.91
  13  -9  -1    2.95    2.48
  13   9  -1    1.83    1.31
 -13   9  -1    2.66    2.60
  13  -9  -1   -3.74    2.80
  13  -9   0   10.52    3.52
  13   9   0   16.93    4.49
 -13   9   0    2.25    1.39
  13  -9   0   15.40    4.48
  13  -9   1   -0.37    1.71
  13   9   1    4.45    2.23
 -13   9   1    5.95    3.20
  13  -9   1    0.88    1.82
  13  -9   2    1.31    1.86
  13   9   2    1.74    1.24
 -13   9   2    2.88    2.12
  13  -9   2    1.70    3.14
  13   9   2    4.23    2.47
  13  -9   3    3.64    2.07
  13   9   3    4.45    2.99
 -13   9   3    3.28    3.79
  13  -9   3    2.24    2.61
  13   9   3    3.82    1.88
  14   0 -21   11.63    4.56
  14   0 -20   11.11    2.97
  14   0 -19    2.90    1.76
  14   0 -18    2.28    1.27
  14   0 -17    5.98    2.79
  14   0 -16   30.38    5.35
  14   0 -15    9.26    3.68
  14   0 -14   19.05    4.00
  14   0 -13   49.31    6.42
  14   0 -12   79.87    8.43
  14   0 -11    7.53    2.74
  14   0 -10   79.30    7.82
  14   0 -10   71.66    7.96
  14   0  -9   11.46    3.02
  14   0  -9   10.54    3.48
  14   0  -8   13.57    3.25
  14   0  -8   10.06    3.46
  14   0  -7  101.16    8.69
  14   0  -7   93.74    9.03
  14   0  -6  161.42   11.00
  14   0  -6  140.87   10.98
  14   0  -5   80.23    7.68
  14   0  -5   67.99    7.24
  14   0  -4  103.76    8.85
  14   0  -4  111.68    9.43
  14   0  -3   63.47    6.55
  14   0  -3   55.38    6.68
  14   0  -2   43.46    5.55
  14   0  -2   36.06    5.52
  14   0  -1   41.62    5.43
  14   0  -1   54.88    6.68
  14   0   0  103.04    8.57
  14   0   0   99.11    8.87
  14   0   0   91.06    8.19
  14   0   1   57.54    6.56
  14   0   1   52.97    6.46
  14   0   1   56.18    6.45
  14   0   2   34.75    4.99
  14   0   2   43.79    5.96
  14   0   2   35.49    5.05
  14   0   3   58.87    6.80
  14   0   3   67.15    7.40
  14   0   3   78.14    7.61
  14   0   4  116.57    9.40
  14   0   4  105.58    9.20
  14   0   4  113.88    8.88
  14   0   5   77.65    7.79
  14   0   5   60.10    6.75
  14   0   6  153.06   10.82
  14   0   6  178.68   11.27
  14   0   7  109.07    8.94
  14   0   8   16.60    3.81
  14   0   9   15.40    3.77
  14   0  10   85.47    8.08
  14   0  11    6.25    2.78
  14   0  12   83.94    8.37
  14   0  13   57.83    7.00
  14   0  14   24.15    4.49
  14   0  15    5.84    2.37
  14   0  16   48.17    6.58
  14   0  17    2.88    2.21
  14   0  18   -0.08    1.12
  14   0  19    6.07    3.19
  14   0  20   16.78    4.23
  14   0  21   20.83    4.48
  14   0  22   11.71    3.31
  14   0  23    5.63    2.25
  14  -1 -22    2.26    2.21
  14  -1 -21    2.35    2.27
  14  -1 -20   -1.05    1.76
  14  -1 -19    1.98    1.75
  14  -1 -18    7.18    2.96
  14  -1 -17    1.70    1.58
  14   1 -16    6.34    3.65
  14  -1 -16    0.67    1.60
  14   1 -15    6.91    3.03
  14  -1 -15    1.39    1.55
  14   1 -14    1.57    1.53
  14  -1 -14   -0.75    1.33
  14   1 -13    1.27    1.76
  14  -1 -13    4.77    2.47
  14  -1 -12    4.88    3.02
  14   1 -12    1.97    2.26
  14  -1 -12   -0.31    1.42
  14  -1 -11   -0.69    1.75
  14  -1 -11   -0.05    1.26
  14   1 -11    0.88    1.42
  14  -1 -10    4.45    2.48
  14  -1 -10    4.70    2.21
  14   1 -10    4.65    2.16
  14  -1  -9   12.51    3.16
  14   1  -9    9.09    2.54
  14  -1  -9    9.79    3.61
  14   1  -9   16.17    3.60
  14   1  -9   18.05    4.01
  14  -1  -8    4.76    2.67
  14   1  -8    2.87    1.40
  14  -1  -8    0.82    1.38
  14   1  -8    0.42    0.94
  14   1  -8    3.13    2.12
  14   1  -7   30.66    4.88
  14  -1  -7   17.58    3.52
  14  -1  -7   19.00    3.99
  14   1  -7   18.63    3.99
  14   1  -7   23.22    4.08
  14   1  -6    2.60    1.18
  14  -1  -6    1.97    2.23
  14   1  -6    0.04    1.38
  14   1  -6    0.49    1.41
  14  -1  -5   -0.74    0.91
  14   1  -5    1.54    1.73
  14  -1  -5   -0.24    0.96
  14   1  -5    0.34    1.33
  14   1  -5   -0.01    1.17
  14  -1  -4    9.98    2.81
  14   1  -4    9.34    2.39
  14  -1  -4   13.15    3.38
  14   1  -4    8.77    3.15
  14   1  -4   11.87    3.17
  14  -1  -3    5.35    2.02
  14  -1  -3    5.97    2.63
  14   1  -3   11.80    3.05
  14   1  -3    7.48    2.45
  14   1  -3    9.30    2.69
  14  -1  -2   26.53    4.82
  14   1  -2   28.37    4.48
  14  -1  -2   29.53    5.19
  14   1  -2   36.16    5.28
  14   1  -2   30.06    4.33
  14  -1  -1   38.89    5.42
  14   1  -1   35.11    4.82
  14  -1  -1   34.00    5.36
  14   1  -1   35.48    5.27
  14   1  -1   32.62    4.89
  14  -1   0   27.48    4.69
  14   1   0   29.40    4.75
  14  -1   0   33.44    5.28
  14   1   0   36.31    5.01
  14   1   0   30.87    4.46
  14  -1   1   31.65    4.51
  14   1   1   48.12    5.92
  14  -1   1   49.77    6.36
  14   1   1   38.78    5.66
  14   1   1   38.13    5.54
  14  -1   2   42.15    5.60
  14   1   2   31.38    4.91
  14  -1   2   33.45    5.18
  14   1   2   30.61    4.75
  14   1   2   30.39    4.78
  14  -1   3    9.89    2.67
  14  -1   3    7.08    2.25
  14   1   3    9.11    2.94
  14   1   3    7.49    2.73
  14   1   3    7.22    2.71
  14   1   4   11.43    3.05
  14  -1   4    9.25    2.78
  14  -1   4   13.98    3.69
  14   1   4    7.92    2.22
  14   1   5    0.97    0.77
  14  -1   5    1.61    1.50
  14  -1   5    1.12    1.45
  14   1   5    1.16    1.87
  14   1   6    0.79    1.87
  14  -1   6    0.95    1.24
  14   1   6   -0.19    1.86
  14   1   7   20.76    3.66
  14  -1   7   25.59    4.62
  14   1   7   20.88    3.84
  14   1   8    1.43    1.16
  14  -1   8    2.14    2.04
  14   1   8   -0.01    1.43
  14   1   9   10.67    3.32
  14  -1   9   12.00    3.17
  14   1   9    8.35    3.05
  14   1  10    3.22    1.86
  14  -1  10    5.64    2.43
  14   1  10   -0.26    1.82
  14   1  11    2.27    1.95
  14  -1  11    1.15    1.68
  14   1  11   -0.21    1.22
  14   1  12    0.41    0.90
  14  -1  12    0.94    1.00
  14   1  13   -0.70    1.80
  14  -1  13   -0.80    1.06
  14   1  14    5.81    2.37
  14  -1  14    2.27    2.02
  14   1  15    5.78    2.23
  14  -1  15    9.53    3.18
  14   1  16    1.68    1.40
  14  -1  16    3.71    2.70
  14   1  17   -0.47    1.71
  14  -1  17    0.02    1.49
  14   1  18    5.75    1.77
  14  -1  18   -0.65    1.09
  14   1  19    1.98    1.04
  14  -1  19    2.52    1.79
  14   1  20   -1.10    2.55
  14  -1  20    5.04    1.57
  14   1  21    2.63    2.61
  14  -1  21   -2.73    2.77
  14   1  22    1.19    2.33
  14  -1  22    0.24    1.46
  14  -2 -22    1.01    2.43
  14  -2 -21   13.03    3.91
  14  -2 -20   14.57    4.01
  14  -2 -19    3.12    1.90
  14  -2 -18    2.21    2.30
  14  -2 -17    8.56    3.23
  14  -2 -16   27.24    5.07
  14  -2 -15   14.97    3.65
  14  -2 -14   46.33    6.40
  14   2 -14   42.81    6.04
  14  -2 -13    7.55    2.37
  14   2 -13   13.07    3.12
  14  -2 -12   38.57    6.06
  14   2 -12   21.44    4.67
  14  -2 -12   33.26    5.38
  14  -2 -11    4.43    2.53
  14  -2 -11    3.16    1.47
  14   2 -11    7.95    2.87
  14   2 -11    6.06    2.72
  14  -2 -10   31.88    5.16
  14  -2 -10   40.24    5.71
  14   2 -10   44.19    5.73
  14   2 -10   42.06    6.03
  14  -2  -9   50.00    6.17
  14  -2  -9   59.30    7.05
  14   2  -9   42.65    5.93
  14   2  -9   49.80    6.37
  14  -2  -8   11.14    3.60
  14   2  -8   14.74    3.55
  14  -2  -8   17.92    4.32
  14   2  -8   20.68    4.27
  14   2  -8   14.69    3.50
  14  -2  -7   13.77    3.42
  14  -2  -7    7.54    2.58
  14   2  -7   10.57    2.20
  14   2  -7    7.36    2.72
  14   2  -7   14.43    3.53
  14  -2  -6   47.98    6.10
  14   2  -6   44.63    5.67
  14  -2  -6   39.92    5.85
  14   2  -6   46.53    5.91
  14   2  -6   55.22    6.64
  14  -2  -5   40.57    5.84
  14   2  -5   44.27    5.72
  14  -2  -5   46.89    6.31
  14   2  -5   42.65    5.80
  14   2  -5   34.68    5.02
  14  -2  -4   69.75    7.27
  14   2  -4   68.74    6.80
  14  -2  -4   62.33    7.30
  14   2  -4   68.96    7.20
  14   2  -4   72.59    7.16
  14  -2  -3   21.90    4.07
  14  -2  -3   21.51    4.48
  14   2  -3   19.26    3.68
  14   2  -3   19.59    3.83
  14   2  -3   20.52    4.05
  14  -2  -2   10.51    3.06
  14  -2  -2    6.00    2.24
  14   2  -2    7.86    2.55
  14   2  -2    3.46    1.28
  14   2  -2   12.01    3.36
  14   2  -1   10.81    3.04
  14  -2  -1   13.63    3.14
  14  -2  -1    6.12    2.75
  14   2  -1    7.57    2.47
  14   2  -1    8.70    2.45
  14  -2   0  130.96    9.96
  14   2   0  129.92    9.61
  14  -2   0  110.72    9.90
  14   2   0  130.97   10.14
  14   2   0  127.28    9.48
  14   2   1    8.48    2.56
  14  -2   1    5.85    2.59
  14  -2   1    6.79    2.96
  14   2   1    6.40    2.16
  14   2   1    8.39    2.67
  14   2   2    5.83    2.23
  14  -2   2    9.93    3.04
  14  -2   2   11.52    2.95
  14   2   2    6.62    2.66
  14   2   2   13.06    3.01
  14   2   3   10.92    3.14
  14  -2   3   19.02    4.03
  14  -2   3    9.90    3.25
  14   2   3   16.16    3.56
  14  -2   4   63.52    7.04
  14   2   4   75.03    7.53
  14  -2   4   56.36    7.06
  14   2   4   58.41    6.57
  14  -2   5   40.95    5.66
  14   2   5   49.17    6.21
  14  -2   5   33.50    5.45
  14   2   5   53.18    5.96
  14  -2   6   38.52    5.37
  14   2   6   44.41    5.75
  14  -2   6   58.48    7.20
  14   2   6   43.21    5.66
  14   2   7   10.05    2.89
  14  -2   7    6.09    1.66
  14  -2   7   13.84    2.95
  14   2   7   12.76    3.65
  14   2   8   12.59    3.26
  14  -2   8   14.59    3.60
  14   2   8   10.29    3.13
  14  -2   9   47.17    6.09
  14   2   9   57.04    6.71
  14   2   9   49.91    6.06
  14  -2  10   46.15    6.42
  14   2  10   45.56    5.88
  14   2  10   29.55    4.91
  14   2  11    4.28    2.30
  14  -2  11    4.58    2.26
  14   2  11    4.99    2.50
  14  -2  12   32.16    5.35
  14   2  12   28.50    5.13
  14   2  12   17.48    4.00
  14   2  13    7.89    2.78
  14  -2  13   14.09    3.70
  14  -2  14   42.52    6.00
  14   2  14   47.79    6.34
  14   2  15   13.81    3.51
  14  -2  15   15.66    3.65
  14  -2  16   33.53    5.56
  14   2  16   37.10    5.95
  14   2  17    7.89    3.40
  14  -2  17    6.47    3.25
  14   2  18    5.67    3.01
  14  -2  18    2.38    2.01
  14   2  19    0.07    1.69
  14  -2  19    1.74    1.88
  14   2  20   20.41    4.98
  14  -2  20   14.79    4.29
  14   2  21    8.39    3.11
  14  -2  21   12.29    3.74
  14   2  22    6.75    2.24
  14  -2  22    8.72    3.95
  14  -3 -21   -0.57    2.06
  14  -3 -20    4.84    2.37
  14  -3 -19    1.96    1.39
  14  -3 -18    0.48    1.48
  14  -3 -17    1.37    1.81
  14   3 -17    1.38    2.02
  14  -3 -16    8.67    3.73
  14   3 -16    6.98    2.88
  14  -3 -15    4.85    2.52
  14   3 -15    3.93    2.74
  14  -3 -14    3.74    2.49
  14  -3 -14    2.57    1.12
  14   3 -14    6.83    2.32
  14  -3 -13    1.59    2.01
  14  -3 -13    3.71    2.25
  14   3 -13    3.46    2.38
  14  -3 -12    1.97    1.70
  14  -3 -12   -0.07    1.75
  14   3 -12   -1.02    1.83
  14  -3 -11    3.64    2.28
  14  -3 -11    2.34    1.91
  14   3 -11    3.72    1.79
  14  -3 -10   26.25    4.82
  14   3 -10   22.06    4.18
  14  -3 -10   30.53    5.11
  14  -3  -9   -0.60    2.06
  14  -3  -9    0.55    1.74
  14   3  -9    0.28    0.92
  14  -3  -8   -0.26    1.13
  14  -3  -8   -0.20    1.12
  14   3  -8   -0.67    1.60
  14  -3  -7    1.13    1.00
  14  -3  -7    1.74    1.26
  14   3  -7   -0.13    0.62
  14   3  -7    2.83    1.45
  14  -3  -6   10.71    2.99
  14  -3  -6    4.50    1.50
  14   3  -6    5.53    2.00
  14   3  -6    4.85    2.15
  14  -3  -5   10.53    2.84
  14   3  -5   17.80    4.49
  14  -3  -5   13.79    3.35
  14   3  -5    8.33    2.50
  14   3  -5   10.95    3.09
  14   3  -4    0.35    1.61
  14   3  -4    0.97    1.47
  14  -3  -4    0.62    2.21
  14  -3  -4   -0.36    1.42
  14   3  -4    1.88    2.15
  14   3  -3   14.03    3.44
  14   3  -3    4.65    2.28
  14  -3  -3   12.78    3.04
  14  -3  -3   13.99    3.73
  14   3  -3    7.56    2.59
  14  -3  -2   77.48    7.87
  14   3  -2   76.56    7.43
  14  -3  -2   69.33    8.01
  14   3  -2   82.90    8.00
  14   3  -2   86.40    7.76
  14   3  -1   17.42    3.37
  14   3  -1   13.43    2.96
  14  -3  -1   12.06    3.08
  14  -3  -1    9.90    3.08
  14   3  -1   18.39    3.65
  14  -3   0   84.45    8.09
  14  -3   0   72.50    7.94
  14   3   0   67.83    7.09
  14   3   0   70.35    7.48
  14   3   0   70.38    7.29
  14   3   1   12.67    3.49
  14  -3   1   15.18    3.89
  14  -3   1   16.42    3.95
  14   3   1   13.36    3.69
  14   3   1   24.40    4.53
  14  -3   2   72.01    7.53
  14  -3   2   76.64    8.10
  14   3   2   79.41    7.76
  14   3   2   77.11    7.63
  14   3   3   10.37    3.03
  14   3   3   12.06    3.24
  14  -3   3    9.16    2.78
  14  -3   3   19.72    4.41
  14   3   4    3.83    2.40
  14   3   4    1.16    0.78
  14  -3   4    1.64    1.36
  14  -3   4    2.37    1.98
  14   3   5    6.29    2.41
  14   3   5   13.16    3.52
  14  -3   5   12.78    3.57
  14  -3   5    7.28    2.63
  14   3   6    6.92    2.78
  14   3   6   10.16    2.89
  14  -3   6    7.54    2.89
  14  -3   6    7.86    3.10
  14   3   7    2.26    1.65
  14   3   7    1.35    1.19
  14  -3   7    0.77    1.51
  14  -3   7    1.02    1.22
  14   3   8    1.17    1.93
  14   3   8    0.14    1.13
  14  -3   8    0.48    0.99
  14  -3   8   -1.94    2.05
  14   3   9    0.60    1.54
  14   3   9    0.30    1.18
  14  -3   9   -1.47    1.77
  14  -3   9    3.79    2.24
  14   3  10   17.80    3.92
  14  -3  10   21.22    4.55
  14   3  10   26.56    4.68
  14   3  11    3.33    2.07
  14   3  11    4.36    2.28
  14  -3  11    3.17    2.41
  14   3  12    2.04    2.01
  14   3  12    3.35    1.36
  14  -3  12    1.46    2.15
  14   3  13    3.32    2.13
  14  -3  13    2.01    1.32
  14   3  14    4.65    1.89
  14  -3  14    0.59    1.10
  14   3  15    1.41    1.44
  14  -3  15    0.27    1.91
  14   3  16    7.45    2.46
  14  -3  16    7.72    2.78
  14   3  17    0.56    1.77
  14  -3  17   -0.72    1.88
  14   3  18    3.17    1.61
  14  -3  18   -1.27    2.74
  14   3  19    1.19    1.55
  14  -3  19    3.54    3.11
  14   3  20    2.16    2.00
  14  -3  20    2.97    1.63
  14   3  21   -0.64    1.38
  14  -3  21   -2.01    2.79
  14  -4 -20   16.60    4.18
  14   4 -20   31.56    6.16
  14  -4 -19    0.79    1.49
  14   4 -19   -1.39    1.99
  14  -4 -18    4.77    2.23
  14   4 -18    4.03    2.94
  14  -4 -17   15.41    4.02
  14   4 -17   20.24    4.19
  14  -4 -16   13.36    3.93
  14   4 -16   24.07    4.76
  14  -4 -15    1.38    2.14
  14  -4 -15    6.05    2.00
  14   4 -15    6.98    2.38
  14  -4 -14   21.83    5.15
  14  -4 -14   17.89    4.24
  14   4 -14   22.33    4.70
  14  -4 -13   11.18    3.36
  14  -4 -13    8.13    2.43
  14   4 -13    5.04    2.24
  14  -4 -12   28.75    5.22
  14  -4 -12   32.18    5.61
  14   4 -12   22.73    4.25
  14  -4 -11   31.63    5.39
  14   4 -11   29.97    5.39
  14  -4 -11   25.07    5.37
  14  -4 -10   17.77    3.88
  14  -4 -10   24.40    4.75
  14   4 -10   23.46    4.49
  14  -4  -9   30.42    5.56
  14   4  -9   36.99    5.58
  14  -4  -9   40.29    5.88
  14   4  -8   10.77    3.20
  14  -4  -8    7.78    2.75
  14  -4  -8    5.77    2.80
  14   4  -7    8.32    2.73
  14  -4  -7    3.96    1.84
  14  -4  -7    8.96    3.61
  14  -4  -6   45.77    6.20
  14  -4  -6   42.22    6.47
  14   4  -6   56.99    7.00
  14   4  -5    6.21    2.71
  14   4  -5   15.64    3.31
  14  -4  -5   13.01    3.57
  14  -4  -5   12.00    3.08
  14  -4  -4   34.29    5.61
  14  -4  -4   50.79    6.87
  14   4  -4   38.28    5.47
  14   4  -4   37.04    5.25
  14  -4  -3   25.54    4.66
  14  -4  -3   33.32    5.69
  14   4  -3   35.62    5.23
  14   4  -3   31.46    5.08
  14   4  -2    5.84    1.97
  14   4  -2    9.22    2.75
  14  -4  -2    8.97    2.70
  14  -4  -2    4.98    2.40
  14   4  -1   17.59    3.96
  14   4  -1   16.91    3.66
  14  -4  -1   21.07    4.05
  14  -4  -1   18.60    4.52
  14  -4   0  249.14   14.21
  14  -4   0  278.95   15.77
  14   4   0  282.68   14.76
  14   4   0  269.18   14.48
  14   4   1   20.42    4.05
  14  -4   1   23.47    4.63
  14   4   1   11.82    3.43
  14  -4   1   12.15    3.48
  14   4   1   17.24    4.19
  14   4   2    9.81    3.25
  14   4   2    4.64    2.09
  14  -4   2    8.91    2.82
  14  -4   2    6.28    2.76
  14  -4   3   35.41    5.51
  14  -4   3   38.10    6.22
  14   4   3   30.02    5.07
  14   4   3   39.08    5.50
  14  -4   4   46.72    6.43
  14  -4   4   35.67    5.74
  14   4   4   47.32    6.37
  14   4   4   48.30    6.09
  14   4   5   13.29    3.83
  14   4   5    6.59    2.52
  14  -4   5    7.37    3.29
  14  -4   5   11.76    3.33
  14  -4   6   52.85    6.90
  14  -4   6   38.44    6.02
  14   4   6   45.35    6.15
  14   4   6   44.20    5.99
  14   4   7    9.74    3.08
  14   4   7    9.53    2.56
  14  -4   7    3.68    1.50
  14  -4   7   13.90    3.76
  14   4   8   17.61    4.16
  14   4   8    7.43    2.81
  14  -4   8   10.30    3.17
  14  -4   8   10.44    3.83
  14  -4   9   34.91    5.87
  14  -4   9   40.50    6.69
  14   4   9   33.89    5.54
  14   4   9   33.08    5.17
  14   4  10   23.49    4.66
  14   4  10   15.17    3.67
  14  -4  10   19.45    4.17
  14  -4  10   24.80    5.14
  14  -4  11   28.68    4.86
  14  -4  11   31.30    5.59
  14   4  11   30.43    5.31
  14   4  11   36.63    5.44
  14   4  12   25.42    4.45
  14  -4  12   24.36    4.61
  14  -4  12   28.06    5.65
  14   4  12   28.11    5.11
  14   4  13    4.54    2.07
  14   4  13   12.86    3.58
  14  -4  13    8.38    3.61
  14  -4  13    6.62    3.04
  14  -4  14   20.27    4.43
  14   4  14   34.55    5.97
  14   4  15    7.18    2.72
  14  -4  15    8.94    3.47
  14   4  16   19.43    4.49
  14  -4  16   22.14    5.09
  14   4  17   18.40    4.14
  14  -4  17   27.57    5.67
  14   4  18    0.52    1.29
  14  -4  18    6.62    3.21
  14   4  19    2.48    2.08
  14  -4  19   -0.84    1.49
  14   4  20   21.20    4.81
  14  -4  20   25.61    5.71
  14  -5 -18   -1.77    1.42
  14   5 -18    3.28    2.13
  14  -5 -17    4.57    2.52
  14   5 -17    0.54    2.36
  14  -5 -16    4.85    2.95
  14   5 -16    2.54    2.38
  14  -5 -16    1.30    1.41
  14  -5 -15   -0.05    2.17
  14   5 -15    0.64    2.23
  14  -5 -15    1.05    1.31
  14  -5 -14    2.72    1.72
  14  -5 -14    0.59    1.16
  14   5 -14    3.24    2.07
  14  -5 -13    0.13    1.16
  14   5 -13    1.04    1.03
  14   5 -12    6.19    2.20
  14  -5 -12   13.82    3.63
  14  -5 -12    9.26    3.01
  14   5 -11    3.15    1.62
  14  -5 -11    7.11    2.61
  14  -5 -11    4.79    2.66
  14   5 -10    9.10    3.24
  14  -5 -10   14.46    3.81
  14  -5 -10    3.72    1.72
  14   5  -9    9.50    3.19
  14  -5  -9    7.06    3.01
  14  -5  -9    5.34    3.46
  14   5  -8    1.69    2.10
  14  -5  -8    1.65    2.08
  14  -5  -8    0.41    1.52
  14   5  -7    3.20    2.16
  14  -5  -7    3.06    2.32
  14  -5  -7    1.18    2.19
  14   5  -6   -0.39    0.94
  14  -5  -6   -0.48    1.79
  14  -5  -6   -2.21    2.03
  14   5  -5    2.22    1.96
  14  -5  -5   -0.89    1.81
  14  -5  -5    0.01    1.98
  14   5  -4   13.98    3.36
  14  -5  -4   16.83    3.96
  14   5  -4    8.01    2.55
  14  -5  -4   13.72    4.23
  14   5  -3    5.96    1.78
  14  -5  -3    2.99    1.35
  14   5  -3    2.41    1.70
  14  -5  -3    2.91    2.02
  14   5  -2    0.34    1.93
  14  -5  -2    5.31    1.88
  14   5  -2    2.48    1.99
  14  -5  -2    6.32    2.48
  14   5  -1   19.50    4.23
  14  -5  -1   18.24    4.19
  14   5  -1   17.73    4.00
  14  -5  -1   28.47    5.49
  14  -5   0   52.44    7.04
  14  -5   0   64.02    7.89
  14   5   0   56.97    6.79
  14   5   0   56.22    7.22
  14   5   1   22.56    4.62
  14  -5   1   22.33    4.36
  14   5   1   17.53    4.02
  14  -5   1   14.86    3.78
  14   5   2    3.27    1.27
  14  -5   2    1.48    1.27
  14   5   2    4.69    2.69
  14  -5   2    5.50    2.48
  14   5   3    3.09    1.11
  14  -5   3    2.65    2.60
  14   5   3    3.38    1.91
  14  -5   3    2.89    1.45
  14   5   4    6.29    1.68
  14  -5   4    4.59    1.61
  14   5   4    8.85    3.19
  14  -5   4   11.39    3.38
  14   5   5   -1.67    1.65
  14  -5   5    0.58    1.25
  14   5   5   -0.06    1.03
  14  -5   5   -1.52    1.76
  14   5   6    0.51    1.82
  14  -5   6   -1.18    1.25
  14   5   6    2.43    1.50
  14  -5   6   -0.03    1.59
  14   5   7    3.63    2.00
  14  -5   7    3.89    2.26
  14   5   7    2.59    1.71
  14  -5   7    9.48    3.66
  14   5   8   -0.06    1.36
  14  -5   8    0.62    1.09
  14   5   8    0.17    1.63
  14  -5   8    3.32    2.55
  14   5   9   14.05    3.82
  14  -5   9    4.90    1.91
  14   5   9   10.71    2.69
  14  -5   9    6.15    2.24
  14   5  10   10.02    2.92
  14  -5  10   11.65    3.54
  14   5  10    7.92    2.61
  14  -5  10   11.86    3.63
  14   5  11    7.74    2.86
  14  -5  11    5.62    2.21
  14   5  11    7.73    3.08
  14  -5  11    2.95    2.82
  14   5  12   14.11    3.47
  14  -5  12    6.55    3.20
  14   5  12    7.82    3.05
  14  -5  12    7.69    3.35
  14   5  13    3.21    2.34
  14  -5  13    2.64    2.04
  14   5  13    1.03    1.01
  14  -5  13    2.97    2.18
  14  -5  14    4.64    1.80
  14   5  14    5.84    1.95
  14  -5  14    8.79    3.02
  14  -5  15   -0.76    1.78
  14   5  15   -2.14    2.20
  14  -5  15   -2.43    3.00
  14  -5  16    0.72    2.01
  14   5  16    1.98    1.98
  14  -5  16    5.79    3.45
  14  -5  17    0.53    1.64
  14   5  17    2.21    1.53
  14  -5  17    0.50    1.90
  14  -5  18   -3.85    3.33
  14   5  18    0.31    1.77
  14  -6 -16   16.31    4.56
  14   6 -16   12.61    4.38
  14  -6 -15    1.08    1.46
  14  -6 -15    1.55    2.27
  14   6 -15   -0.17    1.59
  14   6 -14    6.89    2.95
  14  -6 -14    2.31    2.28
  14  -6 -14    5.52    2.99
  14  -6 -13    2.68    1.44
  14   6 -13    0.68    1.75
  14  -6 -13    2.27    1.62
  14   6 -12   24.74    4.66
  14  -6 -12   21.99    5.02
  14  -6 -12    9.74    3.45
  14   6 -11    9.26    3.60
  14  -6 -11    2.23    1.53
  14  -6 -11    6.88    2.29
  14  -6 -10   45.53    6.96
  14  -6 -10   50.16    7.06
  14   6 -10   48.50    6.38
  14   6  -9   12.11    3.78
  14  -6  -9   14.60    4.18
  14  -6  -9    9.51    2.96
  14   6  -8    8.75    3.12
  14  -6  -8    5.17    2.75
  14  -6  -8    0.84    1.74
  14   6  -7   12.15    3.21
  14  -6  -7   13.38    3.49
  14  -6  -7   11.56    4.12
  14  -6  -6   62.79    7.80
  14  -6  -6   67.71    7.88
  14   6  -6   63.81    7.65
  14   6  -5    3.55    2.17
  14  -6  -5   -0.03    1.80
  14  -6  -5    3.83    2.02
  14  -6  -4   31.79    5.56
  14  -6  -4   44.69    6.57
  14   6  -4   43.55    6.17
  14   6  -3   24.17    4.82
  14  -6  -3   24.91    4.73
  14  -6  -3   18.21    4.52
  14   6  -2   14.75    4.15
  14  -6  -2   13.37    3.85
  14   6  -2   19.09    4.39
  14  -6  -2   17.87    4.24
  14   6  -1   16.26    3.63
  14  -6  -1   22.46    4.60
  14   6  -1   14.17    3.38
  14  -6  -1   21.45    4.75
  14   6   0  122.75   10.11
  14  -6   0  131.06   11.14
  14   6   0  126.77   10.66
  14  -6   0  128.20   10.89
  14   6   1   23.70    5.06
  14  -6   1   11.38    3.80
  14   6   1   24.29    4.44
  14  -6   1   15.39    4.09
  14   6   2   11.65    4.01
  14  -6   2   17.04    4.16
  14   6   2   12.87    3.35
  14  -6   2   13.67    3.88
  14   6   3   27.09    4.80
  14  -6   3   26.00    5.15
  14   6   3   23.11    4.63
  14  -6   3   23.51    4.96
  14  -6   4   39.07    5.87
  14   6   4   38.47    5.85
  14  -6   4   37.91    6.29
  14   6   4   44.37    6.24
  14   6   5    0.44    1.16
  14  -6   5    3.34    2.70
  14   6   5    0.45    1.87
  14  -6   5    3.58    2.11
  14  -6   6   64.89    7.85
  14   6   6   64.25    7.64
  14  -6   6   51.57    7.61
  14   6   6   53.69    6.73
  14   6   7   16.65    3.91
  14  -6   7   10.56    3.16
  14   6   7   11.41    3.33
  14  -6   7    5.49    3.31
  14   6   8    6.45    3.12
  14  -6   8    5.60    2.04
  14   6   8    5.84    2.26
  14  -6   8    0.75    1.59
  14   6   9   10.46    3.27
  14  -6   9    7.69    2.70
  14   6   9   14.89    4.33
  14  -6   9   10.71    3.22
  14   6  10   41.66    6.07
  14  -6  10   27.67    5.35
  14  -6  10   46.08    7.20
  14   6  10   49.49    6.96
  14   6  11    6.44    2.40
  14  -6  11    6.45    2.38
  14   6  11    5.71    1.91
  14  -6  11    5.63    2.47
  14   6  12   15.67    3.85
  14  -6  12   18.96    4.29
  14   6  12    7.91    2.70
  14  -6  12   21.42    4.95
  14   6  13    0.47    2.30
  14  -6  13    5.08    2.92
  14   6  13    1.79    1.64
  14  -6  13    8.86    3.62
  14  -6  14    2.16    2.45
  14   6  14   -0.10    2.17
  14  -6  14   -0.52    1.82
  14  -6  15    1.24    1.95
  14   6  15    3.44    2.67
  14  -6  15    1.36    2.94
  14  -6  16   16.52    4.82
  14   6  16   22.25    5.00
  14  -6  16   19.68    4.97
  14   7 -13    3.21    1.79
  14  -7 -13    0.10    1.86
  14  -7 -13    3.37    2.90
  14   7 -12    2.76    2.62
  14  -7 -12    0.41    1.52
  14  -7 -12    7.11    3.23
  14   7 -11    2.16    2.07
  14  -7 -11    2.08    2.44
  14  -7 -11    1.41    1.22
  14  -7 -10   -0.10    2.11
  14   7 -10    1.27    1.39
  14  -7 -10    1.29    1.74
  14  -7  -9   -0.06    1.39
  14   7  -9    0.28    1.93
  14  -7  -9   -0.05    2.16
  14  -7  -8    3.12    1.39
  14   7  -8    2.01    1.75
  14  -7  -7    2.85    1.21
  14   7  -7   -0.35    1.78
  14  -7  -7    4.98    3.17
  14   7  -6   11.94    3.63
  14  -7  -6   15.08    3.93
  14  -7  -6   10.71    3.86
  14   7  -5    7.36    3.12
  14  -7  -5    9.74    2.61
  14  -7  -5   11.41    3.52
  14   7  -4    0.40    1.54
  14  -7  -4    2.98    2.09
  14  -7  -4    3.59    2.39
  14   7  -3    7.32    2.36
  14  -7  -3   10.81    3.65
  14  -7  -3    0.98    2.41
  14   7  -2    4.90    2.32
  14  -7  -2    8.79    3.33
  14  -7  -2   12.78    3.78
  14   7  -1   -1.03    2.38
  14  -7  -1   -3.24    2.54
  14   7  -1    1.37    1.86
  14  -7  -1    1.46    1.87
  14   7   0   19.85    4.25
  14  -7   0   21.03    4.60
  14   7   0   10.61    2.94
  14  -7   0   21.31    5.35
  14   7   1    1.72    2.17
  14  -7   1   -0.87    1.95
  14   7   1    0.72    1.96
  14  -7   1    0.28    2.14
  14   7   2    8.30    3.06
  14  -7   2    9.93    2.83
  14   7   2   11.09    3.54
  14  -7   2    8.29    3.09
  14   7   3    0.05    1.72
  14  -7   3    1.34    2.25
  14   7   3    5.68    2.50
  14  -7   3    5.79    3.00
  14   7   4    1.47    2.10
  14  -7   4    3.62    2.77
  14   7   4    1.60    1.63
  14  -7   4    0.98    2.85
  14   7   5    6.46    2.86
  14  -7   5   10.20    3.53
  14   7   5   12.35    3.74
  14  -7   5   15.93    4.47
  14   7   6   11.05    3.91
  14  -7   6    8.96    3.04
  14   7   6   13.23    3.35
  14  -7   6   16.53    5.06
  14   7   7    1.20    2.09
  14  -7   7    4.18    2.51
  14   7   7    5.10    2.73
  14  -7   7    3.55    2.16
  14   7   8    4.02    3.28
  14  -7   8    5.28    2.54
  14   7   8    6.18    3.38
  14  -7   8    4.01    3.32
  14   7   9    1.38    2.71
  14  -7   9   -0.14    2.05
  14   7   9   -0.84    1.12
  14  -7   9   -0.84    2.79
  14   7  10   -0.61    2.88
  14  -7  10   -0.46    1.55
  14   7  10   -0.89    2.16
  14  -7  10    2.41    2.42
  14   7  11   -1.05    2.23
  14  -7  11    2.65    2.59
  14   7  11    5.20    2.61
  14  -7  11    8.59    4.12
  14   7  12    5.71    2.63
  14  -7  12    3.57    2.55
  14   7  12    8.96    3.47
  14  -7  12    5.25    3.08
  14   7  13    0.23    1.77
  14  -7  13    0.53    1.94
  14   7  13    0.49    1.98
  14  -7  13    4.56    3.10
  14   8  -8    5.44    2.67
  14  -8  -8    5.29    2.60
  14  -8  -8    8.80    3.26
  14  -8  -7    6.31    3.17
  14   8  -7    0.69    1.80
  14  -8  -7    3.66    3.15
  14  -8  -6    4.37    2.92
  14   8  -6    2.66    1.82
  14  -8  -6    4.13    2.56
  14  -8  -5    0.46    1.67
  14   8  -5   -2.96    2.81
  14  -8  -5    4.07    3.86
  14  -8  -4    9.90    3.37
  14   8  -4   12.94    3.85
  14  -8  -4    9.08    2.88
  14  -8  -3    4.79    1.25
  14   8  -3    0.19    1.32
  14  -8  -3    2.29    2.45
  14  -8  -2   -0.73    1.20
  14   8  -2    2.80    1.53
  14  -8  -2   -1.41    2.93
  14  -8  -1    2.72    1.40
  14   8  -1    3.21    1.65
  14  -8  -1    7.20    3.13
  14  -8   0   -1.00    2.10
  14   8   0    1.40    1.73
  14  -8   0    0.33    1.73
  14  -8   1    2.60    2.10
  14   8   1    4.04    2.58
  14   8   1    4.78    3.02
  14  -8   1    3.37    3.48
  14   8   2    3.33    1.80
  14  -8   2   -1.74    2.04
  14   8   2    5.16    2.11
  14  -8   2    4.22    2.69
  14   8   3    1.07    1.41
  14  -8   3    2.81    1.93
  14   8   3    4.90    2.57
  14  -8   3    1.87    2.55
  14   8   4   13.91    3.88
  14  -8   4   11.53    3.25
  14  -8   4   13.23    4.35
  14   8   4   20.58    4.85
  14   8   5    1.37    2.02
  14  -8   5    1.32    2.08
  14  -8   5    0.81    2.21
  14   8   5    0.16    1.88
  14   8   6    9.80    3.75
  14  -8   6    7.45    3.26
  14  -8   6   10.15    4.03
  14   8   6    5.98    3.05
  14   8   7    4.95    2.78
  14  -8   7    2.28    1.51
  14  -8   7    4.04    3.48
  14   8   7    5.78    3.21
  14   8   8    7.17    3.25
  14  -8   8    5.31    2.56
  14  -8   8    7.36    2.77
  14   8   8    6.04    3.13
  15   0 -19    0.80    1.52
  15   0 -18   -0.14    2.54
  15   0 -17    3.53    3.04
  15   0 -16    1.45    2.70
  15   0 -15    0.72    1.52
  15   0 -14    1.72    1.34
  15   0 -13    0.09    1.39
  15   0 -12   -1.30    1.93
  15   0 -11    0.59    1.87
  15   0 -10    2.46    2.40
  15   0 -10   -0.92    1.80
  15   0  -9   -0.45    1.78
  15   0  -9    0.25    2.05
  15   0  -8   -0.97    1.41
  15   0  -8   -0.48    1.97
  15   0  -7    1.02    1.29
  15   0  -7    0.94    2.31
  15   0  -6   -1.16    1.07
  15   0  -6   -0.19    1.13
  15   0  -5    0.44    1.43
  15   0  -5   -0.91    1.09
  15   0  -4   -0.71    0.99
  15   0  -4    1.66    2.34
  15   0  -3   -0.25    1.50
  15   0  -3   -0.46    1.28
  15   0  -2   -0.36    1.53
  15   0  -2    0.54    1.38
  15   0  -1   -0.70    1.64
  15   0  -1   -0.26    1.05
  15   0   0    0.01    0.84
  15   0   0   -0.32    1.01
  15   0   1   -1.12    1.40
  15   0   1   -0.53    1.57
  15   0   2    1.68    2.43
  15   0   2    1.79    2.09
  15   0   3    0.65    1.44
  15   0   3    0.86    1.73
  15   0   4    0.03    1.61
  15   0   4   -0.73    2.02
  15   0   5    1.59    2.46
  15   0   5    1.99    2.47
  15   0   6    0.45    1.99
  15   0   7   -0.15    1.50
  15   0   8   -0.76    1.43
  15   0   9    0.30    1.15
  15   0  10   -0.67    2.02
  15   0  11    0.14    1.05
  15   0  12   -0.11    1.66
  15   0  13   -1.12    2.30
  15   0  14    0.66    1.23
  15   0  15    2.66    2.48
  15   0  16   -0.41    1.51
  15   0  17    0.69    2.10
  15   0  18    0.98    1.81
  15   0  19   -1.13    1.09
  15   0  20    1.31    2.09
  15   0  21    1.53    2.22
  15  -1 -21    4.98    2.04
  15  -1 -20   -1.25    2.44
  15  -1 -19    7.19    2.35
  15  -1 -18    0.99    1.50
  15  -1 -17   15.49    3.93
  15  -1 -16   10.13    3.76
  15   1 -15    5.02    3.00
  15  -1 -15    5.57    2.68
  15   1 -14    2.97    1.94
  15  -1 -14    4.24    1.62
  15   1 -13  102.88    9.70
  15  -1 -13   90.56    9.06
  15   1 -12   10.33    3.67
  15  -1 -12   20.23    4.23
  15  -1 -11    2.75    2.20
  15  -1 -11    4.81    2.74
  15   1 -11    0.28    1.42
  15  -1 -10    5.97    2.78
  15  -1 -10    7.59    2.59
  15   1 -10    5.30    2.27
  15  -1  -9    4.24    2.15
  15   1  -9   -1.21    1.09
  15  -1  -9    1.26    1.63
  15   1  -9    4.49    2.44
  15  -1  -8   21.93    4.40
  15   1  -8   15.12    3.87
  15  -1  -8   25.41    5.01
  15   1  -8   21.70    4.86
  15   1  -8   28.91    4.98
  15  -1  -7   59.24    7.14
  15   1  -7   62.97    7.07
  15  -1  -7   62.06    7.43
  15   1  -7   58.46    7.05
  15   1  -7   82.69    8.26
  15  -1  -6    5.42    1.91
  15   1  -6    3.21    1.87
  15  -1  -6    4.98    1.88
  15   1  -6   -0.49    2.07
  15   1  -6    2.57    1.57
  15  -1  -5   12.37    3.21
  15   1  -5   18.06    3.97
  15  -1  -5   21.72    4.30
  15   1  -5   12.75    3.95
  15   1  -5   16.21    3.71
  15  -1  -4   14.38    3.74
  15   1  -4   28.25    5.02
  15   1  -4   19.64    4.02
  15  -1  -4   21.81    4.84
  15   1  -4   22.03    3.89
  15  -1  -3   39.09    5.38
  15   1  -3   46.24    5.91
  15  -1  -3   43.68    6.15
  15   1  -3   46.33    6.05
  15   1  -3   39.33    5.53
  15  -1  -2    1.46    1.46
  15   1  -2    3.58    2.13
  15  -1  -2    4.76    3.20
  15   1  -2    1.15    1.66
  15   1  -2    0.73    1.07
  15  -1  -1    0.58    1.28
  15  -1  -1    0.06    1.25
  15   1  -1    2.03    2.13
  15   1  -1   -0.01    0.97
  15   1  -1    0.11    1.43
  15  -1   0   -0.12    1.06
  15  -1   0   -1.72    2.26
  15   1   0    0.53    1.33
  15   1   0   -0.64    1.69
  15   1   0    0.22    1.28
  15  -1   1    1.42    0.88
  15  -1   1    0.43    1.77
  15   1   1    3.69    2.47
  15   1   1    0.68    1.26
  15   1   1   -0.18    1.80
  15  -1   2    3.56    2.13
  15  -1   2    3.36    1.75
  15   1   2    3.02    0.97
  15   1   2    4.70    2.09
  15   1   2    5.76    2.31
  15  -1   3   46.22    6.05
  15   1   3   41.69    5.50
  15  -1   3   49.53    6.65
  15   1   3   51.99    6.70
  15   1   3   45.75    5.81
  15   1   4   24.73    4.68
  15  -1   4   22.93    4.24
  15  -1   4   24.05    4.48
  15   1   4   19.88    4.36
  15   1   4   29.47    4.68
  15  -1   5   18.12    3.88
  15  -1   5   19.86    4.02
  15   1   5   17.55    3.62
  15   1   5   19.90    4.00
  15   1   6   10.78    3.05
  15  -1   6    7.45    2.68
  15  -1   6    5.07    2.94
  15   1   6    1.68    1.80
  15  -1   7   59.91    6.99
  15   1   7   56.19    6.72
  15   1   7   72.06    7.58
  15   1   8   18.42    4.03
  15  -1   8   11.87    3.24
  15   1   8   19.99    4.49
  15   1   9   -0.65    0.98
  15  -1   9    1.75    2.31
  15   1   9    3.74    2.09
  15   1  10    7.47    2.26
  15  -1  10   12.14    3.37
  15   1  10    5.39    2.94
  15   1  11    0.01    1.58
  15  -1  11    0.73    1.59
  15   1  11   -1.63    2.52
  15   1  12   10.89    2.78
  15  -1  12   12.61    3.11
  15  -1  13  100.34    9.38
  15   1  13   89.34    8.77
  15   1  14    7.40    2.31
  15  -1  14    7.01    3.07
  15   1  15    1.80    1.87
  15  -1  15    4.54    2.08
  15   1  16   15.11    3.96
  15  -1  16   13.24    3.72
  15   1  17   18.85    4.38
  15  -1  17   15.94    3.88
  15   1  18    3.34    1.65
  15  -1  18   -0.22    2.42
  15   1  19    4.31    1.77
  15  -1  19    5.03    2.01
  15   1  20    1.16    1.84
  15  -1  20    2.51    1.72
  15   1  21   -2.39    2.05
  15  -1  21    3.75    2.94
  15  -2 -20    0.81    2.28
  15  -2 -19    2.38    2.08
  15  -2 -18   -0.43    1.49
  15  -2 -17    0.04    1.37
  15  -2 -16    5.25    2.39
  15  -2 -15    0.76    1.51
  15  -2 -14    8.52    3.38
  15  -2 -13   26.83    5.43
  15   2 -13   27.20    4.96
  15  -2 -12    3.13    2.13
  15  -2 -12   -1.60    1.92
  15   2 -12    1.06    1.50
  15  -2 -11    4.00    1.47
  15  -2 -11    3.42    1.95
  15   2 -11    3.97    2.03
  15  -2 -10    6.13    3.04
  15  -2 -10    4.70    2.87
  15   2 -10    8.09    3.30
  15  -2  -9    3.89    2.46
  15  -2  -9    2.15    1.27
  15   2  -9    0.49    1.79
  15   2  -9    4.90    2.00
  15  -2  -8    1.43    1.14
  15  -2  -8    1.21    1.13
  15   2  -8    1.90    1.36
  15   2  -8    2.32    1.86
  15  -2  -7    8.79    2.74
  15   2  -7    6.15    2.24
  15  -2  -7   10.48    3.01
  15   2  -7   13.57    3.63
  15   2  -7    8.23    3.06
  15  -2  -6    0.07    0.91
  15  -2  -6    2.98    1.43
  15   2  -6    2.82    1.02
  15   2  -6    1.13    1.14
  15   2  -6    1.16    1.38
  15  -2  -5    4.84    1.74
  15  -2  -5    7.48    2.57
  15   2  -5    7.67    2.58
  15   2  -5    7.06    2.79
  15   2  -5    2.77    1.17
  15  -2  -4    2.85    1.98
  15  -2  -4    2.17    1.93
  15   2  -4    2.01    1.45
  15   2  -4    4.39    2.08
  15   2  -4    4.21    2.62
  15  -2  -3    1.84    2.19
  15  -2  -3    0.82    1.18
  15   2  -3    0.39    1.29
  15   2  -3   -0.30    1.72
  15   2  -3    0.45    1.64
  15  -2  -2    0.40    1.32
  15  -2  -2    1.14    1.69
  15   2  -2   -0.95    1.65
  15   2  -2    0.19    1.35
  15   2  -2    1.70    1.45
  15  -2  -1    2.42    1.62
  15  -2  -1    2.14    2.23
  15   2  -1    1.52    1.86
  15   2  -1    2.83    1.81
  15   2  -1    1.91    1.87
  15  -2   0    0.07    1.39
  15  -2   0    0.68    1.10
  15   2   0   -0.67    1.41
  15   2   0    2.46    2.30
  15   2   0   -0.56    1.06
  15   2   1    0.66    1.49
  15  -2   1    2.43    1.95
  15  -2   1   -0.63    1.69
  15   2   1    2.92    1.58
  15   2   1    5.16    2.84
  15   2   2   -0.49    1.03
  15  -2   2    0.45    1.04
  15  -2   2   -0.26    1.50
  15   2   2    1.57    1.40
  15   2   2    3.17    2.29
  15   2   3    0.72    1.34
  15  -2   3    0.50    1.27
  15  -2   3    1.29    1.40
  15   2   3    2.27    1.71
  15   2   3   -0.23    1.05
  15   2   4    2.50    2.18
  15  -2   4    4.35    2.60
  15  -2   4    1.51    1.30
  15   2   4    3.12    1.18
  15   2   5   11.28    3.10
  15  -2   5    2.02    1.49
  15  -2   5    7.27    2.27
  15   2   5    6.88    2.22
  15   2   6    4.21    1.86
  15  -2   6    2.76    1.69
  15  -2   6    3.40    2.48
  15   2   6    2.17    1.00
  15   2   7   10.47    3.03
  15  -2   7   11.23    3.56
  15  -2   7    6.98    2.81
  15   2   7    6.91    2.26
  15   2   8    2.38    1.64
  15  -2   8    3.38    2.61
  15  -2   8    2.11    2.25
  15   2   8    0.48    1.47
  15   2   9    6.01    2.36
  15  -2   9   -1.03    2.21
  15   2   9    4.24    2.29
  15   2  10   10.23    3.42
  15  -2  10    9.52    2.69
  15   2  10    7.87    2.99
  15   2  11    1.79    1.71
  15  -2  11    4.73    2.52
  15   2  11    2.82    1.73
  15   2  12    4.42    2.84
  15  -2  12    0.99    1.58
  15   2  13   17.60    3.92
  15  -2  13   19.29    4.24
  15   2  14    6.38    2.04
  15  -2  14    3.74    2.51
  15   2  15    6.85    2.47
  15  -2  15    2.87    2.85
  15   2  16    9.52    3.59
  15  -2  16    8.34    2.90
  15   2  17    1.05    1.28
  15  -2  17    1.85    1.36
  15   2  18    0.75    1.58
  15  -2  18    0.57    1.25
  15   2  19    8.66    3.46
  15  -2  19    2.64    2.59
  15   2  20    1.58    2.00
  15  -2  20    0.88    2.31
  15  -3 -20    1.52    1.34
  15  -3 -19    0.45    1.59
  15  -3 -18   21.42    4.95
  15  -3 -17   35.44    6.23
  15  -3 -16    5.44    2.32
  15   3 -16   -0.16    1.33
  15  -3 -15    2.21    1.53
  15   3 -15    3.33    2.04
  15  -3 -14   11.08    3.51
  15   3 -14   18.51    4.14
  15  -3 -13    5.86    3.01
  15  -3 -13    1.04    1.18
  15   3 -13    8.33    2.99
  15  -3 -12   26.70    5.49
  15   3 -12   38.13    5.46
  15  -3 -12   36.51    6.09
  15  -3 -11   12.19    3.42
  15  -3 -11    7.10    1.92
  15   3 -11   10.51    3.38
  15  -3 -10   -0.39    2.27
  15  -3 -10    1.50    2.16
  15   3 -10    0.46    1.16
  15  -3  -9    8.49    2.65
  15  -3  -9    6.37    2.47
  15   3  -9    7.85    3.13
  15  -3  -8    9.20    2.40
  15  -3  -8    9.32    2.80
  15   3  -8   15.14    3.37
  15  -3  -7   10.10    3.43
  15  -3  -7    9.99    3.68
  15   3  -7   13.38    3.31
  15  -3  -6   21.90    4.04
  15  -3  -6   19.27    4.52
  15   3  -6   22.38    4.24
  15   3  -6   19.22    4.39
  15  -3  -5   10.85    3.55
  15  -3  -5   12.47    3.49
  15   3  -5   13.92    3.23
  15   3  -5   19.62    4.08
  15  -3  -4    7.40    2.05
  15  -3  -4   12.78    3.84
  15   3  -4   10.93    2.97
  15   3  -4    9.80    3.40
  15  -3  -3   56.55    7.11
  15   3  -3   57.13    6.69
  15  -3  -3   55.32    6.76
  15   3  -3   58.13    6.84
  15   3  -3   58.44    6.51
  15  -3  -2   22.53    4.62
  15   3  -2   24.53    4.72
  15  -3  -2   18.03    4.28
  15   3  -2   14.52    3.76
  15   3  -2   20.88    4.41
  15   3  -1   10.79    2.85
  15   3  -1   17.37    3.48
  15  -3  -1   15.80    3.53
  15  -3  -1   20.45    4.55
  15   3  -1   17.23    3.98
  15   3   0   24.87    4.43
  15   3   0   21.58    4.15
  15  -3   0   17.74    4.25
  15  -3   0   20.56    4.14
  15   3   0   25.64    4.83
  15   3   1   15.37    3.90
  15   3   1   18.51    3.73
  15  -3   1    8.79    2.82
  15  -3   1   21.37    4.64
  15   3   1   18.80    3.80
  15   3   2   17.48    3.84
  15   3   2   18.64    4.15
  15  -3   2   17.24    4.12
  15  -3   2   18.48    4.69
  15   3   2   17.54    4.62
  15  -3   3   46.55    6.15
  15  -3   3   49.63    6.67
  15   3   3   47.89    6.55
  15   3   3   45.57    6.03
  15   3   4   15.32    3.66
  15   3   4   13.10    3.36
  15  -3   4   10.43    2.88
  15  -3   4    6.87    2.94
  15   3   5   12.40    3.62
  15   3   5   19.74    4.33
  15  -3   5   17.81    4.06
  15  -3   5   14.83    4.12
  15   3   6   21.69    4.72
  15   3   6   12.15    2.94
  15  -3   6   17.45    3.58
  15  -3   6   13.83    3.73
  15   3   7   12.95    3.56
  15   3   7   10.57    3.11
  15  -3   7   10.15    3.54
  15  -3   7   16.64    4.33
  15   3   8   14.96    4.04
  15   3   8   11.33    3.19
  15  -3   8   20.07    4.20
  15  -3   8   14.24    3.42
  15   3   9    7.76    3.07
  15   3   9    6.31    2.27
  15  -3   9   10.46    3.09
  15  -3   9    9.45    3.07
  15   3  10    1.90    2.38
  15   3  10    0.23    0.90
  15  -3  10    2.79    2.04
  15  -3  10    2.22    2.39
  15   3  11    6.63    3.40
  15   3  11   12.11    3.63
  15  -3  11   12.71    3.78
  15  -3  11    8.81    4.17
  15  -3  12   34.44    5.62
  15   3  12   41.53    6.23
  15   3  12   46.00    6.72
  15   3  13    5.11    2.18
  15  -3  13    6.95    2.47
  15   3  14   11.22    3.82
  15  -3  14    7.50    2.81
  15   3  15    3.44    1.81
  15  -3  15    4.27    2.94
  15   3  16    0.84    1.19
  15  -3  16    4.34    3.20
  15  -3  17   32.96    6.24
  15   3  17   34.69    5.85
  15   3  18   16.53    4.07
  15  -3  18   15.07    4.23
  15   3  19    0.72    1.74
  15  -3  19    1.76    2.07
  15   3  20    2.95    1.64
  15  -3  20    6.56    3.49
  15  -4 -18    5.27    1.74
  15   4 -18   -1.28    2.56
  15  -4 -17    2.40    1.23
  15   4 -17    9.32    3.42
  15  -4 -16   10.96    3.69
  15   4 -16    6.66    3.03
  15  -4 -15    6.04    2.27
  15   4 -15    7.01    2.77
  15  -4 -14    8.83    3.09
  15  -4 -14   12.71    3.80
  15   4 -14    7.08    2.33
  15  -4 -13    7.51    2.91
  15  -4 -13   14.15    4.11
  15   4 -13    7.92    2.67
  15  -4 -12    3.52    1.38
  15  -4 -12    1.27    1.73
  15  -4 -11   14.08    3.80
  15  -4 -11   13.75    4.22
  15   4 -11   21.11    4.65
  15  -4 -10    1.58    1.31
  15   4 -10    1.83    2.08
  15  -4  -9   11.74    3.69
  15  -4  -9    6.62    2.53
  15   4  -9    3.86    2.51
  15  -4  -8   18.40    4.32
  15  -4  -8   16.94    4.03
  15   4  -8   20.51    4.59
  15   4  -7   21.06    4.09
  15  -4  -7   11.92    3.64
  15  -4  -7   20.72    4.79
  15   4  -6    9.42    2.98
  15  -4  -6    8.31    3.27
  15  -4  -6    7.56    2.77
  15   4  -5    3.75    1.82
  15   4  -5    2.22    2.44
  15  -4  -5    3.82    2.67
  15   4  -4    3.81    2.53
  15   4  -4    5.25    2.57
  15  -4  -4    4.20    2.48
  15  -4  -4    7.37    3.50
  15   4  -3    3.05    1.49
  15   4  -3    4.64    1.54
  15  -4  -3    1.45    1.14
  15  -4  -3    5.26    2.04
  15   4  -2   -0.04    1.10
  15   4  -2   -1.17    2.16
  15  -4  -2    0.74    1.77
  15  -4  -2    0.77    3.27
  15   4  -1    9.22    2.61
  15   4  -1    6.28    2.51
  15  -4  -1    5.18    2.09
  15  -4  -1    9.04    3.81
  15   4   0    9.04    2.55
  15   4   0    8.34    2.76
  15  -4   0    9.23    2.79
  15  -4   0    6.47    1.78
  15   4   1    1.12    2.50
  15   4   1    4.65    2.13
  15  -4   1   10.89    3.08
  15  -4   1    6.50    2.55
  15   4   2    1.27    1.75
  15   4   2    1.13    1.19
  15  -4   2    2.47    2.58
  15  -4   2    1.25    2.14
  15   4   3    2.44    1.66
  15   4   3    2.34    2.24
  15  -4   3    5.58    2.13
  15  -4   3    2.88    2.34
  15   4   4    2.11    1.88
  15   4   4    3.01    1.77
  15  -4   4   -0.94    1.41
  15   4   5    8.27    3.30
  15   4   5   16.65    3.70
  15  -4   5   19.62    4.32
  15  -4   5   13.20    2.86
  15   4   6   10.22    3.05
  15   4   6    7.08    2.72
  15  -4   6    5.71    2.51
  15  -4   6    9.41    3.28
  15   4   7   24.76    4.93
  15   4   7   21.98    4.63
  15  -4   7   21.94    4.16
  15  -4   7   21.26    4.68
  15   4   8   12.73    3.78
  15   4   8   12.34    3.43
  15  -4   8    8.73    3.57
  15  -4   8   13.58    3.72
  15   4   9   10.69    3.51
  15   4   9   14.18    3.14
  15  -4   9   14.36    3.91
  15  -4   9    9.16    3.15
  15   4  10    3.45    1.54
  15   4  10    3.31    2.10
  15  -4  10    1.61    0.97
  15  -4  10    4.90    3.04
  15   4  11   16.87    3.63
  15   4  11   20.72    4.39
  15  -4  11   26.48    5.03
  15  -4  11   24.26    5.15
  15   4  12    1.84    1.82
  15   4  12    1.74    0.96
  15  -4  12    1.56    1.22
  15  -4  12    4.84    2.14
  15   4  13    7.15    2.40
  15  -4  13   15.15    4.42
  15  -4  13   15.25    4.61
  15   4  14   12.96    3.34
  15  -4  14   15.96    4.03
  15  -4  14   23.23    5.08
  15   4  15   10.03    3.68
  15  -4  15   10.27    3.84
  15   4  16    6.85    2.97
  15  -4  16    6.51    3.15
  15   4  17    8.14    3.32
  15  -4  17    5.47    2.62
  15   4  18    0.46    1.61
  15  -4  18    3.12    2.38
  15  -5 -16   -0.21    1.72
  15   5 -16    5.34    2.78
  15  -5 -15    2.99    2.17
  15  -5 -15    5.25    2.80
  15   5 -15    5.97    2.36
  15  -5 -14    9.25    3.47
  15  -5 -14   12.20    4.22
  15   5 -14    9.71    3.37
  15  -5 -13   25.92    5.20
  15  -5 -13   24.36    4.91
  15   5 -13   21.04    4.23
  15  -5 -12    4.57    2.23
  15  -5 -12    1.40    2.22
  15   5 -12    1.35    1.02
  15  -5 -11    6.96    3.16
  15  -5 -11    4.70    1.44
  15   5 -11    8.92    3.61
  15   5 -10   16.30    4.11
  15  -5 -10    8.77    3.59
  15  -5 -10   14.18    3.94
  15  -5  -9   47.02    6.59
  15   5  -9   37.05    5.85
  15  -5  -9   47.14    6.80
  15   5  -8    5.36    2.30
  15  -5  -8    2.45    1.17
  15  -5  -8    2.86    2.15
  15   5  -7   13.25    2.95
  15  -5  -7    9.96    3.53
  15  -5  -7   11.40    3.93
  15   5  -6   12.02    3.31
  15  -5  -6   10.58    2.84
  15  -5  -6   10.17    3.34
  15   5  -5    1.56    1.87
  15  -5  -5    0.84    0.96
  15  -5  -5    1.44    1.80
  15   5  -4    8.93    2.76
  15  -5  -4    8.18    2.33
  15  -5  -4    3.64    1.89
  15  -5  -3   36.55    5.90
  15   5  -3   29.11    4.94
  15  -5  -3   28.55    5.82
  15   5  -3   40.65    5.86
  15   5  -2    3.20    1.81
  15   5  -2    2.74    2.35
  15  -5  -2    0.50    1.50
  15  -5  -2    0.39    2.43
  15  -5  -1   33.28    5.76
  15  -5  -1   34.09    5.81
  15   5  -1   33.84    5.37
  15   5  -1   35.92    5.60
  15  -5   0   23.39    4.61
  15  -5   0   34.17    5.96
  15   5   0   34.81    5.86
  15   5   0   31.77    5.29
  15   5   1   30.74    5.00
  15  -5   1   38.55    5.74
  15  -5   1   37.26    6.06
  15   5   1   39.05    5.97
  15   5   2    0.54    1.48
  15  -5   2    1.03    1.15
  15   5   2   -0.77    1.27
  15  -5   2    2.67    2.45
  15  -5   3   34.78    6.06
  15  -5   3   39.45    6.66
  15   5   3   42.46    6.46
  15   5   3   40.70    5.84
  15   5   4   12.07    3.45
  15  -5   4    6.88    2.14
  15   5   4    9.57    2.50
  15  -5   4   11.54    3.56
  15   5   5    2.11    1.14
  15  -5   5   -0.62    1.29
  15   5   5    2.96    2.15
  15  -5   5    0.78    2.05
  15   5   6   15.85    3.79
  15  -5   6   13.60    3.61
  15   5   6   13.95    3.59
  15  -5   6   14.58    3.41
  15   5   7    8.61    2.63
  15  -5   7    9.94    2.90
  15   5   7   13.42    3.39
  15  -5   7    9.81    3.07
  15   5   8    1.03    1.87
  15  -5   8    3.44    1.41
  15   5   8    6.45    3.29
  15  -5   8    3.59    2.49
  15   5   9   38.60    5.66
  15  -5   9   50.04    7.15
  15  -5   9   43.85    6.40
  15   5   9   53.03    6.58
  15   5  10   11.47    3.57
  15  -5  10   14.44    4.09
  15   5  10    7.30    3.03
  15  -5  10   18.02    4.48
  15   5  11    2.53    1.78
  15   5  11    1.45    1.40
  15  -5  11    1.70    1.73
  15   5  12    1.84    1.40
  15  -5  12    3.37    2.49
  15   5  12    0.89    2.09
  15  -5  12    2.81    1.42
  15   5  13   14.11    3.47
  15  -5  13   18.58    4.48
  15   5  13   20.42    4.50
  15  -5  13   20.16    4.56
  15  -5  14   11.80    3.72
  15   5  14   12.21    3.85
  15  -5  14    6.45    1.76
  15  -5  15    5.45    2.43
  15   5  15    2.91    1.54
  15  -5  15    3.81    2.87
  15  -5  16    1.73    1.56
  15   5  16    6.41    3.26
  15  -6 -14    0.74    3.06
  15  -6 -14    0.02    2.19
  15   6 -14   -0.55    1.34
  15   6 -13    1.99    3.16
  15  -6 -13    1.08    1.70
  15  -6 -13   -3.52    1.65
  15   6 -12   -1.76    2.27
  15  -6 -12    2.69    1.85
  15  -6 -12    3.14    1.38
  15   6 -11    2.05    1.91
  15  -6 -11    5.85    2.71
  15  -6 -11    5.74    2.69
  15   6 -10    6.53    3.26
  15  -6 -10    8.11    2.97
  15  -6 -10   11.52    3.76
  15   6  -9    1.15    1.08
  15  -6  -9    0.41    1.96
  15  -6  -9    2.58    2.26
  15   6  -8    0.07    1.04
  15  -6  -8    1.16    2.47
  15  -6  -8   -1.65    1.63
  15   6  -7    2.80    2.35
  15  -6  -7    5.52    3.10
  15  -6  -7   -0.61    2.23
  15   6  -6    1.25    1.51
  15  -6  -6    3.49    2.51
  15  -6  -6    4.22    2.41
  15   6  -5    2.90    2.64
  15  -6  -5    2.72    2.18
  15  -6  -5    3.83    2.25
  15   6  -4    7.46    3.41
  15  -6  -4    7.68    2.96
  15  -6  -4   14.17    4.06
  15   6  -3   -1.20    2.28
  15  -6  -3    2.31    2.19
  15  -6  -3   -1.57    1.66
  15   6  -2   14.21    4.04
  15  -6  -2    9.03    3.32
  15   6  -2   21.15    4.77
  15  -6  -2    9.54    2.85
  15  -6  -1   11.90    2.90
  15   6  -1   11.22    2.49
  15  -6  -1    8.87    3.38
  15   6   0   15.64    3.91
  15  -6   0   10.93    3.77
  15   6   0    9.93    3.29
  15  -6   0   19.49    4.78
  15   6   1   18.72    4.31
  15  -6   1   16.17    4.37
  15   6   1   15.61    3.86
  15  -6   1   15.62    3.72
  15   6   2   12.82    3.78
  15  -6   2    8.68    2.58
  15   6   2   13.85    3.94
  15  -6   2   10.35    3.31
  15   6   3    0.72    1.88
  15  -6   3   -1.29    2.22
  15   6   3    0.51    1.84
  15  -6   3    1.51    1.84
  15   6   4   12.40    3.96
  15  -6   4   10.41    3.41
  15   6   4    7.65    2.66
  15  -6   4    9.15    3.36
  15   6   5    3.61    2.76
  15  -6   5    2.69    3.11
  15   6   5    1.37    1.36
  15  -6   5   -1.08    1.76
  15   6   6    8.02    2.87
  15  -6   6    3.79    3.00
  15   6   6    2.82    2.07
  15  -6   6    7.96    3.32
  15   6   7    0.54    1.99
  15  -6   7    4.12    2.68
  15   6   7    1.04    1.22
  15  -6   7    1.85    2.02
  15   6   8    2.95    3.20
  15  -6   8    0.64    1.25
  15   6   8   -1.33    1.57
  15  -6   8    5.15    2.93
  15   6   9    1.75    2.31
  15  -6   9    2.60    1.96
  15   6   9    3.01    1.90
  15  -6   9    0.46    1.72
  15   6  10   10.17    3.97
  15  -6  10    9.31    3.43
  15   6  10    1.36    1.42
  15  -6  10    4.65    2.82
  15   6  11    2.09    2.54
  15  -6  11    6.54    3.30
  15   6  11    1.97    1.38
  15  -6  11    2.97    2.11
  15   6  12    1.35    1.77
  15  -6  12   -0.27    2.24
  15   6  12    0.51    1.15
  15  -6  12    3.72    3.54
  15   6  13    1.11    2.74
  15  -6  13   -0.14    2.22
  15   6  13    1.43    1.56
  15  -6  13   -1.98    2.52
  15  -6  14    1.16    2.06
  15   6  14    3.64    2.90
  15  -6  14    4.42    2.65
  15  -7 -10    8.02    3.41
  15   7 -10    7.91    2.80
  15  -7 -10    3.96    1.92
  15   7  -9   10.18    3.48
  15  -7  -9   21.00    5.10
  15  -7  -9   12.02    3.51
  15   7  -8    1.70    1.29
  15  -7  -8    0.62    2.15
  15  -7  -8   -0.51    2.50
  15   7  -7    7.02    2.77
  15  -7  -7    8.86    3.35
  15  -7  -7    9.00    3.33
  15   7  -6    0.49    1.36
  15  -7  -6    0.93    0.97
  15  -7  -6    3.86    1.51
  15   7  -5    2.77    2.58
  15  -7  -5    6.75    3.40
  15  -7  -5    3.40    2.45
  15   7  -4   13.62    3.89
  15  -7  -4    4.10    3.07
  15  -7  -4    8.45    3.07
  15   7  -3   15.80    4.36
  15  -7  -3   13.28    3.72
  15  -7  -3   13.04    4.28
  15   7  -2   -0.06    2.10
  15  -7  -2   -0.66    1.54
  15  -7  -2    3.87    1.46
  15   7  -1   11.10    3.49
  15  -7  -1   11.07    3.50
  15  -7  -1   15.43    4.44
  15   7   0   11.65    3.58
  15  -7   0    6.73    2.75
  15   7   0    6.24    3.13
  15  -7   0    4.42    2.25
  15   7   1   15.93    4.06
  15  -7   1   16.05    4.05
  15   7   1   10.07    3.46
  15  -7   1    8.57    3.57
  15   7   2    1.47    2.43
  15  -7   2    3.71    2.62
  15   7   2   -0.31    2.63
  15  -7   2    3.34    2.46
  15  -7   3    4.84    2.83
  15   7   3    3.32    1.61
  15  -7   3    8.85    4.20
  15   7   4    4.69    2.93
  15  -7   4    0.92    2.15
  15   7   4    5.17    2.14
  15  -7   4    2.41    2.66
  15   7   5    2.69    1.79
  15  -7   5    3.61    2.59
  15   7   5    3.58    2.10
  15  -7   5    4.36    2.54
  15   7   6    2.75    2.12
  15  -7   6    5.80    3.67
  15   7   6    1.48    1.50
  15  -7   6    0.76    1.66
  15   7   7   11.01    4.14
  15  -7   7    7.13    3.57
  15   7   7    8.18    3.40
  15  -7   7    8.92    4.09
  15   7   8   -0.28    1.30
  15  -7   8   -2.88    2.51
  15   7   8   -0.76    1.66
  15  -7   8    0.40    2.62
  15   7   9   11.82    4.08
  15  -7   9   19.87    4.89
  15   7   9   14.12    3.92
  15  -7   9   14.92    4.47
  15   7  10    2.15    1.43
  15  -7  10   11.51    3.80
  15   7  10    6.79    2.94
  15  -7  10   13.84    4.16
  15  -8  -2    9.56    3.47
  15   8  -2   11.26    3.17
  15  -8  -2   15.45    4.97
  15   8  -1    4.42    2.65
  15  -8  -1    1.73    1.57
  15  -8  -1    2.78    2.78
  15   8   0    2.77    2.65
  15  -8   0    4.74    3.18
  15  -8   0    2.00    2.85
  15   8   1    4.32    2.55
  15  -8   1    0.01    1.98
  15  -8   1    2.04    2.34
  15   8   2    6.36    2.39
  15  -8   2   10.06    4.39
  15   8   2    3.49    2.03
  15  -8   2    5.30    3.42
  16   0 -18   31.36    6.46
  16   0 -17   27.91    5.61
  16   0 -16    5.07    2.84
  16   0 -15    8.21    2.45
  16   0 -14    0.86    2.16
  16   0 -13   95.23    9.71
  16   0 -12    7.13    2.95
  16   0 -11   12.98    3.77
  16   0 -10    8.08    3.57
  16   0  -9   16.51    3.89
  16   0  -9   13.77    4.47
  16   0  -8    8.33    2.89
  16   0  -8   14.08    3.66
  16   0  -7   63.69    7.45
  16   0  -7   74.82    8.49
  16   0  -6    7.48    2.67
  16   0  -6    6.09    2.30
  16   0  -5    0.24    1.89
  16   0  -5    2.53    2.04
  16   0  -4   17.63    4.31
  16   0  -4   18.34    4.64
  16   0  -3   58.79    7.05
  16   0  -3   66.30    7.98
  16   0  -2   88.77    8.61
  16   0  -2   78.67    8.48
  16   0  -1   14.44    3.29
  16   0  -1   15.63    3.92
  16   0   0    3.45    1.76
  16   0   0    1.95    1.57
  16   0   1   14.29    3.01
  16   0   1   11.83    3.39
  16   0   2   71.43    7.51
  16   0   2   71.21    7.96
  16   0   3   62.67    7.13
  16   0   3   76.94    8.38
  16   0   4   21.83    4.78
  16   0   4   17.74    4.39
  16   0   5    2.20    1.23
  16   0   5    5.07    3.05
  16   0   6    3.90    1.04
  16   0   6    8.24    2.76
  16   0   7   70.77    8.03
  16   0   8   16.97    4.28
  16   0   9   14.70    4.03
  16   0  10   15.48    3.67
  16   0  11    7.18    2.47
  16   0  12    5.13    2.73
  16   0  13  109.74   10.08
  16   0  14    1.44    1.23
  16   0  15    5.06    2.32
  16   0  16    9.88    3.22
  16   0  17   37.19    6.25
  16   0  18   25.14    5.54
  16   0  19   44.24    6.75
  16  -1 -19   -1.49    2.63
  16  -1 -18   -0.17    2.22
  16  -1 -17    3.20    2.11
  16  -1 -16    4.75    2.77
  16  -1 -15    5.41    2.72
  16  -1 -14   11.51    3.25
  16   1 -13   10.07    3.74
  16  -1 -13    3.94    2.18
  16   1 -12    1.07    1.56
  16  -1 -12    1.47    1.30
  16  -1 -11   -0.93    1.76
  16   1 -11   -1.05    1.88
  16  -1 -10    0.45    1.44
  16  -1 -10    2.07    2.05
  16   1 -10    0.41    1.13
  16  -1  -9    4.27    2.24
  16  -1  -9    3.46    2.05
  16   1  -9    5.51    3.19
  16  -1  -8    2.70    1.88
  16   1  -8    0.41    1.75
  16  -1  -8    0.07    1.74
  16   1  -8   -1.18    1.38
  16  -1  -7    3.07    1.93
  16   1  -7   -0.20    0.99
  16  -1  -7    0.82    1.45
  16   1  -7   -0.22    1.32
  16  -1  -6    2.43    1.90
  16   1  -6    1.07    1.49
  16  -1  -6    2.89    1.30
  16   1  -6    2.77    2.48
  16   1  -6    5.08    2.50
  16  -1  -5   13.10    3.33
  16   1  -5    8.73    3.42
  16  -1  -5    8.87    2.66
  16   1  -5   12.33    3.52
  16   1  -5   15.25    3.41
  16  -1  -4    0.19    1.20
  16   1  -4   -0.49    1.17
  16  -1  -4    0.69    1.61
  16   1  -4    2.70    2.13
  16   1  -4   -0.74    1.30
  16  -1  -3   17.85    3.90
  16   1  -3   15.12    3.62
  16  -1  -3   15.81    4.12
  16   1  -3   15.69    4.12
  16   1  -3   16.78    3.78
  16  -1  -2    1.93    2.29
  16   1  -2    0.01    1.32
  16  -1  -2   -0.06    1.68
  16   1  -2    3.13    1.88
  16   1  -2   -0.36    2.05
  16  -1  -1    3.32    2.19
  16   1  -1    8.12    3.18
  16  -1  -1    5.58    2.77
  16   1  -1    5.00    2.98
  16   1  -1    3.83    1.51
  16  -1   0    1.45    1.53
  16  -1   0   -0.33    1.98
  16   1   0    1.45    1.85
  16   1   0   -0.22    1.42
  16   1   0    0.61    1.47
  16  -1   1    1.50    1.28
  16  -1   1    1.92    1.23
  16   1   1    4.20    1.26
  16   1   1    2.97    0.91
  16   1   1    2.76    1.44
  16  -1   2    4.91    2.44
  16  -1   2    2.95    2.48
  16   1   2    1.35    1.28
  16   1   2    1.20    1.57
  16   1   2   -0.05    1.29
  16  -1   3   16.69    3.93
  16  -1   3   11.74    3.63
  16   1   3   15.53    3.42
  16   1   3   12.72    3.55
  16   1   3   20.34    4.09
  16  -1   4    0.51    1.93
  16  -1   4    1.94    1.58
  16   1   4    0.49    1.92
  16   1   4    0.83    1.46
  16   1   4    0.56    1.31
  16  -1   5   10.43    3.14
  16  -1   5    8.97    2.72
  16   1   5   14.38    3.93
  16   1   5   12.27    3.43
  16   1   5   10.73    3.06
  16  -1   6    4.05    1.05
  16   1   6    3.67    2.26
  16   1   6    2.53    1.55
  16  -1   7    4.43    2.47
  16  -1   7    1.19    1.74
  16   1   7    0.97    1.28
  16   1   7    2.13    1.29
  16  -1   8    0.85    0.88
  16  -1   8   -0.01    1.40
  16   1   8   -1.33    2.26
  16   1   8    0.01    1.12
  16   1   9    2.14    1.29
  16  -1   9    4.29    2.59
  16   1   9    0.32    2.08
  16   1  10    1.67    1.86
  16  -1  10    0.14    1.51
  16   1  10   -0.13    1.72
  16   1  11   -1.30    2.19
  16  -1  11   -0.90    1.97
  16   1  12    0.09    1.14
  16  -1  12   -1.12    2.22
  16   1  13    4.96    2.25
  16  -1  13    7.39    3.03
  16   1  14   15.34    3.62
  16  -1  14    6.76    3.12
  16   1  15    5.69    2.88
  16  -1  15    3.53    2.76
  16   1  16    1.15    2.26
  16  -1  16    1.21    2.08
  16   1  17    2.80    1.32
  16  -1  17    6.60    3.40
  16   1  18    1.27    2.13
  16  -1  18    0.17    2.83
  16   1  19    0.68    2.00
  16  -1  19   -0.17    1.59
  16  -2 -19    8.59    3.66
  16  -2 -18    2.77    1.59
  16  -2 -17   31.22    5.62
  16  -2 -16    3.99    2.72
  16  -2 -15    2.18    1.35
  16  -2 -14    4.72    2.14
  16  -2 -13   41.76    6.55
  16  -2 -12    6.89    2.84
  16   2 -12   13.79    3.91
  16  -2 -11    9.06    3.39
  16  -2 -11   12.41    3.95
  16   2 -11   11.58    3.38
  16  -2 -10    4.11    2.08
  16  -2 -10    1.17    1.20
  16   2 -10    4.18    2.40
  16  -2  -9   10.12    3.07
  16  -2  -9   11.74    3.23
  16   2  -9    3.80    1.87
  16  -2  -8    2.56    2.48
  16  -2  -8   -0.10    1.75
  16   2  -8    7.24    4.37
  16   2  -8    3.97    1.64
  16  -2  -7   39.93    5.96
  16   2  -7   30.05    5.10
  16  -2  -7   39.76    6.22
  16   2  -7   36.33    6.37
  16   2  -7   45.36    5.98
  16  -2  -6    0.08    1.67
  16   2  -6    4.07    2.53
  16  -2  -6    3.29    1.58
  16   2  -6    2.94    2.74
  16   2  -6    2.90    1.73
  16  -2  -5    3.79    1.34
  16  -2  -5    6.44    2.95
  16   2  -5    6.43    2.45
  16   2  -5    8.41    3.20
  16   2  -5    3.96    1.94
  16  -2  -4    0.05    1.69
  16  -2  -4    2.05    2.18
  16   2  -4    2.33    1.35
  16   2  -4    3.14    1.51
  16   2  -4    2.97    1.21
  16  -2  -3   57.24    6.99
  16   2  -3   53.64    6.74
  16  -2  -3   44.38    6.68
  16   2  -3   38.55    6.08
  16   2  -3   54.92    6.69
  16  -2  -2    7.95    2.86
  16  -2  -2    8.13    2.85
  16   2  -2    3.63    2.10
  16   2  -2    6.34    2.62
  16   2  -2    7.32    2.44
  16  -2  -1    5.76    2.43
  16  -2  -1    3.99    2.11
  16   2  -1    6.74    3.01
  16   2  -1    6.37    2.63
  16   2  -1    1.57    1.95
  16  -2   0    0.58    1.38
  16  -2   0    2.52    2.11
  16   2   0   -0.57    0.96
  16   2   0    0.58    1.42
  16   2   0    4.52    2.02
  16  -2   1    7.35    3.11
  16  -2   1    8.54    3.31
  16   2   1    5.84    2.71
  16   2   1    1.46    1.50
  16   2   1    5.15    2.25
  16  -2   2    6.80    2.30
  16  -2   2    5.62    2.33
  16   2   2    4.67    2.13
  16   2   2    6.33    2.71
  16   2   2    4.10    2.34
  16  -2   3   43.82    6.26
  16   2   3   56.80    6.79
  16  -2   3   34.77    5.26
  16   2   3   49.69    6.76
  16   2   3   52.79    6.83
  16   2   4    2.67    1.85
  16  -2   4    8.05    3.17
  16  -2   4    4.35    2.20
  16   2   4    2.95    2.55
  16   2   4    4.71    2.79
  16   2   5    9.22    3.05
  16  -2   5    9.05    2.82
  16  -2   5    8.68    2.10
  16   2   5    2.99    2.19
  16   2   6    5.67    2.41
  16  -2   6    5.25    2.27
  16  -2   6    6.52    3.08
  16   2   6    3.03    2.10
  16  -2   7   36.69    5.78
  16   2   7   41.70    6.05
  16  -2   7   35.45    5.44
  16   2   7   35.73    5.43
  16   2   8    3.39    1.59
  16  -2   8    5.05    2.96
  16  -2   8    3.24    2.72
  16   2   8    5.55    2.09
  16   2   9    9.83    2.93
  16  -2   9    9.19    3.19
  16  -2   9    2.59    1.14
  16   2   9   11.66    3.60
  16   2  10    6.94    2.87
  16  -2  10    3.03    2.70
  16  -2  10    3.68    1.62
  16   2  10    3.25    1.53
  16   2  11    3.95    2.30
  16   2  11    4.10    1.87
  16   2  12    9.90    2.75
  16  -2  12   13.71    3.83
  16  -2  13   49.63    6.97
  16   2  13   47.99    6.68
  16   2  14    2.93    1.62
  16  -2  14    4.99    2.26
  16   2  15    0.49    1.10
  16  -2  15   -0.40    1.89
  16   2  16    4.93    3.02
  16  -2  16   -0.36    1.48
  16  -2  17   41.08    6.67
  16   2  17   38.50    6.27
  16   2  18    9.65    3.81
  16  -2  18    8.98    2.89
  16   2  19    4.29    3.16
  16  -2  19    1.26    2.00
  16  -3 -18    0.52    2.77
  16  -3 -17    4.28    2.89
  16  -3 -16    0.15    1.32
  16  -3 -15   -1.27    2.37
  16   3 -15    2.48    1.91
  16  -3 -14    0.08    1.85
  16   3 -14    1.20    1.12
  16  -3 -13    3.57    3.07
  16  -3 -13    6.05    2.90
  16   3 -13    3.54    1.30
  16  -3 -12    2.07    2.02
  16  -3 -12    1.76    1.69
  16   3 -12    1.25    1.47
  16  -3 -11    5.77    2.83
  16  -3 -11    2.75    2.48
  16   3 -11    3.75    1.38
  16  -3 -10    0.16    1.71
  16  -3 -10    0.10    1.31
  16   3 -10    1.03    1.12
  16  -3  -9    1.82    2.51
  16  -3  -9    2.63    2.76
  16   3  -9    3.72    1.57
  16  -3  -8    1.33    1.35
  16  -3  -8    3.61    2.44
  16   3  -8    3.06    2.42
  16  -3  -7    4.19    1.97
  16  -3  -7    4.06    1.64
  16   3  -7    3.98    1.99
  16  -3  -6    0.57    1.48
  16  -3  -6   -1.43    1.42
  16   3  -6   -1.79    2.51
  16  -3  -5    2.50    1.64
  16  -3  -5    2.68    2.01
  16   3  -5    3.43    2.12
  16   3  -5   -0.02    1.82
  16  -3  -4    1.30    0.99
  16  -3  -4    1.01    2.05
  16   3  -4    2.72    1.70
  16   3  -4    1.37    1.33
  16  -3  -3   -1.34    2.14
  16  -3  -3   -1.02    1.88
  16   3  -3   -0.13    1.94
  16   3  -3    0.63    1.89
  16  -3  -2   -0.71    1.11
  16  -3  -2    0.10    2.25
  16   3  -2    1.51    2.01
  16   3  -2   -0.05    1.39
  16   3  -2    0.24    1.51
  16   3  -1    0.90    0.85
  16  -3  -1    3.24    1.88
  16  -3  -1    2.31    1.20
  16   3  -1   -1.02    2.18
  16   3  -1    1.02    1.14
  16   3   0    0.60    0.98
  16  -3   0   -0.61    1.55
  16  -3   0    2.02    2.71
  16   3   0    1.20    2.08
  16   3   0    0.90    0.99
  16   3   1   -0.10    1.07
  16  -3   1   -0.45    1.67
  16  -3   1    4.40    3.14
  16   3   1    0.08    2.29
  16   3   1    0.18    1.15
  16   3   2    1.39    1.28
  16  -3   2   -0.32    1.67
  16  -3   2    0.21    1.62
  16   3   2    0.34    1.31
  16   3   2    0.02    1.40
  16   3   3    0.39    1.65
  16  -3   3    0.19    1.03
  16  -3   3   -2.14    1.32
  16   3   3   -0.48    1.61
  16   3   3    0.93    2.42
  16   3   4    0.50    1.50
  16  -3   4    3.08    2.33
  16  -3   4    3.68    1.32
  16   3   4    1.40    1.71
  16   3   5    5.47    2.74
  16  -3   5    5.53    3.10
  16  -3   5    2.25    2.72
  16   3   5    2.73    1.28
  16   3   6    2.31    1.65
  16  -3   6    2.20    1.93
  16  -3   6    0.71    1.26
  16   3   6   -0.70    1.74
  16   3   7    1.45    1.44
  16  -3   7    1.89    1.52
  16  -3   7    3.21    2.19
  16   3   7    5.47    3.05
  16   3   8   -0.04    1.38
  16  -3   8    1.66    1.17
  16  -3   8    0.60    2.62
  16   3   8    1.61    2.73
  16   3   9    0.84    1.29
  16  -3   9    1.08    1.55
  16  -3   9    1.38    2.23
  16   3   9    0.52    1.33
  16   3  10   -0.21    1.31
  16  -3  10    0.92    1.13
  16  -3  10    1.49    1.63
  16   3  10   -2.62    2.98
  16   3  11    5.49    2.78
  16  -3  11    6.59    2.63
  16  -3  11    4.47    2.44
  16   3  11    2.22    1.97
  16   3  12   -0.25    1.15
  16  -3  12   -1.04    1.65
  16  -3  12    1.02    2.47
  16   3  13   -0.21    2.26
  16  -3  13    2.43    1.70
  16   3  14   -0.82    1.98
  16  -3  14    3.83    2.73
  16   3  15   -2.25    1.79
  16  -3  15    3.11    2.50
  16   3  16    0.22    1.39
  16  -3  16    1.24    2.05
  16   3  17   -1.58    2.38
  16  -3  17    0.02    1.84
  16   3  18   -0.22    1.47
  16  -3  18    0.45    1.86
  16  -4 -16   -0.35    1.41
  16   4 -16    6.17    2.76
  16  -4 -15   11.32    3.73
  16   4 -15    5.83    3.04
  16  -4 -14    2.66    1.76
  16   4 -14   -0.27    2.56
  16  -4 -13   32.60    5.98
  16  -4 -13   53.12    7.50
  16   4 -13   49.18    7.01
  16  -4 -12    4.89    2.51
  16  -4 -12    4.16    2.82
  16   4 -12    7.52    2.38
  16  -4 -11   18.37    4.18
  16  -4 -11   13.03    3.24
  16   4 -11    6.41    3.12
  16  -4 -10   15.04    4.07
  16  -4 -10    6.19    3.24
  16   4 -10    8.31    2.87
  16  -4  -9   30.36    5.55
  16  -4  -9   13.81    3.47
  16   4  -9   31.36    5.34
  16  -4  -8   -0.16    1.42
  16  -4  -8    1.60    1.63
  16   4  -8   -0.28    1.38
  16  -4  -7   21.45    4.58
  16  -4  -7   23.58    4.69
  16   4  -7   27.96    5.57
  16  -4  -6    0.92    1.64
  16  -4  -6    3.89    2.76
  16   4  -6    1.58    1.82
  16  -4  -5   17.80    3.94
  16  -4  -5   11.87    3.92
  16   4  -5   13.09    3.01
  16   4  -4    3.13    1.81
  16   4  -4    6.49    2.39
  16  -4  -4    6.60    2.82
  16  -4  -4    3.62    1.47
  16  -4  -3   45.22    6.60
  16   4  -3   45.76    6.19
  16  -4  -3   53.87    7.45
  16   4  -3   47.49    6.59
  16   4  -2    1.69    1.31
  16  -4  -2    3.24    2.24
  16  -4  -2    5.03    1.87
  16   4  -1   10.96    3.45
  16   4  -1   15.07    3.60
  16  -4  -1    5.32    2.68
  16  -4  -1    9.76    4.52
  16   4   0   -0.07    1.88
  16   4   0    0.06    1.39
  16  -4   0    2.57    2.06
  16  -4   0   -0.28    2.59
  16   4   1   11.03    3.18
  16   4   1   10.03    2.98
  16  -4   1   10.94    3.23
  16  -4   1    8.52    3.31
  16   4   2    7.28    2.48
  16   4   2   14.89    3.81
  16  -4   2   12.95    3.45
  16  -4   2    5.47    2.17
  16  -4   3   41.97    6.26
  16  -4   3   40.46    6.60
  16   4   3   57.60    7.10
  16   4   3   53.60    7.02
  16   4   4    1.80    1.48
  16   4   4    3.17    1.89
  16  -4   4    5.18    2.68
  16  -4   4    5.18    2.41
  16   4   5    9.98    2.50
  16   4   5   10.70    3.19
  16  -4   5    7.75    3.20
  16  -4   5   12.93    3.32
  16   4   6    1.39    2.21
  16   4   6   -0.41    1.04
  16  -4   6    0.20    1.13
  16  -4   6    1.81    2.06
  16   4   7   15.89    4.40
  16  -4   7   25.11    5.09
  16  -4   7   25.89    5.65
  16   4   7   25.68    5.12
  16   4   8   -1.85    2.39
  16   4   8    1.50    2.06
  16  -4   8    1.03    2.08
  16  -4   8   -0.14    1.45
  16   4   9   19.28    4.57
  16   4   9   28.29    4.96
  16  -4   9   24.11    5.00
  16  -4   9   13.78    3.95
  16   4  10    5.96    3.06
  16   4  10    6.98    2.59
  16  -4  10    6.61    2.67
  16  -4  10    2.11    2.00
  16   4  11    9.86    3.17
  16   4  11   14.33    3.86
  16  -4  11   12.08    3.36
  16  -4  11    9.64    3.10
  16   4  12    2.32    2.14
  16   4  12   12.46    3.89
  16  -4  12    9.11    3.63
  16  -4  12   11.39    3.42
  16  -4  13   51.02    7.06
  16  -4  13   56.78    8.03
  16   4  13   45.09    6.63
  16   4  14    2.39    1.23
  16  -4  14    3.95    2.40
  16  -4  14    3.03    2.04
  16   4  15    1.18    2.49
  16  -4  15    0.70    1.69
  16  -4  15    4.13    3.04
  16   4  16    5.75    2.20
  16  -4  16    5.02    2.52
  16  -4  16    8.20    3.12
  16  -5 -14    6.24    2.68
  16  -5 -14    9.78    2.99
  16   5 -14    8.96    3.08
  16  -5 -13   -0.85    1.73
  16  -5 -13    0.61    2.04
  16   5 -13   -2.13    2.34
  16  -5 -12    5.76    2.46
  16  -5 -12   -0.64    1.39
  16   5 -12    3.40    2.16
  16  -5 -11    7.04    3.64
  16  -5 -11    4.83    3.05
  16   5 -11    5.06    2.47
  16  -5 -10    4.89    3.32
  16  -5 -10    9.33    3.36
  16   5 -10    8.31    3.37
  16  -5  -9   -1.20    1.91
  16  -5  -9    3.52    2.40
  16   5  -9    1.08    1.52
  16   5  -8    1.72    1.69
  16  -5  -8   -1.58    2.50
  16  -5  -8    1.26    1.58
  16   5  -7    0.64    1.14
  16  -5  -7    0.27    1.29
  16  -5  -7    1.95    3.07
  16   5  -6    0.79    1.39
  16  -5  -6   -1.71    1.38
  16  -5  -6   -0.41    1.15
  16   5  -5    6.42    2.60
  16  -5  -5   11.48    3.74
  16  -5  -5   10.20    3.12
  16   5  -4    3.32    1.25
  16  -5  -4    8.63    2.53
  16  -5  -4    5.95    2.82
  16   5  -3    4.20    2.31
  16  -5  -3    1.08    1.45
  16  -5  -3    5.94    3.12
  16   5  -2    0.13    1.17
  16   5  -2    3.30    2.80
  16  -5  -2    0.96    1.66
  16  -5  -2   -0.88    2.46
  16   5  -1   12.77    3.08
  16   5  -1    7.55    2.77
  16  -5  -1   10.70    3.14
  16  -5  -1    7.34    2.60
  16   5   0    2.89    2.34
  16   5   0   -0.69    1.50
  16  -5   0    2.29    2.59
  16  -5   0   -0.61    2.14
  16   5   1    5.17    1.99
  16   5   1    6.00    2.65
  16  -5   1    3.57    2.68
  16  -5   1    4.16    2.44
  16   5   2    1.45    1.48
  16   5   2   -0.25    1.54
  16  -5   2    1.52    1.68
  16  -5   2    2.32    1.68
  16   5   3    1.59    1.74
  16   5   3    6.37    2.35
  16  -5   3    2.74    2.33
  16  -5   3    3.93    1.88
  16   5   4    2.67    1.79
  16   5   4    3.47    2.13
  16  -5   4    1.20    2.55
  16  -5   4    6.90    3.08
  16   5   5    5.78    2.82
  16   5   5    8.36    3.11
  16  -5   5    9.20    2.98
  16  -5   5   14.74    4.57
  16   5   6    2.11    1.99
  16   5   6    1.34    1.52
  16  -5   6    0.24    1.79
  16  -5   6   -0.32    2.35
  16   5   7   -1.88    2.56
  16  -5   7    1.86    1.61
  16   5   7    0.62    1.46
  16  -5   7    1.86    2.37
  16   5   8    0.80    1.86
  16  -5   8   -1.18    2.60
  16   5   8   -1.41    1.13
  16  -5   8   -2.47    3.19
  16   5   9   -0.28    1.27
  16  -5   9    1.98    1.94
  16   5   9    0.24    1.44
  16  -5   9    2.08    2.59
  16   5  10    7.56    2.64
  16  -5  10    7.75    3.16
  16   5  10    6.60    2.38
  16  -5  10    6.21    2.88
  16   5  11    0.53    1.92
  16  -5  11    0.86    1.70
  16   5  11    5.62    2.54
  16  -5  11    0.59    1.61
  16   5  12   -1.26    1.79
  16  -5  12    4.74    2.64
  16  -5  12    2.00    2.32
  16  -5  13   -0.19    2.32
  16   5  13    0.79    1.37
  16  -5  13    3.64    3.15
  16   5  14   17.54    4.45
  16  -5  14    7.50    2.56
  16  -5  14   11.97    3.74
  16   6 -11    7.04    2.70
  16  -6 -11    5.61    2.91
  16  -6 -11    6.27    2.38
  16   6 -10    7.99    3.00
  16  -6 -10    5.75    2.72
  16  -6 -10    9.16    4.23
  16   6  -9   19.68    4.73
  16  -6  -9   22.42    4.74
  16  -6  -9   16.81    4.21
  16   6  -8    1.24    1.38
  16  -6  -8    3.19    2.39
  16  -6  -8   -1.86    1.52
  16   6  -7   24.37    4.87
  16  -6  -7   18.12    4.41
  16  -6  -7   15.75    3.68
  16   6  -6    5.03    2.37
  16  -6  -6    3.32    1.75
  16  -6  -6    0.37    1.27
  16   6  -5    0.68    1.16
  16  -6  -5   -3.75    2.94
  16  -6  -5    2.30    2.88
  16   6  -4    7.78    3.22
  16  -6  -4    8.04    2.67
  16  -6  -4   10.18    3.95
  16   6  -3   27.12    4.98
  16  -6  -3   29.33    5.18
  16  -6  -3   30.64    5.62
  16   6  -2   27.46    5.39
  16  -6  -2   25.26    4.71
  16  -6  -2   27.63    6.00
  16   6  -1   19.25    4.43
  16  -6  -1   25.96    4.93
  16   6  -1   20.10    4.77
  16  -6  -1   22.85    4.57
  16   6   0    2.84    1.48
  16  -6   0    3.60    2.45
  16   6   0    0.85    1.92
  16  -6   0    6.65    3.34
  16   6   1   20.08    4.14
  16  -6   1   20.14    4.65
  16   6   1   19.49    4.19
  16  -6   1   22.54    5.05
  16   6   2   32.65    5.04
  16  -6   2   23.08    4.69
  16   6   2   27.72    5.54
  16  -6   2   16.42    4.33
  16   6   3   28.59    5.33
  16  -6   3   17.78    4.48
  16   6   3   29.49    5.37
  16  -6   3   31.53    6.06
  16   6   4    3.96    2.37
  16  -6   4    3.29    2.34
  16   6   4    6.90    3.08
  16  -6   4   11.66    3.64
  16   6   5    1.10    1.74
  16  -6   5    1.62    1.69
  16   6   5    1.28    2.63
  16  -6   5   -0.67    1.65
  16   6   6    4.43    2.33
  16  -6   6    1.19    2.04
  16   6   6   -0.94    1.70
  16  -6   6    3.91    2.31
  16   6   7   27.50    5.53
  16  -6   7   18.85    5.10
  16   6   7   23.17    4.93
  16  -6   7   23.98    5.42
  16   6   8    1.08    1.72
  16  -6   8    4.77    3.04
  16   6   8    3.79    2.48
  16  -6   8    0.02    1.82
  16   6   9   21.38    5.07
  16  -6   9   29.28    5.29
  16   6   9   29.04    5.46
  16  -6   9   18.41    4.86
  16   6  10    3.32    1.62
  16  -6  10   11.15    3.67
  16   6  10    5.99    2.98
  16  -6  10    5.32    2.37
  16   6  11    4.90    1.67
  16  -6  11   12.97    3.55
  16   6  11    6.97    2.83
  16  -6  11    5.05    3.12
  16   7  -6    0.09    1.64
  16  -7  -6    2.64    1.30
  16  -7  -6    2.05    2.00
  16   7  -5   11.44    3.84
  16  -7  -5   11.25    3.52
  16  -7  -5   13.38    3.38
  16   7  -4    0.81    1.21
  16  -7  -4    0.04    1.53
  16  -7  -4    0.25    1.64
  16   7  -3    4.82    2.29
  16  -7  -3    6.44    3.29
  16  -7  -3    4.29    2.90
  16   7  -2    0.23    1.78
  16  -7  -2    1.76    1.77
  16  -7  -2   -0.05    2.02
  16   7  -1    1.90    2.88
  16  -7  -1   -0.89    2.37
  16  -7  -1   -2.86    2.51
  16   7   0    2.09    2.91
  16  -7   0    4.65    2.48
  16  -7   0    2.69    2.86
  16   7   1   -2.59    2.56
  16  -7   1    4.73    3.44
  16   7   1    3.85    3.30
  16  -7   1   -2.02    3.43
  16   7   2    1.19    2.51
  16  -7   2    1.28    1.85
  16   7   2   -0.45    1.77
  16  -7   2    1.34    1.82
  16   7   3    2.48    1.88
  16  -7   3    4.66    2.59
  16   7   3    8.45    2.61
  16  -7   3    2.05    1.81
  16   7   4    2.96    1.66
  16  -7   4   -1.38    1.83
  16   7   4    0.75    2.18
  16   7   5   18.00    4.43
  16  -7   5    7.81    3.04
  16   7   5    5.04    2.56
  16  -7   5   15.02    4.79
  16   7   6   -0.92    2.02
  16  -7   6    5.03    2.83
  16   7   6    2.99    1.96
  16  -7   6    1.57    3.37
  17   0 -17   -1.16    2.26
  17   0 -16    3.99    3.60
  17   0 -15    1.57    2.45
  17   0 -14    0.48    2.59
  17   0 -13    0.28    1.87
  17   0 -12    2.20    2.65
  17   0 -11   -1.18    1.29
  17   0 -10   -0.78    1.33
  17   0  -9    3.42    2.81
  17   0  -8    2.85    2.41
  17   0  -8    2.12    2.81
  17   0  -7   -1.47    2.31
  17   0  -7   -1.51    1.80
  17   0  -6   -0.44    1.24
  17   0  -6    1.16    1.70
  17   0  -5    1.20    1.59
  17   0  -5   -0.13    1.68
  17   0  -4    1.81    2.51
  17   0  -4    0.12    1.62
  17   0  -3   -0.34    1.29
  17   0  -3   -0.99    1.76
  17   0  -2    0.13    1.21
  17   0  -2    0.15    1.26
  17   0  -1    0.46    1.22
  17   0  -1   -0.56    1.45
  17   0   0    0.69    1.07
  17   0   0    2.86    2.69
  17   0   1   -1.27    2.11
  17   0   1    0.36    1.91
  17   0   2   -0.03    1.60
  17   0   2   -0.22    1.89
  17   0   3   -0.46    1.93
  17   0   3   -1.26    2.30
  17   0   4    0.06    1.70
  17   0   4    2.56    2.54
  17   0   5    0.20    2.08
  17   0   5   -0.07    1.32
  17   0   6    0.51    1.17
  17   0   6    0.90    2.32
  17   0   7   -0.23    1.03
  17   0   7   -0.01    1.99
  17   0   8    0.85    1.27
  17   0   9    0.02    1.26
  17   0  10    0.50    1.62
  17   0  11   -0.41    1.97
  17   0  12   -0.86    2.33
  17   0  13    1.15    1.49
  17   0  14   -0.88    1.47
  17   0  15   -0.35    1.37
  17   0  16   -1.37    1.80
  17   0  17   -0.46    1.69
  17  -1 -17   18.77    4.04
  17  -1 -16   20.48    4.50
  17  -1 -15    3.51    2.86
  17  -1 -14   13.84    4.31
  17  -1 -13    9.34    4.03
  17   1 -12   14.82    5.64
  17  -1 -12    4.91    2.71
  17  -1 -11   29.66    5.84
  17   1 -11   26.02    5.04
  17  -1 -10   20.28    5.42
  17  -1 -10   12.74    4.03
  17   1 -10   13.81    3.61
  17  -1  -9   15.86    3.41
  17  -1  -9    8.95    3.06
  17   1  -9    8.31    3.32
  17  -1  -8   21.20    4.38
  17  -1  -8   15.32    3.90
  17   1  -8    8.17    2.71
  17  -1  -7    6.89    2.47
  17   1  -7   -0.78    1.82
  17  -1  -7    2.94    2.10
  17   1  -7    3.02    2.67
  17  -1  -6    6.16    2.79
  17   1  -6    6.38    2.48
  17  -1  -6   10.34    3.30
  17   1  -6    9.61    3.44
  17  -1  -5    8.65    3.35
  17   1  -5    5.72    2.37
  17  -1  -5    2.73    2.17
  17   1  -5   10.59    3.85
  17  -1  -4   35.81    5.43
  17   1  -4   40.58    5.97
  17  -1  -4   20.73    4.79
  17   1  -4   23.63    5.29
  17   1  -4   47.50    6.46
  17  -1  -3   34.85    5.76
  17   1  -3   29.10    5.20
  17  -1  -3   47.43    6.74
  17   1  -3   36.00    5.95
  17   1  -3   31.44    5.35
  17   1  -2   28.83    5.14
  17  -1  -2   27.30    4.79
  17   1  -2   30.07    5.84
  17  -1  -2   19.95    4.84
  17   1  -2   24.44    4.84
  17  -1  -1    8.99    2.96
  17   1  -1    8.35    3.10
  17  -1  -1   13.83    3.78
  17   1  -1    6.74    2.58
  17   1  -1    7.95    3.16
  17  -1   0   32.00    5.17
  17   1   0   34.38    5.75
  17   1   0   32.64    5.64
  17  -1   0   31.78    5.34
  17   1   0   43.71    5.97
  17  -1   1   14.47    3.62
  17  -1   1    8.37    3.22
  17   1   1    5.89    2.64
  17   1   1   10.39    3.54
  17   1   1   11.62    3.12
  17  -1   2   23.93    4.77
  17  -1   2   18.41    4.34
  17   1   2   27.75    5.09
  17   1   2   23.94    4.45
  17   1   2   24.97    4.63
  17  -1   3   33.28    5.34
  17   1   3   32.59    5.01
  17  -1   3   40.23    6.49
  17   1   3   38.38    6.12
  17   1   3   32.98    5.68
  17  -1   4   33.10    5.44
  17   1   4   38.47    5.87
  17  -1   4   40.13    6.36
  17   1   4   30.28    5.75
  17   1   4   30.88    5.19
  17  -1   5    6.73    2.84
  17  -1   5    3.92    2.15
  17   1   5    8.93    3.51
  17   1   5   10.51    3.41
  17   1   5    9.69    3.17
  17  -1   6    4.78    1.65
  17  -1   6    2.84    2.54
  17   1   6    9.47    3.51
  17   1   6    8.80    3.19
  17   1   6    5.76    2.74
  17  -1   7    2.15    1.68
  17  -1   7    1.33    2.87
  17   1   7    3.60    2.39
  17   1   7    4.46    2.80
  17  -1   8    7.43    2.25
  17  -1   8   13.71    3.70
  17   1   8   17.16    3.90
  17   1   8   10.92    3.48
  17  -1   9    3.84    2.25
  17  -1   9   12.95    3.36
  17   1   9    7.95    2.70
  17   1   9   12.55    3.49
  17  -1  10   13.55    3.85
  17   1  10   10.73    2.78
  17   1  11   29.03    5.24
  17  -1  11   28.05    5.26
  17  -1  12   11.52    3.91
  17   1  12   10.77    3.24
  17  -1  13    6.69    2.88
  17   1  13    2.93    2.68
  17  -1  14    5.00    2.77
  17   1  14    6.09    1.61
  17  -1  15    3.23    2.18
  17   1  15    7.86    3.49
  17  -1  16   10.62    3.82
  17   1  16   13.33    3.93
  17  -1  17   31.44    5.81
  17   1  17   20.71    5.56
  17  -2 -17    2.19    1.64
  17  -2 -16    1.77    1.44
  17  -2 -15    2.30    2.54
  17  -2 -14    1.70    2.23
  17  -2 -13    3.08    2.38
  17  -2 -12    1.64    1.94
  17  -2 -11    1.72    1.91
  17  -2 -11   -0.57    1.26
  17  -2 -10    7.73    3.39
  17  -2 -10    2.94    1.96
  17   2 -10    4.48    2.89
  17  -2  -9    8.05    3.18
  17  -2  -9    2.37    1.92
  17   2  -9   10.23    3.39
  17  -2  -8    5.72    1.99
  17  -2  -8    2.85    1.11
  17   2  -8    5.51    2.59
  17  -2  -7    3.58    2.50
  17  -2  -7    2.78    1.90
  17   2  -7   -0.90    2.48
  17   2  -7    1.06    1.54
  17  -2  -6    4.81    2.44
  17   2  -6    4.26    2.03
  17  -2  -6    3.09    2.28
  17   2  -6    7.37    3.76
  17   2  -6    7.10    3.10
  17  -2  -5    1.08    1.57
  17   2  -5    0.30    1.66
  17  -2  -5    0.32    2.43
  17   2  -5    2.14    1.98
  17   2  -5    2.52    2.12
  17  -2  -4    1.41    1.06
  17   2  -4   -0.51    2.21
  17   2  -4    0.95    1.29
  17   2  -4    3.48    1.90
  17  -2  -3    0.02    1.39
  17  -2  -3   -0.25    2.13
  17   2  -3   -0.79    1.34
  17   2  -3   -1.50    2.11
  17   2  -3    0.15    1.58
  17  -2  -2    0.42    1.09
  17  -2  -2    1.48    1.80
  17   2  -2    0.69    1.26
  17   2  -2   -1.96    2.11
  17   2  -2    1.03    1.65
  17  -2  -1    0.53    1.36
  17  -2  -1    2.74    1.84
  17   2  -1    1.46    1.49
  17   2  -1    2.65    2.18
  17   2  -1    0.52    1.58
  17  -2   0    1.70    1.69
  17  -2   0   -0.06    1.74
  17   2   0    0.31    1.60
  17   2   0    1.66    1.77
  17   2   0    2.09    1.50
  17  -2   1   -0.01    1.44
  17  -2   1    0.95    1.76
  17   2   1    1.70    2.99
  17   2   1    3.21    2.32
  17   2   1    1.47    1.31
  17  -2   2    2.92    2.25
  17  -2   2    1.26    1.43
  17   2   2    1.78    1.39
  17   2   2    0.41    1.64
  17   2   2    4.81    2.17
  17  -2   3    2.63    1.92
  17  -2   3   -0.43    1.09
  17   2   3    0.29    1.50
  17   2   3    0.81    1.68
  17   2   3    0.85    1.68
  17  -2   4    3.76    2.29
  17  -2   4   -1.17    2.25
  17   2   4    2.68    2.55
  17   2   4    1.20    1.09
  17   2   4    1.60    1.68
  17   2   5    1.55    1.74
  17  -2   5    0.31    1.78
  17  -2   5    4.18    2.18
  17   2   5    3.21    2.50
  17   2   5    4.81    2.25
  17   2   6    2.22    1.80
  17  -2   6    2.14    2.05
  17  -2   6    8.37    2.92
  17   2   6   11.43    3.65
  17   2   7    1.74    1.45
  17  -2   7    4.24    2.32
  17  -2   7    2.02    2.41
  17   2   7    1.83    1.36
  17   2   8    6.52    2.52
  17  -2   8    7.84    2.90
  17  -2   8    9.95    3.75
  17   2   8    2.67    1.66
  17   2   9    2.53    1.83
  17  -2   9   10.06    2.78
  17  -2   9    6.49    2.88
  17   2   9    3.12    1.95
  17   2  10    1.04    2.03
  17  -2  10    1.70    1.74
  17  -2  10    6.01    3.35
  17   2  10    3.03    1.97
  17   2  11    3.65    2.76
  17  -2  11    0.75    1.44
  17  -2  11   -1.24    1.37
  17   2  12    3.79    2.73
  17  -2  12    1.16    2.50
  17   2  13    5.16    2.64
  17  -2  13    0.23    1.28
  17   2  14   10.10    3.65
  17  -2  14    2.52    1.47
  17   2  15    2.33    1.75
  17  -2  15    3.74    2.35
  17   2  16   -0.71    1.37
  17  -2  16    0.39    2.08
  17   2  17    1.31    1.94
  17  -2  17   12.19    3.21
  17  -3 -15   16.66    4.10
  17  -3 -14   -0.48    1.45
  17   3 -14    7.03    3.37
  17  -3 -13    4.72    2.16
  17   3 -13    8.36    3.03
  17  -3 -12    0.85    2.44
  17  -3 -12    1.06    1.51
  17   3 -12    0.22    1.21
  17  -3 -11    9.21    3.55
  17  -3 -11    8.09    3.26
  17   3 -11   10.82    3.47
  17  -3 -10   14.66    4.29
  17  -3 -10   19.83    4.40
  17   3 -10   19.78    4.49
  17  -3  -9    3.56    1.86
  17  -3  -9    6.58    3.23
  17   3  -9    6.05    2.18
  17  -3  -8    0.62    1.27
  17  -3  -8    3.05    1.71
  17   3  -8    0.85    0.99
  17  -3  -7   15.91    4.22
  17  -3  -7    9.78    3.25
  17   3  -7    7.62    2.29
  17  -3  -6   -1.68    2.23
  17  -3  -6   -0.47    1.59
  17   3  -6    0.59    1.71
  17  -3  -5   29.27    5.03
  17  -3  -5   23.68    5.03
  17   3  -5   40.62    5.95
  17  -3  -4   33.75    5.50
  17  -3  -4   21.12    4.89
  17   3  -4   12.59    3.72
  17   3  -4   34.61    5.83
  17  -3  -3    1.20    2.08
  17  -3  -3    3.53    1.40
  17   3  -3    0.78    2.57
  17   3  -3    2.60    1.80
  17  -3  -2   28.47    5.48
  17  -3  -2   33.02    5.80
  17   3  -2   28.83    5.38
  17   3  -2   22.23    4.46
  17  -3  -1   65.99    7.81
  17   3  -1   71.78    7.97
  17  -3  -1   64.55    7.84
  17   3  -1   60.99    8.49
  17   3  -1   70.45    7.57
  17  -3   0    2.66    2.71
  17  -3   0    0.02    1.85
  17   3   0    0.56    1.20
  17   3   0   -0.51    1.29
  17   3   0    3.25    2.34
  17  -3   1   62.52    7.45
  17   3   1   58.75    6.88
  17  -3   1   56.04    7.51
  17   3   1   67.50    8.08
  17   3   1   70.63    7.80
  17  -3   2   25.34    5.25
  17   3   2   35.35    5.88
  17  -3   2   33.45    5.74
  17   3   2   25.48    5.54
  17   3   2   24.19    4.88
  17   3   3    2.33    1.97
  17  -3   3    1.34    1.18
  17  -3   3    2.55    1.85
  17   3   3    1.23    1.74
  17   3   3    3.81    2.76
  17   3   4   20.34    4.25
  17  -3   4   28.26    5.32
  17   3   4   30.13    5.97
  17  -3   4   22.90    4.87
  17   3   4   30.16    5.44
  17  -3   5   36.06    5.52
  17   3   5   29.12    5.13
  17  -3   5   37.69    6.11
  17   3   5   31.37    5.92
  17   3   5   26.17    4.98
  17   3   6    1.48    1.27
  17  -3   6    0.07    1.58
  17  -3   6    0.60    3.19
  17   3   6    2.58    2.10
  17   3   7    9.53    3.08
  17  -3   7   10.73    3.07
  17  -3   7    9.31    3.33
  17   3   7   14.02    3.82
  17   3   8    1.27    1.04
  17  -3   8    0.35    2.14
  17  -3   8   -0.60    1.73
  17   3   8    2.17    2.20
  17   3   9    5.54    2.36
  17  -3   9    7.27    2.92
  17  -3   9    7.87    3.28
  17   3   9    6.06    3.68
  17   3  10   18.32    4.24
  17  -3  10   21.25    4.89
  17  -3  10    9.35    2.88
  17   3  10   14.94    5.10
  17  -3  11    4.36    1.87
  17  -3  11    2.93    1.96
  17   3  12    0.89    2.55
  17  -3  12    1.29    1.33
  17  -3  12   -0.40    2.18
  17   3  13   11.95    3.72
  17  -3  13   10.03    3.47
  17  -3  13   15.02    4.44
  17   3  14    3.42    1.67
  17  -3  14    3.37    1.87
  17  -3  14    3.23    2.15
  17   3  15   17.23    3.96
  17  -3  15    9.47    3.10
  17  -4 -14    8.76    3.80
  17   4 -14    7.88    3.27
  17  -4 -13   11.88    3.72
  17  -4 -13   10.82    4.15
  17   4 -13   13.54    3.61
  17  -4 -12    5.64    2.91
  17  -4 -12    5.91    2.49
  17   4 -12    8.26    3.15
  17  -4 -11    6.27    2.99
  17  -4 -11    2.09    2.22
  17   4 -11    2.52    2.14
  17  -4 -10    2.93    1.94
  17  -4 -10    2.80    1.56
  17   4 -10    1.46    1.71
  17  -4  -9    1.49    1.46
  17  -4  -9   -0.75    2.17
  17   4  -9    1.53    2.02
  17  -4  -8    0.36    1.84
  17  -4  -8    2.96    2.11
  17   4  -8    3.01    2.15
  17  -4  -7    2.61    3.06
  17  -4  -7    2.22    2.73
  17   4  -7    1.83    1.10
  17  -4  -6    5.51    2.67
  17  -4  -6    5.55    2.14
  17   4  -6    5.84    2.23
  17  -4  -5   13.42    3.58
  17  -4  -5   13.17    3.94
  17   4  -5   10.49    3.14
  17  -4  -4    5.61    2.90
  17  -4  -4    1.76    1.92
  17   4  -4    1.76    1.76
  17  -4  -3    5.32    2.80
  17  -4  -3    2.02    1.23
  17   4  -3    2.11    1.52
  17   4  -3    4.45    3.08
  17   4  -2   10.20    3.48
  17  -4  -2    6.51    3.23
  17  -4  -2   13.45    3.62
  17   4  -2    4.00    1.29
  17   4  -1   17.28    3.42
  17  -4  -1   13.02    3.39
  17  -4  -1    8.10    2.77
  17   4  -1   17.57    4.04
  17   4   0    5.20    2.08
  17   4   0    8.24    2.85
  17  -4   0    6.09    2.60
  17  -4   0   11.13    3.93
  17   4   1    6.01    3.43
  17   4   1   14.31    3.58
  17  -4   1   14.04    3.90
  17  -4   1   17.06    4.37
  17   4   2   11.76    3.63
  17   4   2    5.22    2.57
  17  -4   2    6.63    2.66
  17  -4   2    4.43    1.83
  17   4   3   -0.36    2.41
  17   4   3    0.13    1.28
  17  -4   3    3.06    1.92
  17  -4   3    1.03    2.13
  17   4   4    1.79    1.98
  17   4   4    2.60    1.95
  17  -4   4    1.69    2.49
  17  -4   4    4.08    2.21
  17   4   5    8.91    3.32
  17   4   5   14.68    4.35
  17  -4   5    8.37    2.68
  17  -4   5   13.16    3.85
  17   4   6    6.86    2.51
  17   4   6    7.37    2.80
  17  -4   6    4.43    2.44
  17  -4   6    7.75    3.59
  17   4   7   -0.72    1.47
  17   4   7    1.19    1.28
  17  -4   7    0.79    1.88
  17  -4   7   -1.80    2.42
  17   4   8    5.39    3.18
  17   4   8    2.84    2.59
  17  -4   8    2.41    1.66
  17  -4   8    2.33    2.21
  17   4   9    2.31    2.26
  17   4   9   -0.27    1.45
  17  -4   9   -1.94    2.30
  17  -4   9    0.10    1.65
  17   4  10   -1.11    2.00
  17   4  10    5.26    2.83
  17  -4  10    2.20    2.31
  17  -4  10    1.09    2.01
  17   4  11    5.83    3.38
  17   4  11    8.09    3.07
  17  -4  11    7.62    3.16
  17  -4  11    5.39    2.27
  17   4  12    3.94    2.58
  17  -4  12    0.50    2.06
  17  -4  12    3.11    1.82
  17   4  13   16.25    3.86
  17  -4  13   20.09    4.84
  17  -4  13   12.93    3.29
  17   4  14    7.25    2.94
  17  -4  14   12.52    3.98
  17  -4  14   12.58    4.14
  17  -5 -11   13.72    4.12
  17  -5 -11    9.29    3.30
  17   5 -11   10.55    3.78
  17  -5 -10   23.58    4.68
  17  -5 -10   18.83    4.70
  17   5 -10   18.86    4.42
  17  -5  -9    1.56    1.45
  17  -5  -9    6.30    3.02
  17   5  -9    2.35    2.89
  17  -5  -8    0.44    1.15
  17  -5  -8    2.97    2.49
  17   5  -8    3.50    2.44
  17  -5  -7   18.44    4.73
  17  -5  -7   10.26    3.41
  17   5  -7   11.78    3.37
  17   5  -6   28.41    5.42
  17  -5  -6   24.39    4.71
  17  -5  -6   34.10    6.49
  17   5  -5    8.50    3.35
  17  -5  -5    9.89    2.87
  17  -5  -5    8.54    3.38
  17   5  -4    5.56    1.97
  17  -5  -4    4.98    2.35
  17  -5  -4    9.73    2.89
  17   5  -3    5.64    2.72
  17  -5  -3    1.73    0.98
  17  -5  -3    5.48    3.03
  17   5  -2    3.96    3.06
  17  -5  -2    8.44    3.67
  17  -5  -2    2.03    2.32
  17   5  -1   10.10    3.19
  17   5  -1   12.27    3.55
  17  -5  -1   12.10    4.17
  17  -5  -1    8.10    3.46
  17   5   0   11.32    3.55
  17   5   0   13.58    4.03
  17  -5   0   13.77    4.35
  17  -5   0    9.48    3.38
  17   5   1   14.34    3.79
  17   5   1    7.64    2.63
  17  -5   1   12.39    3.14
  17  -5   1    9.86    3.20
  17   5   2    1.39    1.64
  17   5   2    5.32    2.54
  17  -5   2    3.81    2.68
  17  -5   2    6.93    3.48
  17   5   3    5.51    3.11
  17   5   3    6.26    1.85
  17  -5   3    1.86    1.50
  17  -5   3    3.43    1.57
  17   5   4    6.53    3.32
  17   5   4    3.78    2.00
  17  -5   4    4.62    3.27
  17  -5   4    3.89    3.01
  17   5   5   10.52    3.37
  17   5   5    7.25    3.11
  17  -5   5   12.34    3.53
  17  -5   5    2.79    1.85
  17   5   6   26.92    5.08
  17  -5   6   35.13    5.99
  17  -5   6   22.12    5.67
  17   5   6   36.62    5.79
  17   5   7   13.89    4.01
  17   5   7    7.98    2.77
  17  -5   7   15.25    4.27
  17  -5   7    8.16    3.45
  17   5   8    5.27    2.87
  17   5   8    5.41    2.22
  17  -5   8    3.77    1.22
  17  -5   8    6.29    2.79
  17   5   9   -0.07    1.73
  17   5   9    1.65    1.81
  17  -5   9    3.08    2.64
  17  -5   9    2.08    3.13
  17   5  10   20.62    5.00
  17  -5  10   25.95    5.13
  17  -5  10   26.38    5.91
  17   5  10   30.45    5.44
  17   5  11    9.53    3.54
  17   5  11    5.18    1.78
  17  -5  11    9.10    2.90
  17  -5  11    9.15    3.57
  17   6  -7    1.18    1.58
  17  -6  -7    1.42    1.96
  17  -6  -7    0.15    1.59
  17   6  -6    2.14    1.50
  17  -6  -6    4.40    2.26
  17  -6  -6    6.48    3.51
  17   6  -5    1.12    1.46
  17  -6  -5    0.09    1.75
  17  -6  -5    5.31    2.81
  17   6  -4    2.09    1.47
  17  -6  -4    2.56    2.65
  17  -6  -4    0.12    1.61
  17   6  -3    3.87    2.79
  17  -6  -3    2.79    1.94
  17  -6  -3    8.12    3.99
  17   6  -2    1.72    2.22
  17  -6  -2    9.99    3.57
  17  -6  -2    7.52    3.07
  17   6  -1    0.77    1.96
  17  -6  -1    2.21    2.57
  17  -6  -1   -0.08    2.31
  17   6   0   -2.65    2.60
  17   6   0    0.13    1.87
  17  -6   0    3.48    2.40
  17  -6   0   -1.97    2.88
  17   6   1    3.09    2.07
  17  -6   1    0.31    1.96
  17   6   1   -1.22    1.25
  17  -6   1   -1.70    1.44
  17   6   2    3.33    2.02
  17   6   2    7.52    2.33
  17  -6   2    3.38    1.52
  17   6   3    5.17    2.46
  17  -6   3    2.28    1.17
  17   6   3    4.43    2.71
  17  -6   3    1.65    1.55
  17   6   4    3.92    2.11
  17  -6   4    3.88    1.90
  17   6   4    0.78    1.41
  17  -6   4    3.90    2.80
  17   6   5    1.53    1.41
  17  -6   5    2.34    1.83
  17   6   5    1.50    1.56
  17  -6   5    3.04    3.08
  17   6   6    2.22    2.61
  17  -6   6    4.57    3.37
  17   6   6    9.29    3.10
  17  -6   6    5.50    2.69
  17   6   7    2.26    2.58
  17  -6   7    0.87    1.34
  17   6   7    4.03    2.69
  17  -6   7    1.44    2.00
  18   0 -15  161.97   13.62
  18   0 -14   -2.54    2.64
  18   0 -13    7.31    3.04
  18   0 -12   13.87    4.25
  18   0 -11  166.56   13.55
  18   0 -10   25.18    5.30
  18   0  -9   15.83    4.95
  18   0  -8   20.55    5.80
  18   0  -8   10.39    3.31
  18   0  -7    2.80    2.10
  18   0  -7    3.89    3.03
  18   0  -6    1.08    1.77
  18   0  -6    0.19    1.55
  18   0  -5   73.00    8.30
  18   0  -5   59.24    7.84
  18   0  -4   64.44    7.68
  18   0  -4   59.47    7.68
  18   0  -3   62.66    7.92
  18   0  -3   63.49    7.86
  18   0  -2   21.37    4.81
  18   0  -2   22.04    4.50
  18   0  -1   37.83    5.89
  18   0  -1   39.30    6.01
  18   0   0   17.02    3.97
  18   0   0   11.46    3.24
  18   0   1   33.35    5.51
  18   0   1   30.63    5.89
  18   0   2   23.21    4.86
  18   0   2   19.20    4.28
  18   0   3   63.75    7.60
  18   0   3   59.73    8.02
  18   0   4   62.45    7.90
  18   0   4   79.29    8.80
  18   0   5   70.79    8.30
  18   0   5   73.11    8.50
  18   0   6    3.13    2.18
  18   0   6    0.54    1.73
  18   0   7    5.75    2.96
  18   0   7    4.04    2.51
  18   0   8   11.27    3.38
  18   0   8   10.63    3.41
  18   0   9   33.34    5.76
  18   0   9   36.70    6.09
  18   0  10   13.98    3.93
  18   0  11  175.62   13.24
  18   0  12   20.59    5.02
  18   0  13   14.92    3.77
  18   0  14    2.48    1.15
  18   0  15  185.19   13.62
  18  -1 -15   11.57    4.17
  18  -1 -14    0.28    1.67
  18  -1 -13    4.17    2.73
  18  -1 -12   -0.77    1.63
  18  -1 -11    2.34    1.75
  18  -1 -10   19.92    5.16
  18   1 -10   25.09    5.25
  18  -1  -9   -1.05    1.81
  18  -1  -9    1.21    1.40
  18   1  -9    0.26    2.11
  18  -1  -8    0.88    1.58
  18  -1  -8   -0.22    1.46
  18   1  -8    4.49    2.80
  18  -1  -7    4.02    2.38
  18   1  -7   -4.69    2.11
  18  -1  -7    1.51    1.58
  18   1  -7    3.53    3.02
  18  -1  -6    9.36    2.80
  18   1  -6   12.94    3.36
  18  -1  -6   14.01    4.36
  18   1  -6   21.05    5.05
  18  -1  -5   -0.07    1.54
  18   1  -5    3.84    2.67
  18  -1  -5    1.39    1.28
  18   1  -5   -0.91    2.58
  18  -1  -4    0.45    1.60
  18   1  -4   -1.30    2.09
  18  -1  -4   -0.66    1.45
  18   1  -4   -0.37    1.89
  18  -1  -3    2.85    2.52
  18   1  -3   -0.83    2.27
  18  -1  -3   -0.67    1.75
  18   1  -3   -0.20    1.85
  18  -1  -2    1.24    1.11
  18   1  -2    1.29    1.42
  18  -1  -2   -0.40    1.54
  18   1  -2    1.06    1.37
  18  -1  -1    2.89    3.18
  18   1  -1    1.26    1.44
  18  -1  -1    1.81    1.15
  18   1  -1    1.14    1.62
  18  -1   0    3.43    2.69
  18   1   0    1.33    1.95
  18  -1   0   -0.32    1.05
  18   1   0   -0.91    1.63
  18  -1   1    2.65    2.06
  18   1   1    1.70    1.64
  18  -1   1    3.53    2.32
  18   1   1    0.48    1.86
  18  -1   2   -0.81    0.99
  18   1   2    2.29    1.77
  18  -1   2   -0.01    1.10
  18   1   2   -1.54    1.79
  18   1   2    1.14    1.52
  18  -1   3   -0.83    1.60
  18   1   3    1.78    1.81
  18  -1   3   -0.57    2.31
  18   1   3    3.01    1.49
  18   1   3    0.45    1.79
  18  -1   4   -0.31    1.82
  18  -1   4   -0.14    1.39
  18   1   4    1.14    1.21
  18   1   4    1.19    1.79
  18  -1   5    0.66    1.80
  18  -1   5   -0.56    2.44
  18   1   5    0.55    1.32
  18   1   5   -2.02    2.02
  18  -1   6   15.82    3.69
  18  -1   6   15.53    4.43
  18   1   6   16.92    4.40
  18   1   6   12.03    3.45
  18  -1   7    7.14    3.10
  18  -1   7    2.55    1.76
  18   1   7    4.66    3.05
  18   1   7    0.60    2.16
  18  -1   8    2.70    1.51
  18  -1   8    1.89    2.04
  18   1   8    1.00    1.53
  18   1   8    3.53    2.15
  18  -1   9    0.45    1.44
  18  -1   9    0.15    2.10
  18   1   9    3.56    2.31
  18  -1  10   17.46    4.61
  18  -1  10   20.22    4.65
  18   1  10   19.06    4.68
  18  -1  11   -1.29    2.76
  18  -1  11   -1.90    2.19
  18   1  11    0.59    1.30
  18  -1  12    3.38    2.63
  18   1  12   -2.22    2.72
  18  -1  13   -1.07    2.19
  18   1  13   -0.04    2.85
  18  -1  14   -0.10    1.59
  18   1  14    0.06    2.10
  18  -1  15   11.99    4.01
  18   1  15   13.46    3.76
  18  -2 -14    5.06    2.19
  18  -2 -13    0.81    2.03
  18  -2 -12   -1.54    2.33
  18  -2 -11   14.71    3.35
  18  -2 -10   14.45    3.77
  18  -2 -10   21.19    5.12
  18  -2  -9   -0.39    1.57
  18  -2  -9    1.84    1.70
  18  -2  -8    1.95    1.72
  18  -2  -8    0.48    2.50
  18   2  -8    2.02    2.63
  18  -2  -7    0.87    1.26
  18  -2  -7    1.01    1.79
  18   2  -7    1.54    2.07
  18  -2  -6    7.76    3.00
  18  -2  -6    9.61    3.11
  18  -2  -5   42.55    6.39
  18   2  -5   35.62    6.96
  18   2  -5   32.02    5.41
  18  -2  -5   32.01    5.76
  18   2  -5   32.47    5.36
  18  -2  -4   21.16    4.25
  18   2  -4   21.15    4.87
  18  -2  -4   15.06    3.92
  18   2  -4   20.31    4.88
  18   2  -4   22.24    4.59
  18  -2  -3    6.98    2.40
  18   2  -3    3.16    1.49
  18   2  -3    6.71    2.95
  18   2  -3    1.75    1.60
  18  -2  -2   14.76    4.09
  18  -2  -2    7.94    2.62
  18   2  -2   10.30    3.39
  18   2  -2    6.97    4.03
  18   2  -2    9.03    3.24
  18  -2  -1   37.58    6.28
  18   2  -1   51.00    6.76
  18  -2  -1   39.46    6.38
  18   2  -1   38.43    6.35
  18   2  -1   35.10    5.86
  18  -2   0   28.78    5.40
  18   2   0   41.39    6.17
  18  -2   0   20.20    4.19
  18   2   0   21.24    4.60
  18   2   0   33.03    5.34
  18  -2   1   51.86    7.02
  18   2   1   45.43    6.49
  18  -2   1   38.87    6.70
  18   2   1   38.03    6.19
  18   2   1   40.37    6.11
  18  -2   2    8.07    2.82
  18  -2   2    8.95    3.42
  18   2   2   12.32    3.66
  18   2   2   12.35    3.29
  18   2   2   13.08    3.91
  18  -2   3    4.32    2.10
  18  -2   3    8.11    3.01
  18   2   3   11.51    4.45
  18   2   3    5.40    2.47
  18   2   3    4.60    2.10
  18  -2   4   18.77    4.17
  18  -2   4   18.15    4.21
  18   2   4   20.38    4.35
  18   2   4   20.51    4.62
  18   2   4   15.56    3.57
  18  -2   5   31.12    5.46
  18   2   5   25.38    5.01
  18  -2   5   34.74    5.96
  18   2   5   29.19    5.84
  18   2   5   26.00    4.85
  18  -2   6   16.86    4.46
  18  -2   6   11.96    3.80
  18   2   6   13.25    3.07
  18   2   6   12.07    3.76
  18   2   6   12.32    3.64
  18  -2   7    4.52    2.82
  18  -2   7    2.34    1.96
  18   2   7   -0.79    2.24
  18   2   7    1.39    1.92
  18   2   7    2.77    1.19
  18  -2   8    0.60    2.15
  18  -2   8    0.97    2.04
  18   2   8   -1.14    2.35
  18   2   8   -0.20    1.54
  18   2   9   -2.51    1.78
  18  -2   9   -1.42    2.13
  18  -2   9    0.47    1.85
  18   2   9    4.19    3.47
  18   2  10   22.83    4.59
  18  -2  10   25.82    4.65
  18  -2  10   13.87    3.81
  18   2  11   19.77    4.40
  18  -2  11   18.80    4.25
  18  -2  11   16.93    4.02
  18   2  12    0.31    1.14
  18  -2  12    2.37    1.65
  18  -2  12    2.11    2.21
  18   2  13    4.66    2.89
  18  -2  13    6.82    2.98
  18  -2  13    2.13    1.25
  18   2  14   10.03    3.30
  18  -2  14    3.08    1.19
  18  -3 -13   10.93    2.97
  18   3 -13    8.00    2.70
  18  -3 -12   11.28    4.35
  18   3 -12   14.73    4.32
  18  -3 -11   -0.23    1.58
  18  -3 -11    1.83    2.39
  18   3 -11    3.90    1.48
  18  -3 -10    2.67    2.68
  18  -3 -10    1.46    1.83
  18   3 -10    2.18    1.96
  18  -3  -9   -0.32    1.37
  18  -3  -9   -0.43    1.55
  18   3  -9    0.12    2.07
  18  -3  -8    0.21    1.24
  18  -3  -8   -0.47    1.72
  18   3  -8   -0.99    1.84
  18  -3  -7    1.77    2.65
  18  -3  -7    1.72    1.41
  18   3  -7    3.79    1.82
  18  -3  -6   18.51    4.66
  18   3  -6   19.28    4.42
  18  -3  -5    0.35    1.86
  18  -3  -5   -0.65    1.87
  18   3  -5    3.47    3.33
  18  -3  -4    4.17    1.79
  18  -3  -4   11.92    3.65
  18   3  -4    8.41    4.18
  18   3  -4    9.04    2.45
  18  -3  -3    1.25    1.18
  18  -3  -3   -1.96    1.96
  18   3  -3   -0.21    1.29
  18   3  -3    0.01    1.55
  18  -3  -2    6.17    2.43
  18  -3  -2   -0.05    1.83
  18   3  -2    2.94    2.55
  18   3  -2   -0.57    1.42
  18  -3  -1    3.08    2.56
  18  -3  -1   -0.01    1.26
  18   3  -1   -1.06    1.17
  18   3  -1    0.73    2.19
  18  -3   0    2.38    1.32
  18  -3   0    4.65    1.97
  18   3   0    2.14    2.31
  18   3   0    4.44    1.83
  18  -3   1   -0.09    1.60
  18  -3   1   -1.27    1.86
  18   3   1    4.66    4.33
  18   3   1   -0.06    1.36
  18   3   1    1.91    1.87
  18  -3   2    0.11    1.52
  18  -3   2    0.67    1.13
  18   3   2    0.55    1.63
  18   3   2   -1.28    1.51
  18   3   2    2.09    1.75
  18   3   3    1.28    1.92
  18  -3   3    0.28    2.16
  18  -3   3    1.86    1.67
  18   3   3    1.49    1.91
  18   3   3   -1.03    1.95
  18   3   4   11.86    3.10
  18  -3   4    3.49    2.17
  18  -3   4   10.84    3.68
  18   3   4    2.45    1.48
  18   3   4    6.44    3.74
  18   3   5    0.22    1.19
  18  -3   5    1.36    1.48
  18  -3   5    2.08    1.67
  18   3   5    1.20    1.58
  18   3   5    4.69    2.88
  18   3   6   24.00    4.49
  18  -3   6   17.79    4.28
  18  -3   6   29.60    5.67
  18   3   6   21.10    5.11
  18   3   6   17.35    4.34
  18   3   7    2.10    1.34
  18  -3   7    4.50    3.21
  18  -3   7    3.09    3.79
  18   3   7    2.44    1.67
  18   3   8    1.90    2.49
  18  -3   8    0.62    1.47
  18  -3   8    1.98    1.98
  18   3   8   -3.00    2.65
  18   3   9    2.59    1.65
  18  -3   9    2.90    2.61
  18  -3   9    2.30    2.30
  18   3   9    1.75    1.92
  18   3  10    3.75    2.08
  18  -3  10    2.28    2.01
  18  -3  10    1.01    2.10
  18   3  10    7.29    3.04
  18   3  11    1.62    1.96
  18  -3  11    1.99    2.79
  18  -3  11   -0.93    2.07
  18   3  12    7.46    2.91
  18  -3  12    8.64    3.31
  18  -3  12   12.57    3.97
  18   3  13    9.82    3.47
  18  -3  13   18.91    4.89
  18  -3  13   18.36    5.04
  18  -4 -11   11.56    3.77
  18  -4 -11    9.56    3.47
  18   4 -11   10.08    3.47
  18  -4 -10   16.58    4.54
  18  -4 -10   11.23    3.38
  18  -4  -9    7.29    2.13
  18  -4  -9    4.19    2.12
  18   4  -9    8.82    3.27
  18  -4  -8    0.06    1.25
  18  -4  -8    1.95    2.47
  18   4  -8    4.50    2.75
  18  -4  -7   22.64    5.10
  18  -4  -7   19.04    5.13
  18   4  -7   16.71    4.41
  18  -4  -6   37.16    6.58
  18  -4  -6   38.88    6.05
  18   4  -6   38.22    5.90
  18  -4  -5   31.89    5.44
  18  -4  -5   37.32    6.24
  18   4  -5   31.38    5.61
  18  -4  -4    0.49    2.27
  18  -4  -4   -0.47    1.32
  18   4  -4    3.85    1.25
  18  -4  -3   -0.63    1.19
  18  -4  -3   -1.22    1.61
  18   4  -3   -0.10    2.20
  18  -4  -2   -0.27    1.09
  18  -4  -2    1.87    1.94
  18   4  -2    2.31    2.02
  18   4  -2   -2.71    2.24
  18  -4  -1   30.96    5.57
  18   4  -1   34.82    6.14
  18  -4  -1   26.36    5.42
  18   4  -1   26.65    5.36
  18   4   0   23.04    4.76
  18  -4   0   38.67    6.05
  18  -4   0   38.83    6.28
  18   4   0   27.58    5.51
  18   4   1   28.37    5.27
  18  -4   1   36.39    6.38
  18  -4   1   31.90    6.15
  18   4   1   35.14    5.64
  18   4   2    2.20    1.72
  18  -4   2    3.40    2.34
  18  -4   2    0.05    2.94
  18   4   2    0.37    1.90
  18   4   3    0.78    2.05
  18  -4   3    0.12    1.86
  18  -4   3   -2.69    2.60
  18   4   3   -1.45    1.98
  18   4   4    2.41    2.37
  18  -4   4    1.43    1.35
  18  -4   4    3.38    1.91
  18   4   4    4.63    2.54
  18   4   5   22.72    4.95
  18  -4   5   24.76    5.17
  18  -4   5   41.89    6.80
  18   4   5   31.84    5.45
  18   4   6   29.75    5.26
  18  -4   6   36.09    6.02
  18  -4   6   41.01    6.56
  18   4   6   37.19    5.58
  18   4   7   20.34    4.40
  18  -4   7   22.00    4.98
  18  -4   7   20.41    4.72
  18   4   7   33.61    5.75
  18   4   8   -0.37    1.44
  18  -4   8   -0.71    1.57
  18  -4   8    4.10    3.14
  18   4   8   -0.33    1.44
  18   4   9    8.83    3.30
  18  -4   9    8.08    2.94
  18  -4   9    6.35    2.40
  18   4   9    4.58    2.00
  18   4  10   11.33    3.71
  18  -4  10   13.14    4.13
  18  -4  10   20.18    5.10
  18   4  10   15.06    4.56
  18   4  11    9.41    3.71
  18  -4  11   18.42    4.39
  18  -4  11   12.08    3.45
  18  -5  -7   -3.00    3.34
  18  -5  -7   -1.02    2.14
  18   5  -7    3.53    2.59
  18  -5  -6    3.88    2.06
  18  -5  -6    6.26    3.19
  18   5  -6    1.61    2.23
  18  -5  -5   -1.13    1.22
  18  -5  -5    1.01    1.89
  18   5  -5    2.18    1.64
  18  -5  -4    2.48    2.92
  18  -5  -4    7.55    3.70
  18   5  -4    4.29    2.59
  18  -5  -3    0.14    1.24
  18  -5  -3   -1.62    1.28
  18   5  -3   -1.69    2.07
  18   5  -2    1.86    1.49
  18  -5  -2    0.15    1.07
  18  -5  -2    2.14    2.08
  18   5  -1    1.42    2.48
  18  -5  -1   -1.44    1.78
  18  -5  -1    5.34    2.99
  18   5   0    2.10    1.39
  18   5   0    0.97    2.41
  18  -5   0    0.71    2.19
  18  -5   0   -1.76    2.03
  18   5   1    0.40    2.17
  18   5   1    0.92    1.37
  18  -5   1    4.04    2.99
  18  -5   1    5.67    3.16
  18   5   2    0.53    2.62
  18   5   2   -0.69    1.82
  18  -5   2    2.74    1.10
  18  -5   2    1.92    2.81
  18   5   3   -1.75    3.12
  18   5   3    0.83    2.61
  18  -5   3   -1.64    1.58
  18  -5   3    0.96    1.56
  18   5   4    5.09    1.67
  18   5   4    2.56    2.74
  18  -5   4    7.48    2.84
  18  -5   4    3.08    2.04
  18   5   5    0.80    1.75
  18   5   5    0.89    1.22
  18  -5   5    4.01    2.93
  18  -5   5   -2.29    3.12
  18   5   6    5.49    1.97
  18   5   6    3.93    2.32
  18  -5   6    2.38    1.69
  18  -5   6    0.49    2.37
  18   5   7    1.71    2.14
  18   5   7   -1.29    1.23
  18  -5   7    0.15    1.53
  18  -5   7    0.65    1.80
  19   0 -12   -1.06    2.42
  19   0 -11    2.36    2.91
  19   0 -10   -2.53    2.55
  19   0  -9   -0.99    1.95
  19   0  -8    1.00    2.82
  19   0  -7   -2.33    1.97
  19   0  -7    1.78    2.57
  19   0  -6    0.71    1.15
  19   0  -6    2.13    3.15
  19   0  -5    1.46    2.32
  19   0  -5    0.23    2.53
  19   0  -4    1.82    1.87
  19   0  -4   -0.50    1.87
  19   0  -3   -1.57    2.25
  19   0  -3    0.77    2.54
  19   0  -2    1.30    1.91
  19   0  -2   -0.51    1.37
  19   0  -1    2.47    2.42
  19   0  -1   -0.59    2.24
  19   0   0   -0.98    2.09
  19   0   0   -0.36    2.32
  19   0   1    0.91    1.99
  19   0   1   -1.29    1.58
  19   0   2    0.12    1.32
  19   0   2    1.07    1.93
  19   0   3    0.89    2.13
  19   0   3    1.14    2.48
  19   0   4   -0.68    2.12
  19   0   4   -0.06    1.59
  19   0   5    1.94    2.69
  19   0   5   -0.15    2.25
  19   0   6    1.20    2.53
  19   0   6   -0.13    3.21
  19   0   7   -2.59    2.05
  19   0   7   -0.11    1.53
  19   0   8    0.46    1.22
  19   0   8    2.12    2.66
  19   0   9    1.61    2.27
  19   0   9    1.36    2.43
  19   0  10    2.82    2.33
  19   0  10   -0.17    1.57
  19   0  11    0.77    1.85
  19   0  11   -1.66    2.18
  19   0  12   -1.51    2.49
  19  -1 -12    0.34    2.01
  19  -1 -11   13.75    3.61
  19  -1 -10   33.02    6.14
  19  -1  -9    7.37    4.19
  19   1  -9   13.09    4.33
  19  -1  -8    5.18    2.62
  19  -1  -8    2.06    1.80
  19   1  -8    1.17    3.11
  19  -1  -7   18.06    4.57
  19  -1  -7   12.19    3.68
  19   1  -7    9.92    3.53
  19  -1  -6   15.96    3.68
  19  -1  -6   21.11    4.99
  19   1  -6   18.10    5.49
  19   1  -5   31.83    6.18
  19  -1  -5   27.02    5.09
  19  -1  -5   24.87    5.53
  19   1  -5   23.65    5.10
  19  -1  -4   11.06    3.78
  19   1  -4   14.31    4.10
  19  -1  -4   16.80    4.59
  19   1  -4   12.14    4.33
  19  -1  -3    1.37    1.64
  19   1  -3    5.58    2.48
  19  -1  -3    3.82    2.38
  19   1  -3    5.54    2.98
  19  -1  -2   33.92    5.68
  19   1  -2   29.70    5.46
  19  -1  -2   32.37    6.65
  19   1  -2   44.30    7.04
  19  -1  -1   27.69    5.35
  19   1  -1   28.64    5.41
  19  -1  -1   20.47    4.80
  19   1  -1   27.55    5.54
  19  -1   0    2.78    1.51
  19   1   0    2.97    2.23
  19  -1   0    4.26    1.78
  19   1   0    0.03    1.34
  19  -1   1   23.17    4.73
  19   1   1   26.94    5.33
  19  -1   1   13.85    4.07
  19   1   1   24.00    4.86
  19  -1   2   48.26    6.57
  19   1   2   39.44    6.08
  19  -1   2   46.49    6.91
  19   1   2   30.74    6.10
  19  -1   3    8.32    3.31
  19   1   3    4.85    1.95
  19  -1   3    4.33    2.73
  19   1   3    3.63    2.01
  19  -1   4   12.23    3.72
  19   1   4   13.89    3.28
  19  -1   4   19.23    4.76
  19   1   4   10.04    3.34
  19  -1   5   22.04    4.34
  19   1   5   20.82    4.54
  19  -1   5   21.80    5.19
  19   1   5   29.96    5.40
  19  -1   6   24.09    4.82
  19   1   6   19.82    4.70
  19  -1   6   20.85    4.50
  19   1   6   13.10    3.32
  19  -1   7   17.09    4.65
  19  -1   7    9.99    4.20
  19   1   7   11.88    3.91
  19   1   7   13.93    4.22
  19  -1   8    5.92    3.36
  19  -1   8    8.99    3.02
  19   1   8    3.78    2.13
  19   1   8    8.39    3.76
  19  -1   9    6.44    2.65
  19  -1   9    6.72    3.08
  19   1   9    7.46    3.97
  19   1   9    3.13    1.87
  19   1  10   33.96    6.01
  19  -1  10   28.36    5.45
  19  -1  10   26.67    5.43
  19  -1  11   24.76    5.21
  19  -1  11   26.57    5.64
  19   1  11   24.05    5.10
  19  -1  12    3.46    2.61
  19  -1  12   -1.46    1.76
  19   1  12    2.59    2.17
  19  -2 -11    1.03    1.33
  19  -2 -10    2.69    2.92
  19  -2  -9    1.29    1.40
  19  -2  -9   -0.08    1.18
  19  -2  -8    0.71    1.72
  19  -2  -8   -0.39    1.80
  19  -2  -7    2.63    1.32
  19  -2  -7    3.65    2.85
  19  -2  -6   12.56    3.75
  19  -2  -6    9.71    4.04
  19   2  -6   15.27    4.52
  19  -2  -5   10.36    3.26
  19  -2  -5   13.18    4.16
  19   2  -5   15.44    3.81
  19  -2  -4    8.93    2.98
  19   2  -4    2.07    1.83
  19  -2  -4    5.99    2.26
  19   2  -4    7.07    2.77
  19  -2  -3    4.33    1.91
  19  -2  -3    1.25    2.10
  19   2  -3    2.48    1.49
  19   2  -3    4.49    2.40
  19  -2  -2    0.06    2.05
  19   2  -2    2.40    2.05
  19  -2  -2    4.49    3.04
  19   2  -2    1.59    1.73
  19   2  -2    1.36    1.98
  19  -2  -1    3.37    2.81
  19   2  -1    2.22    1.48
  19  -2  -1    0.51    1.96
  19   2  -1    2.30    2.41
  19   2  -1    2.76    2.09
  19  -2   0    3.27    2.44
  19  -2   0    6.24    2.93
  19   2   0    1.69    1.52
  19   2   0    6.33    2.76
  19   2   0   -0.33    1.62
  19  -2   1    5.93    3.35
  19  -2   1   10.03    3.17
  19   2   1    2.72    1.54
  19   2   1    2.60    1.87
  19   2   1    2.76    1.95
  19  -2   2    1.46    1.35
  19  -2   2    3.63    2.74
  19   2   2    2.90    2.28
  19   2   2    4.24    1.11
  19   2   2    2.14    2.75
  19  -2   3    3.55    2.31
  19  -2   3    2.59    1.96
  19   2   3    4.43    1.46
  19   2   3    7.04    3.15
  19   2   3    6.30    3.43
  19  -2   4    4.82    2.12
  19  -2   4    8.36    3.02
  19   2   4    4.24    2.58
  19   2   4    2.75    1.86
  19   2   4    3.97    2.19
  19  -2   5   21.49    4.72
  19  -2   5   12.00    3.49
  19   2   5   13.27    4.26
  19   2   5   21.44    4.63
  19   2   5   13.94    3.54
  19  -2   6    9.94    2.66
  19  -2   6    9.87    3.63
  19   2   6    9.03    4.35
  19   2   6    6.24    2.58
  19   2   6   16.75    4.59
  19  -2   7    5.65    2.56
  19  -2   7    9.17    3.79
  19   2   7    4.16    2.97
  19   2   7    6.74    2.27
  19   2   7    3.41    2.95
  19  -2   8   -0.71    2.34
  19  -2   8    2.88    3.23
  19   2   8   -0.94    2.19
  19   2   8   -1.05    2.35
  19   2   8    0.48    2.58
  19  -2   9    4.19    2.71
  19  -2   9    4.83    3.18
  19   2   9    1.10    2.19
  19   2   9    1.46    1.52
  19  -2  10    3.32    1.69
  19  -2  10    2.98    1.76
  19   2  10   -0.02    1.43
  19  -2  11    5.99    3.29
  19  -2  11    5.64    2.61
  19   2  11    1.96    2.17
  19  -3  -9    6.36    2.31
  19  -3  -9    2.49    1.64
  19   3  -9    7.78    2.89
  19  -3  -8   17.56    4.39
  19  -3  -8   27.17    5.04
  19   3  -8   18.65    4.38
  19  -3  -7    5.76    2.88
  19  -3  -7    2.36    1.80
  19   3  -7    3.83    1.92
  19  -3  -6    5.44    3.08
  19  -3  -6    2.35    2.48
  19   3  -6    2.30    2.76
  19  -3  -5    3.56    1.55
  19  -3  -5    3.20    1.60
  19  -3  -4    5.86    2.50
  19  -3  -4    2.25    2.67
  19   3  -4    2.25    2.23
  19  -3  -3    4.78    2.19
  19  -3  -3    1.59    2.30
  19   3  -3    1.11    1.67
  19   3  -3    4.56    2.47
  19  -3  -2   11.66    3.73
  19  -3  -2    3.69    2.45
  19   3  -2    6.68    3.07
  19   3  -2    9.85    3.52
  19  -3  -1   10.91    3.62
  19  -3  -1    8.72    3.21
  19   3  -1    4.02    2.30
  19   3  -1   -0.54    1.92
  19  -3   0    0.93    2.22
  19  -3   0   -1.64    2.93
  19   3   0   -0.04    1.54
  19   3   0   -1.50    1.68
  19  -3   1    3.69    1.99
  19  -3   1    6.42    2.88
  19   3   1    6.99    2.93
  19   3   1    7.39    2.78
  19  -3   2    8.26    3.36
  19  -3   2    1.95    1.57
  19   3   2    4.04    1.41
  19   3   2   10.11    3.53
  19  -3   3    2.61    2.08
  19  -3   3    6.68    3.56
  19   3   3    2.23    2.99
  19   3   3    5.58    2.16
  19   3   3    5.26    2.69
  19  -3   4    2.86    2.36
  19  -3   4   -0.77    2.15
  19   3   4    3.31    2.85
  19   3   4    3.74    1.96
  19   3   4    4.76    2.97
  19  -3   5    1.71    1.71
  19  -3   5    7.82    3.18
  19   3   5    4.02    1.79
  19   3   5    9.72    3.62
  19   3   5    5.42    2.69
  19  -3   6    5.37    3.02
  19  -3   6    6.39    2.73
  19   3   6    2.72    1.39
  19   3   6    6.17    2.28
  19   3   6    1.49    2.27
  19   3   7    1.33    2.35
  19  -3   7    2.95    2.25
  19  -3   7   -1.10    2.54
  19   3   7    4.64    3.22
  19   3   7    5.35    2.88
  19   3   8   18.56    4.39
  19  -3   8   13.81    3.92
  19  -3   8   10.36    4.92
  19   3   8    8.76    3.47
  19   3   8   21.74    4.62
  19   3   9   10.06    3.36
  19  -3   9    6.38    2.23
  19  -3   9   12.07    3.88
  19   3   9    5.25    3.72
  19  -4  -6   -1.39    2.35
  19  -4  -6    3.27    3.16
  19   4  -6    3.43    2.49
  19  -4  -5   -0.84    2.76
  19  -4  -5   -0.47    2.12
  19   4  -5    0.72    2.63
  19  -4  -4    6.52    2.86
  19  -4  -4    3.35    2.17
  19   4  -4    8.06    2.70
  19  -4  -3    1.04    2.22
  19  -4  -3    0.72    2.31
  19   4  -3    3.19    2.05
  19  -4  -2   -0.27    1.83
  19  -4  -2    4.32    2.76
  19   4  -2   -1.77    1.51
  19   4  -2    6.44    2.43
  19  -4  -1    0.92    2.27
  19  -4  -1    0.10    1.71
  19   4  -1   -1.89    2.97
  19   4  -1    2.29    2.82
  19  -4   0    1.07    1.73
  19  -4   0    1.92    2.51
  19   4   0    5.57    2.39
  19   4   0    3.24    1.96
  19  -4   1    1.26    2.69
  19  -4   1    1.15    3.49
  19   4   1    2.06    1.95
  19   4   1    0.24    1.77
  19   4   2    4.64    2.77
  19  -4   2    8.99    3.23
  19  -4   2    7.44    2.68
  19   4   2    3.85    1.79
  19   4   3    1.32    1.29
  19  -4   3    0.62    1.89
  19  -4   3    4.63    2.02
  19   4   3    5.28    1.69
  19   4   4    1.93    1.96
  19  -4   4    2.31    1.35
  19  -4   4    4.42    3.11
  19   4   4    0.55    2.20
  19   4   5   -1.17    1.64
  19  -4   5   -0.23    1.91
  19  -4   5    2.18    3.84
  19   4   5    0.84    1.86
  19   4   6    3.32    2.66
  19  -4   6   -1.06    1.95
  19  -4   6    0.39    1.81
  19   4   6   -0.97    1.66
  20   0  -7   -0.88    1.83
  20   0  -6   -1.96    2.65
  20   0  -6   -0.01    2.45
  20   0  -5   22.88    5.24
  20   0  -5   28.46    5.68
  20   0  -4  106.81   10.72
  20   0  -4   96.90   10.43
  20   0  -3    6.62    3.65
  20   0  -3   -1.03    1.69
  20   0  -2  123.70   11.42
  20   0  -2  123.32   11.88
  20   0  -1   12.36    3.82
  20   0  -1   14.19    3.99
  20   0   0   -0.62    1.91
  20   0   0    0.44    1.63
  20   0   1    6.39    2.41
  20   0   1    6.54    2.66
  20   0   2  138.55   11.67
  20   0   2  115.40   11.23
  20   0   3    1.43    2.09
  20   0   3    1.53    1.97
  20   0   4  123.57   11.25
  20   0   4  119.84   11.91
  20   0   5   36.25    6.31
  20   0   5   40.49    6.58
  20   0   6    1.01    1.33
  20   0   6    2.31    1.36
  20   0   7   -0.67    1.45
  20   0   7    3.56    2.45
  20   0   8   83.80    9.12
  20   0   8   86.27    9.75
  20  -1  -7   -1.45    2.53
  20  -1  -7    1.30    2.39
  20   1  -7    5.58    5.00
  20  -1  -6   -0.56    2.37
  20  -1  -6    0.03    2.23
  20   1  -6    3.54    3.46
  20  -1  -5    5.31    3.71
  20   1  -5    0.46    2.12
  20  -1  -5    1.72    1.86
  20   1  -5    2.68    2.42
  20  -1  -4   -1.15    1.84
  20   1  -4    0.65    1.95
  20  -1  -4   -1.77    2.26
  20   1  -4   -1.40    1.74
  20  -1  -3   10.49    3.86
  20   1  -3   14.10    4.04
  20  -1  -3   10.09    2.72
  20   1  -3   13.75    4.90
  20  -1  -2    1.68    1.35
  20   1  -2    0.24    1.57
  20  -1  -2    3.06    3.44
  20   1  -2    6.93    2.86
  20  -1  -1    3.48    2.44
  20   1  -1    3.95    2.53
  20  -1  -1    0.06    2.13
  20   1  -1    5.30    3.32
  20  -1   0    0.95    1.18
  20   1   0   -0.37    1.66
  20  -1   0    0.39    1.93
  20   1   0    0.79    2.92
  20  -1   1    1.89    2.22
  20   1   1    5.71    2.90
  20  -1   1    1.04    1.27
  20   1   1    0.59    2.39
  20  -1   2    4.34    2.90
  20   1   2    5.92    3.15
  20  -1   2    1.93    2.44
  20   1   2    3.77    3.06
  20  -1   3   13.97    3.98
  20   1   3    6.04    2.64
  20  -1   3    8.18    3.24
  20   1   3    6.67    2.95
  20  -1   4    0.27    1.21
  20   1   4   -0.64    1.61
  20  -1   4   -1.60    2.17
  20   1   4    1.77    2.47
  20  -1   5    2.04    1.46
  20   1   5    0.76    1.41
  20   1   5    2.32    1.33
  20  -1   6    3.57    2.53
  20   1   6   -0.60    1.68
  20  -1   6    1.93    1.95
  20   1   6    1.14    2.74
  20  -1   7    0.68    1.61
  20   1   7    0.69    1.41
  20  -1   7    0.99    1.84
  20   1   7    5.56    3.94
  20  -2  -6    4.38    2.06
  20  -2  -6    6.89    3.34
  20  -2  -5   -1.56    1.21
  20  -2  -5    3.18    2.46
  20  -2  -4   14.57    4.27
  20  -2  -4    8.31    3.46
  20  -2  -3    1.65    2.26
  20   2  -3    1.88    1.53
  20  -2  -3   -1.55    1.80
  20  -2  -2   43.26    7.07
  20   2  -2   37.55    6.64
  20  -2  -2   45.48    7.12
  20   2  -2   55.09    7.78
  20  -2  -1    5.52    3.15
  20   2  -1    3.36    2.70
  20  -2  -1    3.41    2.56
  20   2  -1   -2.09    1.86
  20   2  -1    7.70    3.30
  20  -2   0    1.84    2.08
  20   2   0    0.29    1.65
  20  -2   0   -1.49    2.35
  20   2   0   -3.49    3.06
  20   2   0    1.65    1.77
  20  -2   1    0.47    1.86
  20   2   1    4.53    3.03
  20  -2   1    4.21    2.81
  20   2   1    3.90    2.95
  20   2   1   10.67    3.77
  20  -2   2   47.94    7.43
  20   2   2   45.44    7.39
  20  -2   2   48.11    7.38
  20   2   2   47.19    7.41
  20   2   2   39.13    6.66
  20  -2   3    2.34    2.23
  20  -2   3    2.04    1.59
  20   2   3    3.66    2.53
  20   2   3    2.67    3.24
  20   2   3    2.44    3.22
  20  -2   4   13.29    3.67
  20  -2   4   17.71    3.91
  20   2   4    3.83    2.31
  20   2   4    6.46    2.36
  20   2   4    9.88    3.67
  20  -2   5    0.23    1.50
  20  -2   5    2.88    2.16
  20   2   5    1.61    1.59
  20   2   5   -0.99    1.46
  20   2   5    2.67    2.51
  20  -2   6    6.67    3.02
  20  -2   6    8.44    3.52
  20   2   6    8.65    3.48
  20   2   6    4.40    2.32
  20   2   6    3.25    2.98
  20  -3   0    2.17    1.90
  20  -3   0   -0.18    2.47
  20   3   0   -2.49    1.93
  20   3   0    0.11    1.40
   0   0   0    0.00    0.00
TITL 007_250K_SulfamerazineF1_ in Pna2(1)
REM Pna2(1) (#33, found as Pbn2(1) in ba-c setting)
CELL 0.68890  14.488403   8.204798  21.916675  90.0000  90.0000  90.0000
ZERR    8.00   0.000141   0.000087   0.000319   0.0000   0.0000   0.0000
LATT -1
SYMM -x,-y, z+1/2
SYMM  x+1/2,-y+1/2, z
SYMM -x+1/2, y+1/2, z+1/2
SFAC C H N O S
UNIT 88.00 96.00 32.00 16.00 8.00
TREF
HKLF 4
END
_computing_structure_solution     'SHELXT 2014/5 (Sheldrick, 2014)'
;
_shelx_hkl_checksum              47558
loop_
_space_group_symop_operation_xyz
'x, y, z'
'-x, -y, z+1/2'
'x+1/2, -y+1/2, z'
'-x+1/2, y+1/2, z+1/2'
loop_
_atom_site_label
_atom_site_type_symbol
_atom_site_fract_x
_atom_site_fract_y
_atom_site_fract_z
_atom_site_U_iso_or_equiv
_atom_site_adp_type
_atom_site_occupancy
_atom_site_site_symmetry_order
_atom_site_calc_flag
_atom_site_refinement_flags_posn
_atom_site_refinement_flags_adp
_atom_site_refinement_flags_occupancy
_atom_site_disorder_assembly
_atom_site_disorder_group
S1 S 0.64620(5) 0.49548(9) 0.34429(5) 0.03357(19) Uani 1 1 d . . . . .
S2 S 0.57780(6) 0.49558(9) 0.65262(5) 0.03307(19) Uani 1 1 d . . . . .
O1 O 0.68957(18) 0.3713(3) 0.30874(13) 0.0448(6) Uani 1 1 d . . . . .
O2 O 0.54917(17) 0.5223(3) 0.33780(14) 0.0437(6) Uani 1 1 d . . . . .
O3 O 0.67519(17) 0.4682(3) 0.65904(14) 0.0422(6) Uani 1 1 d . . . . .
O4 O 0.53553(18) 0.6230(3) 0.68725(13) 0.0428(6) Uani 1 1 d . . . . .
N1 N 0.8427(3) 1.1162(4) 0.31227(19) 0.0505(9) Uani 1 1 d . . . . .
N2 N 0.6553(2) 0.4493(4) 0.41720(16) 0.0381(7) Uani 1 1 d . . . . .
N3 N 0.8146(2) 0.4094(4) 0.41744(15) 0.0383(7) Uani 1 1 d . . . . .
N4 N 0.7283(2) 0.4296(5) 0.50951(16) 0.0539(9) Uani 1 1 d . . . . .
N5 N 0.3804(3) -0.1204(4) 0.6955(2) 0.0646(11) Uani 1 1 d . . . . .
H5A H 0.3238 -0.1191 0.7074 0.084 Uiso 1 1 calc R U . . .
H5B H 0.4079 -0.2118 0.6893 0.084 Uiso 1 1 calc R U . . .
N6 N 0.5683(2) 0.5379(4) 0.57936(16) 0.0410(7) Uani 1 1 d . . . . .
N7 N 0.4097(2) 0.5854(4) 0.57984(16) 0.0417(7) Uani 1 1 d . . . . .
N8 N 0.4965(2) 0.5661(5) 0.48751(17) 0.0528(9) Uani 1 1 d . . . . .
C1 C 0.7050(2) 0.6777(4) 0.33424(18) 0.0307(7) Uani 1 1 d . . . . .
C2 C 0.7948(2) 0.6798(4) 0.31058(17) 0.0326(7) Uani 1 1 d . . . . .
H2 H 0.8236 0.5827 0.2997 0.042 Uiso 1 1 calc R U . . .
C3 C 0.8402(2) 0.8252(4) 0.30345(18) 0.0335(7) Uani 1 1 d . . . . .
H3 H 0.9002 0.8258 0.2883 0.044 Uiso 1 1 calc R U . . .
C4 C 0.7974(2) 0.9729(4) 0.31871(17) 0.0352(7) Uani 1 1 d . . . . .
C5 C 0.7070(2) 0.9693(4) 0.3427(2) 0.0376(8) Uani 1 1 d . . . . .
H5 H 0.6780 1.0661 0.3538 0.049 Uiso 1 1 calc R U . . .
C6 C 0.6617(2) 0.8233(4) 0.34980(19) 0.0381(8) Uani 1 1 d . . . . .
H6 H 0.6018 0.8219 0.3651 0.050 Uiso 1 1 calc R U . . .
C7 C 0.7372(2) 0.4285(4) 0.44914(17) 0.0370(8) Uani 1 1 d . . . . .
C8 C 0.8062(3) 0.4036(8) 0.5404(3) 0.0755(16) Uani 1 1 d . . . . .
H8 H 0.8037 0.3997 0.5828 0.098 Uiso 1 1 calc R U . . .
C9 C 0.8895(3) 0.3824(7) 0.5123(2) 0.0681(14) Uani 1 1 d . . . . .
H9 H 0.9429 0.3644 0.5349 0.089 Uiso 1 1 calc R U . . .
C10 C 0.8920(3) 0.3885(5) 0.4499(2) 0.0485(10) Uani 1 1 d . . . . .
C11 C 0.9793(3) 0.3700(7) 0.4144(2) 0.0644(13) Uani 1 1 d . . . . .
H11A H 0.9859 0.2587 0.4016 0.084 Uiso 1 1 calc R U . . .
H11B H 1.0309 0.3998 0.4396 0.084 Uiso 1 1 calc R U . . .
H11C H 0.9774 0.4396 0.3792 0.084 Uiso 1 1 calc R U . . .
C12 C 0.5191(2) 0.3152(4) 0.66571(16) 0.0319(7) Uani 1 1 d . . . . .
C13 C 0.5635(2) 0.1682(4) 0.6556(2) 0.0438(9) Uani 1 1 d . . . . .
H13 H 0.6243 0.1673 0.6419 0.057 Uiso 1 1 calc R U . . .
C14 C 0.5180(3) 0.0233(4) 0.6657(2) 0.0492(11) Uani 1 1 d . . . . .
H14 H 0.5483 -0.0749 0.6588 0.064 Uiso 1 1 calc R U . . .
C15 C 0.4266(3) 0.0230(4) 0.68638(19) 0.0416(9) Uani 1 1 d . . . . .
C16 C 0.3823(2) 0.1719(4) 0.69631(18) 0.0371(8) Uani 1 1 d . . . . .
H16 H 0.3215 0.1733 0.7098 0.048 Uiso 1 1 calc R U . . .
C17 C 0.4283(2) 0.3170(4) 0.68620(18) 0.0338(8) Uani 1 1 d . . . . .
H17 H 0.3985 0.4157 0.6931 0.044 Uiso 1 1 calc R U . . .
C18 C 0.4868(2) 0.5644(4) 0.54804(17) 0.0357(7) Uani 1 1 d . . . . .
C19 C 0.4186(3) 0.5976(8) 0.4567(2) 0.0715(16) Uani 1 1 d . . . . .
H19 H 0.4210 0.6009 0.4143 0.093 Uiso 1 1 calc R U . . .
C20 C 0.3358(3) 0.6250(8) 0.4848(2) 0.0723(15) Uani 1 1 d . . . . .
H20 H 0.2833 0.6498 0.4622 0.094 Uiso 1 1 calc R U . . .
C21 C 0.3325(3) 0.6149(5) 0.5477(2) 0.0483(10) Uani 1 1 d . . . . .
C22 C 0.2463(3) 0.6352(7) 0.5838(3) 0.0709(14) Uani 1 1 d . . . . .
H22A H 0.2492 0.7353 0.6064 0.092 Uiso 1 1 calc R U . . .
H22B H 0.2398 0.5454 0.6116 0.092 Uiso 1 1 calc R U . . .
H22C H 0.1942 0.6380 0.5567 0.092 Uiso 1 1 calc R U . . .
H1N1 H 0.893(3) 1.119(6) 0.291(2) 0.064(14) Uiso 1 1 d . . . . .
H2N1 H 0.812(3) 1.197(5) 0.316(2) 0.052(13) Uiso 1 1 d . . . . .
H1N2 H 0.616(3) 0.480(5) 0.439(2) 0.040(12) Uiso 1 1 d . . . . .
H1N6 H 0.618(3) 0.507(5) 0.561(2) 0.055(14) Uiso 1 1 d . . . . .
loop_
_atom_site_aniso_label
_atom_site_aniso_U_11
_atom_site_aniso_U_22
_atom_site_aniso_U_33
_atom_site_aniso_U_23
_atom_site_aniso_U_13
_atom_site_aniso_U_12
S1 0.0313(4) 0.0358(4) 0.0336(5) 0.0028(4) -0.0016(4) -0.0022(3)
S2 0.0300(4) 0.0363(4) 0.0329(5) 0.0035(3) -0.0009(4) -0.0023(3)
O1 0.0516(15) 0.0371(12) 0.0456(16) -0.0061(11) 0.0025(13) -0.0016(11)
O2 0.0317(12) 0.0540(14) 0.0453(17) 0.0073(13) -0.0068(13) -0.0044(10)
O3 0.0312(12) 0.0541(14) 0.0414(16) 0.0075(13) -0.0055(12) -0.0033(10)
O4 0.0474(15) 0.0354(12) 0.0455(16) -0.0030(11) -0.0014(12) -0.0025(10)
N1 0.0451(18) 0.0380(16) 0.069(3) -0.0086(16) 0.0183(18) -0.0053(14)
N2 0.0288(14) 0.0518(17) 0.0339(18) 0.0079(14) -0.0008(13) -0.0006(12)
N3 0.0313(14) 0.0423(15) 0.0414(19) 0.0026(13) 0.0012(13) 0.0032(12)
N4 0.0369(16) 0.085(3) 0.040(2) 0.0081(19) -0.0023(15) 0.0135(17)
N5 0.054(2) 0.0378(16) 0.102(3) -0.0042(19) 0.021(2) -0.0104(14)
N6 0.0285(14) 0.0587(19) 0.0359(19) 0.0125(15) 0.0032(13) 0.0031(13)
N7 0.0343(15) 0.0479(17) 0.0429(19) 0.0038(14) 0.0018(13) 0.0042(12)
N8 0.0381(16) 0.083(2) 0.037(2) 0.0063(18) -0.0037(15) 0.0132(17)
C1 0.0293(15) 0.0346(14) 0.0283(18) 0.0020(13) -0.0002(13) 0.0019(11)
C2 0.0314(15) 0.0358(15) 0.0306(18) -0.0003(13) 0.0008(14) 0.0036(12)
C3 0.0300(16) 0.0419(18) 0.0287(19) -0.0019(14) 0.0041(14) 0.0008(13)
C4 0.0359(17) 0.0370(16) 0.0327(19) -0.0024(13) 0.0019(14) -0.0017(12)
C5 0.0372(17) 0.0353(15) 0.040(2) -0.0027(16) 0.0047(18) 0.0032(12)
C6 0.0316(15) 0.0394(16) 0.043(2) -0.0014(16) 0.0097(16) 0.0019(12)
C7 0.0330(17) 0.0401(17) 0.038(2) 0.0061(15) -0.0015(15) 0.0038(13)
C8 0.048(3) 0.132(5) 0.046(3) 0.004(3) -0.007(2) 0.027(3)
C9 0.038(2) 0.114(4) 0.053(3) 0.000(3) -0.013(2) 0.021(2)
C10 0.0337(18) 0.052(2) 0.059(3) -0.001(2) -0.0001(18) 0.0089(16)
C11 0.037(2) 0.082(3) 0.075(3) -0.003(3) 0.006(2) 0.011(2)
C12 0.0317(15) 0.0308(14) 0.0333(19) 0.0004(12) 0.0017(14) 0.0005(11)
C13 0.0330(17) 0.0381(17) 0.060(3) 0.0007(18) 0.0099(19) 0.0043(12)
C14 0.0416(19) 0.0338(17) 0.072(3) -0.0014(17) 0.008(2) 0.0057(14)
C15 0.043(2) 0.0365(16) 0.045(2) -0.0006(15) 0.0016(17) -0.0034(13)
C16 0.0325(16) 0.0391(16) 0.040(2) -0.0048(15) 0.0050(15) -0.0036(13)
C17 0.0321(16) 0.0338(15) 0.036(2) -0.0030(14) 0.0031(15) 0.0030(12)
C18 0.0295(15) 0.0414(17) 0.036(2) 0.0062(15) 0.0007(14) 0.0020(13)
C19 0.050(3) 0.128(5) 0.037(3) 0.005(3) -0.007(2) 0.025(3)
C20 0.043(2) 0.116(4) 0.058(3) -0.007(3) -0.015(2) 0.029(2)
C21 0.0349(18) 0.057(2) 0.053(3) -0.0010(19) -0.0038(18) 0.0098(16)
C22 0.036(2) 0.090(3) 0.086(4) -0.007(3) 0.007(2) 0.012(2)
loop_
_atom_type_symbol
_atom_type_description
_atom_type_scat_dispersion_real
_atom_type_scat_dispersion_imag
_atom_type_scat_source
C C 0.0033 0.0016 'International Tables Vol C Tables 4.2.6.8 and 6.1.1.4'
H H 0.0000 0.0000 'International Tables Vol C Tables 4.2.6.8 and 6.1.1.4'
N N 0.0061 0.0033 'International Tables Vol C Tables 4.2.6.8 and 6.1.1.4'
O O 0.0106 0.0060 'International Tables Vol C Tables 4.2.6.8 and 6.1.1.4'
S S 0.1246 0.1234 'International Tables Vol C Tables 4.2.6.8 and 6.1.1.4'
loop_
_geom_angle_atom_site_label_1
_geom_angle_atom_site_label_2
_geom_angle_atom_site_label_3
_geom_angle
_geom_angle_site_symmetry_1
_geom_angle_site_symmetry_3
O1 S1 O2 119.20(17) . .
O1 S1 N2 109.24(18) . .
O2 S1 N2 102.16(17) . .
O1 S1 C1 109.26(17) . .
O2 S1 C1 109.72(15) . .
N2 S1 C1 106.38(18) . .
O4 S2 O3 118.92(17) . .
O4 S2 N6 109.09(17) . .
O3 S2 N6 102.18(17) . .
O4 S2 C12 109.06(17) . .
O3 S2 C12 109.44(15) . .
N6 S2 C12 107.48(18) . .
C4 N1 H1N1 119(3) . .
C4 N1 H2N1 116(3) . .
H1N1 N1 H2N1 120(4) . .
C7 N2 S1 125.9(3) . .
C7 N2 H1N2 111(3) . .
S1 N2 H1N2 117(3) . .
C7 N3 C10 116.3(3) . .
C7 N4 C8 115.0(4) . .
C15 N5 H5A 120.0 . .
C15 N5 H5B 120.0 . .
H5A N5 H5B 120.0 . .
C18 N6 S2 126.0(3) . .
C18 N6 H1N6 122(3) . .
S2 N6 H1N6 109(3) . .
C18 N7 C21 116.6(3) . .
C18 N8 C19 114.5(4) . .
C6 C1 C2 119.9(3) . .
C6 C1 S1 119.2(2) . .
C2 C1 S1 120.9(2) . .
C3 C2 C1 119.9(3) . .
C3 C2 H2 120.1 . .
C1 C2 H2 120.1 . .
C2 C3 C4 120.8(3) . .
C2 C3 H3 119.6 . .
C4 C3 H3 119.6 . .
N1 C4 C3 120.8(3) . .
N1 C4 C5 120.4(3) . .
C3 C4 C5 118.8(3) . .
C6 C5 C4 120.2(3) . .
C6 C5 H5 119.9 . .
C4 C5 H5 119.9 . .
C5 C6 C1 120.3(3) . .
C5 C6 H6 119.8 . .
C1 C6 H6 119.8 . .
N4 C7 N3 127.1(3) . .
N4 C7 N2 114.7(3) . .
N3 C7 N2 118.2(3) . .
N4 C8 C9 122.6(5) . .
N4 C8 H8 118.7 . .
C9 C8 H8 118.7 . .
C10 C9 C8 118.0(4) . .
C10 C9 H9 121.0 . .
C8 C9 H9 121.0 . .
N3 C10 C9 120.9(4) . .
N3 C10 C11 116.5(4) . .
C9 C10 C11 122.6(4) . .
C10 C11 H11A 109.5 . .
C10 C11 H11B 109.5 . .
H11A C11 H11B 109.5 . .
C10 C11 H11C 109.5 . .
H11A C11 H11C 109.5 . .
H11B C11 H11C 109.5 . .
C13 C12 C17 120.1(3) . .
C13 C12 S2 119.3(2) . .
C17 C12 S2 120.6(2) . .
C14 C13 C12 120.2(3) . .
C14 C13 H13 119.9 . .
C12 C13 H13 119.9 . .
C13 C14 C15 120.4(3) . .
C13 C14 H14 119.8 . .
C15 C14 H14 119.8 . .
N5 C15 C16 120.2(4) . .
N5 C15 C14 120.8(3) . .
C16 C15 C14 118.9(3) . .
C17 C16 C15 120.5(3) . .
C17 C16 H16 119.8 . .
C15 C16 H16 119.8 . .
C16 C17 C12 119.9(3) . .
C16 C17 H17 120.1 . .
C12 C17 H17 120.1 . .
N7 C18 N8 127.5(3) . .
N7 C18 N6 118.6(3) . .
N8 C18 N6 113.9(3) . .
N8 C19 C20 123.0(5) . .
N8 C19 H19 118.5 . .
C20 C19 H19 118.5 . .
C19 C20 C21 118.0(4) . .
C19 C20 H20 121.0 . .
C21 C20 H20 121.0 . .
N7 C21 C20 120.3(4) . .
N7 C21 C22 116.1(4) . .
C20 C21 C22 123.6(4) . .
C21 C22 H22A 109.5 . .
C21 C22 H22B 109.5 . .
H22A C22 H22B 109.5 . .
C21 C22 H22C 109.5 . .
H22A C22 H22C 109.5 . .
H22B C22 H22C 109.5 . .
loop_
_geom_bond_atom_site_label_1
_geom_bond_atom_site_label_2
_geom_bond_distance
_geom_bond_site_symmetry_2
S1 O1 1.428(3) .
S1 O2 1.430(2) .
S1 N2 1.648(4) .
S1 C1 1.734(3) .
S2 O4 1.430(3) .
S2 O3 1.436(2) .
S2 N6 1.649(4) .
S2 C12 1.731(3) .
N1 C4 1.354(5) .
N1 H1N1 0.87(5) .
N1 H2N1 0.81(4) .
N2 C7 1.388(4) .
N2 H1N2 0.79(5) .
N3 C7 1.328(4) .
N3 C10 1.339(5) .
N4 C7 1.329(5) .
N4 C8 1.333(6) .
N5 C15 1.368(5) .
N5 H5A 0.8600 .
N5 H5B 0.8600 .
N6 C18 1.383(4) .
N6 H1N6 0.87(5) .
N7 C18 1.328(4) .
N7 C21 1.344(5) .
N8 C18 1.334(5) .
N8 C19 1.340(5) .
C1 C6 1.392(5) .
C1 C2 1.402(4) .
C2 C3 1.371(5) .
C2 H2 0.9300 .
C3 C4 1.402(5) .
C3 H3 0.9300 .
C4 C5 1.411(5) .
C5 C6 1.375(5) .
C5 H5 0.9300 .
C6 H6 0.9300 .
C8 C9 1.366(6) .
C8 H8 0.9300 .
C9 C10 1.369(7) .
C9 H9 0.9300 .
C10 C11 1.494(6) .
C11 H11A 0.9600 .
C11 H11B 0.9600 .
C11 H11C 0.9600 .
C12 C13 1.385(4) .
C12 C17 1.390(4) .
C13 C14 1.377(5) .
C13 H13 0.9300 .
C14 C15 1.400(5) .
C14 H14 0.9300 .
C15 C16 1.397(5) .
C16 C17 1.382(5) .
C16 H16 0.9300 .
C17 H17 0.9300 .
C19 C20 1.367(7) .
C19 H19 0.9300 .
C20 C21 1.382(7) .
C20 H20 0.9300 .
C21 C22 1.488(6) .
C22 H22A 0.9600 .
C22 H22B 0.9600 .
C22 H22C 0.9600 .
loop_
_geom_hbond_atom_site_label_D
_geom_hbond_atom_site_label_H
_geom_hbond_atom_site_label_A
_geom_hbond_distance_DH
_geom_hbond_distance_HA
_geom_hbond_distance_DA
_geom_hbond_angle_DHA
_geom_hbond_site_symmetry_A
N5 H5B O4 0.86 2.29 3.085(5) 153.1 1_545
N1 H1N1 O4 0.87(5) 2.50(5) 3.260(5) 147(4) 4_654
N1 H2N1 O1 0.81(4) 2.28(4) 3.050(5) 160(4) 1_565
N2 H1N2 N8 0.79(5) 2.15(5) 2.931(5) 172(5) .
N6 H1N6 N4 0.87(5) 2.06(5) 2.917(5) 174(5) .
loop_
_geom_torsion_atom_site_label_1
_geom_torsion_atom_site_label_2
_geom_torsion_atom_site_label_3
_geom_torsion_atom_site_label_4
_geom_torsion
_geom_torsion_site_symmetry_1
_geom_torsion_site_symmetry_2
_geom_torsion_site_symmetry_3
_geom_torsion_site_symmetry_4
O1 S1 N2 C7 60.1(4) . . . .
O2 S1 N2 C7 -172.8(3) . . . .
C1 S1 N2 C7 -57.8(4) . . . .
O4 S2 N6 C18 -57.6(4) . . . .
O3 S2 N6 C18 175.7(3) . . . .
C12 S2 N6 C18 60.5(4) . . . .
O1 S1 C1 C6 161.9(3) . . . .
O2 S1 C1 C6 29.5(4) . . . .
N2 S1 C1 C6 -80.3(3) . . . .
O1 S1 C1 C2 -17.9(4) . . . .
O2 S1 C1 C2 -150.3(3) . . . .
N2 S1 C1 C2 100.0(3) . . . .
C6 C1 C2 C3 0.7(5) . . . .
S1 C1 C2 C3 -179.5(3) . . . .
C1 C2 C3 C4 -0.9(5) . . . .
C2 C3 C4 N1 179.3(4) . . . .
C2 C3 C4 C5 1.2(6) . . . .
N1 C4 C5 C6 -179.3(4) . . . .
C3 C4 C5 C6 -1.2(6) . . . .
C4 C5 C6 C1 0.9(6) . . . .
C2 C1 C6 C5 -0.7(6) . . . .
S1 C1 C6 C5 179.5(3) . . . .
C8 N4 C7 N3 -2.2(7) . . . .
C8 N4 C7 N2 177.6(4) . . . .
C10 N3 C7 N4 0.3(6) . . . .
C10 N3 C7 N2 -179.5(3) . . . .
S1 N2 C7 N4 165.0(3) . . . .
S1 N2 C7 N3 -15.2(5) . . . .
C7 N4 C8 C9 2.0(8) . . . .
N4 C8 C9 C10 0.0(9) . . . .
C7 N3 C10 C9 1.9(6) . . . .
C7 N3 C10 C11 -179.0(4) . . . .
C8 C9 C10 N3 -2.1(8) . . . .
C8 C9 C10 C11 178.9(5) . . . .
O4 S2 C12 C13 -157.4(3) . . . .
O3 S2 C12 C13 -25.8(4) . . . .
N6 S2 C12 C13 84.5(3) . . . .
O4 S2 C12 C17 22.6(4) . . . .
O3 S2 C12 C17 154.2(3) . . . .
N6 S2 C12 C17 -95.6(3) . . . .
C17 C12 C13 C14 0.0(6) . . . .
S2 C12 C13 C14 -180.0(4) . . . .
C12 C13 C14 C15 -0.1(7) . . . .
C13 C14 C15 N5 178.8(5) . . . .
C13 C14 C15 C16 0.2(7) . . . .
N5 C15 C16 C17 -178.9(4) . . . .
C14 C15 C16 C17 -0.4(6) . . . .
C15 C16 C17 C12 0.3(6) . . . .
C13 C12 C17 C16 -0.2(6) . . . .
S2 C12 C17 C16 179.9(3) . . . .
C21 N7 C18 N8 -1.4(6) . . . .
C21 N7 C18 N6 178.4(4) . . . .
C19 N8 C18 N7 2.1(7) . . . .
C19 N8 C18 N6 -177.7(4) . . . .
S2 N6 C18 N7 12.1(5) . . . .
S2 N6 C18 N8 -168.1(3) . . . .
C18 N8 C19 C20 -0.3(8) . . . .
N8 C19 C20 C21 -1.9(10) . . . .
C18 N7 C21 C20 -1.1(6) . . . .
C18 N7 C21 C22 178.9(4) . . . .
C19 C20 C21 N7 2.7(8) . . . .
C19 C20 C21 C22 -177.4(5) . . . .
