#------------------------------------------------------------------------------
#$Date: 2017-11-07 02:11:17 +0200 (Tue, 07 Nov 2017) $
#$Revision: 202638 $
#$URL: file:///home/coder/svn-repositories/cod/cif/1/54/78/1547875.cif $
#------------------------------------------------------------------------------
#
# This file is available in the Crystallography Open Database (COD),
# http://www.crystallography.net/
#
# All data on this site have been placed in the public domain by the
# contributors.
#
data_1547875
loop_
_publ_author_name
'Ramesh, Balu'
'Jeganmohan, Masilamani'
_publ_section_title
;
 Ruthenium-Catalyzed Remote C-H Sulfonylation of N-Aryl-2-aminopyridines
 with Aromatic Sulfonyl Chlorides.
;
_journal_issue                   21
_journal_name_full               'Organic letters'
_journal_page_first              6000
_journal_page_last               6003
_journal_paper_doi               10.1021/acs.orglett.7b03051
_journal_volume                  19
_journal_year                    2017
_chemical_formula_sum            'C20 H20 N2 O2 S'
_chemical_formula_weight         352.44
_space_group_crystal_system      monoclinic
_space_group_IT_number           15
_space_group_name_Hall           '-C 2yc'
_space_group_name_H-M_alt        'C 1 2/c 1'
_symmetry_space_group_name_Hall  '-C 2yc'
_symmetry_space_group_name_H-M   'C 1 2/c 1'
_atom_sites_solution_hydrogens   mixed
_audit_creation_method           SHELXL-2014/7
_cell_angle_alpha                90
_cell_angle_beta                 97.4759(19)
_cell_angle_gamma                90
_cell_formula_units_Z            8
_cell_length_a                   14.8321(7)
_cell_length_b                   8.4143(3)
_cell_length_c                   29.8348(12)
_cell_measurement_reflns_used    3990
_cell_measurement_temperature    296(2)
_cell_measurement_theta_max      24.06
_cell_measurement_theta_min      2.75
_cell_volume                     3691.8(3)
_computing_cell_refinement       'Bruker SAINT'
_computing_data_collection       'Bruker APEX2'
_computing_data_reduction        'Bruker SAINT'
_computing_molecular_graphics    'Bruker SHELXTL'
_computing_publication_material  'Bruker SHELXTL'
_computing_structure_refinement  'SHELXL-2014/7 (Sheldrick, 2014)'
_computing_structure_solution    'SHELXS-97 (Sheldrick 2008)'
_diffrn_ambient_temperature      296(2)
_diffrn_measured_fraction_theta_full 1.000
_diffrn_measured_fraction_theta_max 1.000
_diffrn_measurement_device_type  'Bruker APEX-II CCD'
_diffrn_measurement_method       '\f and \w scans'
_diffrn_radiation_type           MoK\a
_diffrn_radiation_wavelength     0.71073
_diffrn_reflns_av_R_equivalents  0.0296
_diffrn_reflns_av_unetI/netI     0.0296
_diffrn_reflns_Laue_measured_fraction_full 1.000
_diffrn_reflns_Laue_measured_fraction_max 1.000
_diffrn_reflns_limit_h_max       13
_diffrn_reflns_limit_h_min       -17
_diffrn_reflns_limit_k_max       7
_diffrn_reflns_limit_k_min       -10
_diffrn_reflns_limit_l_max       35
_diffrn_reflns_limit_l_min       -35
_diffrn_reflns_number            12265
_diffrn_reflns_point_group_measured_fraction_full 1.000
_diffrn_reflns_point_group_measured_fraction_max 1.000
_diffrn_reflns_theta_full        24.998
_diffrn_reflns_theta_max         24.998
_diffrn_reflns_theta_min         2.754
_exptl_absorpt_coefficient_mu    0.190
_exptl_absorpt_correction_T_max  0.976
_exptl_absorpt_correction_T_min  0.954
_exptl_absorpt_correction_type   multi-scan
_exptl_absorpt_process_details   'SADABS V2014/5(Bruker AXS.Inc)'
_exptl_crystal_colour            colourless
_exptl_crystal_density_diffrn    1.268
_exptl_crystal_description       Block
_exptl_crystal_F_000             1488
_exptl_crystal_size_max          0.250
_exptl_crystal_size_mid          0.220
_exptl_crystal_size_min          0.130
_refine_diff_density_max         0.517
_refine_diff_density_min         -0.276
_refine_diff_density_rms         0.052
_refine_ls_extinction_method     none
_refine_ls_goodness_of_fit_ref   1.023
_refine_ls_hydrogen_treatment    mixed
_refine_ls_matrix_type           full
_refine_ls_number_parameters     232
_refine_ls_number_reflns         3245
_refine_ls_number_restraints     0
_refine_ls_restrained_S_all      1.023
_refine_ls_R_factor_all          0.0854
_refine_ls_R_factor_gt           0.0575
_refine_ls_shift/su_max          0.001
_refine_ls_shift/su_mean         0.000
_refine_ls_structure_factor_coef Fsqd
_refine_ls_weighting_details
'w=1/[\s^2^(Fo^2^)+(0.0774P)^2^+5.5888P] where P=(Fo^2^+2Fc^2^)/3'
_refine_ls_weighting_scheme      calc
_refine_ls_wR_factor_gt          0.1485
_refine_ls_wR_factor_ref         0.1748
_reflns_Friedel_coverage         0.000
_reflns_number_gt                2252
_reflns_number_total             3245
_reflns_threshold_expression     'I > 2\s(I)'
_cod_data_source_file            ol7b03051_si_003.cif
_cod_data_source_block           96
_cod_database_code               1547875
_shelx_shelxl_version_number     2014/7
_shelx_space_group_comment
; 
The symmetry employed for this shelxl refinement is uniquely defined 
by the following loop, which should always be used as a source of 
symmetry information in preference to the above space-group names. 
They are only intended as comments. 
;
_shelx_estimated_absorpt_t_min   0.954
_shelx_estimated_absorpt_t_max   0.976
_shelx_res_file
; 
  
    96.res created by SHELXL-2014/7 
  
TITL 96 in C2/c 
CELL 0.71073  14.83210   8.41430  29.83480  90.0000  97.4759  90.0000 
ZERR   8.00   0.00070   0.00030   0.00120   0.0000   0.0019   0.0000 
LATT 7 
SYMM -X, Y, 0.5-Z 
SFAC C  H  N  O  S 
UNIT 160  160  16  16  8 
OMIT -3 50 
L.S. 8 
ACTA 
BOND $H 
FMAP 2 
PLAN 5 
CONF 
SIZE 0.13 0.22 0.25 
TEMP 23.000 
WGHT    0.077400    5.588800 
FVAR       0.07936 
MOLE 1 
C1    1   -0.050507    0.155809    0.682818    11.00000    0.12917    0.15212 = 
         0.29861    0.04994    0.00202    0.00407 
AFIX 137 
H1A   2   -0.025202    0.211619    0.709595    11.00000   -1.50000 
H1B   2   -0.111681    0.124169    0.685680    11.00000   -1.50000 
H1C   2   -0.050682    0.224184    0.657048    11.00000   -1.50000 
AFIX   0 
C2    1    0.001423    0.022477    0.677242    11.00000    0.08325    0.10688 = 
         0.22410    0.01959    0.05165    0.02102 
AFIX  23 
H2A   2   -0.013608   -0.014931    0.646423    11.00000   -1.20000 
H2B   2   -0.015799   -0.060341    0.697091    11.00000   -1.20000 
AFIX   0 
C3    1    0.106182    0.045474    0.686751    11.00000    0.06538    0.07390 = 
         0.08660   -0.00097    0.01817    0.00339 
C4    1    0.158982   -0.045696    0.717945    11.00000    0.07729    0.06865 = 
         0.08114    0.01135    0.02247   -0.00592 
AFIX  43 
H4    2    0.130781   -0.117143    0.735419    11.00000   -1.20000 
AFIX   0 
C5    1    0.252365   -0.034997    0.724263    11.00000    0.07039    0.06446 = 
         0.05878    0.01137    0.01249   -0.00084 
AFIX  43 
H5    2    0.286233   -0.100398    0.745235    11.00000   -1.20000 
AFIX   0 
C6    1    0.295865    0.072778    0.699490    11.00000    0.06535    0.05599 = 
         0.04195   -0.00275    0.01040   -0.00526 
C7    1    0.244303    0.170442    0.669088    11.00000    0.08264    0.05710 = 
         0.05946    0.00751    0.01439   -0.00512 
AFIX  43 
H7    2    0.272484    0.246222    0.652968    11.00000   -1.20000 
AFIX   0 
C8    1    0.151013    0.155615    0.662628    11.00000    0.07846    0.06961 = 
         0.07200    0.00654    0.00406    0.01616 
AFIX  43 
H8    2    0.117055    0.220785    0.641625    11.00000   -1.20000 
AFIX   0 
C9    1    0.450749    0.077722    0.676892    11.00000    0.06579    0.05830 = 
         0.03728    0.00011    0.00822   -0.01140 
C10   1    0.600721    0.087538    0.665415    11.00000    0.06086    0.06118 = 
         0.04405    0.00281    0.00566   -0.00416 
AFIX  43 
H10   2    0.661507    0.099819    0.677217    11.00000   -1.20000 
AFIX   0 
C11   1    0.580296    0.065286    0.619529    11.00000    0.06283    0.04998 = 
         0.04196    0.00224    0.00914   -0.00088 
C12   1    0.488993    0.046200    0.602078    11.00000    0.08451    0.06784 = 
         0.03275   -0.00375    0.00714   -0.00716 
AFIX  43 
H12   2    0.472696    0.029083    0.571294    11.00000   -1.20000 
AFIX   0 
C13   1    0.423969    0.052683    0.630166    11.00000    0.06597    0.08256 = 
         0.03921   -0.00392    0.00266   -0.01510 
AFIX  43 
H13   2    0.362884    0.040861    0.618869    11.00000   -1.20000 
AFIX   0 
C14   1    0.652894    0.223284    0.550545    11.00000    0.05517    0.05350 = 
         0.04025   -0.00219    0.01552    0.00429 
C15   1    0.626497    0.209453    0.504928    11.00000    0.10586    0.06375 = 
         0.04449   -0.00841    0.00968   -0.00307 
AFIX  43 
H15   2    0.615684    0.109772    0.491863    11.00000   -1.20000 
AFIX   0 
C16   1    0.616087    0.344823    0.478521    11.00000    0.11204    0.08486 = 
         0.04150    0.00269    0.00659    0.00352 
AFIX  43 
H16   2    0.598735    0.334590    0.447563    11.00000   -1.20000 
AFIX   0 
C17   1    0.630533    0.492943    0.496568    11.00000    0.06965    0.06601 = 
         0.06169    0.01191    0.02946    0.01489 
C18   1    0.658251    0.503670    0.542798    11.00000    0.09697    0.05561 = 
         0.06494   -0.00354    0.02389   -0.00163 
AFIX  43 
H18   2    0.669677    0.603216    0.555856    11.00000   -1.20000 
AFIX   0 
C19   1    0.669157    0.370685    0.569638    11.00000    0.08727    0.06154 = 
         0.04328   -0.00229    0.01060   -0.00282 
AFIX  43 
H19   2    0.687433    0.380397    0.600535    11.00000   -1.20000 
AFIX   0 
C20   1    0.617246    0.639648    0.467612    11.00000    0.11986    0.08559 = 
         0.08647    0.03259    0.04074    0.02904 
AFIX 137 
H20A  2    0.569493    0.703233    0.477162    11.00000   -1.50000 
H20B  2    0.601118    0.609349    0.436583    11.00000   -1.50000 
H20C  2    0.672650    0.699950    0.470618    11.00000   -1.50000 
AFIX   0 
N1    3    0.391249    0.085032    0.707642    11.00000    0.06131    0.09554 = 
         0.03738   -0.00009    0.00541   -0.01273 
N2    3    0.539043    0.092566    0.693889    11.00000    0.05901    0.07156 = 
         0.03672    0.00065    0.00586   -0.00876 
O1    4    0.646982   -0.083038    0.555570    11.00000    0.14917    0.05219 = 
         0.07750   -0.00884    0.04917    0.00706 
O2    4    0.751543    0.059985    0.613298    11.00000    0.06906    0.11565 = 
         0.06779    0.02452    0.01244    0.02667 
S1    5    0.666025    0.052193    0.584629    11.00000    0.08204    0.05662 = 
         0.05202    0.00486    0.02310    0.01184 
H1N   2    0.415316    0.087106    0.733524    11.00000    0.08183 
HKLF 4 
  
REM  96 in C2/c 
REM R1 =  0.0575 for    2252 Fo > 4sig(Fo)  and  0.0854 for all    3245 data 
REM    232 parameters refined using      0 restraints 
  
END 
  
WGHT      0.0774      5.5886 
  
REM Highest difference peak  0.517,  deepest hole -0.276,  1-sigma level  0.052 
Q1    1  -0.0312  0.0198  0.6381  11.00000  0.05    0.52 
Q2    1   0.0192 -0.0132  0.6793  11.00000  0.05    0.26 
Q3    1   0.0269  0.1146  0.6871  11.00000  0.05    0.22 
Q4    1   0.5412  0.6233  0.4438  11.00000  0.05    0.19 
Q5    1   0.6706  0.2161  0.5293  11.00000  0.05    0.17 
;
_shelx_res_checksum              96540
_shelx_hkl_file
; 
  -2   0   0    7.40    0.23 
  -2   0   0    7.64    0.23 
   2   0   0    7.26    0.23 
   2   0   0    6.79    0.22 
   4   0   0  278.44    5.82 
   4   0   0  289.95    5.83 
  -4   0   0  280.72    5.83 
  -4   0   0  280.96    5.83 
   6   0   0   17.07    0.56 
  -6   0   0   16.78    0.57 
  -6   0   0   16.42    0.56 
   6   0   0   17.29    0.56 
  -8   0   0   35.99    1.08 
  -8   0   0   37.90    1.08 
   8   0   0   36.35    1.04 
   8   0   0   37.34    1.05 
 -10   0   0   23.27    0.85 
 -10   0   0   23.10    0.86 
 -12   0   0   10.44    0.59 
 -12   0   0    9.72    0.63 
 -14   0   0    2.61    0.37 
 -14   0   0    2.58    0.40 
 -16   0   0   -0.23    0.19 
 -16   0   0    0.41    0.25 
 -18   0   0   -0.19    0.22 
 -18   0   0   -0.15    0.19 
   1  -1   0   68.12    1.42 
  -1  -1   0   72.11    1.43 
   1  -1   0   69.76    1.41 
  -1  -1   0   69.80    1.45 
   1  -1   0   70.67    1.42 
  -1   1   0   68.57    1.41 
   1   1   0   67.47    1.44 
   1   1   0   65.40    1.42 
  -1   1   0   70.98    1.41 
   3  -1   0    0.95    0.08 
   3  -1   0    0.72    0.08 
  -3  -1   0    0.74    0.09 
  -3  -1   0    0.92    0.10 
  -3   1   0    0.75    0.08 
   3   1   0    0.78    0.09 
  -3   1   0    0.83    0.08 
  -3   1   0    0.94    0.10 
   3   1   0    0.69    0.08 
  -5  -1   0    0.28    0.09 
   5  -1   0    0.11    0.07 
  -5  -1   0    0.18    0.08 
   5  -1   0    0.24    0.07 
   5   1   0    0.17    0.08 
  -5   1   0    0.11    0.08 
  -5   1   0    0.14    0.07 
   5   1   0    0.22    0.08 
  -5   1   0    0.14    0.08 
  -7  -1   0   35.02    1.00 
   7  -1   0   35.32    0.97 
   7  -1   0   34.66    0.96 
  -7  -1   0   35.73    1.01 
  -7   1   0   34.36    0.98 
  -7   1   0   35.14    0.98 
  -7   1   0   36.51    0.96 
   7   1   0   34.46    0.96 
   7   1   0   34.04    0.98 
  -9  -1   0    6.59    0.43 
   9  -1   0    7.85    0.42 
   9  -1   0    6.72    0.38 
  -9  -1   0    7.59    0.43 
  -9   1   0    6.65    0.40 
  -9   1   0    6.87    0.41 
 -11  -1   0    0.99    0.29 
 -11  -1   0    1.47    0.26 
 -11   1   0    1.73    0.27 
 -11   1   0    1.11    0.26 
 -13  -1   0   -0.53    0.13 
 -13  -1   0    0.39    0.20 
 -13   1   0   -0.03    0.16 
 -13   1   0   -0.18    0.19 
 -15  -1   0    0.63    0.27 
 -15  -1   0    0.29    0.22 
 -15   1   0    0.90    0.27 
 -15   1   0    0.19    0.22 
 -17  -1   0   -0.27    0.20 
 -17  -1   0   -0.20    0.22 
 -17   1   0   -0.21    0.19 
 -17   1   0   -0.43    0.22 
   0  -2   0  815.15   16.44 
   2  -2   0    2.43    0.09 
   2  -2   0    2.27    0.10 
  -2  -2   0    2.15    0.12 
  -2  -2   0    2.35    0.13 
   2  -2   0    2.12    0.11 
  -2   2   0    2.30    0.09 
   2   2   0    2.30    0.10 
   2   2   0    2.40    0.13 
   4  -2   0   -0.05    0.04 
   4  -2   0    0.08    0.05 
   4  -2   0    0.11    0.05 
  -4  -2   0    0.10    0.07 
  -4  -2   0   -0.02    0.05 
  -4   2   0    0.08    0.04 
   4   2   0    0.04    0.05 
   4   2   0   -0.05    0.04 
  -4   2   0   -0.01    0.05 
  -4   2   0    0.03    0.05 
  -6  -2   0    4.73    0.30 
  -6  -2   0    4.60    0.29 
   6  -2   0    5.19    0.27 
   6  -2   0    4.94    0.25 
  -6   2   0    4.70    0.24 
   6   2   0    4.87    0.28 
   6   2   0    4.89    0.27 
  -6   2   0    5.05    0.27 
  -6   2   0    4.96    0.26 
   8  -2   0    0.56    0.12 
   8  -2   0    0.50    0.12 
  -8  -2   0    0.50    0.16 
  -8  -2   0    0.37    0.13 
  -8   2   0    0.47    0.13 
  -8   2   0    0.50    0.14 
 -10  -2   0    0.14    0.16 
 -10  -2   0    0.18    0.16 
 -10   2   0   -0.12    0.12 
 -10   2   0    0.12    0.14 
 -12  -2   0    6.86    0.51 
 -12  -2   0    6.30    0.54 
 -12   2   0    5.97    0.46 
 -12   2   0    6.67    0.48 
 -14  -2   0    0.32    0.25 
 -14  -2   0    0.63    0.25 
 -14   2   0    0.63    0.24 
 -14   2   0    0.51    0.24 
 -16  -2   0    0.16    0.24 
 -16  -2   0    0.25    0.23 
 -16   2   0    0.02    0.19 
 -16   2   0   -0.17    0.22 
 -18  -2   0   -0.04    0.24 
 -18  -2   0   -0.70    0.20 
 -18   2   0    0.13    0.24 
 -18   2   0   -0.10    0.27 
   1  -3   0   17.96    0.40 
   1  -3   0   17.90    0.39 
  -1  -3   0   17.63    0.40 
  -1  -3   0   17.86    0.42 
  -1  -3   0   17.45    0.45 
   3  -3   0    5.52    0.21 
  -3  -3   0    5.04    0.22 
  -3  -3   0    5.50    0.25 
   3  -3   0    4.97    0.17 
   3  -3   0    5.29    0.20 
  -3   3   0    5.23    0.16 
   3   3   0    5.11    0.18 
  -3   3   0    5.36    0.16 
   3   3   0    5.33    0.23 
   5  -3   0    0.74    0.09 
  -5  -3   0    0.55    0.12 
   5  -3   0    0.51    0.10 
  -5  -3   0    0.66    0.13 
   5  -3   0    0.76    0.11 
  -5   3   0    0.53    0.09 
  -5   3   0    0.64    0.08 
  -5   3   0    0.65    0.10 
   5   3   0    0.71    0.12 
   5   3   0    0.55    0.09 
   7  -3   0    4.57    0.28 
   7  -3   0    5.01    0.26 
  -7  -3   0    4.92    0.33 
  -7  -3   0    4.83    0.32 
  -7   3   0    4.71    0.27 
  -7   3   0    4.59    0.27 
   7   3   0    5.41    0.32 
  -9  -3   0    3.28    0.35 
   9  -3   0    2.85    0.23 
   9  -3   0    2.70    0.24 
  -9  -3   0    2.27    0.29 
  -9   3   0    2.52    0.26 
  -9   3   0    2.56    0.27 
 -11  -3   0    0.04    0.22 
 -11  -3   0    0.29    0.20 
 -11   3   0    0.10    0.16 
 -11   3   0   -0.02    0.15 
 -13  -3   0    0.53    0.24 
 -13  -3   0    0.64    0.25 
 -13   3   0    0.49    0.21 
 -13   3   0    0.37    0.21 
 -15  -3   0    0.65    0.28 
 -15  -3   0    0.06    0.21 
 -15   3   0   -0.07    0.16 
 -15   3   0    0.10    0.19 
 -17  -3   0   -0.06    0.23 
 -17  -3   0    0.20    0.26 
 -17   3   0    0.10    0.23 
   0  -4   0    2.46    0.09 
   0  -4   0    2.14    0.11 
   0  -4   0    2.52    0.10 
  -2  -4   0    0.91    0.10 
   2  -4   0    0.93    0.07 
   2  -4   0    0.87    0.08 
  -2  -4   0    0.90    0.11 
   4  -4   0    1.73    0.10 
  -4  -4   0    1.78    0.17 
  -4  -4   0    1.74    0.18 
   4  -4   0    1.62    0.14 
   4  -4   0    1.98    0.14 
   4   4   0    1.83    0.09 
   4   4   0    1.78    0.10 
   4   4   0    1.71    0.17 
   6  -4   0    6.79    0.32 
  -6  -4   0    7.04    0.38 
   6  -4   0    6.76    0.27 
  -6  -4   0    6.65    0.36 
   6   4   0    6.70    0.35 
  -6   4   0    7.30    0.26 
   6   4   0    7.13    0.33 
  -6   4   0    6.32    0.26 
  -8  -4   0    1.86    0.26 
   8  -4   0    1.95    0.22 
   8  -4   0    2.36    0.19 
  -8  -4   0    2.12    0.28 
  -8   4   0    2.43    0.21 
  -8   4   0    2.02    0.20 
  10  -4   0    0.79    0.17 
 -10  -4   0    0.82    0.25 
  10  -4   0    1.10    0.20 
 -10  -4   0    0.90    0.25 
 -10   4   0    0.73    0.18 
 -10   4   0    0.98    0.20 
 -12  -4   0    1.17    0.30 
 -12  -4   0    1.63    0.34 
 -12   4   0    1.88    0.28 
 -12   4   0    1.53    0.26 
 -14  -4   0    0.42    0.25 
 -14  -4   0    0.68    0.26 
 -14   4   0    0.52    0.21 
 -14   4   0    0.67    0.24 
 -16  -4   0    0.25    0.24 
 -16  -4   0    0.27    0.28 
 -16   4   0   -0.18    0.19 
  -1  -5   0   34.45    0.75 
  -1  -5   0   33.09    0.80 
   1  -5   0   33.07    0.74 
  -1  -5   0   32.95    0.77 
   1  -5   0   33.98    0.75 
  -3  -5   0    1.21    0.15 
  -3  -5   0    0.96    0.13 
   3  -5   0    0.82    0.10 
   3  -5   0    0.97    0.10 
   5  -5   0    0.68    0.11 
   5  -5   0    0.50    0.11 
  -5  -5   0    0.50    0.14 
   5  -5   0    0.46    0.06 
  -5  -5   0    0.31    0.12 
   5   5   0    0.53    0.06 
   5   5   0    0.55    0.06 
   5   5   0    0.68    0.13 
   7  -5   0    0.30    0.08 
  -7  -5   0    0.14    0.13 
   7  -5   0    0.10    0.08 
  -7  -5   0    0.31    0.15 
  -7   5   0    0.33    0.07 
   9  -5   0    0.04    0.08 
   9  -5   0    0.21    0.12 
  -9  -5   0    0.11    0.17 
  -9  -5   0    0.26    0.18 
  -9   5   0   -0.05    0.09 
 -11  -5   0    0.14    0.19 
 -11  -5   0   -0.18    0.22 
 -11   5   0   -0.10    0.12 
 -13  -5   0    0.97    0.31 
 -13  -5   0    0.57    0.25 
 -15  -5   0    0.16    0.25 
 -15  -5   0   -0.28    0.24 
   0  -6   0   14.03    0.36 
   0  -6   0   14.12    0.38 
  -2  -6   0    0.72    0.12 
   2  -6   0    0.74    0.09 
  -2  -6   0    0.57    0.11 
   2  -6   0    0.69    0.09 
   4  -6   0    0.59    0.12 
  -4  -6   0    0.68    0.14 
  -4  -6   0    0.87    0.16 
   4  -6   0    0.60    0.11 
   6  -6   0    0.20    0.09 
  -6  -6   0    0.05    0.12 
  -6  -6   0    0.06    0.13 
   6  -6   0    0.27    0.12 
  -8  -6   0    3.92    0.40 
   8  -6   0    3.86    0.31 
  -8  -6   0    4.15    0.37 
   8   6   0    4.04    0.20 
 -10  -6   0    0.73    0.25 
 -10  -6   0    0.80    0.25 
 -12  -6   0   -0.20    0.23 
 -12  -6   0    0.26    0.21 
 -14  -6   0    0.60    0.28 
 -14  -6   0    0.39    0.28 
  -1  -7   0   34.70    0.83 
   1  -7   0   33.57    0.79 
   1  -7   0   35.06    0.83 
  -3  -7   0   17.59    0.57 
  -3  -7   0   18.26    0.56 
   3  -7   0   16.66    0.49 
   3  -7   0   17.96    0.51 
  -5  -7   0   -0.12    0.13 
  -5  -7   0    0.10    0.12 
   5  -7   0    0.04    0.07 
   5  -7   0    0.01    0.09 
  -7  -7   0    1.49    0.24 
  -7  -7   0    1.37    0.28 
  -9  -7   0    0.92    0.23 
  -9  -7   0    1.26    0.29 
 -11  -7   0   -0.62    0.22 
 -11  -7   0    0.24    0.20 
 -13  -7   0    0.08    0.22 
 -13  -7   0    0.27    0.29 
   0  -8   0    9.05    0.31 
   2  -8   0    0.33    0.07 
  -2  -8   0    0.42    0.10 
   2  -8   0    0.22    0.07 
   4  -8   0   -0.05    0.08 
  -4  -8   0    0.04    0.10 
  -4  -8   0   -0.01    0.09 
  -6  -8   0    0.02    0.14 
  -6  -8   0    0.08    0.14 
  -8  -8   0    0.15    0.19 
  -8  -8   0    0.25    0.19 
 -10  -8   0   -0.16    0.21 
 -10  -8   0   -0.13    0.17 
 -12  -8   0    0.62    0.30 
 -12  -8   0    0.58    0.28 
  -1  -9   0    0.61    0.11 
   1  -9   0    0.58    0.10 
  -3  -9   0    0.46    0.12 
   3  -9   0    0.30    0.11 
   5  -9   0    0.72    0.15 
  -5  -9   0    0.59    0.17 
  -7  -9   0   -0.07    0.14 
  -9  -9   0    0.27    0.21 
   0 -10   0    1.31    0.15 
   2 -10   0    0.21    0.09 
  -2 -10   0    0.35    0.11 
  -4 -10   0   -0.12    0.10 
  -6 -10   0    0.12    0.15 
 -18   0   1   -0.13    0.19 
 -18   0   1   -0.24    0.22 
 -16   0   1    0.17    0.23 
 -16   0   1   -0.36    0.16 
 -14   0   1    0.80    0.27 
 -12   0   1    0.10    0.17 
 -10   0   1    0.10    0.16 
 -10   0   1   -0.07    0.15 
   8   0  -1   -0.30    0.08 
   8   0  -1   -0.08    0.10 
  -8   0   1   -0.27    0.12 
   6   0  -1   -0.15    0.06 
  -6   0   1   -0.23    0.07 
  -6   0   1    0.04    0.09 
   6   0  -1   -0.11    0.06 
   4   0  -1   -0.13    0.07 
  -4   0   1   -0.16    0.08 
   2   0  -1   -0.29    0.08 
   0   0   1    0.00    0.00 
   0   0  -1    0.00    0.00 
   0   0   1    0.00    0.00 
   0   0  -1    0.00    0.00 
   2   0   1    0.13    0.04 
   2   0   1    0.13    0.04 
  -2   0  -1   -0.05    0.04 
  -2   0  -1    0.02    0.04 
   4   0   1   -0.26    0.06 
  -4   0  -1    0.07    0.07 
   4   0   1    0.00    0.05 
   6   0   1   -0.05    0.08 
  -6   0  -1   -0.04    0.10 
  -6   0  -1   -0.10    0.10 
   6   0   1    0.07    0.09 
  -8   0  -1   -0.24    0.13 
   8   0   1    0.02    0.10 
   8   0   1   -0.35    0.10 
  -8   0  -1   -0.15    0.12 
 -10   0  -1    0.01    0.16 
 -10   0  -1    0.17    0.15 
 -12   0  -1   -0.08    0.17 
 -14   0  -1   -0.25    0.18 
 -14   0  -1    0.09    0.17 
 -16   0  -1    0.08    0.19 
 -16   0  -1   -0.18    0.20 
 -18   0  -1   -0.12    0.20 
 -18   0  -1   -0.22    0.22 
 -17  -1   1   -0.65    0.18 
 -17  -1   1   -0.40    0.20 
 -17   1   1   -0.20    0.18 
 -17   1   1   -0.35    0.19 
 -15  -1   1   -0.08    0.21 
 -15  -1   1    0.21    0.22 
 -15   1   1   -0.07    0.17 
 -15   1   1    0.13    0.21 
 -13  -1   1    0.29    0.23 
 -13  -1   1    1.08    0.25 
 -13   1   1    1.45    0.29 
 -13   1   1    0.25    0.21 
 -11  -1   1    3.54    0.38 
 -11  -1   1    2.95    0.39 
 -11   1   1    3.86    0.36 
 -11   1   1    3.81    0.39 
   9  -1  -1    0.96    0.17 
  -9  -1   1    0.80    0.20 
  -9  -1   1    1.07    0.20 
   9  -1  -1    1.02    0.17 
  -9   1   1    1.16    0.20 
  -9   1   1    0.74    0.19 
  -7  -1   1    4.79    0.32 
   7  -1  -1    4.98    0.30 
  -7  -1   1    4.63    0.34 
   7  -1  -1    4.84    0.29 
  -7   1   1    5.26    0.31 
  -7   1   1    5.20    0.31 
   7   1  -1    4.04    0.29 
   7   1  -1    5.06    0.30 
  -5  -1   1    7.31    0.32 
   5  -1  -1    7.03    0.29 
   5  -1  -1    7.34    0.30 
  -5  -1   1    6.88    0.31 
  -5   1   1    6.85    0.30 
   5   1  -1    7.03    0.30 
   5   1  -1    7.42    0.31 
  -5   1   1    7.20    0.30 
  -3  -1   1   23.43    0.60 
  -3  -1   1   23.78    0.61 
   3  -1  -1   22.71    0.58 
   3  -1  -1   22.88    0.57 
   3   1  -1   23.56    0.59 
   3   1  -1   22.68    0.60 
  -3   1   1   22.99    0.58 
  -3   1   1   23.19    0.57 
  -3   1   1   23.99    0.58 
  -1  -1   1    0.01    0.02 
   1  -1  -1    0.03    0.01 
  -1  -1   1    0.14    0.03 
   1  -1  -1    0.01    0.01 
   1   1  -1    0.06    0.02 
  -1   1   1    0.01    0.01 
   1   1  -1    0.00    0.02 
   1  -1   1  125.47    2.50 
   1  -1   1  122.07    2.49 
  -1  -1  -1  121.24    2.51 
  -1  -1  -1  126.05    2.49 
   1  -1   1  124.43    2.47 
   1   1   1  119.25    2.47 
  -1   1  -1  116.33    2.48 
  -1   1  -1  124.64    2.47 
  -1   1  -1  122.84    2.49 
   1   1   1  119.30    2.50 
   3  -1   1    0.31    0.07 
   3  -1   1    0.20    0.06 
  -3  -1  -1    0.17    0.06 
   3  -1   1    0.20    0.05 
  -3  -1  -1    0.23    0.07 
   3   1   1    0.17    0.06 
  -3   1  -1    0.21    0.06 
   3   1   1    0.24    0.06 
  -3   1  -1    0.17    0.05 
  -3   1  -1    0.18    0.06 
  -5  -1  -1   11.51    0.41 
   5  -1   1   11.25    0.40 
  -5  -1  -1   10.98    0.41 
   5  -1   1   11.01    0.38 
   5   1   1   11.29    0.41 
  -5   1  -1   10.07    0.37 
   5   1   1   11.33    0.39 
  -5   1  -1   11.28    0.41 
  -5   1  -1   11.44    0.40 
  -7  -1  -1   -0.08    0.12 
   7  -1   1   -0.13    0.08 
   7  -1   1    0.02    0.09 
  -7  -1  -1    0.00    0.11 
  -7   1  -1    0.12    0.12 
   7   1   1   -0.03    0.08 
  -7   1  -1    0.11    0.12 
  -7   1  -1   -0.13    0.06 
   7   1   1   -0.18    0.07 
  -9  -1  -1   -0.24    0.12 
   9  -1   1    0.09    0.09 
  -9  -1  -1    0.11    0.14 
   9  -1   1    0.11    0.11 
  -9   1  -1    0.23    0.15 
  -9   1  -1   -0.01    0.11 
 -11  -1  -1   -0.48    0.14 
 -11  -1  -1    0.05    0.16 
 -11   1  -1    0.20    0.15 
 -11   1  -1   -0.04    0.16 
 -13  -1  -1   -0.23    0.18 
 -13  -1  -1   -0.05    0.16 
 -13   1  -1    0.11    0.17 
 -15  -1  -1   -0.16    0.21 
 -15  -1  -1    0.31    0.21 
 -15   1  -1    0.30    0.22 
 -15   1  -1    0.45    0.24 
 -17  -1  -1   -0.07    0.20 
 -17  -1  -1    0.48    0.28 
 -17   1  -1   -0.24    0.20 
 -17   1  -1    0.28    0.25 
 -18  -2   1   -0.28    0.21 
 -18  -2   1    0.05    0.29 
 -18   2   1   -0.38    0.21 
 -18   2   1   -0.19    0.25 
 -16  -2   1    0.03    0.24 
 -16  -2   1   -0.07    0.22 
 -16   2   1   -0.08    0.18 
 -16   2   1   -0.30    0.18 
 -14  -2   1    1.94    0.36 
 -14  -2   1    1.97    0.38 
 -14   2   1    2.18    0.34 
 -14   2   1    2.16    0.34 
 -12  -2   1   -0.10    0.19 
 -12  -2   1    0.21    0.18 
 -12   2   1   -0.48    0.16 
 -12   2   1   -0.04    0.16 
 -10  -2   1    0.60    0.19 
 -10  -2   1    0.59    0.21 
 -10   2   1    0.39    0.17 
 -10   2   1    0.40    0.16 
   8  -2  -1    0.65    0.12 
   8  -2  -1    0.98    0.17 
  -8  -2   1    0.39    0.14 
  -8  -2   1    0.52    0.17 
  -8   2   1    0.72    0.16 
  -8   2   1    0.44    0.12 
   8   2  -1    0.36    0.15 
  -6  -2   1    5.80    0.32 
  -6  -2   1    5.78    0.32 
   6  -2  -1    5.41    0.28 
   6  -2  -1    5.85    0.27 
  -6   2   1    5.94    0.28 
   6   2  -1    5.50    0.30 
  -6   2   1    5.90    0.29 
   6   2  -1    5.38    0.28 
  -6   2   1    5.10    0.25 
   4  -2  -1    0.26    0.06 
   4  -2  -1    0.37    0.08 
  -4  -2   1    0.33    0.08 
  -4  -2   1    0.35    0.09 
  -4   2   1    0.30    0.07 
   4   2  -1    0.36    0.07 
  -4   2   1    0.35    0.07 
  -4   2   1    0.35    0.06 
   4   2  -1    0.24    0.07 
  -2  -2   1   11.69    0.34 
   2  -2  -1   11.38    0.29 
   2  -2  -1   11.14    0.29 
   2  -2  -1   11.25    0.29 
  -2  -2   1   11.61    0.32 
   2   2  -1   11.33    0.30 
  -2   2   1   11.57    0.26 
   2   2  -1   11.03    0.33 
   0  -2   1  503.14   10.31 
   0  -2   1  523.76   10.32 
   0  -2   1  503.39   10.26 
  -2  -2  -1   61.45    1.36 
   2  -2   1   61.72    1.28 
   2  -2   1   60.38    1.32 
  -2  -2  -1   62.04    1.33 
   2  -2   1   62.28    1.32 
  -2   2  -1   63.11    1.29 
  -2   2  -1   63.45    1.30 
   2   2   1   60.91    1.29 
   2   2   1   60.52    1.35 
   4  -2   1    0.58    0.09 
   4  -2   1    0.71    0.10 
  -4  -2  -1    0.66    0.11 
   4  -2   1    0.82    0.09 
  -4  -2  -1    0.59    0.10 
  -4   2  -1    0.61    0.09 
   4   2   1    0.82    0.11 
   4   2   1    0.77    0.09 
  -4   2  -1    0.62    0.08 
  -4   2  -1    0.66    0.10 
  -6  -2  -1   31.61    0.93 
   6  -2   1   32.59    0.85 
  -6  -2  -1   32.80    0.91 
   6  -2   1   31.98    0.88 
   6   2   1   32.85    0.91 
  -6   2  -1   32.95    0.89 
   6   2   1   31.27    0.86 
  -6   2  -1   33.51    0.88 
  -6   2  -1   31.58    0.84 
  -8  -2  -1    0.16    0.13 
  -8  -2  -1    0.42    0.15 
   8  -2   1    0.34    0.11 
   8  -2   1    0.17    0.08 
  -8   2  -1    0.34    0.12 
  -8   2  -1    0.43    0.12 
 -10  -2  -1    0.67    0.21 
 -10  -2  -1    0.70    0.21 
 -10   2  -1    0.18    0.15 
 -10   2  -1    0.56    0.18 
 -12  -2  -1   -0.19    0.17 
 -12  -2  -1   -0.36    0.18 
 -12   2  -1   -0.35    0.14 
 -12   2  -1    0.24    0.19 
 -14  -2  -1    0.14    0.21 
 -14  -2  -1    0.04    0.19 
 -14   2  -1   -0.13    0.17 
 -14   2  -1   -0.17    0.17 
 -16  -2  -1    0.23    0.23 
 -16  -2  -1    0.27    0.25 
 -16   2  -1   -0.30    0.17 
 -16   2  -1    0.19    0.21 
 -18  -2  -1   -0.10    0.23 
 -18  -2  -1   -0.69    0.20 
 -18   2  -1   -0.16    0.23 
 -18   2  -1   -0.44    0.23 
 -17  -3   1   -0.58    0.19 
 -17  -3   1    0.16    0.26 
 -17   3   1   -0.57    0.17 
 -15  -3   1    0.03    0.24 
 -15  -3   1    0.05    0.21 
 -15   3   1   -0.27    0.16 
 -15   3   1    0.07    0.17 
 -13  -3   1    5.79    0.52 
 -13  -3   1    4.12    0.46 
 -13   3   1    3.86    0.43 
 -13   3   1    4.04    0.42 
 -11  -3   1    6.17    0.47 
 -11  -3   1    6.12    0.50 
 -11   3   1    5.92    0.41 
 -11   3   1    5.27    0.40 
  -9  -3   1    0.71    0.20 
  -9  -3   1    0.66    0.19 
   9  -3  -1    0.75    0.17 
   9  -3  -1    0.50    0.13 
  -9   3   1    0.43    0.14 
  -9   3   1    0.65    0.16 
  -7  -3   1    9.36    0.44 
  -7  -3   1    9.17    0.46 
   7  -3  -1    9.58    0.38 
   7  -3  -1    9.63    0.41 
  -7   3   1    9.12    0.38 
  -7   3   1    9.74    0.39 
   7   3  -1    9.63    0.44 
   5  -3  -1    2.70    0.16 
   5  -3  -1    2.70    0.18 
  -5  -3   1    2.88    0.21 
  -5  -3   1    2.82    0.22 
   5   3  -1    2.78    0.17 
   5   3  -1    2.64    0.20 
  -5   3   1    2.48    0.14 
  -5   3   1    2.99    0.17 
  -3  -3   1    6.52    0.26 
  -3  -3   1    6.59    0.27 
   3  -3  -1    6.74    0.24 
   3  -3  -1    6.53    0.22 
   3  -3  -1    6.77    0.21 
  -3   3   1    6.55    0.16 
   3   3  -1    6.79    0.22 
  -3   3   1    6.85    0.16 
   3   3  -1    7.07    0.27 
  -1  -3   1   89.80    1.89 
  -1  -3   1   89.00    1.85 
  -1  -3   1   90.94    1.87 
   1   3  -1   88.74    1.88 
   1  -3   1  171.75    3.47 
   1  -3   1  169.39    3.46 
  -1  -3  -1  172.24    3.52 
  -1  -3  -1  167.84    3.45 
  -3  -3  -1   37.98    0.90 
  -3  -3  -1   38.32    0.94 
   3  -3   1   36.75    0.87 
   3  -3   1   37.58    0.88 
   3  -3   1   36.65    0.82 
  -3   3  -1   39.01    0.83 
   3   3   1   37.60    0.82 
   3   3   1   37.50    0.92 
   5  -3   1    1.91    0.16 
   5  -3   1    1.66    0.12 
  -5  -3  -1    1.82    0.19 
   5  -3   1    1.67    0.15 
  -5  -3  -1    1.45    0.18 
  -5   3  -1    1.61    0.12 
  -5   3  -1    1.78    0.14 
   5   3   1    1.72    0.16 
  -5   3  -1    1.60    0.14 
   5   3   1    1.67    0.14 
   7  -3   1    1.08    0.16 
   7  -3   1    0.83    0.12 
  -7  -3  -1    0.55    0.16 
  -7  -3  -1    0.67    0.16 
  -7   3  -1    0.87    0.14 
  -7   3  -1    0.52    0.12 
   7   3   1    0.56    0.14 
  -9  -3  -1    5.55    0.41 
   9  -3   1    5.45    0.34 
  -9  -3  -1    6.51    0.43 
   9  -3   1    5.85    0.32 
  -9   3  -1    6.19    0.36 
  -9   3  -1    5.43    0.35 
 -11  -3  -1    0.75    0.26 
 -11  -3  -1    0.51    0.22 
 -11   3  -1    0.71    0.21 
 -11   3  -1    1.10    0.23 
 -13  -3  -1    0.88    0.27 
 -13  -3  -1    0.36    0.22 
 -13   3  -1    0.68    0.24 
 -13   3  -1    0.89    0.25 
 -15  -3  -1    1.10    0.29 
 -15  -3  -1    2.14    0.40 
 -15   3  -1    1.58    0.33 
 -15   3  -1    1.31    0.29 
 -17  -3  -1   -0.18    0.23 
 -17  -3  -1    0.13    0.25 
 -17   3  -1    0.06    0.21 
 -17   3  -1   -0.30    0.34 
 -16  -4   1    0.33    0.28 
 -14  -4   1    1.37    0.35 
 -14  -4   1    1.16    0.30 
 -14   4   1    0.82    0.25 
 -14   4   1    1.10    0.26 
 -12  -4   1    0.59    0.25 
 -12  -4   1    1.39    0.32 
 -12   4   1    0.86    0.21 
 -12   4   1    0.50    0.20 
 -10  -4   1   16.70    0.73 
 -10  -4   1   17.27    0.76 
  10  -4  -1   15.71    0.61 
  10  -4  -1   16.01    0.65 
 -10   4   1   16.02    0.62 
 -10   4   1   16.45    0.64 
   8  -4  -1    2.59    0.20 
  -8  -4   1    1.95    0.26 
  -8  -4   1    1.63    0.24 
   8  -4  -1    2.65    0.23 
  -8   4   1    2.36    0.20 
  -6  -4   1    3.91    0.28 
  -6  -4   1    3.96    0.30 
   6  -4  -1    4.11    0.21 
   6  -4  -1    3.77    0.23 
  -6   4   1    3.99    0.18 
   6   4  -1    3.92    0.27 
   4  -4  -1    0.72    0.10 
  -4  -4   1    0.58    0.12 
   4  -4  -1    0.55    0.07 
   4  -4  -1    0.58    0.09 
  -4  -4   1    0.44    0.11 
   4   4  -1    0.52    0.06 
   4   4  -1    0.57    0.07 
   4   4  -1    0.52    0.11 
  -2  -4   1   22.66    0.58 
   2  -4  -1   22.68    0.53 
   2  -4  -1   22.47    0.49 
  -2  -4   1   23.11    0.60 
   2  -4  -1   23.14    0.52 
   2   4  -1   22.16    0.58 
   0  -4  -1   72.52    1.52 
   0  -4   1   69.57    1.48 
   0  -4   1   71.53    1.50 
   0  -4   1   72.63    1.49 
   2  -4   1   17.78    0.45 
  -2  -4  -1   17.37    0.51 
   2  -4   1   17.82    0.45 
  -2  -4  -1   17.07    0.45 
  -4  -4  -1    2.69    0.19 
   4  -4   1    2.57    0.16 
   4  -4   1    2.90    0.18 
   4  -4   1    2.63    0.11 
  -4  -4  -1    2.85    0.22 
  -4   4  -1    2.93    0.11 
   4   4   1    2.72    0.19 
   4   4   1    2.65    0.11 
  -4   4  -1    2.64    0.11 
   6  -4   1    0.25    0.09 
  -6  -4  -1    0.09    0.12 
   6  -4   1    0.28    0.07 
   6  -4   1    0.36    0.12 
  -6  -4  -1    0.44    0.14 
   6   4   1    0.26    0.09 
  -6   4  -1    0.18    0.08 
  -6   4  -1    0.25    0.07 
  -6   4  -1    0.37    0.09 
   6   4   1    0.36    0.11 
   8  -4   1    2.32    0.24 
   8  -4   1    2.02    0.17 
  -8  -4  -1    2.09    0.28 
  -8  -4  -1    2.12    0.27 
  -8   4  -1    1.96    0.21 
  -8   4  -1    2.07    0.21 
 -10  -4  -1   -0.33    0.14 
 -10  -4  -1   -0.18    0.14 
  10  -4   1    0.05    0.11 
  10  -4   1   -0.10    0.09 
 -10   4  -1   -0.14    0.10 
 -10   4  -1   -0.19    0.11 
 -12  -4  -1   -0.20    0.18 
 -12  -4  -1    0.27    0.25 
 -12   4  -1    0.10    0.15 
 -12   4  -1    0.22    0.17 
 -14  -4  -1    0.15    0.24 
 -14  -4  -1    0.16    0.21 
 -14   4  -1    0.00    0.16 
 -14   4  -1   -0.28    0.16 
 -16  -4  -1    0.69    0.29 
 -16  -4  -1    0.87    0.31 
 -16   4  -1    0.08    0.23 
 -15  -5   1   -0.10    0.20 
 -15  -5   1   -0.15    0.28 
 -13  -5   1    0.29    0.25 
 -13  -5   1    0.19    0.22 
 -11  -5   1    3.71    0.44 
 -11  -5   1    2.57    0.39 
 -11   5   1    2.96    0.28 
   9  -5  -1    8.84    0.39 
   9  -5  -1    9.28    0.46 
  -9  -5   1    8.91    0.53 
  -9  -5   1    8.30    0.50 
  -9   5   1    8.77    0.37 
  -7  -5   1    0.16    0.12 
   7  -5  -1    0.16    0.07 
   7  -5  -1    0.16    0.08 
  -7  -5   1    0.24    0.12 
  -7   5   1    0.25    0.06 
  -7   5   1    0.43    0.07 
   5  -5  -1    7.98    0.33 
  -5  -5   1    8.12    0.40 
  -5  -5   1    8.49    0.38 
   5  -5  -1    8.15    0.33 
   5  -5  -1    8.15    0.26 
   5   5  -1    8.16    0.24 
   5   5  -1    8.48    0.24 
   5   5  -1    8.41    0.37 
  -3  -5   1    0.98    0.13 
   3  -5  -1    1.33    0.10 
  -3  -5   1    1.37    0.15 
   3  -5  -1    1.19    0.10 
  -1  -5   1    1.35    0.09 
  -1  -5   1    1.33    0.11 
   1  -5  -1    1.20    0.07 
  -1  -5   1    1.18    0.11 
   1  -5  -1    1.24    0.07 
  -1  -5  -1   66.25    1.41 
  -1  -5  -1   65.56    1.47 
   1  -5   1   67.22    1.42 
   1  -5   1   66.61    1.41 
  -3  -5  -1   13.92    0.44 
   3  -5   1   14.25    0.42 
   3  -5   1   14.50    0.42 
  -3  -5  -1   14.14    0.48 
  -5  -5  -1    1.32    0.19 
   5  -5   1    1.35    0.15 
  -5  -5  -1    1.47    0.19 
   5  -5   1    1.25    0.15 
   5   5   1    1.17    0.06 
   5   5   1    1.11    0.06 
   7  -5   1    0.01    0.05 
  -7  -5  -1    0.02    0.12 
  -7  -5  -1    0.07    0.12 
   7  -5   1   -0.04    0.07 
  -7   5  -1   -0.02    0.06 
  -9  -5  -1    0.72    0.22 
  -9  -5  -1    0.93    0.25 
   9  -5   1    0.79    0.14 
   9  -5   1    1.18    0.20 
  -9   5  -1    0.93    0.16 
 -11  -5  -1    3.42    0.40 
 -11  -5  -1    2.85    0.41 
 -11   5  -1    3.71    0.32 
 -13  -5  -1    2.22    0.37 
 -13  -5  -1    1.17    0.32 
 -15  -5  -1    0.07    0.26 
 -15  -5  -1    0.08    0.22 
 -14  -6   1    0.30    0.30 
 -14  -6   1    0.25    0.26 
 -12  -6   1    1.54    0.36 
 -12  -6   1    1.76    0.33 
 -10  -6   1    2.79    0.37 
 -10  -6   1    3.11    0.41 
   8  -6  -1    4.57    0.32 
  -8  -6   1    5.28    0.43 
  -8  -6   1    4.33    0.38 
   8  -6  -1    4.28    0.22 
   8   6  -1    4.37    0.21 
  -6  -6   1    2.34    0.27 
   6  -6  -1    2.09    0.19 
  -6  -6   1    2.84    0.28 
   6   6  -1    2.52    0.26 
  -4  -6   1    3.82    0.25 
   4  -6  -1    4.07    0.22 
   4  -6  -1    3.91    0.21 
  -4  -6   1    4.20    0.28 
   2  -6  -1    7.58    0.24 
  -2  -6   1    7.64    0.29 
   2  -6  -1    7.53    0.24 
  -2  -6   1    7.77    0.30 
   0  -6  -1    8.91    0.25 
   0  -6  -1    8.53    0.24 
   0  -6   1    8.22    0.26 
   0  -6   1    8.62    0.28 
   0  -6  -1    8.74    0.26 
   2  -6   1   12.55    0.37 
  -2  -6  -1   12.34    0.39 
  -2  -6  -1   13.57    0.44 
   2  -6   1   13.05    0.39 
   4  -6   1   12.37    0.42 
   4  -6   1   11.66    0.40 
  -4  -6  -1   12.13    0.45 
  -4  -6  -1   12.43    0.49 
  -6  -6  -1   -0.13    0.12 
   6  -6   1   -0.02    0.08 
   6  -6   1    0.02    0.10 
  -6  -6  -1    0.06    0.12 
  -8  -6  -1    0.73    0.22 
  -8  -6  -1    0.88    0.21 
   8  -6   1    0.77    0.19 
  -8   6  -1    0.99    0.09 
   8   6   1    1.10    0.12 
 -10  -6  -1    0.05    0.22 
 -10  -6  -1    0.36    0.19 
 -12  -6  -1   -0.11    0.25 
 -12  -6  -1    0.15    0.21 
 -14  -6  -1    0.28    0.26 
 -14  -6  -1    0.20    0.29 
 -13  -7   1    0.09    0.22 
 -13  -7   1    0.39    0.28 
 -11  -7   1    0.20    0.27 
 -11  -7   1    0.42    0.22 
  -9  -7   1    1.72    0.30 
  -9  -7   1    0.92    0.26 
  -7  -7   1    0.10    0.19 
  -7  -7   1    0.30    0.16 
  -5  -7   1    3.76    0.30 
   5  -7  -1    4.27    0.26 
  -5  -7   1    3.95    0.32 
   5  -7  -1    4.19    0.24 
  -3  -7   1    1.10    0.17 
  -3  -7   1    1.45    0.18 
   3  -7  -1    1.07    0.12 
   3  -7  -1    1.07    0.13 
   1  -7  -1    3.14    0.17 
  -1  -7   1    3.39    0.21 
   1  -7  -1    3.09    0.15 
   1  -7   1    0.43    0.10 
  -1  -7  -1    0.11    0.10 
   1  -7   1    0.47    0.09 
  -1  -7  -1    0.76    0.10 
   3  -7   1    0.23    0.08 
   3  -7   1    0.30    0.10 
  -3  -7  -1    0.32    0.13 
  -3  -7  -1    0.58    0.13 
  -5  -7  -1   -0.04    0.13 
   5  -7   1    0.29    0.09 
  -5  -7  -1    0.22    0.13 
   5  -7   1    0.41    0.12 
  -7  -7  -1    0.39    0.17 
  -7  -7  -1    0.18    0.19 
  -9  -7  -1    0.07    0.19 
  -9  -7  -1    0.27    0.19 
 -11  -7  -1   -0.01    0.18 
 -11  -7  -1   -0.44    0.23 
 -13  -7  -1   -0.07    0.26 
 -13  -7  -1    0.39    0.23 
 -12  -8   1    1.22    0.33 
 -12  -8   1   -0.13    0.22 
 -10  -8   1    0.04    0.21 
 -10  -8   1   -0.13    0.18 
  -8  -8   1    0.04    0.18 
  -8  -8   1    0.00    0.16 
  -6  -8   1    0.52    0.18 
  -6  -8   1    0.50    0.18 
   4  -8  -1    0.33    0.10 
  -4  -8   1    0.54    0.14 
  -4  -8   1    0.16    0.12 
   2  -8  -1    0.19    0.06 
  -2  -8   1    0.24    0.09 
   2  -8  -1    0.19    0.07 
   0  -8   1    0.09    0.08 
   0  -8  -1    0.05    0.06 
   2  -8   1    0.00    0.06 
  -2  -8  -1    0.03    0.08 
   2  -8   1   -0.06    0.05 
  -2  -8  -1    0.00    0.06 
   4  -8   1    1.19    0.16 
  -4  -8  -1    1.45    0.19 
  -4  -8  -1    1.13    0.18 
  -6  -8  -1    0.43    0.18 
  -6  -8  -1    0.52    0.17 
   6  -8   1    0.38    0.14 
  -8  -8  -1    0.44    0.19 
  -8  -8  -1    0.53    0.22 
 -10  -8  -1    0.11    0.19 
 -10  -8  -1   -0.01    0.23 
 -12  -8  -1    0.13    0.22 
 -12  -8  -1   -0.14    0.25 
  -9  -9   1    0.11    0.19 
  -7  -9   1   -0.02    0.15 
  -5  -9   1    0.44    0.16 
   3  -9  -1   -0.04    0.07 
  -3  -9   1    0.06    0.10 
  -1  -9   1    1.91    0.17 
   1  -9  -1    1.43    0.13 
  -1  -9  -1   -0.03    0.07 
   1  -9   1    0.05    0.08 
   3  -9   1    0.09    0.10 
  -3  -9  -1    0.30    0.11 
  -5  -9  -1    0.08    0.13 
   5  -9   1   -0.11    0.10 
  -7  -9  -1    0.79    0.22 
  -9  -9  -1   -0.21    0.18 
  -6 -10   1    0.58    0.19 
  -4 -10   1    0.14    0.12 
   2 -10  -1    0.00    0.09 
  -2 -10   1   -0.02    0.08 
   0 -10   1    1.11    0.15 
   0 -10  -1    0.81    0.13 
   2 -10   1    0.51    0.12 
  -2 -10  -1    0.30    0.11 
  -4 -10  -1    0.00    0.11 
   4 -10   1    0.01    0.12 
  -6 -10  -1   -0.05    0.14 
 -18   0   2    0.40    0.30 
 -18   0   2    0.04    0.20 
 -16   0   2    0.23    0.24 
 -16   0   2    0.71    0.28 
 -14   0   2   11.38    0.67 
 -14   0   2   12.14    0.70 
 -12   0   2   -0.63    0.21 
 -12   0   2    0.69    0.23 
 -10   0   2   27.58    0.95 
 -10   0   2   28.74    0.96 
  -8   0   2   51.00    1.37 
   8   0  -2   51.13    1.35 
   8   0  -2   49.61    1.34 
  -8   0   2   52.41    1.36 
   6   0  -2    9.31    0.39 
  -6   0   2    9.52    0.40 
  -6   0   2   10.28    0.41 
   6   0  -2    9.84    0.39 
  -4   0   2 1000.00   20.00 
   4   0  -2  985.60   19.99 
   4   0  -2  990.26   19.99 
  -4   0   2  988.40   19.99 
  -2   0   2   98.08    2.05 
   2   0  -2   95.29    2.06 
   2   0  -2   97.47    2.05 
  -2   0   2   98.64    2.06 
  -2   0  -2  448.09    9.28 
   2   0   2  457.64    9.28 
  -2   0  -2  452.80    9.28 
  -2   0  -2  480.62    9.28 
   2   0   2  470.97    9.28 
   2   0   2  447.17    9.27 
  -4   0  -2   14.38    0.42 
  -4   0  -2   13.37    0.43 
   4   0   2   13.80    0.42 
   4   0   2   13.14    0.42 
  -4   0  -2   12.98    0.43 
   6   0   2  224.52    4.81 
  -6   0  -2  233.40    4.82 
  -6   0  -2  229.21    4.84 
  -6   0  -2  227.43    4.84 
   6   0   2  224.54    4.81 
   8   0   2   15.96    0.59 
  -8   0  -2   15.73    0.62 
  -8   0  -2   17.61    0.63 
   8   0   2   16.35    0.59 
  -8   0  -2   15.32    0.61 
 -10   0  -2    3.04    0.34 
 -10   0  -2    2.68    0.33 
 -12   0  -2    1.28    0.28 
 -12   0  -2    0.36    0.29 
 -14   0  -2    1.04    0.28 
 -14   0  -2    1.28    0.29 
 -16   0  -2    0.25    0.22 
 -16   0  -2    0.57    0.24 
 -18   0  -2    0.06    0.25 
 -18   0  -2   -0.13    0.24 
 -17  -1   2   -0.61    0.18 
 -17  -1   2   -0.01    0.22 
 -17   1   2   -0.27    0.15 
 -17   1   2   -0.14    0.23 
 -15  -1   2    0.33    0.23 
 -15  -1   2    0.17    0.23 
 -15   1   2    0.34    0.21 
 -15   1   2    0.17    0.20 
 -13  -1   2   10.69    0.63 
 -13  -1   2    9.33    0.61 
 -13   1   2   10.27    0.63 
 -13   1   2    9.75    0.59 
 -11  -1   2    0.59    0.20 
 -11  -1   2    0.32    0.23 
 -11   1   2    0.13    0.17 
 -11   1   2    0.66    0.21 
   9  -1  -2    1.26    0.19 
  -9  -1   2    1.38    0.22 
  -9  -1   2    1.10    0.22 
   9  -1  -2    1.36    0.21 
  -9   1   2    1.58    0.24 
  -9   1   2    1.99    0.26 
  -7  -1   2   24.28    0.78 
   7  -1  -2   23.85    0.74 
   7  -1  -2   24.46    0.74 
  -7  -1   2   24.46    0.77 
   7   1  -2   25.09    0.76 
   7   1  -2   23.31    0.75 
  -7   1   2   23.75    0.74 
  -7   1   2   24.30    0.75 
  -5  -1   2   10.95    0.41 
   5  -1  -2   12.47    0.41 
  -5  -1   2   10.99    0.42 
   5  -1  -2   11.01    0.39 
   5   1  -2   11.14    0.40 
  -5   1   2   11.76    0.40 
  -5   1   2   11.33    0.39 
   5   1  -2   10.73    0.40 
   3  -1  -2    1.77    0.11 
   3  -1  -2    1.75    0.11 
  -3  -1   2    1.87    0.13 
  -3  -1   2    1.72    0.13 
  -3   1   2    1.87    0.12 
  -3   1   2    1.92    0.12 
   3   1  -2    1.92    0.12 
   3   1  -2    1.93    0.13 
  -1  -1   2    0.65    0.05 
  -1  -1   2    0.68    0.05 
   1  -1  -2    0.64    0.03 
   1   1  -2    0.65    0.05 
   1   1  -2    0.72    0.05 
   1   1  -2    0.70    0.05 
   1  -1   2   37.21    0.81 
   1  -1   2   37.68    0.82 
  -1  -1  -2   37.96    0.80 
  -1   1  -2   37.02    0.81 
  -1   1  -2   37.73    0.82 
   1   1   2   37.77    0.79 
   3  -1   2    1.97    0.11 
  -3  -1  -2    1.95    0.13 
  -3  -1  -2    2.34    0.14 
   3  -1   2    2.21    0.13 
   3  -1   2    2.56    0.14 
   3   1   2    1.88    0.13 
  -3   1  -2    2.13    0.13 
  -3   1  -2    2.34    0.14 
  -5  -1  -2   24.82    0.70 
   5  -1   2   23.99    0.66 
   5  -1   2   24.87    0.68 
  -5  -1  -2   24.46    0.71 
   5   1   2   23.74    0.69 
  -5   1  -2   23.81    0.66 
  -5   1  -2   23.77    0.68 
  -5   1  -2   24.27    0.69 
  -7  -1  -2   14.53    0.56 
  -7  -1  -2   15.16    0.59 
   7  -1   2   14.87    0.53 
   7  -1   2   15.07    0.54 
   7   1   2   15.23    0.53 
  -7   1  -2   15.81    0.57 
  -7   1  -2   15.38    0.56 
   7   1   2   14.84    0.55 
  -7   1  -2   15.39    0.52 
  -9  -1  -2    8.54    0.46 
   9  -1   2    7.95    0.48 
  -9  -1  -2    8.07    0.46 
  -9   1  -2    8.89    0.47 
  -9   1  -2    8.94    0.46 
 -11  -1  -2    8.82    0.55 
 -11  -1  -2    9.17    0.54 
 -11   1  -2    9.02    0.52 
 -11   1  -2    9.08    0.54 
 -13  -1  -2   -0.23    0.19 
 -13  -1  -2    0.50    0.23 
 -13   1  -2   -0.34    0.19 
 -13   1  -2    0.25    0.20 
 -15  -1  -2   -0.16    0.19 
 -15  -1  -2    0.14    0.19 
 -15   1  -2    0.13    0.18 
 -15   1  -2    0.09    0.20 
 -17  -1  -2    0.20    0.24 
 -17  -1  -2    0.97    0.33 
 -17   1  -2    0.21    0.24 
 -17   1  -2    0.17    0.22 
 -18  -2   2   -0.18    0.21 
 -18  -2   2   -0.37    0.22 
 -18   2   2   -0.28    0.21 
 -18   2   2   -0.39    0.24 
 -16  -2   2   -0.10    0.19 
 -16  -2   2    0.45    0.30 
 -16   2   2    0.10    0.22 
 -16   2   2    0.30    0.22 
 -14  -2   2    0.96    0.30 
 -14  -2   2    1.44    0.32 
 -14   2   2    1.19    0.29 
 -14   2   2    1.27    0.27 
 -12  -2   2    0.40    0.25 
 -12  -2   2    0.31    0.21 
 -12   2   2    0.73    0.24 
 -12   2   2    0.55    0.22 
 -10  -2   2   10.59    0.54 
 -10  -2   2   10.47    0.56 
 -10   2   2    9.40    0.49 
 -10   2   2    9.71    0.50 
   8  -2  -2   -0.12    0.06 
  -8  -2   2    0.10    0.12 
   8  -2  -2   -0.04    0.05 
  -8  -2   2    0.13    0.11 
  -8   2   2    0.01    0.09 
   8   2  -2   -0.04    0.10 
  -8   2   2   -0.03    0.09 
  -6  -2   2    1.72    0.20 
   6  -2  -2    1.81    0.15 
   6  -2  -2    1.87    0.19 
  -6  -2   2    1.98    0.22 
   6   2  -2    1.25    0.16 
   6   2  -2    1.46    0.17 
  -6   2   2    1.75    0.15 
  -6   2   2    1.40    0.16 
  -6   2   2    1.76    0.16 
   4  -2  -2   16.80    0.49 
  -4  -2   2   17.47    0.51 
   4  -2  -2   16.96    0.48 
  -4  -2   2   17.30    0.53 
   4   2  -2   17.38    0.50 
  -4   2   2   17.29    0.46 
   4   2  -2   17.13    0.52 
  -4   2   2   17.61    0.47 
   2  -2  -2   11.46    0.29 
  -2  -2   2   11.79    0.34 
  -2  -2   2   12.00    0.34 
   2  -2  -2   11.64    0.30 
   2   2  -2   12.11    0.33 
  -2   2   2   11.58    0.26 
   2   2  -2   11.50    0.34 
  -2   2   2   12.18    0.26 
   0  -2   2   50.03    1.05 
   0   2  -2   49.07    1.03 
   2  -2   2   64.27    1.35 
   2  -2   2   61.95    1.35 
  -2  -2  -2   62.64    1.34 
  -2  -2  -2   62.96    1.39 
   2   2   2   62.42    1.31 
  -2   2  -2   62.38    1.33 
  -2   2  -2   62.68    1.31 
  -2   2  -2   62.40    1.35 
   4  -2   2   10.49    0.35 
   4  -2   2   10.02    0.31 
  -4  -2  -2    9.78    0.38 
  -4  -2  -2   10.13    0.36 
   4  -2   2   10.40    0.35 
   4   2   2   10.27    0.33 
  -4   2  -2   10.05    0.33 
  -4   2  -2    9.89    0.32 
   4   2   2   10.37    0.37 
  -4   2  -2   10.67    0.35 
  -6  -2  -2   28.70    0.84 
  -6  -2  -2   28.78    0.86 
   6  -2   2   28.76    0.81 
   6  -2   2   29.17    0.78 
  -6   2  -2   29.24    0.81 
   6   2   2   28.91    0.79 
  -6   2  -2   29.26    0.78 
   6   2   2   29.33    0.84 
  -6   2  -2   28.82    0.82 
  -8  -2  -2    6.06    0.39 
   8  -2   2    5.99    0.33 
  -8  -2  -2    6.06    0.38 
   8  -2   2    6.29    0.32 
  -8   2  -2    6.94    0.38 
  -8   2  -2    5.24    0.33 
 -10  -2  -2    0.16    0.18 
 -10  -2  -2    0.08    0.16 
 -10   2  -2    0.02    0.14 
 -10   2  -2    0.39    0.16 
 -12  -2  -2    0.00    0.19 
 -12  -2  -2   -0.25    0.18 
 -12   2  -2    0.12    0.18 
 -12   2  -2    0.03    0.17 
 -14  -2  -2    0.04    0.20 
 -14  -2  -2    0.33    0.25 
 -14   2  -2    0.04    0.20 
 -14   2  -2    0.10    0.18 
 -16  -2  -2    0.81    0.30 
 -16  -2  -2    0.63    0.26 
 -16   2  -2    0.27    0.22 
 -16   2  -2    0.26    0.25 
 -18  -2  -2   -0.18    0.25 
 -18  -2  -2    0.41    0.25 
 -18   2  -2   -0.16    0.20 
 -18   2  -2   -0.67    0.21 
 -17  -3   2   -0.40    0.21 
 -17  -3   2   -0.22    0.24 
 -17   3   2   -0.09    0.21 
 -15  -3   2    0.24    0.22 
 -15  -3   2    0.18    0.26 
 -15   3   2   -0.06    0.18 
 -15   3   2   -0.12    0.19 
 -13  -3   2    1.03    0.28 
 -13  -3   2    0.56    0.24 
 -13   3   2    0.52    0.21 
 -13   3   2    0.25    0.20 
 -11  -3   2   -0.29    0.16 
 -11  -3   2   -0.31    0.16 
 -11   3   2    0.15    0.16 
 -11   3   2   -0.03    0.13 
  -9  -3   2    1.51    0.25 
   9  -3  -2    1.35    0.20 
  -9  -3   2    1.65    0.25 
   9  -3  -2    1.53    0.19 
  -9   3   2    1.20    0.19 
  -9   3   2    1.44    0.21 
   7  -3  -2    0.56    0.10 
  -7  -3   2    0.51    0.14 
   7  -3  -2    0.45    0.12 
  -7  -3   2    0.42    0.14 
  -7   3   2    0.44    0.11 
   7   3  -2    0.61    0.14 
  -7   3   2    0.37    0.10 
   5  -3  -2    1.15    0.13 
   5  -3  -2    1.28    0.11 
  -5  -3   2    1.37    0.16 
  -5  -3   2    1.55    0.18 
   5   3  -2    1.06    0.14 
  -5   3   2    1.26    0.11 
   5   3  -2    1.44    0.14 
  -5   3   2    1.30    0.10 
   3  -3  -2   20.60    0.50 
   3  -3  -2   20.44    0.51 
  -3  -3   2   19.44    0.56 
  -3  -3   2   19.75    0.55 
   3  -3  -2   20.36    0.50 
   3   3  -2   20.88    0.49 
   3   3  -2   19.42    0.56 
   3   3  -2   20.73    0.52 
  -1  -3   2   28.52    0.64 
  -1  -3   2   28.53    0.66 
  -1  -3   2   28.65    0.66 
   1   3  -2   28.82    0.66 
  -1  -3  -2    1.50    0.12 
   1  -3   2    1.86    0.10 
  -1  -3  -2    1.71    0.07 
   1  -3   2    1.70    0.09 
   3  -3   2   35.68    0.87 
  -3  -3  -2   36.23    0.87 
  -3  -3  -2   35.98    0.92 
   3  -3   2   36.89    0.86 
  -3   3  -2   36.98    0.81 
  -3   3  -2   37.05    0.82 
   3   3   2   36.33    0.80 
  -5  -3  -2    4.80    0.27 
  -5  -3  -2    4.98    0.29 
   5  -3   2    5.02    0.26 
   5  -3   2    5.18    0.21 
   5  -3   2    5.11    0.25 
   5   3   2    5.30    0.23 
  -5   3  -2    5.06    0.25 
  -5   3  -2    5.07    0.22 
  -5   3  -2    5.31    0.23 
   5   3   2    5.41    0.28 
  -7  -3  -2   -0.21    0.09 
   7  -3   2   -0.05    0.07 
   7  -3   2    0.03    0.06 
  -7  -3  -2    0.03    0.11 
   7   3   2   -0.05    0.07 
  -7   3  -2    0.01    0.09 
  -7   3  -2   -0.04    0.07 
  -9  -3  -2   -0.07    0.14 
  -9  -3  -2    0.07    0.13 
   9  -3   2    0.02    0.09 
   9  -3   2    0.07    0.09 
  -9   3  -2    0.01    0.11 
  -9   3  -2   -0.03    0.11 
 -11  -3  -2    9.03    0.58 
 -11  -3  -2    9.81    0.58 
 -11   3  -2   10.95    0.56 
 -11   3  -2    9.92    0.53 
 -13  -3  -2    0.62    0.26 
 -13  -3  -2    0.34    0.25 
 -13   3  -2    0.63    0.25 
 -13   3  -2    0.47    0.21 
 -15  -3  -2    0.39    0.26 
 -15  -3  -2    0.08    0.21 
 -15   3  -2   -0.11    0.18 
 -15   3  -2    0.12    0.18 
 -17  -3  -2   -0.20    0.24 
 -17  -3  -2    0.45    0.30 
 -17   3  -2   -0.20    0.18 
 -17   3  -2   -0.24    0.29 
 -16  -4   2    0.19    0.27 
 -16  -4   2    0.27    0.31 
 -14  -4   2   -0.26    0.15 
 -14  -4   2    0.31    0.27 
 -14   4   2    0.02    0.16 
 -12  -4   2    1.31    0.31 
 -12  -4   2    1.97    0.36 
 -12   4   2    2.04    0.29 
  10  -4  -2    1.27    0.20 
 -10  -4   2    1.34    0.28 
  10  -4  -2    1.84    0.25 
 -10  -4   2    1.51    0.29 
 -10   4   2    1.40    0.21 
   8  -4  -2    0.31    0.09 
   8  -4  -2    0.42    0.12 
  -8  -4   2    0.13    0.14 
  -8  -4   2    0.34    0.15 
  -8   4   2    0.25    0.10 
   6  -4  -2   -0.01    0.06 
   6  -4  -2    0.02    0.04 
  -6  -4   2    0.17    0.12 
  -6  -4   2    0.11    0.10 
   6   4  -2    0.05    0.08 
  -6   4   2   -0.03    0.03 
  -6   4   2   -0.05    0.03 
   4  -4  -2    4.57    0.20 
   4  -4  -2    4.54    0.18 
   4  -4  -2    3.92    0.20 
  -4  -4   2    4.19    0.25 
  -4  -4   2    4.01    0.24 
   4   4  -2    4.36    0.18 
   4   4  -2    4.67    0.25 
   2  -4  -2    1.09    0.07 
  -2  -4   2    1.26    0.11 
  -2  -4   2    1.26    0.12 
   2  -4  -2    1.16    0.07 
   2   4  -2    1.15    0.11 
   0  -4   2    9.33    0.26 
   0  -4  -2    8.97    0.28 
   0  -4   2    9.18    0.27 
  -2  -4  -2   -0.13    0.04 
   2  -4   2    0.04    0.04 
  -2  -4  -2   -0.03    0.06 
   2  -4   2   -0.08    0.04 
   4  -4   2    1.47    0.15 
  -4  -4  -2    1.66    0.19 
  -4  -4  -2    1.51    0.16 
   4  -4   2    1.21    0.13 
   4   4   2    1.28    0.08 
  -4   4  -2    1.41    0.09 
  -4   4  -2    1.38    0.10 
   6  -4   2    3.61    0.25 
  -6  -4  -2    3.95    0.30 
   6  -4   2    3.93    0.24 
   6  -4   2    4.02    0.19 
  -6  -4  -2    3.98    0.28 
  -6   4  -2    4.06    0.21 
   6   4   2    3.46    0.22 
  -6   4  -2    3.50    0.20 
   6   4   2    3.95    0.27 
  -6   4  -2    3.55    0.22 
  -8  -4  -2   -0.33    0.11 
  -8  -4  -2    0.07    0.11 
   8  -4   2    0.06    0.08 
   8  -4   2    0.11    0.07 
  -8   4  -2    0.04    0.09 
  -8   4  -2   -0.03    0.07 
  10  -4   2    0.80    0.17 
 -10  -4  -2    1.01    0.26 
 -10  -4  -2    1.28    0.27 
  10  -4   2    1.38    0.23 
 -10   4  -2    1.08    0.22 
 -10   4  -2    0.47    0.17 
 -12  -4  -2   -0.09    0.19 
 -12  -4  -2   -0.03    0.23 
 -12   4  -2   -0.16    0.13 
 -12   4  -2   -0.21    0.12 
 -14  -4  -2    0.16    0.24 
 -14  -4  -2    0.07    0.21 
 -14   4  -2    0.07    0.16 
 -14   4  -2    0.00    0.18 
 -16  -4  -2    0.26    0.26 
 -16  -4  -2   -0.18    0.21 
 -16   4  -2   -0.34    0.19 
 -15  -5   2   -0.27    0.20 
 -15  -5   2   -0.17    0.25 
 -13  -5   2    1.46    0.35 
 -13  -5   2    1.56    0.33 
 -11  -5   2    0.12    0.20 
 -11  -5   2   -0.18    0.23 
 -11   5   2    0.11    0.13 
  -9  -5   2   -0.01    0.16 
   9  -5  -2    0.13    0.09 
  -9  -5   2   -0.11    0.16 
   9  -5  -2    0.32    0.13 
  -9   5   2   -0.04    0.08 
   7  -5  -2    0.12    0.06 
   7  -5  -2    0.28    0.10 
  -7  -5   2    0.07    0.12 
  -7  -5   2    0.11    0.13 
  -7   5   2    0.14    0.05 
  -7   5   2    0.11    0.05 
   5  -5  -2    0.25    0.08 
   5  -5  -2    0.13    0.05 
  -5  -5   2    0.33    0.11 
  -5  -5   2    0.26    0.12 
   5   5  -2    0.05    0.08 
   5   5  -2    0.21    0.05 
   5   5  -2    0.12    0.04 
  -3  -5   2    0.30    0.09 
   3  -5  -2    0.45    0.07 
   3  -5  -2    0.59    0.05 
  -3  -5   2    0.48    0.10 
   3  -5  -2    0.45    0.07 
   3   5  -2    0.45    0.09 
   1  -5  -2    0.96    0.08 
  -1  -5   2    0.94    0.10 
  -1  -5   2    0.62    0.09 
  -1  -5   2    0.93    0.09 
  -1  -5  -2   18.26    0.52 
   1  -5   2   18.36    0.48 
   1  -5   2   18.39    0.47 
  -1  -5  -2   18.63    0.44 
   3  -5   2    1.43    0.12 
  -3  -5  -2    1.55    0.14 
  -3  -5  -2    1.60    0.17 
   3  -5   2    1.40    0.13 
   5  -5   2    0.26    0.09 
   5  -5   2    0.44    0.10 
  -5  -5  -2    0.19    0.11 
  -5  -5  -2    0.39    0.13 
   7  -5   2    2.57    0.22 
  -7  -5  -2    2.69    0.28 
  -7  -5  -2    2.28    0.28 
   7  -5   2    2.80    0.26 
   9  -5   2    0.30    0.13 
  -9  -5  -2    0.70    0.23 
  -9  -5  -2    0.12    0.16 
  -9   5  -2    0.67    0.15 
 -11  -5  -2    0.36    0.24 
 -11  -5  -2    0.63    0.23 
 -11   5  -2    0.70    0.17 
 -11   5  -2    0.49    0.16 
 -13  -5  -2    0.10    0.25 
 -13  -5  -2    0.17    0.21 
 -13   5  -2    0.06    0.14 
 -15  -5  -2    0.08    0.25 
 -15  -5  -2    0.48    0.28 
 -14  -6   2    0.13    0.25 
 -14  -6   2    0.15    0.24 
 -12  -6   2    3.21    0.41 
 -12  -6   2    2.74    0.42 
 -10  -6   2    2.16    0.36 
 -10  -6   2    2.45    0.36 
   8  -6  -2    0.22    0.08 
  -8  -6   2    0.14    0.17 
   8  -6  -2   -0.10    0.09 
  -8  -6   2    0.04    0.16 
   8   6  -2    0.16    0.07 
  -6  -6   2   -0.15    0.12 
  -6  -6   2    0.07    0.11 
   6  -6  -2   -0.07    0.04 
   6  -6  -2   -0.08    0.06 
   6   6  -2   -0.32    0.09 
   4  -6  -2    2.36    0.16 
  -4  -6   2    2.04    0.21 
   4  -6  -2    2.27    0.17 
  -4  -6   2    2.28    0.23 
   2  -6  -2    0.10    0.05 
  -2  -6   2   -0.02    0.07 
  -2  -6   2    0.22    0.08 
   2  -6  -2    0.15    0.05 
   0  -6   2    3.33    0.16 
   0  -6   2    3.28    0.18 
   0  -6  -2    2.79    0.11 
   0  -6  -2    3.36    0.17 
   0  -6  -2    2.96    0.12 
   2  -6   2    7.05    0.26 
  -2  -6  -2    6.98    0.27 
   2  -6   2    6.97    0.27 
  -2  -6  -2    7.10    0.31 
   4  -6   2    0.77    0.12 
  -4  -6  -2    0.96    0.16 
  -4  -6  -2    0.93    0.17 
   4  -6   2    0.85    0.13 
   6  -6   2    1.87    0.19 
   6  -6   2    1.92    0.22 
  -6  -6  -2    2.10    0.27 
  -6  -6  -2    1.91    0.24 
  -8  -6  -2    0.70    0.22 
   8  -6   2    0.32    0.17 
  -8  -6  -2    0.56    0.20 
  -8   6  -2    0.32    0.08 
 -10  -6  -2   -0.18    0.21 
 -10  -6  -2    0.01    0.17 
 -12  -6  -2    0.71    0.32 
 -12  -6  -2    0.70    0.24 
 -14  -6  -2    0.39    0.30 
 -14  -6  -2   -0.13    0.23 
 -13  -7   2    0.86    0.30 
 -13  -7   2    1.63    0.37 
 -11  -7   2    1.85    0.37 
 -11  -7   2    1.52    0.32 
  -9  -7   2   -0.10    0.16 
  -9  -7   2    0.13    0.20 
  -7  -7   2    9.42    0.50 
  -7  -7   2    8.13    0.50 
  -5  -7   2    4.73    0.32 
   5  -7  -2    5.02    0.26 
  -5  -7   2    4.83    0.33 
   3  -7  -2   10.80    0.35 
  -3  -7   2   11.92    0.43 
   3  -7  -2   10.59    0.34 
  -3  -7   2   10.97    0.40 
   1  -7  -2   13.92    0.35 
   1  -7  -2   14.85    0.38 
  -1  -7   2   14.89    0.46 
  -1  -7  -2    1.51    0.15 
   1  -7   2    1.54    0.15 
   1  -7   2    1.42    0.13 
  -1  -7  -2    1.39    0.13 
  -3  -7  -2    9.31    0.36 
   3  -7   2    9.04    0.32 
  -3  -7  -2    8.84    0.41 
   3  -7   2    8.97    0.35 
  -5  -7  -2    2.50    0.25 
   5  -7   2    2.33    0.22 
   5  -7   2    2.28    0.18 
  -5  -7  -2    1.71    0.25 
   7  -7   2    2.07    0.26 
  -7  -7  -2    2.07    0.31 
  -7  -7  -2    1.99    0.26 
  -9  -7  -2    0.53    0.24 
  -9  -7  -2    0.98    0.24 
 -11  -7  -2    1.48    0.38 
 -11  -7  -2    1.67    0.32 
 -13  -7  -2    0.10    0.30 
 -13  -7  -2    0.21    0.23 
 -12  -8   2   -0.36    0.18 
 -12  -8   2    0.20    0.24 
 -10  -8   2    0.46    0.23 
 -10  -8   2    0.43    0.22 
  -8  -8   2    0.08    0.16 
  -8  -8   2    0.20    0.17 
  -6  -8   2   -0.04    0.13 
  -6  -8   2   -0.13    0.12 
   4  -8  -2    0.11    0.08 
  -4  -8   2    0.21    0.11 
  -2  -8   2    1.46    0.16 
   2  -8  -2    1.70    0.10 
   2  -8  -2    1.39    0.11 
   0  -8   2    1.12    0.13 
   0  -8  -2    0.81    0.09 
   0  -8   2    1.27    0.14 
  -2  -8  -2    0.68    0.11 
   2  -8   2    0.37    0.10 
  -2  -8  -2    0.50    0.10 
  -4  -8  -2    0.83    0.15 
   4  -8   2    0.65    0.14 
  -4  -8  -2    0.71    0.17 
   6  -8   2    0.78    0.17 
  -6  -8  -2    0.88    0.20 
  -6  -8  -2    0.87    0.20 
  -8  -8  -2    0.03    0.15 
  -8  -8  -2    0.26    0.19 
 -10  -8  -2    0.09    0.24 
 -10  -8  -2    0.54    0.23 
 -12  -8  -2   -0.13    0.22 
 -12  -8  -2    0.27    0.30 
  -9  -9   2    0.88    0.26 
  -7  -9   2    0.79    0.21 
  -5  -9   2    0.33    0.15 
   3  -9  -2    0.47    0.11 
  -3  -9   2    0.55    0.14 
  -1  -9   2    1.64    0.18 
   1  -9  -2    1.25    0.11 
   1  -9   2   -0.03    0.08 
  -1  -9  -2    0.02    0.07 
   3  -9   2    0.47    0.13 
  -3  -9  -2    0.62    0.13 
   5  -9   2    1.06    0.19 
  -5  -9  -2    0.95    0.19 
  -7  -9  -2   -0.27    0.15 
  -9  -9  -2    0.08    0.32 
  -9  -9  -2   -0.20    0.18 
  -6 -10   2    0.02    0.15 
  -4 -10   2    0.13    0.12 
  -2 -10   2    0.75    0.15 
   0 -10   2    0.03    0.08 
  -2 -10  -2    0.13    0.09 
   2 -10   2    0.04    0.09 
  -4 -10  -2    0.68    0.16 
   4 -10   2    0.71    0.15 
  -6 -10  -2   -0.12    0.15 
 -18   0   3    0.04    0.21 
 -18   0   3   -0.32    0.23 
 -16   0   3   -0.25    0.18 
 -16   0   3    0.01    0.18 
 -14   0   3    0.44    0.22 
 -14   0   3    0.13    0.22 
 -12   0   3    0.71    0.23 
 -12   0   3   -0.26    0.24 
 -10   0   3    0.13    0.16 
 -10   0   3    0.04    0.17 
  -8   0   3    0.08    0.15 
   8   0  -3   -0.32    0.09 
   6   0  -3   -0.08    0.07 
  -6   0   3   -0.15    0.09 
  -6   0   3   -0.09    0.08 
   6   0  -3    0.01    0.08 
  -4   0   3   -0.50    0.09 
   4   0  -3   -0.42    0.08 
   2   0  -3   -0.01    0.03 
  -2   0   3   -0.08    0.03 
   2   0  -3   -0.03    0.03 
   0   0   3    0.03    0.03 
   0   0  -3   -0.03    0.02 
  -2   0  -3   -0.01    0.04 
   2   0   3    0.00    0.03 
  -2   0  -3    0.01    0.03 
   2   0   3    0.02    0.04 
  -2   0  -3    0.01    0.03 
   4   0   3   -0.15    0.04 
  -4   0  -3    0.00    0.05 
  -4   0  -3    0.03    0.07 
   4   0   3    0.05    0.05 
  -4   0  -3    0.05    0.06 
   6   0   3   -0.09    0.08 
  -6   0  -3    0.20    0.09 
  -6   0  -3    0.34    0.13 
   6   0   3   -0.13    0.09 
  -6   0  -3   -0.21    0.12 
  -8   0  -3   -0.30    0.10 
   8   0   3   -0.07    0.10 
  -8   0  -3   -0.14    0.08 
   8   0   3   -0.21    0.08 
 -10   0  -3   -0.17    0.15 
 -10   0  -3   -0.14    0.14 
 -12   0  -3    0.36    0.20 
 -12   0  -3   -0.34    0.21 
 -14   0  -3   -0.33    0.13 
 -14   0  -3   -0.33    0.17 
 -16   0  -3   -0.32    0.14 
 -16   0  -3    0.34    0.22 
 -18   0  -3    0.28    0.25 
 -18   0  -3    0.26    0.27 
 -17  -1   3   -0.11    0.24 
 -17  -1   3   -0.11    0.19 
 -17   1   3   -0.33    0.20 
 -17   1   3   -0.04    0.20 
 -15  -1   3    0.04    0.20 
 -15  -1   3    0.56    0.28 
 -15   1   3    0.16    0.20 
 -15   1   3    0.17    0.19 
 -13  -1   3    1.95    0.31 
 -13  -1   3    1.62    0.33 
 -13   1   3    1.47    0.28 
 -13   1   3    1.55    0.29 
 -11  -1   3    0.85    0.22 
 -11  -1   3    0.72    0.26 
 -11   1   3    1.25    0.25 
 -11   1   3    0.87    0.21 
   9  -1  -3    9.83    0.46 
  -9  -1   3   10.02    0.50 
   9  -1  -3    9.81    0.47 
  -9  -1   3    9.65    0.51 
  -9   1   3    9.20    0.47 
  -9   1   3    9.11    0.46 
   7  -1  -3   11.38    0.44 
  -7  -1   3   11.45    0.48 
   7  -1  -3   10.82    0.45 
  -7  -1   3   11.06    0.49 
  -7   1   3   11.57    0.47 
   7   1  -3   10.95    0.46 
  -7   1   3   10.99    0.45 
   7   1  -3   10.88    0.45 
   5  -1  -3   36.25    0.91 
   5  -1  -3   35.07    0.91 
  -5  -1   3   35.69    0.93 
  -5  -1   3   35.76    0.94 
   5   1  -3   35.65    0.92 
  -5   1   3   35.46    0.91 
  -5   1   3   36.64    0.91 
   5   1  -3   34.90    0.93 
   3  -1  -3    7.72    0.26 
   3  -1  -3    8.18    0.26 
  -3  -1   3    7.71    0.27 
  -3  -1   3    7.39    0.28 
  -3   1   3    7.69    0.25 
   3   1  -3    7.91    0.28 
   3   1  -3    8.01    0.27 
   1  -1  -3   18.67    0.41 
  -1  -1   3   19.10    0.44 
  -1   1   3   17.51    0.40 
   1   1  -3   18.15    0.44 
   1   1  -3   18.19    0.43 
  -1  -1  -3  112.97    2.36 
   1  -1   3  116.18    2.39 
  -1  -1  -3  114.50    2.37 
   1  -1   3  115.53    2.38 
  -1   1  -3  117.74    2.39 
  -1   1  -3  114.92    2.39 
   1   1   3  117.86    2.36 
   3  -1   3   12.50    0.37 
  -3  -1  -3   12.22    0.36 
   3  -1   3   12.15    0.34 
  -3  -1  -3   12.16    0.38 
   3  -1   3   12.10    0.36 
  -3   1  -3   11.72    0.37 
   3   1   3   12.18    0.35 
  -3   1  -3   12.13    0.35 
   3   1   3   11.82    0.37 
  -5  -1  -3    3.63    0.23 
   5  -1   3    3.34    0.20 
  -5  -1  -3    3.52    0.24 
   5  -1   3    3.82    0.22 
   5   1   3    3.44    0.21 
  -5   1  -3    3.68    0.22 
  -5   1  -3    3.59    0.20 
  -5   1  -3    3.56    0.23 
   7  -1   3    1.70    0.18 
  -7  -1  -3    1.64    0.23 
   7  -1   3    1.63    0.20 
  -7  -1  -3    1.77    0.23 
  -7   1  -3    1.82    0.20 
  -7   1  -3    1.62    0.21 
   7   1   3    2.01    0.22 
  -7   1  -3    1.46    0.19 
  -9  -1  -3    0.90    0.20 
  -9  -1  -3    1.05    0.20 
  -9   1  -3    1.17    0.21 
  -9   1  -3    0.90    0.21 
 -11  -1  -3    0.90    0.24 
 -11  -1  -3    0.42    0.23 
 -11   1  -3    0.72    0.23 
 -11   1  -3    0.89    0.22 
 -13  -1  -3    0.84    0.25 
 -13  -1  -3    0.32    0.25 
 -13   1  -3    0.13    0.23 
 -13   1  -3    0.70    0.24 
 -15  -1  -3    0.05    0.18 
 -15  -1  -3    0.02    0.18 
 -15   1  -3   -0.11    0.17 
 -15   1  -3    0.19    0.19 
 -17  -1  -3    0.15    0.22 
 -17  -1  -3   -0.08    0.23 
 -17   1  -3    0.33    0.22 
 -17   1  -3    0.21    0.24 
 -18  -2   3   -0.25    0.23 
 -18  -2   3    0.01    0.24 
 -18   2   3   -0.31    0.20 
 -16  -2   3   -0.17    0.20 
 -16  -2   3    0.01    0.22 
 -16   2   3   -0.02    0.21 
 -16   2   3    0.00    0.20 
 -14  -2   3    0.59    0.25 
 -14  -2   3    0.69    0.27 
 -14   2   3    0.82    0.26 
 -14   2   3    0.72    0.23 
 -12  -2   3   11.13    0.63 
 -12  -2   3   10.08    0.64 
 -12   2   3   11.46    0.60 
 -12   2   3   10.87    0.58 
 -10  -2   3    1.52    0.26 
 -10  -2   3    1.43    0.25 
  10  -2  -3    1.58    0.28 
 -10   2   3    1.78    0.25 
 -10   2   3    1.80    0.26 
   8  -2  -3    0.79    0.13 
  -8  -2   3    1.41    0.23 
   8  -2  -3    0.97    0.16 
  -8  -2   3    1.18    0.20 
  -8   2   3    1.27    0.18 
  -8   2   3    0.71    0.15 
   8   2  -3    0.78    0.19 
   6  -2  -3    4.16    0.23 
  -6  -2   3    4.60    0.28 
  -6  -2   3    4.86    0.28 
   6  -2  -3    4.87    0.26 
   6   2  -3    3.95    0.26 
  -6   2   3    4.28    0.23 
   6   2  -3    4.48    0.26 
  -6   2   3    4.66    0.25 
  -6   2   3    4.60    0.24 
  -4  -2   3    5.94    0.27 
   4  -2  -3    6.15    0.24 
  -4  -2   3    6.12    0.27 
   4  -2  -3    6.09    0.24 
   4   2  -3    6.04    0.26 
  -4   2   3    6.16    0.23 
   4   2  -3    6.56    0.28 
  -4   2   3    6.23    0.22 
  -2  -2   3    4.57    0.19 
   2  -2  -3    4.63    0.15 
  -2  -2   3    4.29    0.18 
   2   2  -3    4.71    0.18 
  -2   2   3    4.58    0.11 
   2   2  -3    5.23    0.17 
  -2   2   3    4.49    0.11 
   2   2  -3    4.90    0.19 
   0  -2   3    3.69    0.13 
   0  -2   3    3.71    0.14 
   0   2  -3    3.53    0.13 
   0   2  -3    3.62    0.12 
   2  -2   3   20.01    0.50 
   2  -2   3   19.81    0.50 
  -2  -2  -3   19.83    0.53 
  -2  -2  -3   19.85    0.48 
  -2   2  -3   19.85    0.50 
  -2   2  -3   19.31    0.46 
   2   2   3   19.95    0.46 
  -2   2  -3   20.25    0.49 
   4  -2   3   10.47    0.35 
  -4  -2  -3   10.30    0.39 
  -4  -2  -3   10.20    0.36 
   4  -2   3    9.92    0.31 
   4   2   3   10.28    0.33 
   4   2   3   10.28    0.37 
  -4   2  -3    9.99    0.36 
  -4   2  -3    9.92    0.33 
  -4   2  -3   10.46    0.34 
  -6  -2  -3    4.51    0.31 
   6  -2   3    4.20    0.26 
  -6  -2  -3    4.05    0.27 
   6  -2   3    4.38    0.26 
   6  -2   3    4.24    0.23 
   6   2   3    4.35    0.27 
   6   2   3    4.33    0.24 
  -6   2  -3    4.52    0.23 
  -6   2  -3    4.35    0.25 
  -6   2  -3    4.62    0.27 
   8  -2   3    0.21    0.10 
  -8  -2  -3    0.08    0.12 
   8  -2   3    0.20    0.09 
  -8  -2  -3    0.03    0.11 
  -8   2  -3    0.09    0.09 
  -8   2  -3   -0.08    0.10 
 -10  -2  -3    1.87    0.29 
 -10  -2  -3    2.98    0.36 
 -10   2  -3    2.38    0.30 
 -10   2  -3    2.23    0.28 
 -12  -2  -3    2.80    0.39 
 -12  -2  -3    3.11    0.39 
 -12   2  -3    2.55    0.34 
 -12   2  -3    3.41    0.39 
 -14  -2  -3    0.08    0.21 
 -14  -2  -3    0.76    0.29 
 -14   2  -3    0.23    0.21 
 -14   2  -3    0.28    0.23 
 -16  -2  -3    0.32    0.23 
 -16  -2  -3   -0.01    0.21 
 -16   2  -3    0.14    0.23 
 -16   2  -3    0.03    0.20 
 -18  -2  -3    0.41    0.31 
 -18  -2  -3    0.20    0.25 
 -18   2  -3   -0.48    0.20 
 -18   2  -3   -0.09    0.23 
 -17  -3   3   -0.23    0.21 
 -17  -3   3    0.56    0.32 
 -15  -3   3   -0.27    0.19 
 -15  -3   3    0.14    0.27 
 -15   3   3   -0.14    0.18 
 -15   3   3   -0.15    0.16 
 -13  -3   3    2.53    0.38 
 -13  -3   3    2.40    0.38 
 -13   3   3    2.56    0.34 
 -13   3   3    2.98    0.38 
 -11  -3   3    0.70    0.25 
 -11  -3   3    0.65    0.23 
 -11   3   3    0.92    0.22 
 -11   3   3    0.74    0.21 
  -9  -3   3    0.19    0.16 
  -9  -3   3    0.16    0.16 
   9  -3  -3    0.28    0.12 
   9  -3  -3    0.26    0.11 
  -9   3   3    0.44    0.14 
  -9   3   3    0.12    0.12 
  -7  -3   3    1.35    0.19 
   7  -3  -3    1.20    0.16 
  -7  -3   3    1.32    0.20 
   7  -3  -3    1.37    0.16 
  -7   3   3    1.18    0.15 
   7   3  -3    1.34    0.19 
  -5  -3   3    0.17    0.09 
   5  -3  -3    0.07    0.05 
  -5  -3   3    0.09    0.09 
   5  -3  -3    0.10    0.06 
  -5   3   3    0.14    0.05 
  -5   3   3    0.06    0.04 
   5   3  -3    0.01    0.06 
   5   3  -3    0.08    0.06 
   3  -3  -3    0.00    0.03 
   3  -3  -3    0.06    0.04 
  -3  -3   3   -0.07    0.05 
  -3  -3   3   -0.04    0.05 
   3   3  -3    0.02    0.04 
   3   3  -3    0.01    0.06 
   3   3  -3   -0.04    0.03 
  -1  -3   3   24.85    0.60 
  -1  -3   3   25.61    0.59 
   1   3  -3   24.88    0.59 
   1   3  -3   24.49    0.55 
   1   3  -3   25.08    0.56 
  -1  -3  -3    7.30    0.25 
   1  -3   3    7.37    0.22 
   1  -3   3    7.50    0.23 
  -1  -3  -3    7.29    0.18 
  -1   3  -3    7.07    0.19 
  -1   3  -3    7.13    0.20 
  -3  -3  -3    1.00    0.13 
   3  -3   3    1.01    0.11 
  -3  -3  -3    1.14    0.12 
   3  -3   3    0.93    0.11 
  -3   3  -3    0.89    0.08 
  -3   3  -3    1.15    0.11 
  -3   3  -3    0.90    0.08 
   3   3   3    1.08    0.07 
   5  -3   3    4.53    0.25 
  -5  -3  -3    4.51    0.28 
   5  -3   3    4.67    0.24 
   5  -3   3    4.60    0.20 
  -5  -3  -3    4.44    0.26 
  -5   3  -3    4.56    0.22 
   5   3   3    4.71    0.26 
  -5   3  -3    4.36    0.24 
   5   3   3    4.79    0.21 
  -5   3  -3    4.56    0.21 
   7  -3   3   -0.08    0.09 
   7  -3   3    0.06    0.07 
  -7  -3  -3    0.15    0.13 
  -7  -3  -3   -0.08    0.10 
   7  -3   3   -0.03    0.08 
  -7   3  -3    0.12    0.09 
   7   3   3    0.13    0.11 
  -7   3  -3    0.06    0.10 
   9  -3   3    9.96    0.48 
   9  -3   3   10.22    0.44 
  -9  -3  -3    9.86    0.53 
  -9  -3  -3   10.68    0.55 
  -9   3  -3   11.05    0.51 
  -9   3  -3   10.60    0.49 
 -11  -3  -3   13.42    0.68 
 -11  -3  -3   12.88    0.70 
 -11   3  -3   12.54    0.61 
 -11   3  -3   11.69    0.59 
 -13  -3  -3   -0.16    0.20 
 -13  -3  -3   -0.03    0.22 
 -13   3  -3   -0.04    0.16 
 -13   3  -3   -0.05    0.15 
 -15  -3  -3    0.16    0.23 
 -15  -3  -3    0.13    0.22 
 -15   3  -3    0.32    0.22 
 -15   3  -3    0.07    0.19 
 -17  -3  -3    0.43    0.30 
 -17  -3  -3    0.19    0.26 
 -17   3  -3   -0.59    0.29 
 -17   3  -3    0.19    0.21 
 -16  -4   3    0.32    0.29 
 -16  -4   3    0.05    0.24 
 -14  -4   3   -0.24    0.19 
 -14  -4   3   -0.06    0.20 
 -14   4   3    0.25    0.19 
 -12  -4   3   12.64    0.70 
 -12  -4   3   12.47    0.69 
 -12   4   3   11.88    0.57 
 -10  -4   3    1.43    0.28 
  10  -4  -3    2.13    0.29 
  10  -4  -3    1.80    0.26 
 -10  -4   3    2.15    0.33 
 -10   4   3    1.67    0.22 
  -8  -4   3    0.10    0.14 
  -8  -4   3    0.20    0.14 
   8  -4  -3    0.32    0.11 
   8  -4  -3    0.30    0.09 
  -8   4   3    0.52    0.11 
   6  -4  -3    0.67    0.10 
   6  -4  -3    0.59    0.12 
  -6  -4   3    0.53    0.15 
  -6  -4   3    0.71    0.14 
   6   4  -3    0.22    0.11 
  -6   4   3    0.67    0.08 
  -6   4   3    0.35    0.06 
  -4  -4   3   15.46    0.52 
  -4  -4   3   16.69    0.52 
   4  -4  -3   16.45    0.47 
   4  -4  -3   15.76    0.44 
   4   4  -3   16.40    0.45 
   4   4  -3   16.03    0.52 
   2  -4  -3    1.57    0.07 
  -2  -4   3    1.57    0.12 
  -2  -4   3    1.62    0.12 
   2  -4  -3    1.51    0.07 
   2   4  -3    1.45    0.12 
   0  -4   3   37.22    0.83 
   0  -4  -3   36.59    0.85 
   0  -4   3   36.32    0.84 
  -2  -4  -3   17.35    0.45 
  -2  -4  -3   17.93    0.53 
   2  -4   3   17.31    0.47 
   2  -4   3   18.24    0.49 
  -4  -4  -3    0.13    0.09 
  -4  -4  -3    0.05    0.08 
   4  -4   3    0.00    0.06 
   4  -4   3    0.06    0.07 
   4   4   3    0.06    0.03 
  -4   4  -3    0.04    0.04 
  -4   4  -3    0.10    0.05 
  -4   4  -3    0.03    0.03 
  -6  -4  -3    9.99    0.44 
   6  -4   3   10.04    0.41 
   6  -4   3    9.69    0.41 
  -6  -4  -3    9.94    0.47 
  -6   4  -3   10.05    0.36 
  -6   4  -3   10.05    0.38 
   8  -4   3    0.54    0.11 
  -8  -4  -3    0.55    0.18 
  -8  -4  -3    0.25    0.16 
   8  -4   3    0.69    0.15 
  -8   4  -3    0.68    0.14 
  -8   4  -3    0.60    0.13 
 -10  -4  -3    3.62    0.40 
  10  -4   3    3.53    0.28 
 -10  -4  -3    3.31    0.39 
  10  -4   3    4.07    0.36 
 -10   4  -3    3.88    0.33 
 -10   4  -3    3.87    0.33 
 -12  -4  -3    5.12    0.52 
 -12  -4  -3    6.30    0.56 
 -12   4  -3    5.54    0.42 
 -12   4  -3    4.28    0.39 
 -14  -4  -3    0.03    0.21 
 -14  -4  -3   -0.28    0.17 
 -14   4  -3   -0.46    0.14 
 -14   4  -3    0.31    0.18 
 -16  -4  -3    0.33    0.25 
 -16  -4  -3    0.28    0.24 
 -16   4  -3   -0.05    0.20 
 -15  -5   3    0.08    0.23 
 -15  -5   3    0.18    0.28 
 -13  -5   3    3.10    0.42 
 -13  -5   3    3.74    0.48 
 -11  -5   3   -0.10    0.18 
 -11  -5   3   -0.14    0.21 
 -11   5   3    0.22    0.13 
   9  -5  -3    0.05    0.08 
  -9  -5   3    0.03    0.16 
   9  -5  -3    0.12    0.11 
  -9  -5   3   -0.36    0.13 
  -9   5   3   -0.02    0.05 
  -7  -5   3   -0.04    0.11 
   7  -5  -3    0.20    0.09 
  -7  -5   3    0.16    0.14 
   7  -5  -3    0.01    0.06 
  -7   5   3    0.13    0.04 
  -7   5   3    0.15    0.04 
   5  -5  -3    0.03    0.04 
  -5  -5   3    0.02    0.09 
  -5  -5   3    0.12    0.10 
   5  -5  -3    0.02    0.06 
   5   5  -3   -0.03    0.03 
   5   5  -3    0.06    0.08 
   5   5  -3    0.05    0.05 
  -3  -5   3   11.96    0.41 
   3  -5  -3   11.35    0.32 
   3  -5  -3   11.37    0.33 
   3  -5  -3   12.52    0.35 
  -3  -5   3   11.77    0.40 
   3   5  -3   11.58    0.39 
  -1  -5   3   15.28    0.43 
   1  -5  -3   16.13    0.42 
  -1  -5   3   16.57    0.46 
  -1  -5  -3    1.20    0.14 
  -1  -5  -3    1.26    0.08 
   1  -5   3    1.49    0.12 
   3  -5   3    2.96    0.18 
   3  -5   3    2.58    0.16 
  -3  -5  -3    2.73    0.21 
  -3  -5  -3    2.72    0.18 
  -5  -5  -3    0.82    0.14 
  -5  -5  -3    1.04    0.18 
   5  -5   3    0.82    0.12 
   5  -5   3    0.77    0.13 
  -5   5  -3    0.90    0.08 
  -5   5  -3    0.95    0.09 
   7  -5   3    2.32    0.26 
   7  -5   3    2.62    0.22 
  -7  -5  -3    2.28    0.29 
  -7  -5  -3    2.20    0.26 
  -7   5  -3    1.44    0.16 
  -9  -5  -3    3.91    0.41 
  -9  -5  -3    4.39    0.39 
   9  -5   3    3.91    0.31 
  -9   5  -3    4.06    0.28 
  -9   5  -3    4.47    0.30 
 -11  -5  -3    4.30    0.46 
 -11  -5  -3    4.90    0.50 
 -11   5  -3    4.48    0.35 
 -11   5  -3    4.22    0.34 
 -13  -5  -3    0.36    0.26 
 -13  -5  -3    0.24    0.23 
 -13   5  -3    0.30    0.18 
 -15  -5  -3    0.22    0.28 
 -15  -5  -3    0.66    0.27 
 -15   5  -3    0.13    0.19 
 -14  -6   3    0.06    0.26 
 -14  -6   3   -0.02    0.22 
 -12  -6   3    6.21    0.57 
 -12  -6   3    4.93    0.52 
 -10  -6   3    2.47    0.37 
 -10  -6   3    3.33    0.40 
   8  -6  -3    1.94    0.19 
   8  -6  -3    2.06    0.25 
  -8  -6   3    2.04    0.29 
  -8  -6   3    2.32    0.31 
   6  -6  -3    4.61    0.20 
  -6  -6   3    4.00    0.33 
  -6  -6   3    4.71    0.33 
   6  -6  -3    4.71    0.27 
   6   6  -3    4.85    0.16 
   6   6  -3    4.59    0.15 
   6   6  -3    4.38    0.30 
   4  -6  -3    0.27    0.09 
  -4  -6   3    0.28    0.11 
  -4  -6   3    0.21    0.12 
   4  -6  -3    0.42    0.08 
   4   6  -3    0.39    0.12 
   2  -6  -3    8.15    0.23 
   2  -6  -3    8.54    0.24 
  -2  -6   3    8.44    0.32 
   2  -6  -3    8.27    0.22 
   0  -6   3   47.48    1.10 
   0  -6   3   48.77    1.13 
   0  -6  -3   49.31    1.12 
   2  -6   3    0.35    0.09 
   2  -6   3    0.33    0.08 
  -2  -6  -3    0.27    0.09 
  -2  -6  -3    0.66    0.13 
   4  -6   3    4.05    0.22 
   4  -6   3    4.00    0.24 
  -4  -6  -3    4.08    0.30 
  -4  -6  -3    4.01    0.26 
   6  -6   3    6.06    0.34 
   6  -6   3    5.63    0.30 
  -6  -6  -3    6.43    0.40 
  -6  -6  -3    5.49    0.36 
  -8  -6  -3    1.54    0.27 
  -8  -6  -3    2.33    0.33 
   8  -6   3    1.77    0.27 
  -8   6  -3    1.71    0.15 
 -10  -6  -3    2.95    0.42 
 -10  -6  -3    2.40    0.34 
 -12  -6  -3    1.95    0.34 
 -12  -6  -3    1.14    0.35 
 -14  -6  -3    0.19    0.25 
 -14  -6  -3    0.09    0.24 
 -13  -7   3    0.05    0.24 
 -13  -7   3    0.37    0.27 
 -11  -7   3    0.29    0.22 
 -11  -7   3    0.72    0.28 
  -9  -7   3    0.44    0.22 
  -9  -7   3   -0.14    0.17 
  -7  -7   3    1.64    0.26 
  -7  -7   3    1.43    0.24 
  -5  -7   3    0.04    0.13 
  -5  -7   3   -0.01    0.12 
   5  -7  -3   -0.09    0.07 
   3  -7  -3    1.87    0.14 
   3  -7  -3    1.94    0.15 
  -3  -7   3    2.29    0.21 
  -1  -7   3    1.19    0.15 
  -1  -7  -3    5.74    0.27 
   1  -7   3    5.61    0.24 
  -1  -7  -3    5.57    0.22 
   1  -7   3    6.25    0.28 
   3  -7   3    0.18    0.07 
   3  -7   3    0.24    0.09 
  -3  -7  -3    0.11    0.09 
  -3  -7  -3    0.10    0.12 
   5  -7   3    0.32    0.10 
   5  -7   3    0.23    0.11 
  -5  -7  -3    0.39    0.16 
  -5  -7  -3    0.29    0.13 
  -7  -7  -3   -0.01    0.17 
   7  -7   3    0.13    0.12 
  -7  -7  -3   -0.20    0.11 
  -9  -7  -3    0.29    0.19 
  -9  -7  -3    0.02    0.19 
 -11  -7  -3    0.36    0.20 
 -11  -7  -3   -0.21    0.24 
 -13  -7  -3    0.25    0.24 
 -13  -7  -3    0.26    0.28 
 -12  -8   3    0.15    0.25 
 -12  -8   3   -0.25    0.22 
 -10  -8   3   -0.08    0.20 
 -10  -8   3   -0.28    0.17 
  -8  -8   3   -0.07    0.16 
  -8  -8   3   -0.10    0.14 
  -6  -8   3   -0.10    0.12 
  -6  -8   3    0.13    0.13 
  -4  -8   3    0.68    0.15 
   2  -8  -3   -0.01    0.04 
   2  -8  -3   -0.05    0.05 
  -2  -8   3    0.07    0.09 
   0  -8   3    4.29    0.25 
   0  -8  -3    4.08    0.16 
  -2  -8  -3    1.12    0.13 
  -2  -8  -3    1.43    0.16 
   2  -8   3    1.32    0.16 
  -4  -8  -3   -0.01    0.09 
  -4  -8  -3    0.09    0.12 
   4  -8   3    0.02    0.09 
  -6  -8  -3    0.97    0.20 
  -6  -8  -3    1.02    0.21 
   6  -8   3    1.17    0.20 
  -8  -8  -3    0.36    0.20 
  -8  -8  -3    0.33    0.20 
 -10  -8  -3    0.38    0.23 
 -10  -8  -3    0.51    0.24 
 -12  -8  -3    0.65    0.26 
 -12  -8  -3   -0.09    0.26 
  -9  -9   3    0.15    0.20 
  -7  -9   3    0.38    0.18 
  -5  -9   3    0.34    0.15 
  -3  -9   3    1.40    0.19 
  -1  -9   3    0.61    0.13 
   1  -9   3    0.57    0.13 
  -1  -9  -3    0.27    0.09 
  -3  -9  -3   -0.18    0.08 
   3  -9   3   -0.08    0.10 
   5  -9   3    0.03    0.11 
  -5  -9  -3   -0.06    0.12 
  -7  -9  -3    0.02    0.17 
  -9  -9  -3   -0.38    0.23 
  -9  -9  -3   -0.12    0.19 
  -6 -10   3    0.30    0.18 
  -4 -10   3   -0.06    0.11 
  -2 -10   3    0.07    0.11 
   0 -10   3   -0.07    0.08 
  -2 -10  -3   -0.05    0.08 
   2 -10   3    0.06    0.10 
  -4 -10  -3    0.06    0.12 
   4 -10   3   -0.18    0.10 
  -6 -10  -3   -0.06    0.15 
   6 -10   3    0.02    0.14 
 -18   0   4   -0.18    0.24 
 -18   0   4    0.07    0.23 
 -16   0   4   -0.18    0.19 
 -16   0   4    0.07    0.22 
 -14   0   4   -0.07    0.18 
 -14   0   4    0.26    0.21 
 -12   0   4   30.61    1.11 
 -12   0   4   29.94    1.06 
 -10   0   4   14.98    0.65 
 -10   0   4   13.52    0.62 
  -8   0   4   71.06    1.77 
  -8   0   4   71.73    1.75 
   8   0  -4   69.88    1.74 
   8   0  -4   67.96    1.73 
   6   0  -4   25.24    0.75 
   6   0  -4   26.04    0.76 
  -6   0   4   26.38    0.75 
  -6   0   4   26.36    0.76 
   4   0  -4  614.95   12.37 
   4   0  -4  603.71   12.37 
  -4   0   4  605.00   12.37 
  -4   0   4  614.04   12.36 
   2   0  -4   48.09    1.05 
  -2   0   4   46.83    1.04 
   0   0   4   10.16    0.27 
   0   0  -4    9.93    0.27 
   0   0  -4    9.88    0.27 
   0   0   4    9.95    0.27 
  -2   0  -4  186.37    3.88 
   2   0   4  189.62    3.87 
  -2   0  -4  186.80    3.88 
   2   0   4  192.14    3.89 
  -4   0  -4    0.13    0.06 
  -4   0  -4    0.12    0.07 
   4   0   4    0.05    0.06 
   4   0   4    0.24    0.07 
  -4   0  -4   -0.01    0.06 
   6   0   4    1.41    0.17 
  -6   0  -4    1.06    0.17 
  -6   0  -4    1.54    0.17 
   6   0   4    1.08    0.15 
  -6   0  -4    1.38    0.18 
  -8   0  -4    0.39    0.15 
  -8   0  -4    0.68    0.18 
   8   0   4    0.45    0.14 
 -10   0  -4   17.74    0.73 
 -10   0  -4   17.56    0.73 
 -12   0  -4    3.30    0.38 
 -12   0  -4    2.22    0.36 
 -14   0  -4   -0.10    0.16 
 -14   0  -4   -0.07    0.17 
 -16   0  -4    0.19    0.21 
 -16   0  -4    0.49    0.25 
 -18   0  -4    0.03    0.23 
 -18   0  -4   -0.01    0.25 
 -17  -1   4    0.01    0.24 
 -17  -1   4   -0.10    0.18 
 -17   1   4   -0.16    0.20 
 -17   1   4   -0.09    0.25 
 -15  -1   4   -0.02    0.21 
 -15  -1   4   -0.16    0.19 
 -15   1   4    0.20    0.21 
 -15   1   4    0.35    0.22 
 -13  -1   4    0.29    0.22 
 -13  -1   4    0.78    0.26 
 -13   1   4    0.32    0.21 
 -13   1   4    0.84    0.24 
 -11  -1   4    7.48    0.52 
 -11  -1   4    7.21    0.48 
 -11   1   4    7.90    0.47 
 -11   1   4    7.25    0.48 
   9  -1  -4    9.35    0.46 
  -9  -1   4    9.11    0.48 
  -9  -1   4    9.58    0.48 
   9  -1  -4   10.06    0.51 
  -9   1   4   10.08    0.47 
  -9   1   4    9.43    0.48 
   7  -1  -4   26.77    0.80 
   7  -1  -4   26.76    0.81 
  -7  -1   4   26.95    0.83 
  -7  -1   4   27.46    0.82 
   7   1  -4   26.97    0.81 
  -7   1   4   26.82    0.80 
   5  -1  -4    7.28    0.31 
  -5  -1   4    7.90    0.33 
  -5  -1   4    7.66    0.33 
   5  -1  -4    7.70    0.31 
  -5   1   4    7.79    0.31 
   5   1  -4    7.58    0.33 
  -5   1   4    7.36    0.31 
   5   1  -4    7.73    0.32 
   3  -1  -4   40.07    0.93 
   3  -1  -4   39.87    0.94 
  -3  -1   4   40.29    0.95 
  -3  -1   4   40.81    0.96 
   3   1  -4   41.18    0.96 
   3   1  -4   40.67    0.96 
  -3   1   4   39.90    0.92 
  -1  -1   4   43.78    0.96 
  -1  -1   4   43.40    0.95 
   1  -1  -4   43.80    0.93 
   1   1  -4   43.88    0.96 
   1   1  -4   43.37    0.95 
  -1   1   4   43.68    0.93 
  -1  -1  -4  762.45   15.34 
  -1  -1  -4  796.93   15.29 
   1  -1   4  785.52   15.31 
   1  -1   4  682.51   15.39 
  -1   1  -4  678.76   15.33 
   1   1   4  768.27   15.24 
   1   1   4  736.30   15.23 
  -1   1  -4  766.28   15.21 
   3  -1   4   22.68    0.60 
  -3  -1  -4   23.87    0.60 
   3  -1   4   23.19    0.60 
  -3  -1  -4   22.74    0.61 
  -3  -1  -4   23.50    0.60 
  -3   1  -4   23.57    0.59 
  -3   1  -4   22.56    0.58 
  -3   1  -4   23.84    0.61 
   3   1   4   23.23    0.58 
   5  -1   4   71.10    1.61 
  -5  -1  -4   68.85    1.67 
   5  -1   4   67.83    1.64 
   5  -1   4   73.06    1.64 
  -5  -1  -4   72.15    1.64 
  -5  -1  -4   69.15    1.65 
  -5   1  -4   72.38    1.66 
  -5   1  -4   70.50    1.62 
   5   1   4   73.43    1.65 
   5   1   4   71.62    1.62 
  -5   1  -4   70.96    1.64 
  -7  -1  -4    2.25    0.25 
  -7  -1  -4    2.75    0.23 
   7  -1   4    2.31    0.20 
  -7  -1  -4    2.69    0.28 
   7  -1   4    2.61    0.23 
  -7   1  -4    2.24    0.20 
   7   1   4    2.44    0.21 
   7   1   4    2.32    0.21 
  -7   1  -4    2.10    0.24 
  -7   1  -4    2.66    0.24 
  -9  -1  -4    1.27    0.23 
  -9  -1  -4    1.61    0.25 
  -9   1  -4    1.01    0.19 
  -9   1  -4    1.68    0.26 
 -11  -1  -4   -0.46    0.14 
 -11  -1  -4   -0.12    0.14 
 -11   1  -4   -0.16    0.15 
 -11   1  -4    0.10    0.18 
 -13  -1  -4    3.41    0.46 
 -13  -1  -4    2.78    0.38 
 -13   1  -4    3.22    0.40 
 -13   1  -4    2.64    0.40 
 -15  -1  -4   -0.14    0.18 
 -15  -1  -4   -0.09    0.19 
 -15   1  -4   -0.03    0.19 
 -15   1  -4    0.19    0.20 
 -17  -1  -4    0.22    0.22 
 -17  -1  -4   -0.01    0.20 
 -17   1  -4    0.44    0.23 
 -17   1  -4   -0.01    0.20 
 -18  -2   4   -0.46    0.22 
 -18  -2   4   -0.03    0.24 
 -18   2   4    0.86    0.29 
 -18   2   4   -0.04    0.21 
 -16  -2   4   -0.11    0.19 
 -16  -2   4    0.08    0.25 
 -16   2   4   -0.43    0.18 
 -16   2   4   -0.22    0.15 
 -14  -2   4   -0.28    0.18 
 -14  -2   4   -0.18    0.17 
 -14   2   4   -0.16    0.13 
 -14   2   4   -0.19    0.18 
 -12  -2   4    3.59    0.45 
 -12  -2   4    4.48    0.46 
 -12   2   4    4.14    0.39 
 -12   2   4    4.69    0.41 
 -10  -2   4    4.09    0.38 
 -10  -2   4    3.93    0.35 
  10  -2  -4    4.27    0.37 
 -10   2   4    4.24    0.34 
 -10   2   4    4.18    0.34 
  -8  -2   4    4.00    0.30 
  -8  -2   4    3.13    0.30 
   8  -2  -4    3.56    0.25 
   8  -2  -4    3.41    0.26 
  -8   2   4    3.68    0.27 
  -8   2   4    3.69    0.26 
   8   2  -4    3.75    0.35 
   6  -2  -4    1.06    0.14 
  -6  -2   4    1.05    0.16 
   6  -2  -4    0.98    0.13 
  -6  -2   4    1.08    0.17 
   6   2  -4    1.12    0.15 
   6   2  -4    0.80    0.15 
  -6   2   4    1.09    0.14 
   4  -2  -4   40.34    0.97 
   4  -2  -4   40.56    0.96 
  -4  -2   4   40.91    1.00 
  -4  -2   4   41.39    1.01 
   4   2  -4   40.39    1.01 
   4   2  -4   38.85    0.99 
  -4   2   4   40.78    0.93 
   2  -2  -4    0.18    0.04 
  -2  -2   4    0.30    0.06 
   2   2  -4    0.25    0.05 
  -2   2   4    0.23    0.03 
   2   2  -4    0.11    0.05 
  -2   2   4    0.22    0.03 
   2   2  -4    0.20    0.05 
   0  -2   4   55.66    1.18 
   0  -2   4   54.73    1.19 
   0  -2  -4   54.76    1.13 
   0   2  -4   53.82    1.18 
   0   2  -4   54.78    1.17 
   2  -2   4  101.81    2.18 
  -2  -2  -4  104.20    2.22 
  -2  -2  -4  103.49    2.16 
   2  -2   4  102.81    2.19 
   2   2   4  104.09    2.13 
  -2   2  -4  104.29    2.19 
  -2   2  -4  102.68    2.18 
   4  -2   4   24.75    0.67 
   4  -2   4   25.32    0.67 
  -4  -2  -4   24.30    0.70 
  -4  -2  -4   24.60    0.67 
  -4   2  -4   24.70    0.64 
  -4   2  -4   23.79    0.67 
  -4   2  -4   25.06    0.64 
   4   2   4   24.55    0.62 
  -6  -2  -4    0.02    0.09 
   6  -2   4   -0.03    0.06 
   6  -2   4    0.04    0.08 
  -6  -2  -4   -0.15    0.09 
   6  -2   4   -0.11    0.06 
   6   2   4    0.07    0.07 
  -6   2  -4   -0.04    0.07 
  -6   2  -4   -0.10    0.08 
  -6   2  -4    0.06    0.05 
   6   2   4    0.21    0.10 
   8  -2   4    0.09    0.08 
  -8  -2  -4    0.07    0.13 
   8  -2   4    0.11    0.10 
  -8  -2  -4   -0.05    0.13 
  -8   2  -4    0.27    0.10 
  -8   2  -4    0.13    0.13 
 -10  -2  -4    1.51    0.26 
 -10  -2  -4    1.33    0.26 
 -10   2  -4    1.60    0.25 
 -10   2  -4    1.10    0.23 
 -12  -2  -4    0.48    0.24 
 -12  -2  -4    0.35    0.21 
 -12   2  -4    0.16    0.17 
 -12   2  -4    0.36    0.21 
 -14  -2  -4   -0.16    0.19 
 -14  -2  -4   -0.01    0.20 
 -14   2  -4   -0.19    0.17 
 -14   2  -4    0.41    0.19 
 -16  -2  -4   -0.04    0.20 
 -16  -2  -4    0.28    0.22 
 -16   2  -4    0.10    0.19 
 -16   2  -4   -0.13    0.20 
 -18  -2  -4   -0.04    0.24 
 -18  -2  -4    0.31    0.28 
 -18   2  -4   -0.55    0.23 
 -18   2  -4   -0.05    0.24 
 -17  -3   4   -0.04    0.27 
 -17  -3   4   -0.01    0.25 
 -15  -3   4    0.22    0.23 
 -15  -3   4   -0.29    0.18 
 -15   3   4    0.11    0.19 
 -13  -3   4    0.26    0.22 
 -13  -3   4    0.29    0.21 
 -13   3   4    0.29    0.19 
 -11  -3   4   -0.43    0.17 
 -11  -3   4   -0.29    0.15 
 -11   3   4   -0.15    0.13 
  -9  -3   4   -0.20    0.10 
   9  -3  -4    0.09    0.09 
  -9  -3   4    0.41    0.17 
   9  -3  -4    0.20    0.11 
  -9   3   4    0.01    0.09 
   7  -3  -4    0.07    0.06 
   7  -3  -4    0.01    0.07 
  -7  -3   4   -0.07    0.10 
  -7  -3   4    0.04    0.10 
  -7   3   4   -0.01    0.07 
   7   3  -4    0.01    0.08 
  -5  -3   4   -0.01    0.07 
   5  -3  -4   -0.06    0.04 
   5  -3  -4    0.05    0.04 
  -5  -3   4    0.13    0.08 
   5   3  -4    0.08    0.06 
  -5   3   4    0.00    0.04 
   5   3  -4   -0.04    0.06 
  -5   3   4    0.03    0.04 
   3  -3  -4   24.26    0.59 
  -3  -3   4   23.82    0.65 
  -3  -3   4   23.66    0.65 
   3   3  -4   24.84    0.60 
   3   3  -4   24.07    0.65 
   3   3  -4   24.80    0.63 
  -1  -3   4   21.56    0.54 
  -1  -3   4   21.31    0.54 
   1   3  -4   22.33    0.53 
   1   3  -4   21.66    0.54 
   1  -3   4   34.53    0.81 
   1  -3   4   34.67    0.79 
  -1  -3  -4   34.72    0.74 
  -1   3  -4   34.11    0.77 
  -3  -3  -4   23.71    0.66 
   3  -3   4   23.72    0.62 
   3  -3   4   23.86    0.62 
  -3  -3  -4   22.80    0.60 
   3   3   4   23.33    0.54 
  -3   3  -4   22.84    0.56 
  -3   3  -4   23.92    0.61 
  -3   3  -4   22.88    0.58 
   5  -3   4    2.85    0.20 
  -5  -3  -4    2.59    0.23 
  -5  -3  -4    2.85    0.22 
  -5   3  -4    2.73    0.20 
   5   3   4    2.80    0.16 
  -5   3  -4    2.93    0.18 
  -5   3  -4    2.75    0.17 
  -7  -3  -4   16.31    0.62 
   7  -3   4   16.04    0.58 
  -7  -3  -4   16.25    0.64 
   7  -3   4   16.64    0.52 
   7  -3   4   15.95    0.60 
  -7   3  -4   16.49    0.56 
  -7   3  -4   16.21    0.59 
  -9  -3  -4    7.23    0.47 
  -9  -3  -4    6.27    0.43 
   9  -3   4    7.28    0.40 
   9  -3   4    6.71    0.35 
  -9   3  -4    7.33    0.43 
  -9   3  -4    7.46    0.41 
 -11  -3  -4    1.42    0.32 
 -11  -3  -4    1.01    0.25 
 -11   3  -4    1.07    0.24 
 -11   3  -4    0.94    0.23 
 -13  -3  -4    2.77    0.40 
 -13  -3  -4    3.25    0.44 
 -13   3  -4    2.51    0.35 
 -13   3  -4    2.72    0.37 
 -15  -3  -4    0.35    0.26 
 -15  -3  -4   -0.05    0.20 
 -15   3  -4    0.12    0.19 
 -15   3  -4   -0.32    0.18 
 -17  -3  -4    0.37    0.25 
 -17  -3  -4    0.47    0.27 
 -17   3  -4   -0.25    0.36 
 -17   3  -4    0.19    0.22 
 -16  -4   4    0.02    0.25 
 -16  -4   4   -0.07    0.23 
 -14  -4   4    0.38    0.24 
 -14  -4   4    0.66    0.29 
 -14   4   4    0.19    0.19 
 -12  -4   4    0.14    0.21 
 -12  -4   4   -0.02    0.22 
 -12   4   4    0.44    0.18 
 -10  -4   4    0.58    0.21 
 -10  -4   4    0.55    0.24 
  10  -4  -4    0.94    0.20 
 -10   4   4    0.57    0.16 
  -8  -4   4    2.76    0.30 
   8  -4  -4    2.92    0.22 
   8  -4  -4    3.05    0.25 
  -8  -4   4    2.78    0.30 
  -8   4   4    2.93    0.20 
  -6  -4   4    0.29    0.13 
   6  -4  -4    0.12    0.06 
  -6  -4   4    0.32    0.12 
   6  -4  -4    0.36    0.10 
  -6   4   4    0.42    0.07 
   6   4  -4    0.17    0.09 
  -6   4   4    0.25    0.06 
  -4  -4   4    2.02    0.18 
  -4  -4   4    2.20    0.19 
   4  -4  -4    2.27    0.15 
   4  -4  -4    2.24    0.14 
   4   4  -4    1.85    0.17 
   4   4  -4    2.27    0.13 
   4   4  -4    2.12    0.15 
   2  -4  -4    0.43    0.04 
  -2  -4   4    0.38    0.08 
   2  -4  -4    0.41    0.04 
   2   4  -4    0.50    0.05 
   2   4  -4    0.48    0.06 
   2   4  -4    0.40    0.08 
   0  -4   4    2.02    0.12 
   0  -4   4    1.65    0.11 
   0   4  -4    1.61    0.08 
  -2  -4  -4   20.17    0.58 
   2  -4   4   20.51    0.53 
  -2  -4  -4   19.68    0.50 
   2  -4   4   19.59    0.54 
  -2   4  -4   19.92    0.47 
  -2   4  -4   19.87    0.46 
   4  -4   4    0.73    0.11 
  -4  -4  -4    0.66    0.14 
  -4  -4  -4    0.80    0.13 
   4  -4   4    0.74    0.12 
  -4   4  -4    0.56    0.09 
  -4   4  -4    0.71    0.08 
  -4   4  -4    0.90    0.10 
   4   4   4    0.72    0.06 
  -6  -4  -4    1.50    0.22 
   6  -4   4    1.66    0.20 
  -6  -4  -4    1.54    0.20 
   6  -4   4    1.70    0.19 
  -6   4  -4    1.49    0.18 
  -6   4  -4    1.40    0.15 
   8  -4   4    0.56    0.15 
  -8  -4  -4    0.78    0.20 
  -8  -4  -4    0.84    0.21 
   8  -4   4    0.93    0.20 
  -8   4  -4    0.86    0.17 
  -8   4  -4    0.81    0.14 
 -10  -4  -4    1.85    0.33 
 -10  -4  -4    1.72    0.30 
 -10   4  -4    2.39    0.29 
 -10   4  -4    1.36    0.22 
 -12  -4  -4    0.76    0.27 
 -12  -4  -4    0.67    0.27 
 -12   4  -4    0.68    0.21 
 -12   4  -4    0.42    0.18 
 -14  -4  -4    0.37    0.29 
 -14  -4  -4    0.32    0.26 
 -14   4  -4    0.07    0.18 
 -14   4  -4    0.01    0.17 
 -16  -4  -4    0.16    0.27 
 -16  -4  -4    0.12    0.22 
 -16   4  -4    0.05    0.18 
 -15  -5   4   -0.27    0.20 
 -15  -5   4   -0.04    0.25 
 -13  -5   4    0.04    0.20 
 -13  -5   4    0.33    0.26 
 -11  -5   4   -0.51    0.21 
 -11  -5   4    0.12    0.20 
 -11   5   4    0.19    0.13 
  -9  -5   4    0.20    0.17 
   9  -5  -4    0.55    0.15 
  -9  -5   4    0.62    0.22 
   9  -5  -4    0.27    0.10 
   7  -5  -4    0.96    0.15 
  -7  -5   4    1.29    0.21 
   7  -5  -4    1.06    0.14 
  -7  -5   4    1.02    0.21 
  -7   5   4    1.15    0.07 
  -7   5   4    1.05    0.07 
   7   5  -4    0.88    0.13 
  -5  -5   4    0.12    0.10 
   5  -5  -4    0.03    0.05 
   5  -5  -4    0.09    0.06 
  -5  -5   4    0.02    0.09 
   5   5  -4    0.17    0.05 
   5   5  -4    0.16    0.09 
   5   5  -4    0.01    0.03 
  -3  -5   4   -0.06    0.06 
   3  -5  -4    0.05    0.05 
  -3  -5   4    0.03    0.08 
   3   5  -4    0.09    0.07 
  -1  -5   4    0.09    0.06 
  -1  -5   4    0.09    0.05 
   1   5  -4    0.08    0.04 
  -1  -5  -4    0.01    0.07 
   1  -5   4    0.24    0.06 
  -1  -5  -4   -0.02    0.04 
   3  -5   4    2.03    0.16 
   3  -5   4    1.66    0.13 
  -3  -5  -4    1.55    0.14 
  -3  -5  -4    2.03    0.21 
   5  -5   4    2.73    0.22 
   5  -5   4    2.49    0.18 
  -5  -5  -4    2.50    0.22 
  -5  -5  -4    2.58    0.27 
  -5   5  -4    2.50    0.15 
  -5   5  -4    2.50    0.14 
  -7  -5  -4   -0.12    0.11 
   7  -5   4    0.09    0.11 
   7  -5   4    0.16    0.09 
  -7  -5  -4   -0.13    0.10 
  -7   5  -4    0.09    0.08 
  -7   5  -4    0.08    0.08 
  -9  -5  -4    0.73    0.21 
   9  -5   4    1.35    0.21 
  -9  -5  -4    1.24    0.27 
  -9   5  -4    1.17    0.20 
  -9   5  -4    0.91    0.16 
 -11  -5  -4    1.13    0.27 
 -11  -5  -4    0.89    0.30 
 -11   5  -4    0.87    0.19 
 -11   5  -4    1.02    0.20 
 -13  -5  -4    0.12    0.26 
 -13  -5  -4   -0.03    0.21 
 -13   5  -4    0.00    0.14 
 -15  -5  -4   -0.03    0.23 
 -15  -5  -4    0.28    0.24 
 -15   5  -4   -0.02    0.17 
 -14  -6   4   -0.28    0.21 
 -14  -6   4   -0.01    0.26 
 -12  -6   4    0.58    0.26 
 -10  -6   4   -0.17    0.16 
 -10  -6   4    0.35    0.23 
   8  -6  -4    0.05    0.07 
  -8  -6   4    0.13    0.17 
   8  -6  -4    0.24    0.12 
  -8  -6   4    0.08    0.16 
   8   6  -4    0.01    0.03 
  -6  -6   4    0.24    0.13 
  -6  -6   4   -0.07    0.12 
   6  -6  -4    0.02    0.06 
   6  -6  -4   -0.01    0.08 
   6   6  -4   -0.05    0.11 
   6   6  -4    0.00    0.04 
  -4  -6   4    0.94    0.16 
   4  -6  -4    0.86    0.11 
  -4  -6   4    0.73    0.15 
   4  -6  -4    0.53    0.08 
   4   6  -4    0.68    0.14 
   2  -6  -4    6.17    0.21 
  -2  -6   4    6.16    0.28 
   2  -6  -4    5.85    0.18 
   2  -6  -4    6.12    0.18 
   0  -6   4    5.92    0.26 
   0  -6  -4    5.68    0.27 
   0  -6   4    6.18    0.25 
  -2  -6  -4    7.59    0.34 
   2  -6   4    7.50    0.31 
  -2  -6  -4    7.09    0.27 
   2  -6   4    6.88    0.28 
  -4  -6  -4   10.05    0.40 
   4  -6   4   10.06    0.40 
  -4  -6  -4    9.62    0.45 
   4  -6   4    9.41    0.36 
  -6  -6  -4    1.16    0.20 
   6  -6   4    1.42    0.17 
  -6  -6  -4    1.24    0.23 
   6  -6   4    1.35    0.20 
  -8  -6  -4    0.20    0.17 
   8  -6   4    0.21    0.15 
  -8  -6  -4    0.21    0.18 
  -8   6  -4    0.09    0.09 
 -10  -6  -4   -0.03    0.22 
 -10  -6  -4    0.45    0.20 
 -12  -6  -4    0.19    0.20 
 -12  -6  -4   -0.33    0.24 
 -14  -6  -4   -0.05    0.23 
 -14  -6  -4    0.09    0.24 
 -13  -7   4   -0.12    0.25 
 -13  -7   4   -0.06    0.21 
 -11  -7   4    5.70    0.53 
 -11  -7   4    3.56    0.43 
  -9  -7   4    0.00    0.17 
  -9  -7   4    0.75    0.23 
  -7  -7   4    8.69    0.48 
  -7  -7   4    7.77    0.47 
  -5  -7   4    6.45    0.36 
   5  -7  -4    5.68    0.28 
  -5  -7   4    6.25    0.36 
   3  -7  -4    0.16    0.07 
  -3  -7   4    0.36    0.13 
   1  -7  -4    7.39    0.25 
  -1  -7   4    7.67    0.33 
   1  -7   4   11.76    0.41 
   1  -7   4   11.19    0.38 
  -1  -7  -4   11.01    0.32 
  -1  -7  -4   10.86    0.41 
   3  -7   4    0.51    0.10 
  -3  -7  -4    0.57    0.12 
  -3  -7  -4    0.80    0.16 
   3  -7   4    0.67    0.13 
   5  -7   4    1.24    0.18 
   5  -7   4    1.69    0.26 
  -5  -7  -4    1.19    0.19 
  -5  -7  -4    0.98    0.20 
  -7  -7  -4    1.42    0.28 
  -7  -7  -4    0.75    0.21 
   7  -7   4    1.04    0.21 
  -9  -7  -4    1.18    0.26 
  -9  -7  -4    1.66    0.33 
 -11  -7  -4   -0.20    0.23 
 -11  -7  -4    0.35    0.21 
 -13  -7  -4    0.14    0.22 
 -13  -7  -4    0.24    0.29 
 -12  -8   4   -0.12    0.24 
 -12  -8   4    0.10    0.24 
 -10  -8   4    0.04    0.19 
 -10  -8   4   -0.29    0.17 
  -8  -8   4    0.00    0.17 
  -8  -8   4    0.14    0.16 
  -6  -8   4    0.31    0.15 
  -4  -8   4    0.10    0.11 
   2  -8  -4    0.69    0.06 
   2  -8  -4    0.50    0.07 
  -2  -8   4    0.66    0.13 
   0  -8  -4    3.72    0.18 
   0  -8   4    3.49    0.24 
   2  -8   4    0.56    0.12 
  -2  -8  -4    0.67    0.11 
  -2  -8  -4    0.65    0.13 
   4  -8   4    0.62    0.14 
  -4  -8  -4    0.77    0.15 
  -4  -8  -4    0.67    0.17 
  -6  -8  -4    0.33    0.15 
   6  -8   4   -0.01    0.11 
  -6  -8  -4    0.12    0.16 
  -8  -8  -4   -0.13    0.15 
   8  -8   4   -0.11    0.15 
  -8  -8  -4    0.06    0.17 
 -10  -8  -4    0.22    0.21 
 -10  -8  -4   -0.14    0.20 
 -12  -8  -4    0.30    0.24 
 -12  -8  -4    1.00    0.32 
  -9  -9   4    0.11    0.20 
  -7  -9   4    0.05    0.15 
  -5  -9   4    0.69    0.17 
  -3  -9   4    0.10    0.11 
  -1  -9   4    0.75    0.15 
  -1  -9  -4    8.00    0.27 
   1  -9   4    8.04    0.38 
  -3  -9  -4    0.20    0.11 
   3  -9   4    0.38    0.13 
   5  -9   4    0.20    0.13 
  -5  -9  -4    0.52    0.17 
  -7  -9  -4    0.09    0.18 
   7  -9   4    0.19    0.16 
  -9  -9  -4    0.15    0.25 
  -9  -9  -4   -0.12    0.19 
  -6 -10   4   -0.15    0.14 
  -4 -10   4    0.02    0.12 
  -2 -10   4   -0.08    0.10 
   0 -10   4    1.22    0.18 
   2 -10   4    0.11    0.11 
   4 -10   4    0.20    0.14 
  -4 -10  -4    0.23    0.14 
  -6 -10  -4    0.76    0.22 
   6 -10   4    0.77    0.21 
 -18   0   5   -0.55    0.19 
 -16   0   5   -0.16    0.16 
 -16   0   5    0.06    0.20 
 -14   0   5    0.05    0.19 
 -14   0   5   -0.14    0.19 
 -12   0   5   -0.01    0.21 
 -12   0   5    0.93    0.25 
 -10   0   5   -0.11    0.14 
 -10   0   5    0.00    0.15 
  -8   0   5   -0.21    0.15 
   8   0  -5   -0.40    0.11 
   8   0  -5    0.00    0.13 
  -8   0   5   -0.49    0.17 
  -6   0   5   -0.11    0.09 
   6   0  -5    0.00    0.08 
  -6   0   5    0.22    0.11 
   6   0  -5   -0.07    0.08 
   4   0  -5   -0.16    0.08 
  -4   0   5   -0.06    0.09 
   4   0  -5   -0.07    0.07 
  -2   0   5   -0.02    0.04 
   2   0  -5    0.04    0.04 
   0   0  -5   -0.03    0.03 
   0   0   5    0.03    0.04 
   0   0  -5    0.02    0.03 
   0   0   5   -0.05    0.03 
   2   0   5    0.11    0.04 
   2   0   5    0.01    0.04 
  -2   0  -5   -0.04    0.03 
  -2   0  -5    0.00    0.03 
  -4   0  -5   -0.01    0.04 
  -4   0  -5   -0.01    0.05 
   4   0   5   -0.03    0.04 
  -4   0  -5   -0.02    0.05 
   4   0   5    0.04    0.05 
  -6   0  -5    0.20    0.12 
   6   0   5   -0.14    0.08 
  -6   0  -5    0.08    0.11 
   6   0   5    0.14    0.08 
  -6   0  -5   -0.08    0.07 
   8   0   5   -0.17    0.08 
  -8   0  -5   -0.03    0.11 
  -8   0  -5   -0.14    0.10 
 -10   0  -5   -0.18    0.12 
 -10   0  -5    0.14    0.15 
 -12   0  -5   -0.28    0.16 
 -12   0  -5    0.09    0.17 
 -14   0  -5   -0.09    0.17 
 -14   0  -5    0.18    0.20 
 -16   0  -5    0.14    0.19 
 -16   0  -5    0.05    0.21 
 -18   0  -5   -0.09    0.22 
 -18   0  -5    0.06    0.25 
 -17  -1   5   -0.19    0.20 
 -17  -1   5   -0.09    0.23 
 -17   1   5    0.09    0.19 
 -17   1   5   -0.33    0.19 
 -15  -1   5    0.58    0.24 
 -15  -1   5    0.25    0.23 
 -15   1   5    0.39    0.25 
 -15   1   5    0.28    0.21 
 -13  -1   5    2.88    0.38 
 -13  -1   5    3.18    0.39 
 -13   1   5    2.93    0.38 
 -13   1   5    2.92    0.36 
 -11  -1   5    2.08    0.29 
 -11  -1   5    1.37    0.29 
 -11   1   5    2.07    0.29 
 -11   1   5    2.02    0.29 
  -9  -1   5    7.06    0.42 
  -9  -1   5    7.20    0.42 
   9  -1  -5    5.81    0.49 
   9  -1  -5    7.03    0.40 
  -9   1   5    7.71    0.41 
  -9   1   5    7.45    0.40 
   7  -1  -5    9.22    0.41 
   7  -1  -5    9.62    0.41 
  -7  -1   5    8.52    0.42 
  -7  -1   5    8.89    0.42 
  -7   1   5    8.79    0.40 
   7   1  -5    9.18    0.41 
   7   1  -5    8.90    0.41 
  -7   1   5    9.13    0.40 
   5  -1  -5    1.62    0.15 
   5  -1  -5    1.58    0.15 
  -5  -1   5    1.59    0.17 
   5   1  -5    1.49    0.16 
   5   1  -5    1.10    0.14 
  -5   1   5    1.60    0.15 
  -3  -1   5  141.58    2.99 
   3  -1  -5  141.08    2.96 
  -3   1   5  142.09    2.95 
   3   1  -5  141.89    3.00 
   1  -1  -5   60.27    1.28 
  -1  -1   5   60.99    1.30 
  -1  -1   5   59.70    1.30 
   1   1  -5   59.54    1.30 
  -1   1   5   61.32    1.28 
   1   1  -5   59.33    1.30 
  -1  -1  -5    3.44    0.13 
   1  -1   5    3.38    0.14 
  -1  -1  -5    3.28    0.13 
   1   1   5    3.23    0.14 
   1   1   5    3.10    0.12 
  -1   1  -5    3.52    0.15 
  -1   1  -5    3.19    0.14 
  -3  -1  -5    0.20    0.06 
  -3  -1  -5    0.23    0.06 
  -3  -1  -5    0.26    0.06 
   3  -1   5    0.27    0.06 
   3  -1   5    0.21    0.07 
   3   1   5    0.27    0.06 
  -3   1  -5    0.29    0.06 
  -3   1  -5    0.24    0.07 
  -3   1  -5    0.20    0.05 
  -5  -1  -5    6.33    0.29 
  -5  -1  -5    6.14    0.30 
   5  -1   5    7.06    0.30 
  -5  -1  -5    5.96    0.31 
  -5   1  -5    6.55    0.28 
  -5   1  -5    6.68    0.31 
  -5   1  -5    6.19    0.30 
   5   1   5    6.56    0.28 
   7  -1   5   12.63    0.49 
   7  -1   5   12.13    0.47 
  -7  -1  -5   12.22    0.49 
  -7  -1  -5   12.76    0.53 
  -7  -1  -5   12.64    0.53 
   7   1   5   13.42    0.56 
  -7   1  -5   12.17    0.50 
  -7   1  -5   12.75    0.56 
  -7   1  -5   11.88    0.52 
   7   1   5   13.13    0.50 
  -9  -1  -5    0.40    0.16 
  -9  -1  -5   -0.15    0.12 
  -9   1  -5    0.09    0.14 
  -9   1  -5    0.01    0.12 
 -11  -1  -5    0.31    0.19 
 -11  -1  -5   -0.28    0.16 
 -11   1  -5    0.20    0.18 
 -11   1  -5    0.44    0.19 
 -13  -1  -5    0.18    0.19 
 -13  -1  -5    0.22    0.21 
 -13   1  -5    0.10    0.20 
 -13   1  -5    0.23    0.19 
 -15  -1  -5   -0.04    0.20 
 -15  -1  -5    0.08    0.21 
 -15   1  -5   -0.14    0.16 
 -15   1  -5   -0.16    0.16 
 -17  -1  -5    0.11    0.22 
 -17  -1  -5    0.04    0.20 
 -17   1  -5    0.05    0.21 
 -17   1  -5    0.16    0.22 
 -18  -2   5   -0.35    0.24 
 -18  -2   5   -0.51    0.23 
 -18   2   5   -0.27    0.21 
 -16  -2   5    0.20    0.25 
 -16  -2   5   -0.13    0.21 
 -16   2   5    0.01    0.19 
 -16   2   5    0.08    0.21 
 -14  -2   5    0.11    0.21 
 -14  -2   5   -0.12    0.17 
 -14   2   5    0.07    0.17 
 -12  -2   5    0.56    0.25 
 -12  -2   5    0.55    0.22 
 -12   2   5    0.92    0.24 
 -12   2   5    1.07    0.24 
  10  -2  -5    1.03    0.20 
 -10  -2   5    0.51    0.19 
 -10  -2   5    0.52    0.18 
 -10   2   5    0.76    0.19 
 -10   2   5    0.68    0.18 
  -8  -2   5    3.66    0.29 
   8  -2  -5    4.00    0.28 
  -8  -2   5    3.67    0.30 
   8  -2  -5    3.74    0.26 
  -8   2   5    3.98    0.27 
   8   2  -5    4.26    0.36 
  -6  -2   5    7.33    0.35 
   6  -2  -5    7.40    0.33 
   6  -2  -5    7.30    0.32 
  -6  -2   5    7.48    0.37 
  -6   2   5    6.88    0.30 
   6   2  -5    7.06    0.34 
   6   2  -5    7.89    0.37 
  -4  -2   5    0.19    0.08 
   4  -2  -5    0.27    0.07 
  -4  -2   5    0.15    0.07 
   4  -2  -5    0.18    0.06 
  -4   2   5    0.14    0.05 
   4   2  -5    0.08    0.06 
   4   2  -5    0.18    0.08 
   2  -2  -5   12.00    0.32 
  -2  -2   5   12.55    0.37 
   2   2  -5   12.08    0.37 
   2   2  -5   12.77    0.37 
   2   2  -5   12.36    0.35 
   0  -2  -5  288.12    6.11 
   0  -2   5  306.46    6.16 
   0  -2   5  301.01    6.17 
   0  -2  -5  308.90    6.11 
   0   2  -5  313.31    6.16 
   0   2  -5  300.65    6.16 
  -2  -2  -5    2.97    0.13 
   2  -2   5    2.71    0.15 
   2  -2   5    2.57    0.14 
  -2  -2  -5    2.78    0.14 
  -2   2  -5    2.60    0.15 
   2   2   5    2.61    0.11 
  -2   2  -5    2.54    0.14 
   4  -2   5    9.71    0.36 
  -4  -2  -5   10.48    0.36 
  -4  -2  -5   10.46    0.39 
  -4  -2  -5    9.91    0.36 
   4  -2   5   10.48    0.36 
  -4   2  -5   10.94    0.38 
   4   2   5    9.85    0.32 
  -4   2  -5    9.94    0.34 
  -4   2  -5    9.84    0.34 
  -6  -2  -5    5.53    0.31 
   6  -2   5    5.73    0.31 
  -6  -2  -5    5.61    0.30 
   6  -2   5    5.38    0.28 
  -6  -2  -5    5.25    0.32 
  -6   2  -5    5.33    0.29 
  -6   2  -5    5.65    0.31 
  -6   2  -5    5.50    0.27 
   6   2   5    5.67    0.27 
  -8  -2  -5   -0.15    0.07 
   8  -2   5   -0.05    0.07 
   8  -2   5   -0.13    0.09 
  -8  -2  -5   -0.14    0.10 
  -8  -2  -5    0.06    0.13 
  -8   2  -5   -0.13    0.10 
  -8   2  -5    0.07    0.09 
 -10  -2  -5    8.88    0.52 
 -10  -2  -5    8.92    0.55 
 -10   2  -5    9.18    0.52 
 -10   2  -5    8.55    0.48 
 -12  -2  -5    0.40    0.23 
 -12  -2  -5    0.36    0.20 
 -12   2  -5    0.33    0.20 
 -12   2  -5    0.37    0.20 
 -14  -2  -5    0.72    0.26 
 -14  -2  -5    0.41    0.25 
 -14   2  -5    0.17    0.20 
 -14   2  -5    0.80    0.22 
 -16  -2  -5   -0.03    0.20 
 -16  -2  -5   -0.10    0.18 
 -16   2  -5    0.00    0.18 
 -16   2  -5    0.36    0.23 
 -18  -2  -5    0.28    0.25 
 -18   2  -5    0.18    0.29 
 -17  -3   5   -0.08    0.27 
 -17  -3   5   -0.11    0.24 
 -15  -3   5    0.60    0.28 
 -15  -3   5    0.26    0.25 
 -15   3   5    0.67    0.23 
 -13  -3   5    0.09    0.20 
 -13  -3   5    0.05    0.20 
 -13   3   5   -0.05    0.18 
 -11  -3   5   -0.38    0.20 
 -11  -3   5    0.02    0.18 
 -11   3   5   -0.24    0.12 
   9  -3  -5    1.36    0.18 
  -9  -3   5    1.14    0.23 
  -9  -3   5    1.28    0.23 
   9  -3  -5    1.04    0.18 
  -9   3   5    1.41    0.19 
  -7  -3   5    0.04    0.10 
  -7  -3   5   -0.14    0.08 
   7  -3  -5   -0.03    0.05 
   7  -3  -5   -0.01    0.06 
   7   3  -5    0.15    0.10 
  -7   3   5    0.07    0.07 
   5  -3  -5    0.00    0.05 
  -5  -3   5    0.01    0.07 
   5  -3  -5    0.04    0.05 
  -5  -3   5   -0.03    0.07 
  -5   3   5   -0.01    0.04 
  -5   3   5    0.09    0.04 
   5   3  -5    0.04    0.06 
   5   3  -5   -0.04    0.06 
  -3  -3   5   -0.03    0.05 
   3  -3  -5    0.13    0.05 
   3   3  -5   -0.05    0.05 
   3   3  -5    0.04    0.04 
   3   3  -5    0.08    0.05 
   1  -3  -5   16.27    0.36 
  -1  -3   5   16.12    0.45 
  -1  -3   5   16.23    0.43 
   1   3  -5   15.94    0.43 
   1   3  -5   15.68    0.43 
   1   3  -5   16.16    0.41 
   1  -3   5  146.61    3.03 
   1  -3   5  143.81    3.05 
  -1  -3  -5  145.44    2.97 
  -1   3  -5  145.63    3.02 
  -1   3  -5  145.22    3.01 
  -3  -3  -5    0.01    0.07 
  -3  -3  -5   -0.14    0.04 
   3  -3   5   -0.02    0.05 
   3  -3   5   -0.10    0.04 
  -3   3  -5   -0.04    0.04 
  -3   3  -5    0.07    0.05 
   3   3   5   -0.01    0.03 
  -3   3  -5   -0.12    0.05 
   5  -3   5   25.49    0.73 
   5  -3   5   24.91    0.71 
  -5  -3  -5   24.99    0.72 
  -5  -3  -5   24.72    0.77 
   5   3   5   24.04    0.65 
  -5   3  -5   26.11    0.69 
  -5   3  -5   24.68    0.72 
  -5   3  -5   24.83    0.68 
   7  -3   5    3.46    0.26 
   7  -3   5    3.83    0.29 
  -7  -3  -5    3.43    0.30 
  -7  -3  -5    3.86    0.31 
  -7   3  -5    4.16    0.26 
  -7   3  -5    4.08    0.30 
   9  -3   5    2.12    0.26 
  -9  -3  -5    1.69    0.27 
  -9  -3  -5    1.50    0.25 
  -9   3  -5    1.60    0.22 
  -9   3  -5    1.71    0.26 
 -11  -3  -5    1.00    0.28 
 -11  -3  -5    1.03    0.27 
 -11   3  -5    1.31    0.27 
 -11   3  -5    0.98    0.24 
 -13  -3  -5    1.10    0.31 
 -13  -3  -5    0.56    0.25 
 -13   3  -5    1.08    0.28 
 -13   3  -5    0.41    0.19 
 -15  -3  -5   -0.17    0.20 
 -15  -3  -5    0.24    0.25 
 -15   3  -5    0.21    0.18 
 -15   3  -5   -0.09    0.19 
 -17  -3  -5    0.14    0.26 
 -17  -3  -5    0.96    0.35 
 -17   3  -5    0.14    0.22 
 -16  -4   5   -0.18    0.22 
 -16  -4   5   -0.13    0.26 
 -14  -4   5   -0.10    0.21 
 -14  -4   5   -0.13    0.20 
 -14   4   5   -0.23    0.14 
 -12  -4   5    0.25    0.25 
 -12  -4   5    0.22    0.23 
 -12   4   5    0.29    0.17 
  10  -4  -5    4.57    0.34 
 -10  -4   5    4.60    0.42 
 -10  -4   5    4.38    0.41 
 -10   4   5    4.67    0.31 
  -8  -4   5    0.29    0.16 
   8  -4  -5    0.20    0.08 
  -8  -4   5    0.22    0.15 
   8  -4  -5    0.08    0.09 
  -8   4   5    0.23    0.08 
   6  -4  -5    3.09    0.21 
  -6  -4   5    3.27    0.25 
   6  -4  -5    3.19    0.20 
  -6  -4   5    3.42    0.27 
   6   4  -5    3.61    0.26 
  -6   4   5    3.24    0.14 
  -6   4   5    3.12    0.14 
  -4  -4   5   17.77    0.56 
   4  -4  -5   17.62    0.49 
  -4  -4   5   17.64    0.56 
   4  -4  -5   16.73    0.49 
   4   4  -5   18.15    0.57 
   4   4  -5   17.44    0.48 
   4   4  -5   18.28    0.52 
  -2  -4   5   11.12    0.37 
   2  -4  -5   11.24    0.28 
   2   4  -5   11.23    0.33 
   2   4  -5   11.23    0.36 
   0  -4   5   29.13    0.71 
   0  -4   5   29.02    0.72 
   0   4  -5   28.44    0.65 
   0   4  -5   29.45    0.66 
   0   4  -5   29.32    0.65 
   2  -4   5   58.19    1.33 
   2  -4   5   56.28    1.30 
  -2  -4  -5   56.78    1.35 
  -2  -4  -5   57.44    1.25 
  -2   4  -5   59.39    1.25 
   4  -4   5   43.07    1.09 
  -4  -4  -5   44.77    1.16 
   4  -4   5   43.76    1.07 
  -4  -4  -5   42.66    1.07 
  -4   4  -5   44.16    1.03 
   4   4   5   44.03    0.95 
  -4   4  -5   42.91    0.99 
  -4   4  -5   43.47    1.05 
  -6  -4  -5    9.72    0.43 
   6  -4   5    9.04    0.39 
  -6  -4  -5    9.46    0.47 
   6  -4   5    9.34    0.42 
  -6   4  -5    8.91    0.35 
  -6   4  -5    9.45    0.39 
   8  -4   5    2.72    0.27 
  -8  -4  -5    3.32    0.36 
   8  -4   5    2.22    0.27 
  -8  -4  -5    2.40    0.30 
  -8   4  -5    2.55    0.27 
  -8   4  -5    2.75    0.23 
 -10  -4  -5    1.94    0.34 
 -10  -4  -5    1.37    0.27 
 -10   4  -5    2.14    0.28 
 -10   4  -5    1.97    0.25 
 -12  -4  -5    0.44    0.27 
 -12  -4  -5   -0.11    0.20 
 -12   4  -5   -0.01    0.15 
 -12   4  -5    0.13    0.17 
 -14  -4  -5   -0.09    0.24 
 -14  -4  -5   -0.02    0.20 
 -14   4  -5    0.14    0.21 
 -14   4  -5    0.26    0.18 
 -16  -4  -5   -0.11    0.26 
 -16  -4  -5    0.06    0.24 
 -16   4  -5   -0.14    0.16 
 -15  -5   5    0.12    0.27 
 -15  -5   5    0.18    0.25 
 -13  -5   5    0.95    0.30 
 -13  -5   5    0.02    0.22 
 -11  -5   5   -0.47    0.19 
 -11  -5   5   -0.18    0.17 
 -11   5   5   -0.07    0.11 
   9  -5  -5    2.14    0.26 
  -9  -5   5    1.64    0.27 
  -9  -5   5    1.69    0.27 
   9  -5  -5    1.96    0.21 
  -9   5   5    1.55    0.16 
   7  -5  -5    4.86    0.26 
   7  -5  -5    4.79    0.29 
  -7  -5   5    4.99    0.34 
  -7  -5   5    4.65    0.33 
   7   5  -5    4.72    0.25 
   5  -5  -5    0.11    0.06 
  -5  -5   5    0.29    0.11 
  -5  -5   5    0.03    0.09 
   5  -5  -5    0.06    0.06 
   5   5  -5    0.16    0.09 
   5   5  -5    0.13    0.10 
   3  -5  -5    0.06    0.04 
  -3  -5   5    0.06    0.07 
   3   5  -5    0.06    0.07 
   3   5  -5    0.10    0.04 
   3   5  -5    0.13    0.03 
  -1  -5   5    1.91    0.13 
  -1  -5   5    2.25    0.16 
   1   5  -5    1.83    0.11 
  -1  -5  -5   17.22    0.51 
   1  -5   5   16.80    0.47 
   1  -5   5   16.68    0.50 
  -1  -5  -5   16.29    0.39 
  -3  -5  -5    2.31    0.16 
   3  -5   5    1.88    0.15 
   3  -5   5    1.98    0.16 
  -3  -5  -5    2.16    0.22 
  -3   5  -5    2.05    0.08 
  -3   5  -5    1.85    0.09 
   5  -5   5    3.24    0.23 
   5  -5   5    3.41    0.21 
  -5  -5  -5    3.08    0.23 
  -5  -5  -5    2.97    0.27 
  -5   5  -5    3.27    0.19 
  -5   5  -5    2.32    0.16 
  -5   5  -5    3.02    0.14 
   7  -5   5    0.65    0.17 
   7  -5   5    0.52    0.12 
  -7  -5  -5    0.43    0.17 
  -7  -5  -5    0.33    0.16 
  -7   5  -5    0.32    0.11 
  -7   5  -5    0.45    0.11 
  -9  -5  -5    0.51    0.20 
   9  -5   5    0.78    0.17 
  -9  -5  -5    0.52    0.22 
  -9   5  -5    0.83    0.16 
  -9   5  -5    0.72    0.17 
 -11  -5  -5    0.84    0.27 
 -11  -5  -5    0.30    0.27 
 -11   5  -5    0.49    0.17 
 -11   5  -5    0.72    0.20 
 -13  -5  -5    0.22    0.23 
 -13  -5  -5    0.12    0.24 
 -13   5  -5   -0.06    0.13 
 -15  -5  -5    0.25    0.26 
 -15  -5  -5   -0.16    0.21 
 -15   5  -5    0.13    0.18 
 -14  -6   5    0.34    0.26 
 -14  -6   5    0.67    0.31 
 -12  -6   5    0.46    0.23 
 -12  -6   5    0.36    0.25 
 -10  -6   5    4.89    0.47 
 -10  -6   5    3.79    0.42 
   8  -6  -5    2.24    0.20 
  -8  -6   5    2.46    0.31 
  -8  -6   5    2.31    0.30 
   8  -6  -5    2.29    0.28 
   8   6  -5    2.16    0.17 
   6  -6  -5    8.99    0.38 
  -6  -6   5    9.89    0.46 
   6  -6  -5    9.28    0.34 
  -6  -6   5    9.23    0.45 
   6   6  -5    9.05    0.29 
   6   6  -5    8.36    0.42 
  -4  -6   5   23.30    0.72 
   4  -6  -5   22.25    0.59 
   4  -6  -5   23.82    0.62 
   4   6  -5   23.44    0.69 
  -2  -6   5    2.03    0.18 
   2   6  -5    2.44    0.15 
   0  -6   5    1.80    0.16 
   0  -6  -5    1.46    0.15 
   0  -6   5    1.58    0.14 
   2  -6   5    9.24    0.36 
  -2  -6  -5    8.75    0.39 
   2  -6   5    8.60    0.33 
  -2  -6  -5    9.15    0.30 
   4  -6   5    0.32    0.09 
  -4  -6  -5    0.35    0.12 
   4  -6   5    0.38    0.11 
  -4  -6  -5    0.18    0.14 
   6  -6   5    3.38    0.28 
   6  -6   5    3.16    0.23 
  -6  -6  -5    3.07    0.28 
  -6  -6  -5    3.65    0.36 
  -6   6  -5    3.46    0.16 
  -6   6  -5    3.01    0.14 
   8  -6   5    3.89    0.35 
  -8  -6  -5    3.59    0.38 
  -8  -6  -5    4.07    0.41 
  -8   6  -5    3.78    0.25 
 -10  -6  -5    0.26    0.25 
 -10  -6  -5   -0.05    0.18 
 -12  -6  -5    0.01    0.19 
 -12  -6  -5    0.10    0.26 
 -14  -6  -5    0.52    0.29 
 -14  -6  -5    0.10    0.24 
 -13  -7   5    0.61    0.29 
 -13  -7   5    0.05    0.27 
 -11  -7   5    0.67    0.27 
 -11  -7   5    0.86    0.28 
  -9  -7   5    0.23    0.19 
  -9  -7   5    0.01    0.17 
  -7  -7   5    1.73    0.25 
  -7  -7   5    1.49    0.25 
  -5  -7   5    0.20    0.13 
   5  -7  -5    0.24    0.10 
   5  -7  -5    0.16    0.05 
   5   7  -5    0.35    0.13 
   3  -7  -5    0.64    0.09 
   3  -7  -5    0.83    0.07 
  -3  -7   5    0.76    0.15 
  -1  -7   5    2.99    0.22 
   1  -7  -5    3.18    0.18 
  -1  -7   5    3.88    0.21 
   1  -7   5   -0.01    0.08 
  -1  -7  -5   -0.13    0.06 
  -1  -7  -5   -0.09    0.08 
   1  -7   5    0.12    0.07 
   3  -7   5    0.49    0.10 
  -3  -7  -5    0.63    0.12 
  -3  -7  -5    0.61    0.15 
   3  -7   5    0.62    0.14 
  -5  -7  -5    0.91    0.18 
   5  -7   5    0.81    0.16 
  -5  -7  -5    0.85    0.21 
   7  -7   5    0.04    0.13 
  -7  -7  -5    0.21    0.18 
  -7  -7  -5    0.06    0.16 
  -9  -7  -5    0.12    0.18 
  -9  -7  -5    0.11    0.20 
 -11  -7  -5    0.02    0.24 
 -11  -7  -5    0.20    0.21 
 -13  -7  -5    0.13    0.28 
 -13  -7  -5    0.48    0.26 
 -12  -8   5    0.23    0.28 
 -12  -8   5    0.52    0.29 
 -10  -8   5    0.40    0.23 
 -10  -8   5   -0.34    0.19 
  -8  -8   5    0.29    0.17 
  -6  -8   5    0.16    0.13 
  -4  -8   5    0.97    0.17 
  -2  -8   5    1.90    0.20 
   0  -8  -5    0.03    0.07 
   0  -8   5   -0.08    0.08 
  -2  -8  -5    0.12    0.11 
   2  -8   5    0.23    0.10 
  -2  -8  -5    0.12    0.08 
  -4  -8  -5    0.08    0.10 
   4  -8   5    0.04    0.10 
  -4  -8  -5    0.30    0.14 
  -6  -8  -5    0.30    0.15 
   6  -8   5    0.20    0.14 
  -6  -8  -5    0.39    0.18 
   8  -8   5    1.12    0.24 
  -8  -8  -5    1.42    0.28 
  -8  -8  -5    1.86    0.33 
 -10  -8  -5   -0.11    0.16 
 -10  -8  -5    0.47    0.26 
 -12  -8  -5   -0.11    0.22 
 -12  -8  -5    0.21    0.28 
  -9  -9   5   -0.04    0.18 
  -7  -9   5    0.35    0.18 
  -5  -9   5    1.25    0.22 
  -3  -9   5    0.13    0.11 
  -1  -9   5    0.95    0.17 
   1  -9   5    1.13    0.19 
  -3  -9  -5    0.98    0.16 
   3  -9   5    1.27    0.19 
   5  -9   5    0.15    0.14 
  -5  -9  -5    0.41    0.16 
   7  -9   5    0.04    0.16 
  -7  -9  -5   -0.15    0.24 
  -7  -9  -5    0.06    0.17 
  -9  -9  -5    0.27    0.22 
  -9  -9  -5    0.30    0.24 
  -6 -10   5    0.10    0.15 
  -4 -10   5    0.07    0.12 
  -2 -10   5    0.10    0.12 
   0 -10   5    0.41    0.13 
   2 -10   5    0.28    0.13 
   4 -10   5    0.06    0.14 
  -4 -10  -5    0.16    0.13 
   6 -10   5   -0.25    0.14 
  -6 -10  -5   -0.15    0.15 
 -18   0   6    0.06    0.23 
 -18   0   6    0.57    0.30 
 -16   0   6    0.61    0.26 
 -16   0   6    0.00    0.21 
 -14   0   6    3.57    0.42 
 -14   0   6    3.34    0.42 
 -12   0   6   35.49    1.20 
 -12   0   6   35.90    1.18 
 -10   0   6    1.10    0.22 
 -10   0   6    1.20    0.22 
  -8   0   6  157.74    3.54 
   8   0  -6  156.35    3.56 
  -8   0   6  161.40    3.56 
   8   0  -6  163.34    3.57 
   6   0  -6   85.94    1.98 
  -6   0   6   85.03    1.97 
   6   0  -6   82.21    1.95 
  -6   0   6   86.18    1.95 
   4   0  -6   82.42    1.81 
  -4   0   6   80.71    1.80 
   4   0  -6   80.07    1.81 
   2   0  -6  255.90    5.32 
  -2   0   6  264.44    5.32 
   0   0   6   92.34    1.99 
   0   0  -6   94.68    1.99 
   0   0  -6   95.11    1.99 
   0   0   6   95.56    1.99 
  -2   0  -6   85.12    1.84 
  -2   0  -6   86.72    1.85 
   2   0   6   85.16    1.83 
   2   0   6   85.61    1.86 
   4   0   6    5.12    0.23 
  -4   0  -6    5.28    0.25 
  -4   0  -6    5.04    0.24 
   4   0   6    5.23    0.25 
  -6   0  -6   66.26    1.64 
  -6   0  -6   68.46    1.61 
  -6   0  -6   66.01    1.64 
   6   0   6   70.71    1.61 
  -8   0  -6   11.14    0.52 
  -8   0  -6   10.51    0.50 
 -10   0  -6    5.01    0.41 
 -10   0  -6    5.78    0.40 
 -12   0  -6    6.34    0.49 
 -12   0  -6    6.41    0.49 
 -14   0  -6    1.12    0.29 
 -14   0  -6    1.02    0.27 
 -16   0  -6    0.04    0.19 
 -16   0  -6    0.16    0.22 
 -18   0  -6    0.05    0.24 
 -18   0  -6    0.16    0.22 
 -17  -1   6    0.30    0.26 
 -17  -1   6   -0.31    0.20 
 -17   1   6    0.19    0.23 
 -17   1   6    0.78    0.28 
 -15  -1   6    0.16    0.19 
 -15  -1   6    0.28    0.24 
 -15   1   6    0.07    0.20 
 -15   1   6    0.38    0.21 
 -13  -1   6   10.29    0.62 
 -13  -1   6   11.13    0.65 
 -13   1   6   10.75    0.61 
 -13   1   6   11.63    0.64 
 -11  -1   6    0.38    0.20 
 -11  -1   6    0.14    0.20 
 -11   1   6    0.05    0.15 
 -11   1   6   -0.10    0.15 
  -9  -1   6    0.01    0.13 
  -9  -1   6    0.10    0.14 
   9  -1  -6    0.31    0.13 
  -9   1   6    0.11    0.13 
  -9   1   6    0.17    0.14 
   7  -1  -6   11.23    0.46 
   7  -1  -6   11.94    0.46 
  -7  -1   6   11.23    0.47 
  -7   1   6   11.31    0.45 
   7   1  -6   10.48    0.46 
   7   1  -6   10.74    0.46 
   5  -1  -6   19.48    0.58 
   5  -1  -6   19.62    0.58 
  -5  -1   6   18.69    0.58 
  -5  -1   6   18.31    0.59 
   5   1  -6   19.19    0.60 
  -5   1   6   19.03    0.55 
   5   1  -6   19.17    0.59 
   3  -1  -6  168.68    3.52 
  -3  -1   6  172.43    3.54 
   3   1  -6  168.34    3.55 
   3   1  -6  166.67    3.54 
  -3   1   6  168.19    3.50 
  -1  -1   6  363.25    7.18 
  -1  -1   6  345.19    7.17 
   1  -1  -6  350.10    7.32 
  -1   1   6  353.02    7.32 
   1   1  -6  354.12    7.17 
   1   1  -6  352.61    7.17 
  -1  -1  -6    3.77    0.15 
  -1  -1  -6    3.67    0.15 
   1  -1   6    3.60    0.17 
   1  -1   6    3.61    0.16 
   1   1   6    3.65    0.14 
  -1   1  -6    3.35    0.15 
   1   1   6    3.46    0.15 
   3  -1   6    1.88    0.13 
  -3  -1  -6    1.98    0.13 
   3  -1   6    2.04    0.14 
   3   1   6    2.15    0.15 
  -3   1  -6    1.86    0.14 
  -3   1  -6    2.08    0.13 
   3   1   6    1.96    0.12 
  -5  -1  -6    1.92    0.16 
   5  -1   6    2.04    0.18 
  -5  -1  -6    2.04    0.18 
   5  -1   6    2.40    0.17 
  -5  -1  -6    2.25    0.20 
  -5   1  -6    1.99    0.18 
  -5   1  -6    2.08    0.16 
   5   1   6    2.18    0.16 
  -5   1  -6    2.11    0.18 
  -7  -1  -6   76.58    1.89 
  -7  -1  -6   75.06    1.84 
  -7  -1  -6   79.02    1.92 
   7  -1   6   80.16    1.86 
  -7   1  -6   77.28    1.87 
  -7   1  -6   76.70    1.89 
  -9  -1  -6    0.26    0.17 
  -9  -1  -6    0.17    0.14 
  -9   1  -6    0.10    0.13 
  -9   1  -6    0.29    0.15 
 -11  -1  -6    2.07    0.34 
 -11  -1  -6    2.23    0.33 
 -11   1  -6    2.56    0.32 
 -11   1  -6    2.49    0.35 
 -13  -1  -6    0.24    0.21 
 -13  -1  -6   -0.38    0.15 
 -13   1  -6    0.20    0.21 
 -13   1  -6   -0.14    0.13 
 -15  -1  -6   -0.24    0.16 
 -15  -1  -6    0.22    0.23 
 -15   1  -6    0.12    0.20 
 -15   1  -6   -0.04    0.16 
 -17  -1  -6    0.54    0.30 
 -17  -1  -6    0.17    0.24 
 -17   1  -6    0.51    0.25 
 -17   1  -6    0.58    0.28 
 -18  -2   6   -0.61    0.19 
 -18  -2   6   -0.09    0.29 
 -18   2   6   -0.10    0.20 
 -16  -2   6   -0.16    0.24 
 -16  -2   6   -0.14    0.22 
 -16   2   6    0.11    0.22 
 -14  -2   6    0.36    0.24 
 -14  -2   6    0.78    0.28 
 -14   2   6    0.34    0.22 
 -12  -2   6    7.27    0.55 
 -12  -2   6    7.05    0.51 
 -12   2   6    6.35    0.46 
 -10  -2   6    8.02    0.49 
  10  -2  -6    7.66    0.45 
 -10  -2   6    6.96    0.45 
 -10   2   6    7.18    0.42 
   8  -2  -6    6.15    0.34 
  -8  -2   6    6.19    0.37 
   8  -2  -6    6.20    0.34 
  -8  -2   6    6.28    0.38 
  -8   2   6    6.41    0.33 
   6  -2  -6   12.91    0.46 
  -6  -2   6   12.42    0.48 
   6  -2  -6   12.53    0.46 
  -6  -2   6   12.89    0.49 
  -6   2   6   13.08    0.43 
   6   2  -6   13.10    0.48 
   6   2  -6   12.67    0.49 
  -4  -2   6    0.38    0.09 
   4  -2  -6    0.40    0.08 
   4   2  -6    0.29    0.08 
  -4   2   6    0.27    0.06 
   4   2  -6    0.38    0.09 
   2  -2  -6  153.90    3.21 
  -2  -2   6  157.05    3.27 
   2   2  -6  155.38    3.26 
   2   2  -6  154.56    3.24 
   2   2  -6  158.44    3.27 
   0  -2   6   61.98    1.35 
   0  -2  -6   62.02    1.30 
   0  -2  -6   61.78    1.30 
   0  -2   6   60.29    1.35 
   0   2  -6   60.30    1.34 
   0   2  -6   62.02    1.34 
   2  -2   6   17.73    0.48 
   2  -2   6   17.66    0.49 
  -2  -2  -6   17.09    0.46 
  -2  -2  -6   17.48    0.47 
   2   2   6   17.85    0.44 
  -2   2  -6   18.02    0.49 
  -2   2  -6   17.54    0.48 
  -4  -2  -6    0.55    0.09 
   4  -2   6    0.48    0.10 
  -4  -2  -6    0.57    0.11 
   4  -2   6    0.71    0.10 
  -4  -2  -6    0.59    0.10 
  -4   2  -6    0.66    0.12 
  -4   2  -6    0.58    0.09 
   4   2   6    0.63    0.08 
  -4   2  -6    0.73    0.10 
   6  -2   6    3.14    0.22 
  -6  -2  -6    2.61    0.23 
  -6  -2  -6    2.51    0.21 
   6  -2   6    2.48    0.22 
  -6  -2  -6    2.74    0.25 
  -6   2  -6    2.64    0.21 
   6   2   6    2.60    0.19 
  -6   2  -6    2.67    0.23 
  -8  -2  -6    5.70    0.38 
  -8  -2  -6    5.82    0.34 
   8  -2   6    5.95    0.34 
  -8  -2  -6    6.97    0.42 
  -8   2  -6    5.83    0.37 
  -8   2  -6    5.67    0.34 
 -10  -2  -6    4.90    0.40 
 -10  -2  -6    5.28    0.44 
 -10   2  -6    5.01    0.41 
 -10   2  -6    4.83    0.37 
 -12  -2  -6    3.63    0.43 
 -12  -2  -6    3.88    0.43 
 -12   2  -6    3.68    0.41 
 -12   2  -6    4.75    0.42 
 -14  -2  -6    0.23    0.22 
 -14  -2  -6    0.19    0.21 
 -14   2  -6    0.45    0.20 
 -14   2  -6   -0.23    0.17 
 -16  -2  -6   -0.18    0.21 
 -16  -2  -6   -0.09    0.23 
 -16   2  -6    0.10    0.22 
 -16   2  -6   -0.01    0.17 
 -17  -3   6   -0.12    0.25 
 -17  -3   6   -0.59    0.17 
 -15  -3   6   -0.12    0.21 
 -15  -3   6    0.17    0.22 
 -15   3   6   -0.02    0.18 
 -13  -3   6    0.35    0.22 
 -13  -3   6    0.29    0.24 
 -13   3   6    0.33    0.20 
 -11  -3   6   -0.26    0.20 
 -11  -3   6    0.41    0.20 
 -11   3   6    0.29    0.16 
   9  -3  -6    3.35    0.28 
  -9  -3   6    3.64    0.34 
   9  -3  -6    3.02    0.25 
  -9  -3   6    3.40    0.32 
  -9   3   6    3.52    0.26 
   7  -3  -6    2.81    0.21 
  -7  -3   6    2.92    0.25 
   7  -3  -6    3.00    0.22 
  -7  -3   6    3.29    0.27 
   7   3  -6    2.64    0.25 
  -7   3   6    2.93    0.19 
   5  -3  -6    0.25    0.07 
  -5  -3   6    0.09    0.08 
   5  -3  -6    0.13    0.06 
  -5  -3   6    0.03    0.07 
  -5   3   6    0.17    0.05 
  -5   3   6    0.13    0.05 
   5   3  -6    0.05    0.08 
   5   3  -6    0.04    0.06 
  -3  -3   6    0.12    0.07 
   3  -3  -6    0.11    0.04 
   3   3  -6    0.08    0.06 
   3   3  -6    0.16    0.06 
   3   3  -6    0.32    0.08 
   1  -3  -6  145.89    2.95 
  -1  -3   6  141.11    3.03 
  -1  -3   6  142.37    3.04 
   1   3  -6  147.54    3.01 
   1   3  -6  144.43    3.02 
   1   3  -6  146.32    3.03 
  -1  -3  -6   13.80    0.36 
  -1  -3  -6   13.34    0.34 
   1  -3   6   13.58    0.41 
   1  -3   6   13.25    0.39 
  -1   3  -6   13.09    0.38 
  -1   3  -6   13.66    0.39 
  -3  -3  -6   12.12    0.38 
  -3  -3  -6   12.09    0.39 
   3  -3   6   11.89    0.41 
   3  -3   6   12.12    0.39 
  -3  -3  -6   12.09    0.43 
  -3   3  -6   11.99    0.38 
   3   3   6   11.92    0.32 
  -3   3  -6   12.13    0.35 
  -3   3  -6   12.44    0.40 
   5  -3   6    8.17    0.36 
  -5  -3  -6    8.16    0.39 
   5  -3   6    7.49    0.33 
  -5  -3  -6    7.87    0.35 
   5   3   6    8.13    0.29 
  -5   3  -6    7.85    0.32 
  -5   3  -6    7.67    0.32 
  -5   3  -6    8.09    0.35 
   7  -3   6   12.56    0.54 
   7  -3   6   12.23    0.50 
  -7  -3  -6   10.86    0.49 
  -7  -3  -6   11.41    0.52 
  -7  -3  -6   12.30    0.55 
  -7   3  -6   12.28    0.51 
  -7   3  -6   12.59    0.49 
  -9  -3  -6    1.64    0.29 
  -9  -3  -6    1.92    0.25 
  -9  -3  -6    1.30    0.25 
  -9   3  -6    1.56    0.24 
  -9   3  -6    1.64    0.23 
 -11  -3  -6    1.35    0.30 
 -11  -3  -6    1.68    0.33 
 -11   3  -6    1.77    0.29 
 -11   3  -6    1.97    0.29 
 -13  -3  -6    0.18    0.23 
 -13  -3  -6    0.42    0.25 
 -13   3  -6    0.22    0.17 
 -13   3  -6   -0.02    0.19 
 -15  -3  -6   -0.28    0.24 
 -15  -3  -6    0.21    0.25 
 -15   3  -6    0.12    0.19 
 -15   3  -6    0.05    0.21 
 -17  -3  -6    0.52    0.29 
 -17  -3  -6    0.17    0.29 
 -17   3  -6    0.27    0.24 
 -16  -4   6   -0.21    0.27 
 -16  -4   6   -0.39    0.18 
 -14  -4   6   -0.48    0.16 
 -14  -4   6   -0.21    0.21 
 -14   4   6   -0.09    0.18 
 -12  -4   6    0.31    0.23 
 -12  -4   6    0.52    0.26 
 -12   4   6    0.06    0.16 
 -10  -4   6    1.13    0.26 
 -10  -4   6    1.07    0.26 
  10  -4  -6    1.23    0.23 
 -10   4   6    1.07    0.17 
  -8  -4   6    0.00    0.12 
  -8  -4   6   -0.19    0.10 
   8  -4  -6    0.07    0.09 
   8  -4  -6    0.05    0.07 
  -8   4   6   -0.01    0.07 
   6  -4  -6    1.25    0.15 
  -6  -4   6    1.01    0.17 
   6  -4  -6    1.16    0.15 
  -6  -4   6    1.01    0.18 
  -6   4   6    1.00    0.08 
   6   4  -6    1.02    0.18 
  -6   4   6    1.09    0.08 
  -4  -4   6    1.64    0.18 
   4  -4  -6    1.64    0.13 
   4   4  -6    1.72    0.13 
   4   4  -6    1.79    0.17 
   4   4  -6    1.41    0.17 
   2  -4  -6   20.42    0.48 
  -2  -4   6   20.34    0.58 
   2   4  -6   20.71    0.57 
   2   4  -6   20.99    0.55 
   0  -4   6    4.26    0.21 
   0  -4  -6    4.30    0.13 
   0  -4   6    4.16    0.19 
   0   4  -6    3.87    0.16 
   0   4  -6    4.29    0.17 
  -2  -4  -6   17.65    0.46 
   2  -4   6   17.98    0.53 
  -2  -4  -6   18.15    0.56 
   2  -4   6   17.41    0.50 
  -2   4  -6   18.58    0.48 
  -2   4  -6   17.59    0.42 
  -4  -4  -6    0.54    0.11 
   4  -4   6    0.57    0.11 
   4  -4   6    0.51    0.10 
  -4  -4  -6    0.72    0.15 
  -4   4  -6    0.29    0.08 
  -4   4  -6    0.66    0.10 
  -4   4  -6    0.49    0.11 
   4   4   6    0.72    0.06 
  -6  -4  -6    7.63    0.39 
  -6  -4  -6    8.75    0.45 
   6  -4   6    7.81    0.36 
   6  -4   6    7.98    0.39 
  -6   4  -6    8.02    0.37 
  -6   4  -6    7.35    0.32 
  -8  -4  -6    0.11    0.15 
  -8  -4  -6   -0.28    0.12 
   8  -4   6    0.02    0.13 
   8  -4   6    0.20    0.10 
  -8   4  -6    0.15    0.10 
  -8   4  -6    0.20    0.13 
 -10  -4  -6    1.44    0.32 
 -10  -4  -6    1.71    0.30 
 -10   4  -6    1.65    0.27 
 -10   4  -6    1.45    0.23 
 -12  -4  -6    0.20    0.23 
 -12  -4  -6    0.19    0.22 
 -12   4  -6    0.19    0.16 
 -12   4  -6    0.25    0.19 
 -14  -4  -6    0.15    0.21 
 -14  -4  -6    0.26    0.27 
 -14   4  -6    0.21    0.20 
 -14   4  -6    0.21    0.18 
 -16  -4  -6   -0.14    0.24 
 -16  -4  -6    0.15    0.26 
 -16   4  -6   -0.17    0.17 
 -15  -5   6   -0.36    0.19 
 -15  -5   6   -0.29    0.24 
 -13  -5   6    0.08    0.24 
 -13  -5   6    0.01    0.22 
 -11  -5   6    0.46    0.23 
 -11  -5   6    0.50    0.25 
 -11   5   6    0.94    0.18 
   9  -5  -6    1.39    0.21 
   9  -5  -6    1.73    0.20 
  -9  -5   6    1.88    0.29 
  -9  -5   6    1.35    0.25 
  -9   5   6    1.72    0.16 
  -7  -5   6    0.48    0.16 
   7  -5  -6    0.73    0.14 
  -7  -5   6    0.75    0.18 
   7  -5  -6    0.31    0.10 
   7   5  -6    0.59    0.11 
   5  -5  -6    0.03    0.05 
  -5  -5   6   -0.01    0.08 
  -5  -5   6    0.04    0.09 
   5  -5  -6    0.00    0.05 
   5   5  -6   -0.05    0.08 
   5   5  -6    0.06    0.05 
   3  -5  -6    0.11    0.04 
  -3  -5   6    0.09    0.07 
   3   5  -6    0.09    0.05 
   3   5  -6    0.04    0.06 
   3   5  -6    0.12    0.04 
  -1  -5   6    5.65    0.24 
  -1  -5   6    5.79    0.26 
   1   5  -6    5.53    0.21 
   1  -5   6   11.28    0.37 
   1  -5   6   11.40    0.39 
  -1  -5  -6   10.89    0.29 
  -1  -5  -6   11.59    0.40 
   3  -5   6    0.31    0.09 
  -3  -5  -6    0.21    0.11 
   3  -5   6    0.19    0.07 
  -3  -5  -6    0.22    0.08 
  -3   5  -6    0.29    0.06 
  -3   5  -6    0.32    0.07 
  -5  -5  -6    0.09    0.11 
  -5  -5  -6    0.05    0.09 
   5  -5   6    0.09    0.07 
   5  -5   6    0.06    0.08 
  -5   5  -6    0.03    0.04 
  -5   5  -6   -0.12    0.05 
   7  -5   6    0.73    0.15 
   7  -5   6    0.67    0.17 
  -7  -5  -6    0.44    0.17 
  -7  -5  -6    0.61    0.18 
  -7   5  -6    0.63    0.12 
  -7   5  -6    0.54    0.13 
   9  -5   6    0.31    0.13 
  -9  -5  -6    0.25    0.20 
  -9  -5  -6    0.17    0.18 
   9  -5   6    0.39    0.18 
  -9   5  -6    0.25    0.14 
  -9   5  -6    0.18    0.12 
 -11  -5  -6   -0.22    0.18 
 -11  -5  -6    0.12    0.20 
 -11   5  -6    0.00    0.14 
 -11   5  -6    0.00    0.13 
 -13  -5  -6    0.23    0.23 
 -13  -5  -6   -0.02    0.24 
 -13   5  -6   -0.05    0.13 
 -15  -5  -6   -0.07    0.29 
 -15  -5  -6    0.10    0.23 
 -15   5  -6   -0.04    0.15 
 -14  -6   6   -0.27    0.25 
 -14  -6   6   -0.06    0.22 
 -12  -6   6    1.97    0.37 
 -12  -6   6    1.29    0.32 
 -10  -6   6    1.92    0.33 
 -10  -6   6    1.75    0.32 
  10   6  -6    1.82    0.32 
   8  -6  -6    0.00    0.07 
   8  -6  -6    0.00    0.11 
  -8  -6   6    0.25    0.18 
  -8  -6   6    0.09    0.15 
   8   6  -6    0.05    0.08 
   6  -6  -6    5.51    0.30 
   6  -6  -6    5.29    0.26 
  -6  -6   6    5.31    0.35 
   6   6  -6    5.52    0.35 
   6   6  -6    4.67    0.21 
   4  -6  -6    1.54    0.13 
   4  -6  -6    1.33    0.14 
  -4  -6   6    1.42    0.19 
   4   6  -6    1.54    0.18 
  -2  -6   6    5.96    0.29 
   2  -6  -6    5.61    0.17 
   2   6  -6    5.62    0.23 
   0  -6   6    6.40    0.27 
   0  -6  -6    6.30    0.28 
   0  -6   6    6.04    0.28 
   2  -6   6    2.19    0.16 
   2  -6   6    2.17    0.19 
  -2  -6  -6    2.26    0.23 
  -2  -6  -6    2.16    0.15 
  -4  -6  -6    0.74    0.17 
  -4  -6  -6    0.60    0.13 
   4  -6   6    0.67    0.11 
   4  -6   6    0.66    0.13 
   6  -6   6    1.08    0.19 
  -6  -6  -6    1.15    0.20 
  -6  -6  -6    0.98    0.23 
   6  -6   6    0.90    0.14 
  -6   6  -6    1.33    0.12 
  -8  -6  -6    3.91    0.42 
  -8  -6  -6    3.00    0.34 
   8  -6   6    3.81    0.38 
 -10  -6  -6   -0.02    0.18 
 -10  -6  -6   -0.36    0.18 
 -10   6  -6    0.11    0.11 
 -12  -6  -6    0.26    0.21 
 -12  -6  -6    0.23    0.26 
 -12   6  -6    0.09    0.13 
 -14  -6  -6   -0.16    0.22 
 -14  -6  -6   -0.22    0.25 
 -13  -7   6    0.01    0.26 
 -13  -7   6    0.35    0.24 
 -11  -7   6    2.96    0.40 
 -11  -7   6    2.97    0.41 
  -9  -7   6    4.32    0.43 
  -9  -7   6    5.07    0.43 
  -7  -7   6    0.53    0.19 
   5  -7  -6    7.53    0.29 
  -5  -7   6    8.26    0.42 
   5  -7  -6    8.01    0.33 
   5   7  -6    7.73    0.38 
   3  -7  -6    1.37    0.11 
   3  -7  -6    1.18    0.10 
   3  -7  -6    1.36    0.12 
  -3  -7   6    1.57    0.19 
  -1  -7   6    0.25    0.11 
  -1  -7   6    0.26    0.09 
   1  -7  -6    0.16    0.08 
  -1  -7  -6    1.00    0.11 
   1  -7   6    1.45    0.18 
   1  -7   6    1.61    0.17 
  -1  -7  -6    1.17    0.17 
  -3  -7  -6    0.76    0.13 
   3  -7   6    0.84    0.13 
  -3  -7  -6    1.17    0.19 
   3  -7   6    1.12    0.17 
  -5  -7  -6   -0.08    0.13 
   5  -7   6    0.20    0.11 
  -5  -7  -6    0.15    0.12 
  -7  -7  -6    1.03    0.24 
   7  -7   6    1.23    0.22 
  -7  -7  -6    1.61    0.29 
   9  -7   6    0.10    0.17 
  -9  -7  -6    0.14    0.23 
  -9  -7  -6    0.12    0.18 
 -11  -7  -6    0.10    0.21 
 -11  -7  -6    0.38    0.27 
 -13  -7  -6    0.48    0.27 
 -13  -7  -6   -0.06    0.27 
 -12  -8   6    0.56    0.28 
 -10  -8   6    0.45    0.23 
  -8  -8   6    0.16    0.17 
  -6  -8   6    4.09    0.34 
  -4  -8   6    0.74    0.16 
  -2  -8   6    0.05    0.10 
   0  -8   6    1.21    0.18 
   0  -8  -6    0.96    0.13 
  -2  -8  -6    0.32    0.10 
   2  -8   6    0.31    0.12 
  -2  -8  -6    0.63    0.15 
  -4  -8  -6    0.10    0.11 
  -4  -8  -6   -0.01    0.13 
   4  -8   6   -0.03    0.11 
  -6  -8  -6    0.61    0.18 
  -6  -8  -6    0.75    0.20 
   6  -8   6    0.61    0.18 
  -8  -8  -6   -0.01    0.19 
  -8  -8  -6   -0.18    0.15 
   8  -8   6    0.12    0.17 
 -10  -8  -6   -0.08    0.24 
 -10  -8  -6    0.05    0.19 
  -9  -9   6    0.16    0.19 
  -7  -9   6    0.02    0.15 
  -5  -9   6    0.42    0.16 
  -3  -9   6    2.21    0.25 
  -1  -9   6    2.15    0.24 
   1  -9   6    0.37    0.14 
  -1  -9  -6    0.29    0.08 
  -3  -9  -6    1.07    0.16 
   3  -9   6    0.82    0.18 
   5  -9   6   -0.14    0.12 
  -5  -9  -6   -0.03    0.13 
   7  -9   6   -0.04    0.15 
  -7  -9  -6    0.00    0.17 
  -7  -9  -6    0.11    0.24 
  -9  -9  -6    0.38    0.24 
  -9  -9  -6    0.31    0.26 
  -6 -10   6    0.33    0.17 
  -4 -10   6    0.12    0.13 
  -2 -10   6    0.02    0.12 
   0 -10   6    1.67    0.22 
   2 -10   6    0.37    0.15 
   4 -10   6   -0.06    0.14 
  -4 -10  -6   -0.13    0.11 
  -6 -10  -6    0.10    0.19 
 -18   0   7   -0.06    0.25 
 -16   0   7    0.01    0.20 
 -16   0   7    0.45    0.23 
 -14   0   7   -0.07    0.20 
 -14   0   7   -0.06    0.17 
 -12   0   7    0.92    0.26 
 -10   0   7   -0.28    0.13 
 -10   0   7   -0.09    0.15 
   8   0  -7    0.27    0.15 
  -8   0   7    0.19    0.17 
  -8   0   7    0.21    0.18 
   6   0  -7   -0.15    0.07 
   6   0  -7   -0.14    0.08 
  -6   0   7   -0.11    0.10 
   4   0  -7   -0.05    0.06 
   4   0  -7   -0.02    0.06 
  -4   0   7    0.07    0.07 
  -2   0   7   -0.15    0.05 
   2   0  -7   -0.02    0.05 
   0   0   7    0.01    0.03 
   0   0  -7    0.05    0.03 
   0   0   7    0.10    0.04 
   0   0  -7    0.06    0.04 
   2   0   7    0.00    0.04 
  -2   0  -7   -0.02    0.04 
  -2   0  -7    0.00    0.04 
   2   0   7    0.00    0.03 
   4   0   7   -0.10    0.05 
  -4   0  -7   -0.11    0.05 
  -4   0  -7   -0.01    0.05 
   4   0   7   -0.06    0.04 
  -4   0  -7    0.07    0.05 
  -6   0  -7   -0.09    0.09 
  -6   0  -7   -0.15    0.09 
  -6   0  -7   -0.07    0.07 
   6   0   7   -0.07    0.07 
  -8   0  -7    0.31    0.15 
  -8   0  -7    0.26    0.14 
 -10   0  -7   -0.07    0.15 
 -10   0  -7    0.27    0.15 
 -12   0  -7   -0.07    0.14 
 -12   0  -7   -0.10    0.16 
 -14   0  -7    0.10    0.17 
 -14   0  -7   -0.10    0.18 
 -16   0  -7    0.06    0.23 
 -16   0  -7   -0.19    0.18 
 -18   0  -7   -0.04    0.23 
 -18   0  -7    0.15    0.23 
 -17  -1   7   -0.07    0.21 
 -17  -1   7    0.02    0.22 
 -17   1   7    0.32    0.23 
 -15  -1   7   -0.12    0.20 
 -15  -1   7   -0.16    0.16 
 -15   1   7    0.17    0.20 
 -13  -1   7   -0.24    0.20 
 -13  -1   7    0.30    0.21 
 -13   1   7    0.24    0.20 
 -13   1   7    0.03    0.18 
 -11  -1   7   13.48    0.64 
 -11  -1   7   12.35    0.64 
 -11   1   7   13.58    0.65 
 -11   1   7   14.06    0.63 
  -9  -1   7    1.37    0.23 
  -9  -1   7    1.23    0.22 
   9  -1  -7    1.44    0.21 
  -9   1   7    1.62    0.22 
   7  -1  -7   16.83    0.59 
  -7  -1   7   17.41    0.62 
  -7  -1   7   15.91    0.59 
   7  -1  -7   16.31    0.58 
   7   1  -7   16.98    0.60 
  -7   1   7   16.17    0.56 
   7   1  -7   15.81    0.60 
  -5  -1   7    0.11    0.08 
   5  -1  -7    0.05    0.06 
   5  -1  -7    0.30    0.08 
   5   1  -7    0.31    0.09 
  -5   1   7    0.18    0.08 
   5   1  -7    0.20    0.09 
   3  -1  -7    9.77    0.32 
  -3  -1   7    9.79    0.34 
  -3   1   7    9.62    0.31 
   3   1  -7   10.09    0.34 
  -1  -1   7    1.82    0.11 
   1  -1  -7    1.89    0.11 
   1   1  -7    1.88    0.12 
  -1   1   7    2.13    0.11 
   1   1  -7    1.69    0.11 
   1  -1   7   13.06    0.37 
  -1  -1  -7   12.80    0.36 
  -1  -1  -7   13.11    0.36 
   1  -1   7   12.46    0.38 
   1   1   7   13.30    0.36 
   1   1   7   12.80    0.36 
  -1   1  -7   12.82    0.37 
  -1   1  -7   12.73    0.38 
  -3  -1  -7   13.88    0.43 
  -3  -1  -7   14.50    0.43 
   3  -1   7   14.34    0.45 
   3  -1   7   15.02    0.44 
  -3   1  -7   14.66    0.44 
   3   1   7   14.48    0.42 
   3   1   7   13.95    0.44 
  -3   1  -7   14.68    0.45 
   5  -1   7    0.61    0.12 
  -5  -1  -7    0.45    0.10 
   5  -1   7    0.86    0.12 
  -5  -1  -7    0.86    0.13 
  -5  -1  -7    0.35    0.11 
   5   1   7    0.68    0.10 
  -5   1  -7    0.50    0.11 
  -5   1  -7    0.61    0.13 
  -5   1  -7    0.93    0.12 
  -7  -1  -7   22.35    0.72 
  -7  -1  -7   22.92    0.78 
   7  -1   7   22.72    0.76 
   7  -1   7   22.34    0.71 
  -7  -1  -7   23.02    0.76 
  -7   1  -7   21.48    0.73 
  -7   1  -7   22.55    0.76 
  -9  -1  -7    0.18    0.15 
  -9  -1  -7    0.33    0.17 
  -9   1  -7    0.44    0.17 
  -9   1  -7    0.42    0.16 
 -11  -1  -7    2.94    0.38 
 -11  -1  -7    2.78    0.36 
 -11   1  -7    2.45    0.36 
 -11   1  -7    2.54    0.33 
 -13  -1  -7    1.00    0.27 
 -13  -1  -7    0.71    0.24 
 -13   1  -7    1.19    0.28 
 -13   1  -7    1.38    0.29 
 -15  -1  -7    0.15    0.20 
 -15  -1  -7    0.09    0.20 
 -15   1  -7    0.00    0.19 
 -15   1  -7    0.00    0.17 
 -17  -1  -7    0.22    0.26 
 -17  -1  -7   -0.02    0.24 
 -17   1  -7    0.03    0.19 
 -17   1  -7    0.19    0.25 
 -18  -2   7   -0.08    0.29 
 -18  -2   7    0.00    0.22 
 -18   2   7    0.10    0.22 
 -16  -2   7    0.24    0.27 
 -16  -2   7    0.03    0.24 
 -16   2   7   -0.03    0.18 
 -14  -2   7    0.00    0.21 
 -14  -2   7   -0.20    0.18 
 -14   2   7   -0.04    0.17 
 -12  -2   7    5.88    0.50 
 -12  -2   7    5.78    0.48 
 -12   2   7    5.54    0.42 
 -10  -2   7    0.78    0.21 
 -10  -2   7    0.86    0.22 
  10  -2  -7    0.89    0.22 
 -10   2   7    1.04    0.21 
  -8  -2   7    2.21    0.26 
   8  -2  -7    1.84    0.21 
  -8  -2   7    1.99    0.24 
   8  -2  -7    2.44    0.26 
  -8   2   7    2.09    0.22 
   6  -2  -7    2.76    0.20 
  -6  -2   7    2.51    0.22 
  -6  -2   7    2.66    0.23 
   6  -2  -7    2.67    0.20 
   6   2  -7    2.60    0.23 
   6   2  -7    2.82    0.21 
  -6   2   7    2.87    0.19 
  -4  -2   7    7.10    0.30 
   4  -2  -7    6.79    0.27 
  -4   2   7    6.83    0.24 
   4   2  -7    6.96    0.30 
   4   2  -7    6.84    0.31 
   2  -2  -7   13.14    0.36 
  -2  -2   7   13.56    0.41 
   2   2  -7   12.84    0.40 
   2   2  -7   13.52    0.39 
  -2   2   7   12.99    0.34 
   0  -2   7   33.76    0.82 
   0  -2  -7   34.18    0.77 
   0  -2  -7   34.03    0.77 
   0  -2   7   33.46    0.81 
   0   2  -7   33.94    0.80 
   0   2  -7   33.74    0.80 
  -2  -2  -7   63.76    1.38 
   2  -2   7   63.33    1.41 
  -2  -2  -7   62.65    1.39 
   2  -2   7   61.03    1.42 
   2   2   7   62.40    1.35 
  -2   2  -7   63.66    1.42 
  -2   2  -7   61.81    1.41 
  -4  -2  -7    3.67    0.20 
  -4  -2  -7    3.45    0.20 
  -4  -2  -7    3.34    0.22 
   4  -2   7    3.31    0.21 
   4  -2   7    3.70    0.20 
  -4   2  -7    3.57    0.20 
   4   2   7    3.38    0.17 
  -4   2  -7    3.45    0.19 
  -4   2  -7    3.87    0.22 
  -6  -2  -7   14.68    0.52 
   6  -2   7   14.37    0.51 
  -6  -2  -7   15.03    0.57 
  -6  -2  -7   15.09    0.55 
   6  -2   7   15.10    0.55 
  -6   2  -7   14.80    0.52 
  -6   2  -7   14.79    0.55 
   8  -2   7    1.59    0.25 
  -8  -2  -7    2.07    0.27 
   8  -2   7    1.62    0.22 
  -8  -2  -7    2.24    0.28 
  -8  -2  -7    1.80    0.23 
  -8   2  -7    1.75    0.25 
  -8   2  -7    2.25    0.25 
 -10  -2  -7    0.52    0.20 
 -10  -2  -7    0.03    0.19 
 -10   2  -7    0.00    0.13 
 -10   2  -7    0.24    0.17 
 -12  -2  -7    1.69    0.32 
 -12  -2  -7    2.38    0.39 
 -12   2  -7    2.12    0.33 
 -12   2  -7    1.75    0.32 
 -14  -2  -7    0.68    0.27 
 -14  -2  -7    0.14    0.20 
 -14   2  -7    0.31    0.19 
 -14   2  -7    0.08    0.18 
 -16  -2  -7   -0.26    0.19 
 -16  -2  -7   -0.28    0.21 
 -16   2  -7    0.22    0.23 
 -16   2  -7   -0.13    0.16 
 -17  -3   7   -0.28    0.21 
 -17  -3   7   -0.17    0.27 
 -15  -3   7   -0.39    0.19 
 -15  -3   7   -0.17    0.20 
 -15   3   7    0.16    0.18 
 -13  -3   7    1.55    0.35 
 -13  -3   7    1.42    0.32 
 -13   3   7    0.93    0.24 
 -11  -3   7   18.41    0.82 
 -11  -3   7   18.42    0.79 
 -11   3   7   18.83    0.70 
   9  -3  -7    4.65    0.33 
  -9  -3   7    4.79    0.36 
  -9  -3   7    4.68    0.37 
   9  -3  -7    5.55    0.34 
  -9   3   7    4.66    0.29 
   7  -3  -7    0.57    0.12 
   7  -3  -7    0.54    0.12 
  -7  -3   7    0.34    0.14 
  -7  -3   7    0.79    0.17 
   7   3  -7    0.42    0.12 
  -7   3   7    0.45    0.10 
   5  -3  -7    0.83    0.12 
   5  -3  -7    0.91    0.12 
  -5  -3   7    0.78    0.13 
  -5   3   7    0.84    0.10 
   5   3  -7    0.76    0.14 
  -5   3   7    0.90    0.09 
   5   3  -7    0.88    0.13 
  -3  -3   7   10.28    0.37 
   3  -3  -7    9.89    0.30 
   3   3  -7    9.49    0.36 
   3   3  -7    9.86    0.36 
   3   3  -7    9.88    0.33 
  -3   3   7   10.01    0.23 
  -3   3   7    9.91    0.23 
  -1  -3   7    9.01    0.31 
  -1  -3   7    9.67    0.33 
   1  -3  -7    9.46    0.26 
   1   3  -7    9.34    0.30 
   1   3  -7    9.38    0.32 
  -1  -3  -7    9.63    0.28 
   1  -3   7   10.13    0.33 
   1  -3   7   10.63    0.35 
  -1  -3  -7    9.84    0.29 
  -1   3  -7   10.15    0.32 
  -1   3  -7    9.73    0.32 
   3  -3   7   38.83    0.99 
   3  -3   7   39.72    0.97 
  -3  -3  -7   38.85    0.95 
  -3  -3  -7   39.29    1.02 
  -3  -3  -7   38.84    0.95 
  -3   3  -7   39.87    0.97 
  -3   3  -7   39.34    0.98 
  -3   3  -7   39.31    0.92 
   3   3   7   39.87    0.89 
  -5  -3  -7    1.39    0.16 
  -5  -3  -7    1.44    0.19 
   5  -3   7    1.21    0.17 
  -5  -3  -7    1.40    0.17 
   5  -3   7    1.44    0.17 
  -5   3  -7    1.39    0.17 
   5   3   7    1.19    0.12 
  -5   3  -7    1.27    0.15 
   7  -3   7   53.11    1.41 
  -7  -3  -7   53.85    1.41 
  -7  -3  -7   52.65    1.46 
  -7  -3  -7   54.40    1.39 
   7  -3   7   51.50    1.36 
  -7   3  -7   52.26    1.35 
  -7   3  -7   52.94    1.40 
  -9  -3  -7    0.11    0.13 
  -9  -3  -7   -0.21    0.16 
  -9  -3  -7   -0.11    0.16 
  -9   3  -7   -0.10    0.13 
  -9   3  -7    0.02    0.12 
 -11  -3  -7    0.49    0.25 
 -11  -3  -7    0.41    0.27 
 -11   3  -7    0.51    0.20 
 -11   3  -7    0.43    0.23 
 -13  -3  -7    3.12    0.43 
 -13  -3  -7    4.37    0.53 
 -13   3  -7    4.72    0.43 
 -13   3  -7    3.96    0.45 
 -15  -3  -7    0.22    0.27 
 -15  -3  -7    0.28    0.24 
 -15   3  -7    0.16    0.17 
 -15   3  -7    0.01    0.22 
 -17  -3  -7   -0.15    0.24 
 -17  -3  -7    0.01    0.28 
 -17   3  -7    0.43    0.25 
 -16  -4   7    0.43    0.27 
 -16  -4   7    0.14    0.27 
 -14  -4   7   -0.35    0.23 
 -14  -4   7   -0.41    0.16 
 -14   4   7   -0.13    0.21 
 -12  -4   7    8.04    0.57 
 -12  -4   7    8.91    0.61 
 -12   4   7    8.69    0.47 
 -10  -4   7    1.08    0.25 
 -10  -4   7    1.12    0.25 
  10  -4  -7    0.81    0.19 
 -10   4   7    1.15    0.18 
   8  -4  -7    1.81    0.20 
   8  -4  -7    2.15    0.24 
  -8  -4   7    1.74    0.25 
  -8  -4   7    1.41    0.21 
  -8   4   7    1.76    0.15 
   6  -4  -7    0.33    0.09 
  -6  -4   7    0.42    0.13 
  -6  -4   7    0.18    0.11 
   6  -4  -7    0.23    0.09 
  -6   4   7    0.37    0.06 
   6   4  -7    0.07    0.10 
   6   4  -7    0.26    0.09 
  -6   4   7    0.45    0.06 
   4  -4  -7   -0.04    0.04 
  -4  -4   7    0.10    0.08 
   4   4  -7    0.07    0.07 
   4   4  -7   -0.04    0.06 
   4   4  -7   -0.01    0.04 
  -2  -4   7   20.06    0.58 
   2  -4  -7   19.54    0.47 
   2   4  -7   19.43    0.56 
   2   4  -7   20.12    0.55 
   2   4  -7   19.86    0.52 
   0  -4  -7   26.91    0.61 
   0  -4  -7   28.17    0.61 
   0  -4   7   27.14    0.70 
   0  -4   7   27.58    0.72 
   0   4  -7   24.83    0.66 
   0   4  -7   27.09    0.67 
   0   4  -7   27.76    0.65 
  -2  -4  -7    4.95    0.21 
  -2  -4  -7    5.13    0.20 
   2  -4   7    4.99    0.23 
   2  -4   7    5.11    0.25 
  -2  -4  -7    4.66    0.26 
  -2   4  -7    5.18    0.21 
  -2   4  -7    5.20    0.23 
   4  -4   7    1.21    0.16 
  -4  -4  -7    0.87    0.13 
  -4  -4  -7    1.17    0.18 
  -4  -4  -7    1.03    0.13 
   4  -4   7    1.00    0.14 
  -4   4  -7    1.08    0.14 
   4   4   7    1.10    0.08 
  -4   4  -7    0.91    0.11 
  -4   4  -7    1.11    0.15 
  -6  -4  -7    2.59    0.25 
   6  -4   7    2.85    0.22 
   6  -4   7    2.65    0.25 
  -6  -4  -7    3.04    0.31 
  -6  -4  -7    3.03    0.23 
  -6   4  -7    2.71    0.23 
  -6   4  -7    2.77    0.21 
  -8  -4  -7    5.98    0.41 
  -8  -4  -7    6.67    0.44 
   8  -4   7    6.03    0.41 
   8  -4   7    6.67    0.37 
  -8  -4  -7    6.93    0.39 
  -8   4  -7    6.25    0.39 
  -8   4  -7    6.23    0.35 
 -10  -4  -7    5.39    0.47 
 -10  -4  -7    5.61    0.45 
 -10   4  -7    5.05    0.40 
 -10   4  -7    5.14    0.37 
 -12  -4  -7    3.00    0.44 
 -12  -4  -7    2.35    0.37 
 -12   4  -7    3.12    0.35 
 -12   4  -7    2.14    0.34 
 -14  -4  -7    0.36    0.26 
 -14  -4  -7    0.97    0.32 
 -14   4  -7    0.31    0.22 
 -14   4  -7    0.53    0.20 
 -16  -4  -7   -0.26    0.24 
 -16  -4  -7    0.32    0.33 
 -16   4  -7   -0.26    0.16 
 -15  -5   7   -0.03    0.21 
 -15  -5   7   -0.36    0.25 
 -13  -5   7   -0.17    0.23 
 -13  -5   7   -0.25    0.17 
 -11  -5   7   12.52    0.69 
 -11  -5   7   14.02    0.70 
 -11   5   7   12.45    0.57 
  -9  -5   7    0.06    0.16 
  -9  -5   7   -0.03    0.16 
   9  -5  -7    0.22    0.13 
   9  -5  -7    0.40    0.11 
  -9   5   7    0.31    0.08 
   7  -5  -7    0.27    0.10 
   7  -5  -7    0.39    0.10 
  -7  -5   7    0.25    0.13 
  -7  -5   7    0.31    0.14 
   7   5  -7    0.41    0.10 
   5  -5  -7    2.17    0.16 
   5  -5  -7    2.06    0.16 
  -5  -5   7    2.21    0.23 
   5   5  -7    2.31    0.23 
   5   5  -7    2.26    0.15 
  -3  -5   7    0.16    0.08 
   3  -5  -7    0.17    0.05 
   3   5  -7    0.15    0.08 
   3   5  -7    0.12    0.04 
   3   5  -7    0.09    0.06 
  -1  -5   7    0.69    0.11 
   1  -5  -7    0.81    0.05 
  -1  -5   7    0.68    0.10 
   1   5  -7    0.74    0.09 
   1   5  -7    0.82    0.07 
   1   5  -7    0.92    0.09 
  -1  -5  -7    9.85    0.29 
  -1  -5  -7   10.30    0.39 
  -1  -5  -7    9.99    0.28 
   1  -5   7    9.53    0.35 
   1  -5   7    9.93    0.37 
  -1   5  -7    9.87    0.29 
  -1   5  -7    9.67    0.29 
   3  -5   7    1.23    0.14 
  -3  -5  -7    0.96    0.12 
   3  -5   7    1.23    0.16 
  -3  -5  -7    0.96    0.16 
  -3   5  -7    1.10    0.12 
  -3   5  -7    1.22    0.11 
   5  -5   7    1.30    0.18 
  -5  -5  -7    1.22    0.17 
   5  -5   7    1.07    0.14 
  -5  -5  -7    1.41    0.22 
  -5   5  -7    1.35    0.12 
  -5   5  -7    1.53    0.16 
  -7  -5  -7    5.73    0.41 
   7  -5   7    6.43    0.34 
   7  -5   7    6.09    0.39 
  -7  -5  -7    6.21    0.40 
  -7   5  -7    5.77    0.33 
  -7   5  -7    5.59    0.29 
  -9  -5  -7    0.04    0.19 
  -9  -5  -7    0.16    0.18 
   9  -5   7    0.30    0.12 
   9  -5   7    0.04    0.16 
  -9  -5  -7    0.26    0.15 
  -9   5  -7    0.40    0.16 
  -9   5  -7    0.31    0.12 
 -11  -5  -7    0.03    0.19 
 -11  -5  -7   -0.28    0.20 
 -11   5  -7   -0.11    0.11 
 -11   5  -7    0.10    0.15 
 -13  -5  -7    0.99    0.31 
 -13  -5  -7    1.10    0.34 
 -13   5  -7    0.80    0.22 
 -15  -5  -7   -0.16    0.22 
 -15  -5  -7   -0.30    0.26 
 -15   5  -7    0.07    0.16 
 -14  -6   7   -0.10    0.27 
 -14  -6   7    0.20    0.25 
 -12  -6   7    1.70    0.35 
 -12  -6   7    0.75    0.28 
 -10  -6   7    0.97    0.25 
 -10  -6   7    0.92    0.27 
  10   6  -7    0.87    0.25 
   8  -6  -7    3.80    0.25 
  -8  -6   7    4.01    0.37 
  -8  -6   7    4.76    0.38 
   8  -6  -7    4.15    0.47 
   8   6  -7    3.46    0.23 
  -6  -6   7    1.20    0.22 
   6  -6  -7    1.24    0.15 
   6  -6  -7    1.39    0.18 
   6   6  -7    1.35    0.14 
   6   6  -7    1.49    0.22 
  -4  -6   7    4.76    0.31 
   4  -6  -7    4.73    0.23 
   4   6  -7    4.92    0.18 
   4   6  -7    4.45    0.28 
   4   6  -7    4.99    0.17 
  -2  -6   7    3.59    0.24 
   2  -6  -7    3.46    0.13 
   2   6  -7    3.97    0.20 
   0  -6   7    2.23    0.19 
   0  -6  -7    1.91    0.09 
   0  -6  -7    1.95    0.17 
   0  -6   7    1.87    0.16 
   0  -6  -7    1.86    0.09 
   2  -6   7    4.45    0.23 
  -2  -6  -7    4.25    0.29 
  -2  -6  -7    4.36    0.20 
   2  -6   7    4.01    0.25 
  -4  -6  -7    1.05    0.19 
   4  -6   7    1.05    0.17 
  -4  -6  -7    1.39    0.17 
   4  -6   7    1.27    0.15 
   6  -6   7    0.04    0.12 
   6  -6   7    0.02    0.07 
  -6  -6  -7   -0.11    0.11 
  -6  -6  -7   -0.10    0.14 
  -6   6  -7    0.01    0.07 
  -8  -6  -7    0.30    0.18 
  -8  -6  -7    0.60    0.23 
   8  -6   7    0.20    0.16 
  -8   6  -7    0.10    0.11 
  -8   6  -7    0.18    0.11 
 -10  -6  -7    1.72    0.35 
 -10  -6  -7    2.35    0.37 
 -10   6  -7    1.71    0.22 
 -12  -6  -7    0.10    0.21 
 -12  -6  -7    0.36    0.29 
 -12   6  -7    0.08    0.14 
 -14  -6  -7    0.02    0.30 
 -14  -6  -7    0.55    0.31 
 -13  -7   7   -0.28    0.23 
 -13  -7   7    0.22    0.23 
 -11  -7   7    1.91    0.35 
  -9  -7   7    0.41    0.21 
  -7  -7   7   -0.26    0.13 
   5  -7  -7    1.15    0.15 
  -5  -7   7    1.42    0.21 
   5  -7  -7    1.05    0.18 
   5   7  -7    1.43    0.20 
  -3  -7   7    0.24    0.12 
   3  -7  -7    0.15    0.06 
   3   7  -7    0.17    0.08 
  -1  -7   7    0.14    0.10 
   1  -7  -7    0.27    0.09 
  -1  -7   7    0.20    0.10 
   1  -7   7   22.22    0.71 
   1  -7   7   20.51    0.63 
  -1  -7  -7   21.48    0.53 
  -1  -7  -7   22.11    0.69 
  -1  -7  -7   21.29    0.53 
  -3  -7  -7    0.45    0.12 
   3  -7   7    0.68    0.12 
  -3  -7  -7    0.94    0.18 
   3  -7   7    0.73    0.15 
  -5  -7  -7    0.69    0.16 
  -5  -7  -7    0.43    0.19 
   5  -7   7    0.76    0.17 
  -7  -7  -7    0.14    0.16 
   7  -7   7   -0.02    0.13 
  -7  -7  -7    0.11    0.19 
  -9  -7  -7   -0.30    0.16 
  -9  -7  -7   -0.16    0.20 
   9  -7   7   -0.08    0.15 
 -11  -7  -7    0.88    0.28 
 -11  -7  -7    0.49    0.29 
 -13  -7  -7    0.62    0.29 
 -13  -7  -7    0.37    0.33 
 -12  -8   7    0.08    0.23 
 -10  -8   7    0.07    0.21 
  -8  -8   7   -0.08    0.15 
  -6  -8   7    2.00    0.27 
  -4  -8   7    0.00    0.11 
  -2  -8   7    0.55    0.15 
   0  -8   7    0.23    0.11 
   0  -8  -7    0.04    0.08 
  -2  -8  -7    3.24    0.28 
   2  -8   7    3.24    0.26 
  -2  -8  -7    2.95    0.20 
  -4  -8  -7    0.05    0.14 
  -4  -8  -7   -0.01    0.10 
   4  -8   7    0.16    0.11 
   6  -8   7    0.01    0.13 
  -6  -8  -7    0.12    0.16 
  -6  -8  -7   -0.06    0.14 
   8  -8   7    0.10    0.17 
  -8  -8  -7    0.55    0.25 
  -8  -8  -7    0.45    0.22 
 -10  -8  -7    0.01    0.19 
 -10  -8  -7    0.14    0.25 
  -9  -9   7    0.28    0.21 
  -7  -9   7    0.07    0.16 
  -5  -9   7    0.50    0.18 
  -3  -9   7   -0.03    0.11 
  -1  -9   7    0.38    0.14 
   1  -9   7    4.09    0.32 
  -3  -9  -7   -0.01    0.10 
   3  -9   7   -0.07    0.11 
  -5  -9  -7    0.41    0.16 
   5  -9   7    0.30    0.16 
  -7  -9  -7   -0.15    0.15 
   7  -9   7   -0.18    0.16 
  -7  -9  -7    0.19    0.24 
  -9  -9  -7    0.28    0.21 
  -9  -9  -7    0.12    0.25 
  -6 -10   7    0.05    0.16 
  -4 -10   7    0.12    0.14 
  -2 -10   7    0.01    0.12 
   0 -10   7   -0.03    0.11 
   2 -10   7    0.23    0.14 
  -4 -10  -7   -0.08    0.13 
   4 -10   7    0.05    0.15 
 -18   0   8    2.05    0.39 
 -16   0   8    4.41    0.49 
 -14   0   8    1.97    0.33 
 -14   0   8    1.87    0.32 
 -12   0   8    0.01    0.22 
 -12   0   8    0.03    0.21 
 -10   0   8   18.39    0.71 
 -10   0   8   17.52    0.71 
   8   0  -8   -0.13    0.11 
  -8   0   8   -0.17    0.13 
   8   0  -8    0.43    0.12 
   6   0  -8  159.45    3.49 
  -6   0   8  160.51    3.45 
   6   0  -8  158.45    3.48 
   4   0  -8   11.71    0.40 
  -4   0   8   11.39    0.39 
  -2   0   8   17.70    0.48 
   2   0  -8   17.43    0.48 
   0   0  -8  220.92    4.61 
   0   0  -8  223.57    4.61 
   0   0   8  225.62    4.62 
   0   0   8  225.02    4.60 
   2   0   8    4.73    0.22 
  -2   0  -8    5.12    0.22 
  -2   0  -8    4.47    0.20 
   2   0   8    4.52    0.20 
   4   0   8    2.77    0.20 
  -4   0  -8    2.65    0.19 
  -4   0  -8    3.10    0.19 
   4   0   8    2.67    0.17 
   6   0   8   42.12    1.08 
  -6   0  -8   41.40    1.13 
   6   0   8   41.61    1.13 
  -6   0  -8   42.83    1.10 
  -6   0  -8   40.00    1.12 
  -8   0  -8   34.00    1.04 
  -8   0  -8   33.68    1.04 
 -10   0  -8    1.19    0.25 
 -10   0  -8    1.56    0.28 
 -12   0  -8   -0.39    0.14 
 -12   0  -8   -0.10    0.17 
 -14   0  -8    1.12    0.32 
 -14   0  -8    0.29    0.20 
 -16   0  -8    0.22    0.24 
 -16   0  -8    0.13    0.21 
 -17  -1   8    0.16    0.25 
 -17  -1   8    0.16    0.25 
 -17   1   8    0.59    0.28 
 -15  -1   8    0.88    0.26 
 -15  -1   8    0.55    0.24 
 -15   1   8    0.62    0.24 
 -13  -1   8    1.10    0.29 
 -13  -1   8    1.14    0.29 
 -13   1   8    1.27    0.29 
 -11  -1   8   40.72    1.28 
 -11  -1   8   41.04    1.26 
 -11   1   8   40.72    1.23 
  -9  -1   8    1.85    0.25 
  -9  -1   8    1.36    0.23 
   9  -1  -8    1.87    0.24 
  -9   1   8    1.28    0.19 
  -7  -1   8   63.35    1.57 
   7  -1  -8   62.53    1.57 
   7  -1  -8   63.57    1.57 
  -7   1   8   62.23    1.53 
   7   1  -8   62.44    1.59 
   7   1  -8   63.82    1.58 
   5  -1  -8    3.79    0.22 
  -5  -1   8    3.75    0.23 
   5  -1  -8    3.49    0.21 
   5   1  -8    3.91    0.25 
  -5   1   8    3.86    0.21 
   5   1  -8    3.77    0.23 
  -3  -1   8   88.07    1.94 
   3  -1  -8   88.13    1.92 
   3   1  -8   89.48    1.95 
  -3   1   8   86.45    1.89 
  -1  -1   8    0.48    0.07 
  -1  -1   8    0.50    0.08 
   1  -1  -8    0.39    0.06 
   1  -1  -8    0.53    0.07 
   1   1  -8    0.41    0.07 
   1   1  -8    0.51    0.08 
  -1   1   8    0.42    0.07 
  -1  -1  -8    1.13    0.10 
   1  -1   8    1.21    0.10 
   1   1   8    0.99    0.09 
   1   1   8    0.96    0.09 
  -1   1  -8    1.02    0.10 
  -1   1  -8    0.98    0.11 
  -3  -1  -8    0.28    0.07 
   3  -1   8    0.24    0.07 
   3  -1   8    0.28    0.08 
  -3  -1  -8    0.34    0.08 
   3   1   8    0.24    0.08 
  -3   1  -8    0.39    0.09 
   3   1   8    0.14    0.05 
  -3   1  -8    0.21    0.06 
  -5  -1  -8    5.31    0.30 
   5  -1   8    5.54    0.27 
  -5  -1  -8    5.50    0.27 
   5  -1   8    5.47    0.30 
  -5  -1  -8    5.44    0.29 
  -5   1  -8    5.69    0.30 
   5   1   8    5.42    0.25 
  -5   1  -8    4.90    0.27 
  -5   1  -8    5.39    0.26 
   7  -1   8    8.32    0.43 
  -7  -1  -8    8.55    0.40 
  -7  -1  -8    9.22    0.44 
  -7  -1  -8    8.33    0.44 
   7  -1   8    9.24    0.40 
  -7   1  -8    8.96    0.43 
  -7   1  -8    8.72    0.43 
  -9  -1  -8    1.80    0.26 
  -9  -1  -8    2.21    0.29 
  -9   1  -8    2.48    0.29 
  -9   1  -8    1.67    0.26 
 -11  -1  -8    1.12    0.25 
 -11  -1  -8    1.12    0.29 
 -11   1  -8    0.58    0.20 
 -11   1  -8    1.25    0.28 
 -13  -1  -8    1.87    0.32 
 -13  -1  -8    2.10    0.34 
 -13   1  -8    2.35    0.34 
 -13   1  -8    1.98    0.34 
 -15  -1  -8    0.16    0.23 
 -15  -1  -8    0.51    0.23 
 -15   1  -8    0.40    0.21 
 -15   1  -8    0.72    0.27 
 -17  -1  -8   -0.40    0.22 
 -17  -1  -8   -0.21    0.21 
 -17   1  -8    0.39    0.24 
 -17   1  -8   -0.34    0.21 
 -18  -2   8    0.87    0.33 
 -18  -2   8    0.47    0.34 
 -18   2   8   -0.04    0.23 
 -16  -2   8    0.02    0.28 
 -16  -2   8    0.87    0.29 
 -16   2   8    0.82    0.26 
 -14  -2   8    0.20    0.22 
 -14  -2   8   -0.08    0.17 
 -14   2   8    0.00    0.16 
 -12  -2   8    4.76    0.44 
 -12  -2   8    5.24    0.46 
 -12   2   8    4.84    0.41 
 -10  -2   8    0.54    0.20 
  10  -2  -8    0.47    0.19 
 -10  -2   8    0.77    0.21 
 -10   2   8    0.37    0.15 
   8  -2  -8    9.83    0.45 
  -8  -2   8    9.93    0.48 
   8  -2  -8    9.14    0.43 
  -8  -2   8    9.88    0.46 
  -8   2   8   10.00    0.42 
  -6  -2   8   24.04    0.74 
   6  -2  -8   24.38    0.72 
   6  -2  -8   24.21    0.72 
   6   2  -8   24.39    0.74 
  -6   2   8   24.59    0.68 
   6   2  -8   24.06    0.76 
  -4  -2   8   46.15    1.12 
   4  -2  -8   44.22    1.08 
  -4   2   8   44.64    1.04 
   4   2  -8   45.65    1.14 
   4   2  -8   45.87    1.13 
  -2  -2   8   23.85    0.65 
   2  -2  -8   24.27    0.60 
  -2   2   8   24.53    0.59 
   2   2  -8   25.01    0.64 
   2   2  -8   24.00    0.65 
   0  -2   8    8.57    0.30 
   0  -2  -8    8.53    0.27 
   0  -2  -8    8.40    0.26 
   0  -2   8    8.43    0.29 
   0   2  -8    8.51    0.29 
   0   2  -8    8.39    0.29 
   0   2   8    8.19    0.25 
  -2  -2  -8    1.07    0.10 
  -2  -2  -8    1.15    0.10 
   2  -2   8    0.95    0.11 
   2  -2   8    1.00    0.11 
   2   2   8    1.11    0.09 
  -2   2  -8    1.04    0.12 
  -2   2  -8    1.00    0.12 
  -4  -2  -8   -0.08    0.06 
  -4  -2  -8   -0.03    0.04 
   4  -2   8   -0.03    0.04 
   4  -2   8   -0.02    0.05 
  -4  -2  -8   -0.05    0.06 
  -4   2  -8   -0.06    0.06 
  -4   2  -8    0.05    0.06 
  -4   2  -8    0.07    0.05 
   4   2   8   -0.02    0.04 
  -6  -2  -8   10.33    0.48 
  -6  -2  -8   11.79    0.47 
  -6  -2  -8   10.78    0.44 
   6  -2   8   11.19    0.47 
   6  -2   8   11.03    0.43 
  -6   2  -8   11.21    0.47 
  -6   2  -8   10.78    0.44 
   8  -2   8   13.01    0.58 
  -8  -2  -8   13.16    0.54 
  -8  -2  -8   13.12    0.58 
  -8  -2  -8   14.87    0.64 
  -8   2  -8   14.02    0.57 
  -8   2  -8   13.41    0.59 
 -10  -2  -8    8.70    0.54 
 -10  -2  -8    9.06    0.54 
 -10   2  -8    8.76    0.52 
 -10   2  -8    9.35    0.51 
 -12  -2  -8    0.21    0.18 
 -12  -2  -8   -0.01    0.22 
 -12   2  -8    0.37    0.21 
 -12   2  -8    0.26    0.19 
 -14  -2  -8    1.46    0.35 
 -14  -2  -8    1.58    0.34 
 -14   2  -8    1.22    0.27 
 -14   2  -8    1.67    0.35 
 -16  -2  -8    0.27    0.22 
 -16  -2  -8    0.32    0.25 
 -16   2  -8   -0.06    0.18 
 -16   2  -8   -0.35    0.19 
 -17  -3   8    0.27    0.25 
 -17  -3   8   -0.59    0.23 
 -15  -3   8    0.04    0.24 
 -15  -3   8    0.06    0.21 
 -15   3   8   -0.21    0.16 
 -13  -3   8   -0.10    0.19 
 -13  -3   8   -0.26    0.19 
 -13   3   8   -0.05    0.17 
 -11  -3   8    2.36    0.34 
 -11  -3   8    1.78    0.34 
 -11   3   8    1.89    0.25 
   9  -3  -8    4.82    0.33 
  -9  -3   8    4.13    0.35 
  -9  -3   8    5.20    0.38 
  -9   3   8    4.30    0.28 
   7  -3  -8    3.12    0.23 
  -7  -3   8    3.03    0.26 
  -7  -3   8    3.66    0.29 
   7  -3  -8    3.10    0.23 
  -7   3   8    3.37    0.20 
   7   3  -8    3.08    0.26 
   5  -3  -8   11.89    0.41 
  -5  -3   8   11.61    0.45 
   5   3  -8   12.23    0.47 
  -5   3   8   11.94    0.36 
   5   3  -8   11.87    0.47 
  -3  -3   8    0.50    0.10 
   3  -3  -8    0.34    0.06 
   3   3  -8    0.41    0.10 
   3   3  -8    0.37    0.07 
  -3   3   8    0.41    0.04 
   3   3  -8    0.34    0.09 
  -1  -3   8    5.95    0.25 
   1  -3  -8    6.00    0.21 
  -1  -3   8    6.15    0.26 
   1   3  -8    6.05    0.24 
   1   3  -8    6.11    0.25 
  -1  -3  -8    7.51    0.25 
   1  -3   8    7.80    0.29 
  -1  -3  -8    7.68    0.25 
   1  -3   8    7.20    0.30 
  -1   3  -8    7.52    0.28 
  -1   3  -8    7.48    0.28 
   3  -3   8   48.29    1.19 
  -3  -3  -8   48.15    1.14 
   3  -3   8   48.62    1.16 
  -3  -3  -8   48.05    1.14 
  -3   3  -8   47.54    1.15 
   3   3   8   49.29    1.08 
  -3   3  -8   48.85    1.18 
  -5  -3  -8   17.72    0.64 
  -5  -3  -8   18.28    0.59 
   5  -3   8   17.95    0.62 
   5  -3   8   18.35    0.58 
  -5  -3  -8   17.82    0.58 
   5   3   8   18.25    0.52 
  -5   3  -8   18.05    0.56 
  -5   3  -8   18.64    0.61 
   7  -3   8    0.03    0.12 
  -7  -3  -8   -0.02    0.10 
   7  -3   8    0.05    0.10 
  -7  -3  -8    0.35    0.15 
  -7  -3  -8    0.34    0.16 
  -7   3  -8   -0.08    0.10 
  -7   3  -8    0.23    0.12 
   9  -3   8    0.23    0.18 
  -9  -3  -8    0.18    0.18 
  -9  -3  -8    0.42    0.21 
  -9   3  -8    0.27    0.17 
  -9   3  -8    0.16    0.14 
 -11  -3  -8    0.31    0.22 
 -11  -3  -8    0.31    0.22 
 -11   3  -8    0.47    0.20 
 -11   3  -8    0.46    0.22 
 -13  -3  -8    0.21    0.24 
 -13  -3  -8    0.17    0.21 
 -13   3  -8    0.64    0.22 
 -13   3  -8    0.43    0.22 
 -15  -3  -8    0.17    0.26 
 -15  -3  -8    0.10    0.24 
 -15   3  -8    0.12    0.23 
 -15   3  -8    0.09    0.19 
 -17  -3  -8    0.05    0.27 
 -17  -3  -8   -0.01    0.27 
 -17   3  -8    0.51    0.26 
 -16  -4   8    0.31    0.25 
 -16  -4   8   -0.44    0.26 
 -14  -4   8    0.63    0.27 
 -14  -4   8    0.03    0.26 
 -12  -4   8    0.44    0.26 
 -12  -4   8    0.79    0.25 
 -12   4   8    0.53    0.19 
 -10  -4   8    0.35    0.19 
 -10  -4   8    0.42    0.19 
  10  -4  -8    0.44    0.16 
 -10   4   8    0.27    0.12 
  -8  -4   8    0.39    0.15 
  -8  -4   8    0.22    0.15 
   8  -4  -8    0.47    0.13 
   8  -4  -8    0.32    0.10 
  -8   4   8    0.59    0.11 
   6  -4  -8    0.20    0.08 
   6  -4  -8    0.19    0.08 
  -6  -4   8    0.43    0.13 
  -6   4   8    0.31    0.05 
  -6   4   8    0.22    0.05 
   6   4  -8    0.09    0.08 
   6   4  -8    0.23    0.12 
  -4  -4   8    0.18    0.09 
   4  -4  -8   -0.01    0.05 
   4   4  -8    0.10    0.09 
   4   4  -8    0.17    0.09 
   4   4  -8    0.03    0.05 
  -2  -4   8    0.26    0.08 
   2  -4  -8    0.54    0.06 
  -2  -4   8    0.52    0.11 
   2   4  -8    0.52    0.10 
   2   4  -8    0.55    0.09 
   2   4  -8    0.36    0.09 
   0  -4   8   23.90    0.65 
   0  -4  -8   23.81    0.57 
   0  -4   8   24.27    0.67 
   0  -4  -8   23.85    0.57 
   0   4  -8   23.31    0.62 
   0   4  -8   24.42    0.63 
   2  -4   8   -0.09    0.04 
  -2  -4  -8   -0.08    0.04 
  -2  -4  -8   -0.03    0.05 
   2  -4   8   -0.05    0.06 
  -2   4  -8   -0.06    0.06 
  -2   4  -8   -0.06    0.05 
   4  -4   8    1.48    0.16 
  -4  -4  -8    1.42    0.19 
  -4  -4  -8    1.41    0.15 
  -4  -4  -8    1.40    0.16 
   4  -4   8    1.86    0.20 
   4   4   8    1.48    0.09 
  -4   4  -8    1.67    0.18 
  -4   4  -8    1.36    0.13 
   6  -4   8    0.80    0.15 
  -6  -4  -8    0.74    0.14 
  -6  -4  -8    0.66    0.18 
   6  -4   8    0.77    0.16 
  -6  -4  -8    0.85    0.18 
  -6   4  -8    0.78    0.14 
  -6   4  -8    0.89    0.16 
  -8  -4  -8    0.12    0.17 
  -8  -4  -8    0.50    0.19 
   8  -4   8    0.36    0.13 
   8  -4   8   -0.06    0.14 
  -8  -4  -8    0.41    0.13 
  -8   4  -8   -0.06    0.12 
  -8   4  -8    0.23    0.12 
 -10  -4  -8    0.33    0.21 
 -10  -4  -8    0.15    0.24 
 -10   4  -8    0.46    0.16 
 -10   4  -8    0.28    0.17 
 -12  -4  -8    0.93    0.31 
 -12  -4  -8    1.01    0.31 
 -12   4  -8    0.74    0.24 
 -12   4  -8    1.24    0.25 
 -14  -4  -8    0.11    0.23 
 -14  -4  -8   -0.04    0.23 
 -14   4  -8    0.53    0.19 
 -14   4  -8    0.18    0.22 
 -16  -4  -8   -0.02    0.26 
 -16  -4  -8    0.25    0.31 
 -16   4  -8    0.04    0.20 
 -15  -5   8    0.06    0.27 
 -15  -5   8    0.21    0.22 
 -13  -5   8    0.68    0.25 
 -13  -5   8    0.72    0.30 
 -11  -5   8    1.51    0.32 
 -11  -5   8    0.90    0.26 
  -9  -5   8    0.11    0.17 
   9  -5  -8    0.33    0.10 
   9  -5  -8    0.51    0.15 
  -9  -5   8    0.31    0.19 
  -9   5   8    0.48    0.09 
  -7  -5   8    0.66    0.16 
   7  -5  -8    0.81    0.15 
   7  -5  -8    0.74    0.13 
   7   5  -8    0.83    0.14 
   5  -5  -8    3.90    0.23 
   5  -5  -8    3.51    0.21 
  -5  -5   8    3.88    0.28 
   5   5  -8    3.57    0.20 
   5   5  -8    3.85    0.27 
  -3  -5   8    0.11    0.08 
   3  -5  -8    0.18    0.05 
   3   5  -8    0.13    0.07 
   3   5  -8    0.02    0.07 
  -1  -5   8    1.07    0.14 
  -1  -5   8    1.45    0.15 
   1  -5  -8    1.30    0.08 
   1   5  -8    1.28    0.10 
   1   5  -8    1.27    0.12 
   1   5  -8    1.13    0.12 
   1  -5   8   13.94    0.48 
  -1  -5  -8   14.16    0.38 
  -1  -5  -8   14.04    0.38 
   1  -5   8   13.81    0.45 
  -1   5  -8   13.35    0.39 
  -1   5  -8   14.03    0.40 
  -1   5  -8   13.69    0.36 
  -3  -5  -8    0.76    0.12 
  -3  -5  -8    1.00    0.16 
   3  -5   8    0.75    0.13 
  -3  -5  -8    0.87    0.11 
   3  -5   8    0.68    0.11 
  -3   5  -8    1.14    0.16 
  -3   5  -8    1.03    0.08 
   5  -5   8    0.07    0.06 
  -5  -5  -8    0.07    0.08 
   5  -5   8    0.14    0.10 
  -5  -5  -8    0.10    0.10 
  -5  -5  -8   -0.09    0.10 
  -5   5  -8    0.08    0.05 
  -5   5  -8    0.16    0.08 
   7  -5   8    1.86    0.23 
  -7  -5  -8    1.74    0.22 
   7  -5   8    2.42    0.29 
  -7  -5  -8    1.61    0.25 
  -7  -5  -8    1.90    0.28 
  -7   5  -8    1.67    0.18 
  -7   5  -8    1.96    0.23 
  -9  -5  -8   -0.33    0.17 
  -9  -5  -8   -0.06    0.16 
   9  -5   8   -0.08    0.15 
  -9   5  -8    0.02    0.10 
  -9   5  -8   -0.06    0.12 
 -11  -5  -8   -0.08    0.22 
 -11  -5  -8    0.00    0.18 
 -11   5  -8   -0.05    0.11 
 -11   5  -8    0.34    0.16 
 -13  -5  -8   -0.12    0.22 
 -13  -5  -8    0.03    0.24 
 -13   5  -8    0.29    0.17 
 -15  -5  -8    0.01    0.25 
 -15  -5  -8   -0.05    0.24 
 -15   5  -8   -0.10    0.17 
 -14  -6   8   -0.03    0.23 
 -14  -6   8   -0.67    0.21 
 -12  -6   8    1.83    0.35 
 -12  -6   8    2.16    0.37 
 -10  -6   8    3.27    0.39 
  10   6  -8    2.51    0.33 
  -8  -6   8    2.89    0.33 
   8  -6  -8    2.77    0.23 
   8   6  -8    2.90    0.22 
  -6  -6   8    7.76    0.43 
   6  -6  -8    7.29    0.35 
   6  -6  -8    7.47    0.34 
   6   6  -8    8.04    0.42 
  -4  -6   8    7.63    0.38 
   4  -6  -8    6.94    0.29 
   4   6  -8    7.60    0.36 
   4   6  -8    8.12    0.26 
  -2  -6   8    0.01    0.09 
   2  -6  -8    0.01    0.04 
   2   6  -8    0.06    0.07 
   0  -6   8    5.75    0.29 
   0  -6   8    5.55    0.27 
   0  -6  -8    5.45    0.18 
   0  -6  -8    5.62    0.18 
  -2  -6  -8    0.28    0.08 
   2  -6   8    0.22    0.08 
   2  -6   8    0.21    0.10 
  -2  -6  -8    0.19    0.07 
  -2  -6  -8    0.21    0.12 
  -4  -6  -8    0.20    0.11 
   4  -6   8    0.24    0.11 
  -4  -6  -8    0.27    0.14 
   4  -6   8    0.08    0.08 
  -4  -6  -8    0.22    0.08 
  -4   6  -8    0.30    0.07 
  -6  -6  -8    0.03    0.12 
  -6  -6  -8    0.00    0.08 
   6  -6   8    0.02    0.08 
   6  -6   8   -0.10    0.11 
  -6  -6  -8   -0.15    0.14 
  -6   6  -8    0.00    0.07 
  -6   6  -8   -0.06    0.05 
  -8  -6  -8    2.06    0.30 
   8  -6   8    2.21    0.30 
  -8  -6  -8    2.67    0.38 
  -8   6  -8    2.74    0.34 
  -8   6  -8    2.12    0.21 
  10  -6   8    0.79    0.26 
 -10  -6  -8    0.76    0.24 
 -10  -6  -8    0.49    0.27 
 -10   6  -8    0.67    0.16 
 -12  -6  -8    0.85    0.33 
 -12  -6  -8    0.45    0.25 
 -12   6  -8    0.05    0.16 
 -14  -6  -8    0.30    0.29 
 -14  -6  -8    0.36    0.31 
 -13  -7   8    0.19    0.23 
 -11  -7   8    0.20    0.24 
  -9  -7   8    2.20    0.33 
  -7  -7   8    0.87    0.21 
  -5  -7   8    4.30    0.33 
   5  -7  -8    4.11    0.25 
   5   7  -8    4.81    0.31 
   3  -7  -8    1.54    0.12 
  -3  -7   8    1.60    0.21 
   3   7  -8    1.52    0.16 
  -1  -7   8    1.02    0.16 
   1  -7  -8    0.70    0.12 
  -1  -7   8    0.91    0.15 
  -1  -7  -8    1.23    0.11 
   1  -7   8    0.86    0.16 
  -1  -7  -8    1.25    0.11 
   1  -7   8    1.07    0.15 
  -1  -7  -8    1.01    0.18 
   3  -7   8    1.38    0.21 
  -3  -7  -8    1.57    0.23 
  -3  -7  -8    1.24    0.16 
  -3  -7  -8    1.48    0.15 
   3  -7   8    1.25    0.19 
  -5  -7  -8    1.94    0.29 
  -5  -7  -8    1.73    0.23 
   5  -7   8    1.79    0.24 
   7  -7   8    0.14    0.15 
  -7  -7  -8    0.00    0.17 
  -7  -7  -8   -0.02    0.15 
  -9  -7  -8    0.28    0.21 
  -9  -7  -8    0.17    0.22 
   9  -7   8   -0.07    0.18 
 -11  -7  -8    0.19    0.25 
 -11  -7  -8    0.23    0.22 
 -13  -7  -8    0.25    0.30 
 -13  -7  -8   -0.15    0.21 
 -12  -8   8    0.79    0.30 
 -10  -8   8    1.29    0.29 
  -8  -8   8    1.46    0.28 
  -6  -8   8    0.37    0.16 
  -4  -8   8    1.41    0.23 
  -2  -8   8    0.09    0.12 
   2  -8  -8    0.00    0.07 
   0  -8   8    0.08    0.11 
   0  -8  -8    0.17    0.11 
  -2  -8  -8    2.21    0.18 
   2  -8   8    2.14    0.25 
  -2  -8  -8    2.09    0.25 
  -4  -8  -8    0.64    0.15 
  -4  -8  -8    0.41    0.17 
   4  -8   8    0.53    0.15 
   6  -8   8   -0.01    0.13 
  -6  -8  -8    0.27    0.19 
  -6  -8  -8   -0.01    0.15 
  -8  -8  -8    0.91    0.25 
  -8  -8  -8    1.28    0.31 
   8  -8   8    1.14    0.26 
 -10  -8  -8    0.65    0.31 
 -10  -8  -8    0.45    0.24 
  -9  -9   8    0.01    0.18 
  -7  -9   8    0.34    0.19 
  -5  -9   8    0.08    0.14 
  -3  -9   8    0.17    0.14 
  -1  -9   8    0.47    0.16 
   1  -9   8    1.44    0.22 
  -1  -9  -8    1.72    0.13 
   3  -9   8    0.16    0.13 
  -3  -9  -8    0.28    0.12 
   5  -9   8    1.51    0.27 
  -5  -9  -8    1.55    0.24 
   7  -9   8    0.10    0.17 
  -7  -9  -8   -0.19    0.16 
  -7  -9  -8    0.16    0.22 
   9  -9   8   -0.23    0.19 
  -9  -9  -8    0.03    0.19 
  -9  -9  -8   -0.10    0.27 
  -6 -10   8    0.11    0.16 
  -4 -10   8    1.05    0.23 
  -2 -10   8    0.47    0.17 
   0 -10   8    0.18    0.13 
   2 -10   8    2.60    0.30 
  -4 -10  -8   -0.06    0.13 
   4 -10   8    0.02    0.15 
 -18   0   9    0.22    0.26 
 -16   0   9    0.33    0.21 
 -14   0   9    0.36    0.20 
 -10   0   9    0.02    0.16 
   8   0  -9    0.15    0.10 
  -8   0   9   -0.20    0.10 
   8   0  -9   -0.19    0.09 
   6   0  -9    0.19    0.10 
   6   0  -9    0.27    0.11 
  -6   0   9    0.23    0.12 
   4   0  -9   -0.01    0.05 
  -4   0   9    0.01    0.06 
   2   0  -9   -0.02    0.04 
  -2   0   9    0.05    0.05 
   2   0  -9    0.04    0.05 
   2   0   9    0.10    0.05 
  -2   0  -9    0.05    0.04 
   2   0   9    0.03    0.05 
  -2   0  -9    0.08    0.05 
   4   0   9   -0.02    0.06 
   4   0   9   -0.06    0.04 
  -4   0  -9    0.05    0.05 
  -4   0  -9   -0.06    0.06 
   6   0   9   -0.06    0.06 
  -6   0  -9   -0.20    0.10 
   6   0   9    0.11    0.09 
  -6   0  -9   -0.04    0.06 
  -6   0  -9    0.04    0.10 
  -8   0  -9   -0.01    0.12 
  -8   0  -9    0.07    0.13 
 -10   0  -9   -0.14    0.15 
 -10   0  -9   -0.13    0.15 
 -12   0  -9   -0.29    0.13 
 -12   0  -9   -0.06    0.17 
 -14   0  -9    0.06    0.17 
 -14   0  -9   -0.08    0.19 
 -16   0  -9   -0.18    0.16 
 -16   0  -9   -0.01    0.22 
 -17  -1   9    0.24    0.22 
 -17   1   9    0.34    0.23 
 -15  -1   9    1.21    0.29 
 -15   1   9    1.08    0.28 
 -13  -1   9   -0.05    0.20 
 -13  -1   9    0.07    0.20 
 -13   1   9    0.05    0.19 
 -11  -1   9    1.01    0.25 
 -11   1   9    0.59    0.22 
   9  -1  -9    1.53    0.23 
  -9  -1   9    1.27    0.22 
  -9   1   9    1.60    0.21 
   7  -1  -9    2.59    0.26 
  -7  -1   9    1.52    0.20 
   7  -1  -9    2.51    0.22 
   7   1  -9    2.56    0.24 
   7   1  -9    2.11    0.24 
  -7   1   9    2.38    0.22 
  -5  -1   9   21.71    0.66 
   5  -1  -9   22.07    0.65 
  -5   1   9   21.40    0.62 
   5   1  -9   23.12    0.68 
   5   1  -9   21.83    0.68 
   3  -1  -9   21.08    0.57 
  -3  -1   9   21.11    0.60 
  -3   1   9   21.47    0.56 
   3   1  -9   20.77    0.59 
  -1  -1   9   71.97    1.62 
   1  -1  -9   72.89    1.60 
   1  -1  -9   73.42    1.59 
  -1  -1   9   71.61    1.62 
   1   1  -9   75.82    1.63 
  -1   1   9   74.17    1.60 
   1   1  -9   72.31    1.62 
   1  -1   9   11.85    0.39 
   1  -1   9   12.53    0.38 
  -1  -1  -9   12.02    0.36 
  -1  -1  -9   11.60    0.37 
  -1   1  -9   11.75    0.38 
   1   1   9   11.72    0.37 
  -1   1  -9   12.34    0.38 
   1   1   9   11.57    0.35 
   3  -1   9    0.30    0.08 
   3  -1   9    0.35    0.07 
  -3  -1  -9    0.26    0.08 
  -3  -1  -9    0.29    0.07 
  -3   1  -9    0.32    0.09 
  -3   1  -9    0.24    0.07 
   3   1   9    0.22    0.06 
   3   1   9    0.37    0.08 
  -5  -1  -9    2.14    0.19 
   5  -1   9    2.13    0.17 
  -5  -1  -9    1.81    0.20 
  -5  -1  -9    1.91    0.17 
  -5   1  -9    1.82    0.16 
   5   1   9    2.21    0.20 
  -5   1  -9    2.11    0.18 
  -5   1  -9    2.12    0.19 
  -7  -1  -9    5.83    0.33 
   7  -1   9    6.44    0.38 
  -7  -1  -9    6.33    0.39 
  -7  -1  -9    6.58    0.38 
  -7   1  -9    7.06    0.39 
  -7   1  -9    6.62    0.37 
  -9  -1  -9    6.69    0.43 
  -9  -1  -9    6.67    0.45 
  -9   1  -9    6.82    0.43 
  -9   1  -9    5.74    0.41 
 -11  -1  -9    0.03    0.18 
 -11  -1  -9    0.28    0.19 
 -11   1  -9    0.47    0.21 
 -11   1  -9    0.35    0.18 
 -13  -1  -9    0.08    0.17 
 -13  -1  -9   -0.12    0.14 
 -13   1  -9    0.48    0.24 
 -13   1  -9    0.12    0.17 
 -15  -1  -9    0.23    0.23 
 -15  -1  -9    0.07    0.20 
 -15   1  -9    0.24    0.24 
 -15   1  -9    0.14    0.18 
 -17  -1  -9   -0.02    0.22 
 -17  -1  -9    0.35    0.29 
 -17   1  -9    0.39    0.23 
 -17   1  -9   -0.10    0.26 
 -18  -2   9    0.32    0.27 
 -18   2   9    0.91    0.34 
 -16  -2   9    0.04    0.20 
 -16  -2   9   -0.43    0.20 
 -16   2   9    0.24    0.22 
 -14  -2   9    3.10    0.42 
 -14  -2   9    3.83    0.45 
 -14   2   9    3.29    0.38 
 -12  -2   9    3.23    0.41 
 -12  -2   9    3.09    0.38 
 -12   2   9    2.90    0.34 
 -10  -2   9    1.58    0.26 
 -10  -2   9    1.14    0.23 
 -10   2   9    1.54    0.22 
   8  -2  -9    1.37    0.19 
   8  -2  -9    1.22    0.18 
  -8  -2   9    1.31    0.20 
  -8   2   9    1.23    0.17 
   6  -2  -9   18.53    0.61 
   6  -2  -9   19.29    0.63 
  -6  -2   9   18.80    0.64 
   6   2  -9   19.84    0.68 
  -6   2   9   19.25    0.57 
   6   2  -9   19.71    0.67 
   4  -2  -9    2.75    0.17 
  -4  -2   9    2.87    0.20 
   4   2  -9    2.69    0.20 
   4   2  -9    2.80    0.20 
  -4   2   9    2.75    0.16 
  -2  -2   9    1.11    0.12 
   2  -2  -9    1.19    0.10 
  -2   2   9    1.20    0.09 
   2   2  -9    1.14    0.13 
   2   2  -9    1.28    0.13 
   0  -2   9   67.66    1.52 
   0  -2  -9   66.21    1.48 
   0  -2   9   69.09    1.54 
   0  -2  -9   68.15    1.49 
   0   2  -9   67.70    1.52 
   0   2   9   68.46    1.47 
  -2  -2  -9   16.14    0.47 
   2  -2   9   16.58    0.51 
   2  -2   9   16.08    0.49 
  -2  -2  -9   17.12    0.48 
   2   2   9   17.14    0.45 
  -2   2  -9   16.11    0.50 
  -2   2  -9   16.29    0.49 
   2   2   9   16.50    0.48 
  -4  -2  -9    0.07    0.07 
   4  -2   9    0.08    0.06 
  -4  -2  -9    0.14    0.07 
   4  -2   9    0.02    0.06 
  -4   2  -9    0.03    0.05 
  -4   2  -9    0.04    0.07 
   4   2   9    0.05    0.05 
   6  -2   9    0.19    0.09 
   6  -2   9    0.14    0.10 
  -6  -2  -9    0.14    0.08 
  -6  -2  -9    0.17    0.10 
  -6  -2  -9   -0.12    0.09 
  -6   2  -9    0.08    0.09 
  -6   2  -9    0.01    0.09 
   8  -2   9    3.66    0.33 
  -8  -2  -9    4.60    0.37 
  -8  -2  -9    4.06    0.30 
  -8  -2  -9    3.73    0.33 
  -8   2  -9    4.31    0.35 
  -8   2  -9    4.10    0.31 
 -10  -2  -9    0.75    0.22 
 -10  -2  -9    0.60    0.23 
 -10   2  -9    0.87    0.22 
 -10   2  -9    0.48    0.18 
 -12  -2  -9   -0.07    0.16 
 -12  -2  -9   -0.28    0.19 
 -12   2  -9   -0.03    0.15 
 -12   2  -9    0.04    0.18 
 -14  -2  -9    0.08    0.19 
 -14  -2  -9    0.05    0.20 
 -14   2  -9    0.25    0.19 
 -14   2  -9    0.22    0.24 
 -16  -2  -9    0.13    0.24 
 -16  -2  -9    0.43    0.25 
 -16   2  -9    0.21    0.25 
 -16   2  -9   -0.05    0.20 
 -17  -3   9   -0.16    0.20 
 -15  -3   9    1.18    0.32 
 -15  -3   9    0.36    0.29 
 -15   3   9    0.82    0.24 
 -13  -3   9    0.06    0.20 
 -13  -3   9   -0.43    0.17 
 -13   3   9    0.12    0.17 
 -11  -3   9   10.94    0.64 
 -11  -3   9   11.42    0.62 
 -11   3   9   11.29    0.52 
  -9  -3   9    0.24    0.15 
  -9  -3   9    0.20    0.14 
   9  -3  -9    0.19    0.12 
  -9   3   9    0.22    0.11 
   7  -3  -9    7.84    0.37 
  -7  -3   9    7.92    0.41 
   7  -3  -9    8.22    0.38 
   7   3  -9    8.77    0.51 
  -7   3   9    7.55    0.31 
   5  -3  -9   30.82    0.84 
  -5  -3   9   32.84    0.90 
   5   3  -9   32.01    0.84 
  -5   3   9   31.55    0.77 
   5   3  -9   31.91    0.92 
   3  -3  -9   42.24    1.00 
  -3  -3   9   42.34    1.08 
  -3   3   9   43.37    0.94 
   3   3  -9   43.98    1.05 
   3   3  -9   43.29    1.08 
   3   3  -9   43.88    1.08 
  -1  -3   9  118.46    2.58 
  -1  -3   9  117.97    2.56 
   1  -3  -9  119.82    2.50 
   1   3  -9  120.27    2.55 
   1   3  -9  117.71    2.56 
   1  -3   9    0.04    0.07 
  -1  -3  -9    0.01    0.05 
   1  -3   9    0.02    0.06 
  -1  -3  -9   -0.03    0.05 
  -1   3  -9    0.03    0.06 
  -1   3  -9    0.02    0.06 
   3  -3   9   10.13    0.37 
  -3  -3  -9    9.86    0.35 
  -3  -3  -9    9.95    0.36 
   3   3   9    9.79    0.31 
  -3   3  -9    9.90    0.37 
  -3   3  -9    9.82    0.38 
  -5  -3  -9   20.38    0.70 
   5  -3   9   19.67    0.66 
  -5  -3  -9   19.87    0.64 
   5  -3   9   19.73    0.63 
  -5  -3  -9   20.03    0.63 
  -5   3  -9   19.32    0.60 
  -5   3  -9   20.02    0.65 
  -7  -3  -9    1.05    0.21 
   7  -3   9    0.95    0.17 
  -7  -3  -9    0.95    0.17 
  -7  -3  -9    1.00    0.19 
   7  -3   9    1.12    0.20 
  -7   3  -9    0.59    0.15 
  -7   3  -9    0.98    0.19 
   9  -3   9   14.64    0.68 
  -9  -3  -9   14.11    0.67 
  -9  -3  -9   14.99    0.71 
  -9   3  -9   15.52    0.63 
  -9   3  -9   15.83    0.68 
 -11  -3  -9    2.36    0.38 
 -11  -3  -9    2.76    0.38 
 -11   3  -9    2.99    0.35 
 -11   3  -9    2.22    0.35 
 -13  -3  -9   -0.09    0.19 
 -13  -3  -9    0.05    0.24 
 -13   3  -9    0.10    0.21 
 -13   3  -9    0.34    0.18 
 -15  -3  -9    0.31    0.27 
 -15  -3  -9    0.60    0.31 
 -15   3  -9    0.02    0.22 
 -15   3  -9    0.33    0.21 
 -16  -4   9   -0.21    0.22 
 -16  -4   9    0.14    0.21 
 -14  -4   9    0.76    0.31 
 -14  -4   9    0.88    0.29 
 -12  -4   9    1.75    0.31 
 -12  -4   9    0.91    0.28 
 -12   4   9    1.33    0.24 
 -10  -4   9    0.56    0.22 
  10  -4  -9    0.48    0.16 
 -10  -4   9    0.54    0.19 
 -10   4   9    0.70    0.15 
   8  -4  -9    1.72    0.22 
  -8  -4   9    1.94    0.26 
   8  -4  -9    1.64    0.20 
  -8   4   9    1.64    0.15 
   6  -4  -9   26.64    0.79 
   6  -4  -9   26.49    0.78 
  -6  -4   9   27.40    0.84 
  -6   4   9   28.00    0.67 
   6   4  -9   27.33    0.86 
   6   4  -9   25.81    0.75 
  -6   4   9   27.71    0.65 
   4  -4  -9    7.96    0.30 
  -4  -4   9    7.74    0.36 
   4   4  -9    8.21    0.37 
   4   4  -9    7.53    0.31 
   2  -4  -9    2.41    0.13 
  -2  -4   9    1.84    0.16 
  -2  -4   9    2.23    0.18 
   2   4  -9    2.13    0.15 
   2   4  -9    2.44    0.18 
   2   4  -9    2.27    0.18 
   0  -4  -9   59.77    1.32 
   0  -4   9   60.86    1.43 
   0  -4   9   60.00    1.41 
   0  -4  -9   60.91    1.32 
   0   4  -9   60.28    1.38 
   0   4  -9   61.66    1.39 
  -2  -4  -9    0.72    0.10 
   2  -4   9    0.69    0.12 
   2  -4   9    0.52    0.12 
  -2  -4  -9    1.04    0.11 
  -2   4  -9    0.72    0.11 
  -2   4  -9    0.60    0.11 
  -4  -4  -9    0.34    0.10 
  -4  -4  -9    0.12    0.11 
  -4  -4  -9    0.41    0.09 
   4  -4   9    0.36    0.10 
   4  -4   9    0.24    0.10 
   4   4   9    0.42    0.07 
  -4   4  -9    0.19    0.07 
  -4   4  -9    0.40    0.11 
  -6  -4  -9    6.07    0.33 
   6  -4   9    5.59    0.36 
   6  -4   9    6.56    0.33 
  -6  -4  -9    6.35    0.40 
  -6  -4  -9    6.09    0.36 
  -6   4  -9    5.91    0.31 
  -6   4  -9    6.33    0.35 
  -8  -4  -9    1.91    0.28 
   8  -4   9    2.19    0.26 
  -8  -4  -9    2.29    0.32 
   8  -4   9    2.26    0.29 
  -8  -4  -9    2.15    0.26 
  -8   4  -9    2.96    0.26 
  -8   4  -9    2.62    0.30 
 -10  -4  -9    0.42    0.22 
 -10  -4  -9    0.30    0.21 
  10  -4   9    0.63    0.23 
 -10   4  -9    0.45    0.16 
 -10   4  -9    0.30    0.18 
 -12  -4  -9    0.90    0.28 
 -12  -4  -9    0.91    0.32 
 -12   4  -9    1.13    0.28 
 -12   4  -9    1.20    0.25 
 -14  -4  -9    1.14    0.35 
 -14  -4  -9    1.10    0.34 
 -14   4  -9    0.66    0.27 
 -14   4  -9    0.84    0.23 
 -16  -4  -9   -0.07    0.23 
 -16  -4  -9    0.47    0.35 
 -16   4  -9    0.47    0.25 
 -15  -5   9    1.30    0.34 
 -13  -5   9   -0.29    0.22 
 -13  -5   9    0.03    0.20 
 -11  -5   9    0.85    0.26 
  -9  -5   9    2.68    0.32 
   9  -5  -9    2.40    0.28 
  -9   5   9    2.06    0.16 
  -7  -5   9    1.78    0.24 
   7  -5  -9    2.14    0.22 
   7  -5  -9    2.33    0.23 
   7   5  -9    2.01    0.19 
  -5  -5   9   13.30    0.52 
   5  -5  -9   12.41    0.43 
   5   5  -9   12.17    0.50 
   5   5  -9   12.37    0.43 
  -3  -5   9    7.72    0.35 
   3  -5  -9    7.39    0.26 
   3   5  -9    7.72    0.29 
   3   5  -9    7.37    0.33 
   1  -5  -9   10.04    0.29 
  -1  -5   9    9.69    0.38 
  -1  -5   9   10.56    0.41 
   1   5  -9   10.60    0.35 
   1   5  -9   10.83    0.36 
   1  -5   9    0.11    0.08 
  -1  -5  -9    0.03    0.05 
   1  -5   9    0.09    0.06 
  -1  -5  -9    0.10    0.05 
  -1   5  -9   -0.04    0.03 
  -1   5  -9   -0.05    0.06 
  -1   5  -9    0.06    0.05 
  -3  -5  -9    2.89    0.24 
   3  -5   9    2.90    0.20 
  -3  -5  -9    2.93    0.19 
   3  -5   9    3.06    0.23 
  -3  -5  -9    3.08    0.19 
  -3   5  -9    2.77    0.14 
  -3   5  -9    3.08    0.20 
   5  -5   9    2.83    0.25 
   5  -5   9    2.58    0.21 
  -5  -5  -9    2.57    0.21 
  -5  -5  -9    2.40    0.29 
  -5  -5  -9    2.47    0.23 
  -5   5  -9    2.38    0.17 
   5   5   9    2.26    0.09 
  -5   5  -9    2.62    0.21 
  -7  -5  -9    1.20    0.19 
   7  -5   9    1.13    0.21 
   7  -5   9    1.11    0.17 
  -7  -5  -9    1.46    0.24 
  -7  -5  -9    1.12    0.25 
  -7   5  -9    1.52    0.21 
  -7   5  -9    1.20    0.16 
  -9  -5  -9    2.29    0.33 
   9  -5   9    1.81    0.29 
  -9  -5  -9    1.74    0.32 
  -9   5  -9    2.52    0.27 
  -9   5  -9    2.09    0.28 
 -11  -5  -9   -0.01    0.22 
 -11  -5  -9    0.06    0.20 
 -11   5  -9    0.49    0.20 
 -11   5  -9    0.38    0.16 
 -13  -5  -9   -0.26    0.21 
 -13  -5  -9    0.07    0.26 
 -13   5  -9    0.13    0.15 
 -15  -5  -9    0.06    0.29 
 -15  -5  -9    0.33    0.26 
 -15   5  -9    0.18    0.21 
 -14  -6   9    0.80    0.30 
 -12  -6   9    1.53    0.34 
 -10  -6   9   -0.29    0.17 
  10   6  -9   -0.06    0.13 
   8  -6  -9    1.97    0.22 
  -8  -6   9    1.67    0.27 
   8   6  -9    1.97    0.21 
   6  -6  -9    5.46    0.30 
   6  -6  -9    5.51    0.30 
  -6  -6   9    6.06    0.38 
   6   6  -9    6.45    0.44 
   6   6  -9    5.48    0.26 
  -4  -6   9   -0.06    0.10 
   4  -6  -9   -0.01    0.06 
   4   6  -9    0.10    0.06 
   4   6  -9    0.24    0.11 
   2  -6  -9    3.53    0.16 
  -2  -6   9    3.32    0.24 
   2   6  -9    3.81    0.16 
   2   6  -9    3.59    0.21 
   2   6  -9    3.75    0.16 
   0  -6  -9    5.53    0.20 
   0  -6  -9    5.66    0.20 
   0  -6   9    5.53    0.28 
   0  -6   9    6.17    0.32 
   0   6  -9    6.03    0.18 
   0   6  -9    6.08    0.18 
   0   6  -9    5.83    0.19 
  -2  -6  -9    1.64    0.14 
   2  -6   9    1.63    0.19 
  -2  -6  -9    1.38    0.13 
   2  -6   9    1.54    0.17 
  -2  -6  -9    1.77    0.22 
  -2   6  -9    1.88    0.11 
  -2   6  -9    1.50    0.11 
   4  -6   9    1.52    0.21 
  -4  -6  -9    1.60    0.24 
  -4  -6  -9    1.81    0.20 
  -4  -6  -9    1.36    0.16 
   4  -6   9    1.59    0.18 
  -4   6  -9    1.39    0.15 
  -6  -6  -9    5.99    0.44 
   6  -6   9    5.62    0.34 
  -6  -6  -9    5.92    0.37 
  -6  -6  -9    6.27    0.35 
   6  -6   9    6.63    0.41 
  -6   6  -9    5.71    0.24 
  -8  -6  -9   -0.29    0.16 
   8  -6   9    0.23    0.18 
  -8  -6  -9    0.20    0.18 
  -8   6  -9    0.07    0.09 
  10  -6   9    0.22    0.21 
 -10  -6  -9    0.02    0.19 
 -10  -6  -9    0.10    0.27 
 -10   6  -9    0.23    0.13 
 -12  -6  -9    0.26    0.28 
 -12  -6  -9    0.28    0.25 
 -14  -6  -9    0.21    0.29 
 -14  -6  -9    0.28    0.27 
 -13  -7   9    1.50    0.35 
 -11  -7   9   -0.47    0.20 
  -9  -7   9   -0.27    0.16 
  -7  -7   9    0.01    0.15 
  -5  -7   9    0.41    0.16 
   5  -7  -9    0.20    0.11 
   5   7  -9    0.75    0.17 
  -3  -7   9    5.05    0.33 
   3  -7  -9    5.09    0.21 
   3   7  -9    4.92    0.26 
  -1  -7   9    4.16    0.25 
   1  -7  -9    4.16    0.15 
   1  -7  -9    4.05    0.26 
  -1  -7   9    4.32    0.30 
   1  -7  -9    3.89    0.15 
   1  -7   9    3.48    0.24 
   1  -7   9    3.43    0.27 
  -1  -7  -9    3.92    0.29 
  -1  -7  -9    3.71    0.17 
  -1  -7  -9    3.82    0.18 
  -3  -7  -9    0.82    0.19 
  -3  -7  -9    1.09    0.15 
   3  -7   9    1.06    0.18 
  -3  -7  -9    0.99    0.13 
  -5  -7  -9    0.72    0.17 
  -5  -7  -9    0.63    0.20 
   5  -7   9    0.61    0.17 
   7  -7   9    4.21    0.38 
  -7  -7  -9    4.47    0.37 
  -7  -7  -9    4.17    0.46 
  -9  -7  -9    0.93    0.27 
  -9  -7  -9    1.15    0.32 
   9  -7   9    0.71    0.23 
 -11  -7  -9    0.09    0.23 
 -11  -7  -9    0.71    0.32 
 -13  -7  -9    0.03    0.24 
 -13  -7  -9    0.00    0.27 
 -12  -8   9    0.59    0.28 
 -10  -8   9    0.17    0.21 
  -8  -8   9    0.13    0.18 
  -6  -8   9    0.88    0.20 
  -4  -8   9    0.20    0.15 
   2  -8  -9    1.18    0.09 
  -2  -8   9    1.40    0.21 
   2  -8  -9    1.52    0.16 
   0  -8  -9    0.28    0.06 
   0  -8   9    0.39    0.14 
   0  -8  -9    0.20    0.05 
   0  -8  -9    0.00    0.11 
  -2  -8  -9    0.05    0.09 
  -2  -8  -9    0.16    0.13 
   2  -8   9    0.23    0.12 
  -4  -8  -9    0.28    0.13 
  -4  -8  -9    0.33    0.18 
   4  -8   9    0.53    0.16 
   6  -8   9    0.25    0.17 
  -6  -8  -9    0.14    0.16 
  -6  -8  -9    0.57    0.22 
  -8  -8  -9    0.54    0.26 
  -8  -8  -9    0.20    0.22 
   8  -8   9    0.80    0.25 
 -10  -8  -9   -0.06    0.20 
 -10  -8  -9    0.21    0.25 
  10  -8   9   -0.16    0.19 
  -9  -9   9    0.02    0.19 
  -7  -9   9    0.07    0.17 
  -5  -9   9    0.12    0.15 
  -3  -9   9    0.60    0.18 
  -1  -9   9    0.20    0.13 
  -1  -9  -9    0.02    0.07 
   1  -9   9    0.15    0.13 
   3  -9   9    0.23    0.14 
  -3  -9  -9    0.07    0.10 
   5  -9   9    0.15    0.15 
  -5  -9  -9   -0.02    0.13 
  -7  -9  -9    1.01    0.26 
  -7  -9  -9    1.68    0.35 
   7  -9   9    0.93    0.25 
  -6 -10   9    0.06    0.17 
  -4 -10   9   -0.09    0.13 
  -2 -10   9   -0.06    0.13 
   0 -10   9    0.24    0.15 
   2 -10   9    0.49    0.18 
  -4 -10  -9    0.03    0.13 
   4 -10   9    0.14    0.15 
 -18   0  10    0.06    0.25 
 -16   0  10    2.38    0.37 
 -14   0  10    6.85    0.52 
 -12   0  10    3.86    0.41 
 -10   0  10    2.82    0.33 
   8   0 -10    0.41    0.13 
  -8   0  10    0.59    0.15 
  -6   0  10   16.10    0.55 
   6   0 -10   15.22    0.56 
   6   0 -10   15.97    0.56 
   4   0 -10   87.38    1.95 
  -4   0  10   84.95    1.92 
  -2   0  10  118.99    2.56 
   2   0 -10  117.16    2.54 
   2   0 -10  121.16    2.56 
   0   0 -10   99.89    2.16 
   0   0  10  102.16    2.16 
   0   0 -10   99.42    2.17 
   0   0  10   98.50    2.17 
  -2   0 -10  253.12    5.23 
   2   0  10  256.50    5.25 
   2   0  10  244.57    5.20 
  -2   0 -10  251.97    5.22 
  -4   0 -10    0.91    0.14 
   4   0  10    1.03    0.13 
   4   0  10    1.24    0.16 
  -4   0 -10    1.05    0.13 
  -6   0 -10   22.42    0.69 
   6   0  10   22.34    0.74 
  -6   0 -10   22.22    0.73 
  -6   0 -10   22.00    0.73 
  -8   0 -10    1.73    0.26 
  -8   0 -10    2.27    0.28 
 -10   0 -10    0.85    0.21 
 -10   0 -10    0.66    0.22 
 -12   0 -10   -0.05    0.15 
 -12   0 -10   -0.10    0.14 
 -14   0 -10    0.23    0.20 
 -14   0 -10    0.09    0.19 
 -16   0 -10    0.25    0.23 
 -16   0 -10    0.08    0.23 
 -17  -1  10    0.62    0.27 
 -17   1  10    0.97    0.29 
 -15  -1  10    1.67    0.33 
 -15   1  10    2.19    0.35 
 -13  -1  10    1.06    0.29 
 -13   1  10    1.59    0.29 
 -11  -1  10    8.14    0.53 
 -11   1  10    8.86    0.51 
   9  -1 -10    1.66    0.28 
  -9  -1  10    1.53    0.23 
  -9   1  10    1.75    0.23 
   7  -1 -10   12.51    0.52 
  -7  -1  10   13.54    0.53 
   7  -1 -10   13.95    0.53 
   7   1 -10   13.82    0.56 
  -7   1  10   13.89    0.50 
  -5  -1  10  126.17    2.81 
   5  -1 -10  129.04    2.81 
   5   1 -10  128.83    2.86 
   5   1 -10  130.83    2.84 
  -5   1  10  125.21    2.77 
  -3  -1  10    0.77    0.12 
   3  -1 -10    0.87    0.11 
   3   1 -10    0.73    0.11 
   3   1 -10    0.58    0.10 
  -3   1  10    0.64    0.09 
   1  -1 -10    2.96    0.16 
   1  -1 -10    2.83    0.16 
  -1  -1  10    2.76    0.16 
  -1  -1  10    2.80    0.17 
   1   1 -10    3.11    0.17 
   1   1 -10    3.10    0.17 
  -1   1  10    2.97    0.16 
  -1  -1 -10   78.76    1.78 
   1  -1  10   83.25    1.79 
  -1  -1 -10   81.51    1.79 
   1  -1  10   81.38    1.82 
   1   1  10   81.27    1.77 
   1   1  10   82.51    1.79 
  -1   1 -10   77.76    1.79 
  -1   1 -10   79.80    1.80 
   3  -1  10    0.00    0.04 
  -3  -1 -10    0.00    0.05 
   3  -1  10   -0.04    0.05 
  -3  -1 -10    0.07    0.06 
  -3   1 -10   -0.04    0.04 
   3   1  10   -0.03    0.04 
   3   1  10    0.01    0.06 
  -3   1 -10   -0.06    0.06 
  -5  -1 -10   -0.05    0.09 
   5  -1  10   -0.01    0.05 
  -5  -1 -10   -0.14    0.06 
   5  -1  10   -0.04    0.07 
  -5  -1 -10    0.07    0.07 
   5   1  10   -0.05    0.04 
  -5   1 -10   -0.11    0.06 
   5   1  10    0.13    0.08 
  -5   1 -10   -0.05    0.05 
  -5   1 -10    0.01    0.07 
  -7  -1 -10    7.29    0.42 
   7  -1  10    8.78    0.44 
  -7  -1 -10    7.88    0.44 
  -7  -1 -10    7.69    0.38 
  -7   1 -10    8.38    0.43 
  -7   1 -10    8.31    0.43 
  -9  -1 -10    2.86    0.34 
  -9  -1 -10    2.89    0.33 
  -9   1 -10    2.74    0.32 
  -9   1 -10    3.02    0.35 
 -11  -1 -10    0.67    0.25 
 -11  -1 -10    0.92    0.27 
 -11   1 -10    0.97    0.25 
 -11   1 -10    1.09    0.26 
 -13  -1 -10    0.09    0.19 
 -13  -1 -10    0.26    0.19 
 -13   1 -10   -0.07    0.17 
 -13   1 -10   -0.01    0.19 
 -15  -1 -10   -0.19    0.15 
 -15  -1 -10    0.14    0.22 
 -15   1 -10   -0.24    0.20 
 -15   1 -10    0.23    0.22 
 -17  -1 -10    0.47    0.28 
 -17  -1 -10    1.04    0.33 
 -17   1 -10    0.18    0.27 
 -17   1 -10    0.59    0.30 
 -18  -2  10    0.21    0.24 
 -16  -2  10    0.22    0.22 
 -16   2  10   -0.08    0.21 
 -14  -2  10    0.71    0.24 
 -14   2  10    0.71    0.24 
 -12  -2  10   -0.09    0.18 
 -12   2  10   -0.19    0.15 
 -10  -2  10   -0.06    0.14 
 -10   2  10   -0.04    0.11 
  -8  -2  10    1.23    0.19 
   8  -2 -10    0.86    0.15 
   8  -2 -10    1.17    0.21 
  -8   2  10    0.98    0.16 
   6  -2 -10    8.54    0.39 
  -6  -2  10    8.65    0.40 
   6  -2 -10    8.05    0.37 
   6   2 -10    8.83    0.42 
  -6   2  10    8.51    0.34 
  -4  -2  10    2.72    0.20 
   4  -2 -10    2.41    0.16 
   4   2 -10    2.30    0.17 
   4   2 -10    2.46    0.19 
  -4   2  10    2.31    0.15 
   4   2 -10    2.59    0.19 
  -2  -2  10   26.09    0.71 
   2  -2 -10   26.47    0.66 
  -2   2  10   26.33    0.66 
   2   2 -10   26.51    0.70 
   2   2 -10   25.95    0.71 
   0  -2 -10   91.90    2.01 
   0  -2  10   91.58    2.08 
   0  -2  10   95.30    2.06 
   0  -2 -10   94.62    2.02 
   0   2  10   94.33    2.00 
   0   2 -10   95.29    2.06 
   0   2 -10   92.02    2.06 
   2  -2  10    1.78    0.15 
   2  -2  10    1.83    0.18 
  -2  -2 -10    1.64    0.13 
  -2  -2 -10    1.58    0.13 
   2   2  10    1.57    0.14 
  -2   2 -10    1.67    0.15 
  -2   2 -10    1.62    0.14 
   2   2  10    1.81    0.12 
  -4  -2 -10    0.12    0.08 
  -4  -2 -10    0.05    0.05 
   4  -2  10    0.05    0.06 
   4  -2  10    0.05    0.07 
  -4   2 -10    0.17    0.07 
  -4   2 -10    0.07    0.08 
   4   2  10    0.25    0.07 
  -6  -2 -10    0.39    0.14 
  -6  -2 -10    0.23    0.11 
  -6  -2 -10    0.14    0.12 
   6  -2  10    0.34    0.10 
   6  -2  10    0.43    0.13 
  -6   2 -10    0.42    0.14 
  -6   2 -10    0.47    0.12 
  -8  -2 -10    1.01    0.22 
  -8  -2 -10    0.83    0.21 
   8  -2  10    0.77    0.20 
  -8   2 -10    1.07    0.22 
  -8   2 -10    0.81    0.19 
 -10  -2 -10    0.53    0.22 
 -10  -2 -10    0.80    0.25 
 -10   2 -10    0.87    0.25 
 -10   2 -10    0.25    0.18 
 -12  -2 -10    1.54    0.34 
 -12  -2 -10    1.05    0.27 
 -12   2 -10    0.69    0.24 
 -12   2 -10    1.08    0.29 
 -14  -2 -10   -0.05    0.20 
 -14  -2 -10    0.08    0.20 
 -14   2 -10    0.23    0.19 
 -14   2 -10    0.29    0.25 
 -16  -2 -10    0.16    0.25 
 -16  -2 -10   -0.06    0.21 
 -16   2 -10    0.12    0.21 
 -16   2 -10   -0.03    0.22 
 -17  -3  10   -0.22    0.19 
 -15  -3  10    0.41    0.24 
 -15   3  10    0.48    0.21 
 -13  -3  10   -0.04    0.16 
 -13   3  10    0.02    0.15 
 -11  -3  10    9.14    0.57 
 -11   3  10   10.20    0.49 
  -9  -3  10    8.94    0.49 
   9  -3 -10    8.64    0.45 
  -9   3  10    9.25    0.40 
  -7  -3  10    0.61    0.15 
   7  -3 -10    0.40    0.11 
   7  -3 -10    0.54    0.12 
  -7   3  10    0.85    0.12 
  -5  -3  10   50.10    1.29 
   5  -3 -10   49.66    1.24 
  -5   3  10   50.64    1.17 
   5   3 -10   52.27    1.34 
   5   3 -10   52.16    1.25 
   3  -3 -10    2.80    0.16 
  -3  -3  10    2.73    0.21 
   3   3 -10    2.98    0.21 
   3   3 -10    2.56    0.18 
   3   3 -10    2.97    0.21 
  -1  -3  10   69.74    1.60 
   1  -3 -10   70.09    1.53 
   1  -3 -10   70.20    1.54 
  -1  -3  10   71.52    1.63 
   1   3 -10   70.22    1.61 
  -1   3  10   69.32    1.47 
   1   3 -10   70.05    1.59 
  -1  -3 -10   49.75    1.16 
   1  -3  10   48.98    1.24 
  -1  -3 -10   51.04    1.17 
   1  -3  10   52.69    1.22 
  -1   3 -10   51.24    1.21 
  -1   3 -10   51.23    1.21 
   3  -3  10   -0.02    0.07 
  -3  -3 -10    0.06    0.06 
   3  -3  10    0.00    0.06 
  -3  -3 -10    0.05    0.05 
  -3   3 -10   -0.02    0.06 
  -3   3 -10   -0.03    0.06 
   3   3  10    0.03    0.04 
  -5  -3 -10    0.28    0.15 
   5  -3  10    0.49    0.11 
   5  -3  10    0.51    0.13 
  -5  -3 -10    0.63    0.13 
  -5  -3 -10    0.39    0.11 
  -5   3 -10    0.48    0.13 
  -5   3 -10    0.51    0.12 
   7  -3  10    0.04    0.09 
  -7  -3 -10   -0.13    0.12 
   7  -3  10   -0.09    0.12 
  -7  -3 -10   -0.01    0.09 
  -7  -3 -10   -0.16    0.13 
  -7   3 -10   -0.01    0.10 
  -7   3 -10    0.08    0.13 
   9  -3  10   -0.16    0.15 
  -9  -3 -10   -0.05    0.18 
  -9  -3 -10    0.32    0.21 
  -9   3 -10    0.26    0.15 
  -9   3 -10    0.17    0.17 
 -11  -3 -10    0.80    0.28 
 -11  -3 -10    1.35    0.29 
 -11   3 -10    0.76    0.23 
 -11   3 -10    0.48    0.25 
 -13  -3 -10    1.61    0.34 
 -13  -3 -10    1.40    0.34 
 -13   3 -10    1.34    0.32 
 -13   3 -10    1.44    0.29 
 -15  -3 -10    0.44    0.27 
 -15  -3 -10    0.14    0.28 
 -15   3 -10    0.13    0.21 
 -15   3 -10    0.30    0.24 
 -16  -4  10   -0.03    0.21 
 -14  -4  10    0.04    0.20 
 -12  -4  10    0.31    0.22 
 -12   4  10    0.04    0.15 
 -10  -4  10    0.32    0.19 
  10  -4 -10    0.64    0.18 
 -10   4  10    0.84    0.15 
  -8  -4  10    3.33    0.33 
   8  -4 -10    3.38    0.26 
   8  -4 -10    4.03    0.28 
  -8   4  10    3.69    0.21 
   6  -4 -10    1.86    0.20 
   6  -4 -10    2.32    0.20 
  -6  -4  10    2.23    0.24 
   6   4 -10    2.30    0.20 
   6   4 -10    2.52    0.27 
  -6   4  10    2.38    0.14 
  -6   4  10    2.59    0.14 
   4  -4 -10   11.78    0.39 
  -4  -4  10   11.56    0.46 
   4   4 -10   12.32    0.42 
   4   4 -10   11.93    0.47 
  -2  -4  10    7.11    0.31 
   2  -4 -10    6.84    0.25 
  -2  -4  10    6.40    0.31 
   2   4 -10    6.67    0.30 
   2   4 -10    6.69    0.28 
   2   4 -10    7.10    0.32 
   0  -4 -10    3.06    0.16 
   0  -4  10    3.24    0.22 
   0  -4  10    3.22    0.20 
   0  -4 -10    3.37    0.16 
   0   4 -10    2.92    0.19 
   0   4 -10    3.40    0.20 
  -2  -4 -10   13.01    0.41 
   2  -4  10   13.37    0.45 
  -2  -4 -10   12.52    0.40 
   2  -4  10   13.04    0.48 
  -2   4 -10   13.16    0.45 
  -4  -4 -10    0.04    0.07 
  -4  -4 -10   -0.09    0.05 
  -4  -4 -10    0.11    0.11 
   4  -4  10    0.10    0.07 
   4  -4  10    0.17    0.10 
  -4   4 -10    0.02    0.06 
   4   4  10    0.10    0.04 
  -4   4 -10    0.22    0.09 
   6  -4  10    2.22    0.23 
  -6  -4 -10    2.10    0.23 
  -6  -4 -10    2.37    0.28 
   6  -4  10    1.77    0.25 
  -6  -4 -10    1.85    0.23 
  -6   4 -10    2.09    0.21 
  -6   4 -10    1.96    0.24 
  -8  -4 -10    1.51    0.27 
   8  -4  10    1.86    0.29 
  -8  -4 -10    1.94    0.26 
  -8  -4 -10    1.98    0.31 
  -8   4 -10    1.64    0.26 
  -8   4 -10    2.04    0.25 
 -10  -4 -10    0.06    0.20 
 -10  -4 -10    0.01    0.19 
  10  -4  10    0.42    0.22 
 -10   4 -10   -0.27    0.13 
 -10   4 -10   -0.12    0.12 
 -12  -4 -10    0.07    0.23 
 -12  -4 -10    0.26    0.21 
 -12   4 -10    0.13    0.15 
 -12   4 -10    0.34    0.21 
 -14  -4 -10    0.19    0.24 
 -14  -4 -10    0.44    0.26 
 -14   4 -10    0.07    0.16 
 -14   4 -10    0.15    0.24 
 -16  -4 -10    0.24    0.33 
 -16  -4 -10    0.04    0.27 
 -16   4 -10   -0.11    0.20 
 -15  -5  10   -0.22    0.18 
 -13  -5  10    0.57    0.24 
 -11  -5  10    0.80    0.28 
   9  -5 -10   -0.13    0.09 
  -9  -5  10   -0.25    0.12 
   9   5 -10    0.00    0.09 
  -9   5  10    0.03    0.07 
   7  -5 -10    0.07    0.08 
   7  -5 -10    0.15    0.09 
  -7  -5  10   -0.04    0.11 
   7   5 -10    0.01    0.07 
  -5  -5  10    1.68    0.22 
   5  -5 -10    1.16    0.14 
   5   5 -10    1.46    0.16 
   5   5 -10    1.18    0.19 
  -3  -5  10    0.15    0.10 
   3  -5 -10    0.06    0.04 
   3   5 -10    0.14    0.09 
   3   5 -10    0.05    0.05 
   1  -5 -10    0.50    0.08 
  -1  -5  10    0.63    0.12 
   1  -5 -10    0.60    0.08 
  -1  -5  10    0.64    0.12 
   1   5 -10    0.72    0.10 
   1   5 -10    0.47    0.09 
   1  -5  10    1.78    0.16 
   1  -5  10    1.93    0.20 
  -1  -5 -10    2.00    0.13 
  -1  -5 -10    1.74    0.13 
  -1   5 -10    2.11    0.16 
   3  -5  10    1.23    0.17 
  -3  -5 -10    1.50    0.15 
  -3  -5 -10    1.43    0.19 
   3  -5  10    1.45    0.16 
  -3  -5 -10    1.77    0.16 
  -3   5 -10    1.51    0.16 
  -3   5 -10    1.40    0.11 
  -5  -5 -10    0.10    0.08 
  -5  -5 -10    0.32    0.12 
   5  -5  10    0.46    0.15 
   5  -5  10    0.13    0.08 
  -5  -5 -10    0.17    0.14 
   5   5  10    0.23    0.04 
  -5   5 -10    0.08    0.07 
  -5   5 -10    0.17    0.10 
   7  -5  10    1.57    0.21 
   7  -5  10    1.76    0.26 
  -7  -5 -10    1.39    0.20 
  -7  -5 -10    1.52    0.24 
  -7  -5 -10    1.83    0.31 
  -7   5 -10    1.87    0.23 
  -7   5 -10    1.51    0.18 
  -9  -5 -10    0.01    0.17 
   9  -5  10    0.06    0.18 
  -9  -5 -10   -0.33    0.16 
  -9   5 -10    0.10    0.11 
  -9   5 -10   -0.06    0.14 
 -11  -5 -10    0.33    0.22 
 -11  -5 -10    0.37    0.26 
 -11   5 -10    0.28    0.18 
 -11   5 -10    0.51    0.18 
 -13  -5 -10    0.29    0.27 
 -13  -5 -10    0.03    0.22 
 -13   5 -10   -0.04    0.13 
 -15  -5 -10    0.32    0.31 
 -15  -5 -10    0.09    0.29 
 -15   5 -10    0.09    0.18 
 -14  -6  10    1.37    0.36 
 -12  -6  10    0.06    0.21 
 -10  -6  10    0.15    0.21 
  10   6 -10    0.14    0.19 
   8  -6 -10    1.10    0.17 
  -8  -6  10    0.99    0.24 
   8   6 -10    1.50    0.19 
   6  -6 -10    0.13    0.09 
  -6  -6  10    0.26    0.15 
   6  -6 -10    0.23    0.09 
   6   6 -10    0.11    0.07 
   4  -6 -10    5.01    0.24 
  -4  -6  10    4.53    0.32 
   4   6 -10    5.04    0.30 
   2  -6 -10    0.89    0.09 
  -2  -6  10    0.77    0.15 
   2   6 -10    0.93    0.12 
   2   6 -10    0.88    0.10 
   0  -6 -10    2.91    0.15 
   0  -6  10    3.22    0.22 
   0  -6  10    3.01    0.25 
   0  -6 -10    2.86    0.14 
   0   6 -10    2.99    0.20 
   0   6 -10    3.19    0.16 
   0   6 -10    2.98    0.15 
   2  -6  10    0.07    0.10 
  -2  -6 -10    0.08    0.07 
  -2  -6 -10    0.14    0.11 
  -2  -6 -10    0.02    0.05 
   2  -6  10    0.17    0.08 
  -2   6 -10    0.12    0.07 
  -4  -6 -10    0.15    0.10 
  -4  -6 -10   -0.03    0.13 
  -4  -6 -10    0.13    0.08 
   4  -6  10    0.03    0.11 
   4  -6  10    0.25    0.09 
  -4   6 -10    0.12    0.08 
  -6  -6 -10    0.26    0.18 
   6  -6  10    0.25    0.16 
  -6  -6 -10    0.35    0.14 
   6  -6  10    0.52    0.18 
  -6   6 -10    0.13    0.11 
  -6   6 -10    0.13    0.08 
   8  -6  10    0.81    0.23 
  -8  -6 -10    0.39    0.20 
  -8  -6 -10    0.55    0.23 
  -8   6 -10    0.82    0.14 
 -10  -6 -10   -0.22    0.23 
 -10  -6 -10   -0.32    0.15 
  10  -6  10    0.11    0.19 
 -10   6 -10    0.20    0.11 
 -12  -6 -10    0.25    0.27 
 -12  -6 -10    0.12    0.24 
 -14  -6 -10    0.43    0.33 
 -14  -6 -10    0.05    0.26 
 -13  -7  10    1.62    0.36 
 -11  -7  10   -0.40    0.20 
  -9  -7  10   -0.21    0.16 
  -7  -7  10    1.33    0.25 
  -5  -7  10    6.86    0.41 
   5  -7 -10    6.24    0.35 
   5   7 -10    6.19    0.39 
  -3  -7  10    0.09    0.12 
   3  -7 -10    0.01    0.06 
   3   7 -10    0.09    0.09 
   1  -7 -10    1.19    0.10 
   1  -7 -10    1.34    0.10 
  -1  -7  10    1.40    0.20 
  -1  -7  10    1.50    0.20 
   1   7 -10    1.26    0.10 
   1  -7  10    4.60    0.35 
  -1  -7 -10    4.14    0.19 
   1  -7  10    4.32    0.31 
  -1  -7 -10    4.57    0.20 
  -1  -7 -10    4.31    0.30 
  -3  -7 -10    0.46    0.12 
  -3  -7 -10    0.16    0.08 
   3  -7  10    0.45    0.15 
  -3  -7 -10    0.19    0.15 
  -5  -7 -10    2.12    0.25 
   5  -7  10    1.99    0.26 
  -5  -7 -10    2.47    0.33 
  -7  -7 -10   -0.02    0.21 
  -7  -7 -10    0.21    0.16 
   7  -7  10    0.06    0.15 
   9  -7  10    0.11    0.19 
  -9  -7 -10   -0.09    0.21 
  -9  -7 -10   -0.37    0.17 
 -11  -7 -10   -0.31    0.20 
 -11  -7 -10   -0.11    0.22 
 -12  -8  10    0.38    0.27 
 -10  -8  10    0.34    0.23 
  -8  -8  10    0.34    0.20 
  -6  -8  10    0.97    0.21 
  -4  -8  10    0.68    0.18 
   2  -8 -10    1.15    0.10 
   2  -8 -10    1.18    0.11 
  -2  -8  10    0.96    0.19 
   2  -8 -10    1.01    0.16 
   0  -8 -10    3.55    0.29 
   0  -8 -10    3.47    0.18 
   0  -8  10    4.23    0.33 
   0  -8 -10    3.64    0.16 
   2  -8  10    0.03    0.12 
  -2  -8 -10    0.12    0.09 
  -2  -8 -10    0.18    0.14 
   4  -8  10    0.94    0.21 
  -4  -8 -10    1.00    0.18 
  -4  -8 -10    1.33    0.25 
  -6  -8 -10    0.65    0.25 
  -6  -8 -10    0.38    0.17 
   6  -8  10    0.27    0.18 
  -8  -8 -10   -0.19    0.18 
   8  -8  10    0.19    0.19 
  -8  -8 -10    0.20    0.22 
  10  -8  10    0.31    0.24 
 -10  -8 -10   -0.22    0.21 
 -10  -8 -10    0.18    0.26 
  -9  -9  10    0.03    0.20 
  -7  -9  10    0.25    0.19 
  -5  -9  10    1.94    0.28 
  -3  -9  10    0.40    0.15 
  -1  -9  10   -0.01    0.10 
  -1  -9 -10    0.52    0.10 
   1  -9  10    0.67    0.18 
  -3  -9 -10    0.50    0.13 
   3  -9  10    0.23    0.16 
   5  -9  10    0.06    0.15 
  -5  -9 -10   -0.08    0.14 
  -7  -9 -10    1.16    0.33 
   7  -9  10    1.36    0.30 
  -7  -9 -10    1.19    0.28 
  -4 -10  10    0.06    0.15 
  -2 -10  10    1.23    0.24 
   0 -10  10    0.43    0.17 
   2 -10  10    0.24    0.16 
   4 -10  10    0.43    0.19 
  -4 -10 -10    0.29    0.15 
 -18   0  11    0.01    0.25 
 -16   0  11    0.52    0.24 
 -14   0  11    0.47    0.23 
 -12   0  11    0.08    0.19 
 -10   0  11   -0.27    0.13 
  -8   0  11    0.29    0.12 
   6   0 -11    0.03    0.08 
   6   0 -11   -0.20    0.06 
  -6   0  11   -0.05    0.09 
  -4   0  11   -0.12    0.06 
   4   0 -11   -0.02    0.05 
  -2   0  11    0.06    0.06 
   2   0 -11    0.00    0.05 
   2   0 -11   -0.04    0.03 
   0   0  11    0.36    0.08 
  -2   0 -11    0.01    0.05 
  -2   0 -11    0.15    0.06 
   2   0  11    0.04    0.05 
   2   0  11    0.02    0.07 
   4   0  11    0.05    0.08 
  -4   0 -11   -0.03    0.06 
  -4   0 -11    0.01    0.07 
   4   0  11   -0.03    0.05 
  -6   0 -11   -0.21    0.09 
  -6   0 -11   -0.02    0.06 
   6   0  11    0.15    0.10 
  -6   0 -11   -0.01    0.09 
  -8   0 -11   -0.18    0.11 
  -8   0 -11    0.03    0.12 
 -10   0 -11   -0.06    0.15 
 -10   0 -11   -0.16    0.17 
 -12   0 -11   -0.25    0.14 
 -12   0 -11   -0.04    0.15 
 -14   0 -11    0.32    0.22 
 -14   0 -11   -0.46    0.14 
 -16   0 -11    0.07    0.21 
 -16   0 -11    0.21    0.27 
 -17  -1  11    0.21    0.25 
 -17   1  11   -0.45    0.16 
 -15  -1  11    0.52    0.24 
 -15   1  11    0.82    0.25 
 -13  -1  11   -0.16    0.18 
 -13   1  11   -0.29    0.14 
 -11  -1  11    1.35    0.29 
 -11   1  11    1.55    0.28 
  -9  -1  11    1.53    0.23 
  -9   1  11    1.91    0.23 
   7  -1 -11   -0.04    0.07 
   7  -1 -11    0.08    0.09 
  -7  -1  11    0.09    0.11 
  -7   1  11    0.14    0.11 
   7   1 -11    0.08    0.11 
   5  -1 -11    4.94    0.27 
  -5  -1  11    3.99    0.26 
   5   1 -11    4.09    0.26 
  -5   1  11    4.29    0.25 
  -3  -1  11   19.69    0.58 
   3  -1 -11   19.85    0.57 
   3   1 -11   19.22    0.59 
  -3   1  11   19.34    0.55 
   3   1 -11   19.81    0.57 
   1  -1 -11    0.95    0.11 
  -1  -1  11    1.29    0.14 
   1  -1 -11    1.14    0.12 
  -1  -1  11    1.15    0.13 
  -1   1  11    1.01    0.11 
   1   1 -11    0.76    0.11 
   1   1 -11    0.91    0.11 
  -1  -1 -11   16.09    0.49 
  -1  -1 -11   16.26    0.48 
   1  -1  11   16.82    0.52 
   1  -1  11   16.94    0.50 
  -1   1 -11   16.54    0.50 
   1   1  11   15.69    0.49 
   1   1  11   16.48    0.48 
  -1   1 -11   16.86    0.51 
  -3  -1 -11   13.70    0.46 
   3  -1  11   13.51    0.45 
   3  -1  11   13.97    0.49 
  -3  -1 -11   13.75    0.46 
  -3   1 -11   14.32    0.48 
  -3   1 -11   13.42    0.46 
   3   1  11   13.97    0.48 
   3   1  11   14.08    0.44 
  -5  -1 -11    2.88    0.23 
   5  -1  11    2.63    0.23 
  -5  -1 -11    2.98    0.24 
  -5  -1 -11    2.96    0.21 
   5  -1  11    2.76    0.20 
   5   1  11    2.57    0.22 
  -5   1 -11    3.24    0.24 
  -5   1 -11    3.01    0.24 
  -7  -1 -11    0.10    0.12 
   7  -1  11    0.16    0.12 
  -7  -1 -11    0.09    0.12 
  -7   1 -11   -0.08    0.10 
  -7   1 -11   -0.07    0.10 
  -9  -1 -11    0.06    0.15 
  -9  -1 -11    0.17    0.16 
  -9   1 -11    0.13    0.15 
  -9   1 -11   -0.04    0.14 
 -11  -1 -11    0.27    0.19 
 -11  -1 -11   -0.08    0.18 
 -11   1 -11    0.11    0.16 
 -11   1 -11    0.02    0.16 
 -13  -1 -11   -0.01    0.16 
 -13  -1 -11    0.01    0.19 
 -13   1 -11   -0.05    0.21 
 -13   1 -11    0.02    0.18 
 -15  -1 -11   -0.01    0.19 
 -15  -1 -11    0.12    0.21 
 -15   1 -11   -0.23    0.20 
 -15   1 -11   -0.16    0.16 
 -17  -1 -11   -0.20    0.26 
 -17  -1 -11    0.08    0.24 
 -17   1 -11    0.23    0.25 
 -17   1 -11    0.37    0.26 
 -18  -2  11    0.57    0.28 
 -16  -2  11    0.49    0.26 
 -16   2  11    0.51    0.24 
 -14  -2  11    1.84    0.32 
 -14   2  11    1.57    0.28 
 -12  -2  11    1.21    0.26 
 -12   2  11    1.09    0.23 
 -10  -2  11    3.31    0.36 
 -10   2  11    3.19    0.29 
   8  -2 -11    2.54    0.27 
  -8  -2  11    2.33    0.27 
  -8   2  11    2.03    0.21 
   6  -2 -11    0.82    0.13 
  -6  -2  11    0.67    0.14 
   6   2 -11    0.64    0.15 
  -6   2  11    0.70    0.11 
  -4  -2  11    9.21    0.38 
   4  -2 -11    9.39    0.35 
   4   2 -11    9.26    0.36 
   4   2 -11    9.26    0.38 
  -4   2  11    9.26    0.33 
   2  -2 -11   19.39    0.55 
  -2  -2  11   19.88    0.60 
   2   2 -11   20.72    0.60 
  -2   2  11   20.72    0.55 
   2   2 -11   19.90    0.58 
   0  -2  11   38.44    0.95 
   0  -2 -11   37.34    0.91 
   0  -2 -11   38.75    0.93 
   0  -2  11   39.13    0.98 
   0   2  11   38.17    0.91 
   0   2 -11   37.58    0.95 
   0   2 -11   37.30    0.95 
   2  -2  11   36.24    0.96 
  -2  -2 -11   37.31    0.92 
   2  -2  11   37.07    0.93 
  -2  -2 -11   36.93    0.92 
  -2   2 -11   36.36    0.94 
   2   2  11   37.18    0.89 
   2   2  11   35.84    0.91 
  -2   2 -11   36.55    0.95 
   4  -2  11    2.47    0.20 
  -4  -2 -11    2.30    0.19 
  -4  -2 -11    2.11    0.17 
   4  -2  11    2.26    0.18 
  -4   2 -11    2.38    0.21 
   4   2  11    2.01    0.15 
   6  -2  11    9.03    0.46 
  -6  -2 -11    9.89    0.48 
  -6  -2 -11    9.08    0.44 
   6  -2  11    9.19    0.41 
  -6  -2 -11    9.22    0.41 
  -6   2 -11    8.88    0.44 
  -6   2 -11    9.50    0.42 
   8  -2  11    1.63    0.27 
  -8  -2 -11    1.22    0.24 
  -8  -2 -11    1.42    0.27 
  -8   2 -11    1.34    0.22 
  -8   2 -11    0.85    0.21 
 -10  -2 -11    0.03    0.18 
 -10  -2 -11   -0.01    0.19 
 -10   2 -11   -0.23    0.17 
 -10   2 -11    0.15    0.15 
 -12  -2 -11   -0.30    0.18 
 -12  -2 -11    0.09    0.19 
 -12   2 -11    0.02    0.18 
 -12   2 -11   -0.04    0.16 
 -14  -2 -11    0.14    0.20 
 -14  -2 -11    0.26    0.22 
 -14   2 -11    0.16    0.19 
 -14   2 -11    0.40    0.24 
 -16  -2 -11    0.17    0.21 
 -16  -2 -11    0.34    0.26 
 -16   2 -11    0.01    0.25 
 -16   2 -11    0.18    0.23 
 -17  -3  11   -0.24    0.20 
 -15  -3  11    0.13    0.22 
 -15   3  11   -0.02    0.17 
 -13  -3  11    0.92    0.27 
 -13   3  11    0.54    0.18 
 -11  -3  11    1.64    0.30 
 -11   3  11    1.23    0.23 
   9  -3 -11    0.89    0.18 
  -9  -3  11    0.67    0.19 
  -9   3  11    0.92    0.16 
   7  -3 -11    9.62    0.43 
  -7  -3  11    9.66    0.45 
   7  -3 -11    9.14    0.43 
  -7   3  11    9.34    0.36 
  -5  -3  11   30.87    0.89 
   5  -3 -11   31.01    0.84 
  -5   3  11   30.74    0.77 
   5   3 -11   30.90    0.92 
   5   3 -11   30.09    0.84 
   3  -3 -11    2.51    0.16 
  -3  -3  11    2.38    0.21 
   3   3 -11    2.41    0.19 
   3   3 -11    2.58    0.20 
  -1  -3  11    0.65    0.11 
   1  -3 -11    0.61    0.09 
  -1  -3  11    0.96    0.14 
   1  -3 -11    0.56    0.09 
   1   3 -11    0.68    0.11 
   1   3 -11    0.61    0.11 
  -1   3  11    0.53    0.07 
   1  -3  11   48.56    1.18 
   1  -3  11   46.77    1.20 
  -1  -3 -11   47.90    1.13 
  -1  -3 -11   47.74    1.12 
  -1   3 -11   48.69    1.18 
  -1   3 -11   49.31    1.18 
  -3  -3 -11    5.43    0.26 
   3  -3  11    5.48    0.27 
   3  -3  11    5.26    0.29 
  -3  -3 -11    5.59    0.27 
  -3   3 -11    5.18    0.28 
   3   3  11    5.10    0.22 
  -5  -3 -11   12.68    0.47 
  -5  -3 -11   12.42    0.54 
   5  -3  11   12.23    0.47 
   5  -3  11   12.38    0.52 
  -5  -3 -11   11.82    0.48 
  -5   3 -11   12.06    0.50 
  -5   3 -11   12.14    0.46 
  -7  -3 -11    1.19    0.23 
   7  -3  11    1.56    0.25 
  -7  -3 -11    1.39    0.21 
  -7  -3 -11    1.65    0.28 
  -7   3 -11    1.76    0.23 
  -7   3 -11    1.22    0.22 
  -9  -3 -11    0.00    0.19 
   9  -3  11   -0.22    0.15 
  -9  -3 -11    0.15    0.20 
  -9   3 -11    0.21    0.15 
  -9   3 -11   -0.11    0.17 
 -11  -3 -11    2.53    0.39 
 -11  -3 -11    1.73    0.34 
 -11   3 -11    1.88    0.30 
 -11   3 -11    2.22    0.34 
 -13  -3 -11    0.43    0.23 
 -13  -3 -11    0.14    0.26 
 -13   3 -11    0.27    0.20 
 -13   3 -11    0.53    0.26 
 -15  -3 -11    0.51    0.31 
 -15  -3 -11    0.27    0.25 
 -15   3 -11    0.32    0.23 
 -15   3 -11    0.73    0.27 
 -16  -4  11    1.33    0.35 
 -14  -4  11    0.94    0.28 
 -12  -4  11    0.04    0.18 
 -12   4  11   -0.40    0.11 
  10  -4 -11    4.17    0.35 
 -10  -4  11    4.24    0.39 
 -10   4  11    5.05    0.29 
  -8  -4  11    2.07    0.28 
   8  -4 -11    1.91    0.23 
  -8   4  11    1.63    0.16 
   6  -4 -11    0.51    0.11 
  -6  -4  11    0.81    0.16 
  -6   4  11    0.70    0.09 
   6   4 -11    0.64    0.13 
  -6   4  11    0.61    0.09 
   6   4 -11    0.51    0.15 
  -4  -4  11   21.04    0.68 
   4  -4 -11   20.83    0.61 
   4   4 -11   22.73    0.71 
   4   4 -11   21.85    0.64 
  -2  -4  11   39.78    1.02 
  -2  -4  11   39.29    1.04 
   2  -4 -11   39.03    0.93 
   2   4 -11   39.62    1.01 
   2   4 -11   38.45    0.98 
   0  -4  11   23.57    0.70 
   0  -4 -11   23.05    0.60 
   0  -4 -11   22.51    0.60 
   0  -4  11   23.47    0.68 
   0   4 -11   23.46    0.66 
   2  -4  11   19.62    0.61 
  -2  -4 -11   20.83    0.57 
   2  -4  11   19.35    0.64 
  -2  -4 -11   19.97    0.57 
  -2   4 -11   20.13    0.62 
   4  -4  11    0.21    0.11 
  -4  -4 -11    0.17    0.09 
   4  -4  11    0.13    0.07 
  -4  -4 -11    0.20    0.12 
  -4  -4 -11    0.38    0.10 
  -4   4 -11    0.30    0.11 
   4   4  11    0.22    0.06 
  -4   4 -11    0.24    0.09 
  -6  -4 -11    9.80    0.52 
   6  -4  11    9.29    0.43 
  -6  -4 -11    9.38    0.43 
  -6  -4 -11    9.65    0.46 
   6  -4  11   10.49    0.50 
  -6   4 -11    9.37    0.46 
  -6   4 -11    9.45    0.42 
   8  -4  11    5.15    0.42 
  -8  -4 -11    4.85    0.42 
  -8  -4 -11    5.93    0.48 
  -8  -4 -11    4.93    0.35 
  -8   4 -11    4.65    0.39 
  -8   4 -11    5.70    0.36 
 -10  -4 -11    2.09    0.35 
  10  -4  11    2.14    0.34 
 -10  -4 -11    1.91    0.32 
 -10   4 -11    2.29    0.33 
 -10   4 -11    2.55    0.31 
 -12  -4 -11    0.23    0.25 
 -12  -4 -11   -0.14    0.17 
 -12   4 -11    0.05    0.14 
 -12   4 -11   -0.02    0.19 
 -14  -4 -11    0.83    0.34 
 -14  -4 -11    0.13    0.21 
 -14   4 -11    0.40    0.26 
 -14   4 -11    0.42    0.22 
 -15  -5  11    0.47    0.27 
 -13  -5  11    0.32    0.22 
 -11  -5  11    2.53    0.37 
   9  -5 -11    0.93    0.22 
  -9  -5  11    0.78    0.21 
   9   5 -11    1.24    0.19 
  -9   5  11    1.11    0.13 
  -7  -5  11    5.73    0.37 
   7  -5 -11    5.06    0.31 
   7  -5 -11    4.66    0.30 
   7   5 -11    5.58    0.30 
  -5  -5  11    6.48    0.37 
   5  -5 -11    5.57    0.28 
   5   5 -11    6.04    0.29 
   5   5 -11    6.27    0.36 
  -3  -5  11    1.17    0.17 
   3  -5 -11    1.33    0.11 
   3   5 -11    1.75    0.19 
   3   5 -11    1.71    0.15 
  -1  -5  11    0.01    0.08 
   1  -5 -11    0.11    0.04 
  -1  -5  11    0.04    0.06 
   1  -5 -11    0.08    0.05 
   1   5 -11    0.06    0.06 
   1   5 -11    0.05    0.07 
  -1  -5 -11    6.72    0.26 
   1  -5  11    6.89    0.35 
   1  -5  11    6.19    0.30 
  -1  -5 -11    6.09    0.25 
  -1   5 -11    6.73    0.30 
   3  -5  11    0.48    0.12 
  -3  -5 -11    0.53    0.10 
  -3  -5 -11    0.56    0.11 
  -3  -5 -11    0.42    0.13 
   3  -5  11    0.46    0.11 
  -3   5 -11    0.50    0.11 
  -3   5 -11    0.58    0.09 
   5  -5  11    3.68    0.31 
  -5  -5 -11    3.97    0.34 
  -5  -5 -11    4.09    0.26 
  -5  -5 -11    3.94    0.29 
   5  -5  11    3.92    0.27 
  -5   5 -11    4.23    0.29 
  -5   5 -11    4.12    0.24 
   5   5  11    3.84    0.15 
   7  -5  11    0.09    0.10 
   7  -5  11    0.00    0.14 
  -7  -5 -11   -0.17    0.09 
  -7  -5 -11    0.09    0.17 
  -7  -5 -11   -0.11    0.13 
  -7   5 -11    0.06    0.11 
  -7   5 -11   -0.03    0.09 
  -9  -5 -11    0.15    0.21 
   9  -5  11   -0.14    0.16 
  -9  -5 -11   -0.35    0.16 
  -9   5 -11   -0.08    0.12 
  -9   5 -11    0.00    0.09 
 -11  -5 -11   -0.05    0.18 
 -11  -5 -11    0.07    0.26 
 -11   5 -11    0.28    0.15 
 -11   5 -11    0.03    0.18 
 -13  -5 -11    0.04    0.24 
 -13  -5 -11    0.09    0.27 
 -13   5 -11    0.26    0.17 
 -15  -5 -11   -0.16    0.26 
 -15  -5 -11    0.48    0.32 
 -15   5 -11    0.47    0.22 
 -14  -6  11    0.02    0.25 
 -12  -6  11   -0.42    0.17 
 -10  -6  11    4.69    0.47 
  -8  -6  11   -0.09    0.13 
   8  -6 -11    0.25    0.13 
   8   6 -11   -0.08    0.08 
   6  -6 -11    1.08    0.16 
  -6  -6  11    1.30    0.22 
   6  -6 -11    1.84    0.21 
   6   6 -11    1.60    0.17 
   4  -6 -11    4.40    0.23 
  -4  -6  11    4.62    0.32 
   4   6 -11    4.82    0.30 
   2  -6 -11    3.56    0.17 
  -2  -6  11    3.48    0.27 
   2   6 -11    3.67    0.23 
   2   6 -11    3.56    0.19 
   0  -6 -11    0.14    0.05 
   0  -6 -11   -0.08    0.05 
   0  -6  11    0.05    0.07 
   0  -6  11    0.14    0.10 
   0   6 -11   -0.08    0.05 
   0   6 -11    0.05    0.06 
  -2  -6 -11   12.38    0.41 
   2  -6  11   11.71    0.52 
  -2  -6 -11   11.65    0.39 
   2  -6  11   11.59    0.46 
  -2  -6 -11   12.06    0.53 
  -2   6 -11   12.20    0.33 
  -2   6 -11   12.11    0.41 
  -2   6 -11   12.01    0.33 
   4  -6  11    0.19    0.12 
  -4  -6 -11    0.17    0.09 
   4  -6  11    0.04    0.08 
  -4  -6 -11    0.40    0.12 
  -4  -6 -11    0.35    0.16 
  -4   6 -11    0.06    0.05 
  -4   6 -11    0.23    0.06 
   6  -6  11    7.12    0.45 
  -6  -6 -11    6.95    0.50 
  -6  -6 -11    6.11    0.39 
  -6   6 -11    5.83    0.28 
  -6   6 -11    6.09    0.35 
  -8  -6 -11    0.64    0.25 
  -8  -6 -11    0.81    0.23 
   8  -6  11    0.20    0.19 
  -8   6 -11    0.44    0.12 
 -10  -6 -11   -0.62    0.20 
 -10  -6 -11   -0.15    0.16 
  10  -6  11    0.00    0.18 
 -10   6 -11    0.00    0.10 
 -12  -6 -11    0.12    0.27 
 -12  -6 -11    0.10    0.23 
 -13  -7  11    0.63    0.30 
 -11  -7  11    0.64    0.28 
  -9  -7  11    0.04    0.18 
  -7  -7  11    2.52    0.31 
  -5  -7  11    2.85    0.30 
   5   7 -11    1.91    0.33 
  -3  -7  11    0.06    0.12 
   3  -7 -11   -0.06    0.05 
   3   7 -11   -0.02    0.08 
   1  -7 -11    0.03    0.05 
   1  -7 -11    0.00    0.04 
  -1  -7  11   -0.07    0.10 
   1   7 -11    0.10    0.06 
  -1  -7 -11    0.05    0.05 
  -1  -7 -11    0.00    0.12 
  -1  -7 -11    0.05    0.07 
   1  -7  11    0.06    0.10 
  -3  -7 -11    0.47    0.18 
  -3  -7 -11    0.58    0.13 
   3  -7  11    0.37    0.15 
  -5  -7 -11    1.06    0.19 
  -5  -7 -11    1.15    0.25 
   5  -7  11    0.93    0.21 
  -7  -7 -11    0.84    0.26 
   7  -7  11    0.63    0.22 
  -7  -7 -11    0.50    0.21 
   9  -7  11    0.18    0.21 
  -9  -7 -11   -0.16    0.15 
  -9  -7 -11   -0.01    0.22 
 -11  -7 -11   -0.01    0.27 
 -11  -7 -11    0.12    0.23 
 -12  -8  11   -0.08    0.22 
 -10  -8  11    1.66    0.34 
  -8  -8  11    0.12    0.18 
  -6  -8  11    0.48    0.19 
  -4  -8  11    0.58    0.18 
  -2  -8  11    0.06    0.12 
   2  -8 -11   -0.01    0.06 
   2  -8 -11   -0.18    0.09 
   0  -8 -11    1.07    0.20 
   0  -8 -11    1.28    0.12 
   0  -8  11    1.56    0.24 
  -2  -8 -11    1.15    0.23 
  -2  -8 -11    0.95    0.15 
   2  -8  11    1.14    0.21 
  -4  -8 -11    0.08    0.16 
   4  -8  11    0.34    0.16 
  -4  -8 -11    0.11    0.11 
  -6  -8 -11    0.50    0.18 
   6  -8  11    0.22    0.17 
  -6  -8 -11    0.08    0.19 
   8  -8  11   -0.12    0.17 
  -8  -8 -11   -0.01    0.22 
  -8  -8 -11    0.02    0.19 
  10  -8  11   -0.23    0.18 
 -10  -8 -11   -0.25    0.21 
 -10  -8 -11    0.00    0.25 
  -9  -9  11    0.08    0.19 
  -7  -9  11    0.13    0.17 
  -5  -9  11    0.17    0.16 
   3  -9 -11    0.45    0.08 
  -3  -9  11    0.34    0.17 
  -1  -9  11    0.03    0.13 
  -1  -9 -11    0.27    0.09 
   1  -9  11    0.25    0.15 
  -3  -9 -11    0.40    0.14 
   3  -9  11    0.47    0.18 
  -5  -9 -11    0.15    0.26 
  -5  -9 -11   -0.07    0.14 
   5  -9  11   -0.08    0.15 
   7  -9  11    0.50    0.23 
  -7  -9 -11    0.35    0.27 
  -7  -9 -11   -0.04    0.20 
  -4 -10  11   -0.08    0.15 
  -2 -10  11    0.11    0.15 
   0 -10  11    0.23    0.15 
   2 -10  11    0.23    0.15 
 -18   0  12    0.46    0.30 
 -16   0  12   -0.32    0.18 
 -14   0  12    0.34    0.21 
 -12   0  12    2.34    0.32 
 -10   0  12    1.53    0.25 
  -8   0  12    9.20    0.43 
   6   0 -12   82.07    1.96 
   6   0 -12   80.81    1.93 
  -6   0  12   79.41    1.89 
  -4   0  12   26.34    0.74 
   4   0 -12   26.74    0.76 
   2   0 -12   74.48    1.67 
   2   0 -12   73.65    1.68 
  -2   0  12   73.17    1.68 
   0   0 -12    0.01    0.05 
   0   0 -12    0.01    0.04 
   0   0  12   -0.07    0.04 
   0   0  12   -0.03    0.03 
  -2   0 -12   24.25    0.69 
   2   0  12   24.00    0.67 
  -2   0 -12   24.53    0.69 
   2   0  12   24.27    0.70 
  -4   0 -12   31.32    0.87 
   4   0  12   31.09    0.84 
  -4   0 -12   29.91    0.84 
   4   0  12   30.62    0.89 
   6   0  12    7.95    0.41 
  -6   0 -12    7.08    0.39 
  -6   0 -12    7.17    0.39 
  -8   0 -12    3.78    0.34 
  -8   0 -12    3.87    0.34 
 -10   0 -12    0.92    0.28 
 -10   0 -12    1.23    0.26 
 -12   0 -12    0.14    0.17 
 -12   0 -12   -0.13    0.14 
 -14   0 -12    0.14    0.19 
 -14   0 -12    0.42    0.26 
 -16   0 -12    0.03    0.20 
 -16   0 -12    0.14    0.26 
 -17  -1  12    0.06    0.24 
 -17   1  12    0.74    0.28 
 -15  -1  12    5.98    0.53 
 -15   1  12    5.34    0.48 
 -13  -1  12    0.99    0.26 
 -13   1  12    1.16    0.25 
 -11  -1  12    1.61    0.28 
 -11   1  12    1.71    0.27 
  -9  -1  12    6.27    0.39 
  -9   1  12    6.37    0.37 
   7  -1 -12    2.78    0.24 
   7  -1 -12    2.59    0.23 
  -7  -1  12    2.69    0.24 
  -7   1  12    2.82    0.23 
  -5  -1  12   34.01    0.92 
   5  -1 -12   33.82    0.92 
   5   1 -12   33.05    0.93 
  -5   1  12   33.49    0.89 
   3  -1 -12   29.83    0.80 
  -3  -1  12   29.91    0.82 
   3   1 -12   31.07    0.84 
   3   1 -12   31.12    0.81 
  -3   1  12   30.94    0.80 
  -1  -1  12   14.06    0.46 
   1  -1 -12   13.53    0.43 
  -1  -1  12   13.76    0.45 
   1  -1 -12   13.74    0.44 
   1   1 -12   14.27    0.46 
  -1   1  12   14.26    0.44 
   1   1 -12   14.44    0.46 
  -1  -1 -12   32.43    0.83 
  -1  -1 -12   30.68    0.82 
   1  -1  12   32.22    0.86 
   1  -1  12   31.69    0.83 
  -1   1 -12   32.33    0.84 
   1   1  12   31.89    0.83 
   1   1  12   32.54    0.81 
  -1   1 -12   31.14    0.83 
  -3  -1 -12    3.39    0.22 
   3  -1  12    3.61    0.24 
   3  -1  12    3.39    0.21 
  -3  -1 -12    3.56    0.21 
   3   1  12    3.67    0.20 
  -3   1 -12    3.76    0.24 
  -3   1 -12    3.47    0.21 
   3   1  12    3.53    0.23 
  -5  -1 -12    1.58    0.20 
   5  -1  12    1.55    0.17 
   5  -1  12    1.47    0.19 
  -5  -1 -12    1.47    0.18 
  -5   1 -12    1.54    0.19 
   5   1  12    1.84    0.22 
  -7  -1 -12   10.23    0.52 
   7  -1  12   10.38    0.51 
  -7  -1 -12   10.20    0.50 
  -7   1 -12   10.50    0.49 
  -7   1 -12   11.20    0.52 
   9  -1  12   11.56    0.61 
  -9  -1 -12   10.92    0.59 
  -9  -1 -12   12.11    0.61 
  -9   1 -12   11.45    0.59 
  -9   1 -12   12.06    0.61 
 -11  -1 -12    5.04    0.52 
 -11  -1 -12    5.59    0.48 
 -11   1 -12    5.08    0.46 
 -11   1 -12    5.22    0.44 
 -13  -1 -12   -0.23    0.16 
 -13  -1 -12   -0.16    0.15 
 -13   1 -12    0.11    0.17 
 -13   1 -12   -0.18    0.16 
 -15  -1 -12    0.27    0.25 
 -15  -1 -12    0.45    0.25 
 -15   1 -12    0.22    0.23 
 -15   1 -12    0.21    0.22 
 -17  -1 -12    0.06    0.30 
 -17   1 -12    0.35    0.30 
 -18  -2  12    0.08    0.25 
 -16  -2  12    0.19    0.24 
 -16   2  12    0.74    0.24 
 -14  -2  12    0.01    0.18 
 -14   2  12    0.21    0.18 
 -12  -2  12    0.05    0.15 
 -12   2  12   -0.19    0.13 
 -10  -2  12    0.21    0.17 
 -10   2  12    0.51    0.17 
  -8  -2  12    2.15    0.25 
   8  -2 -12    2.30    0.25 
  -8   2  12    2.28    0.23 
  -6  -2  12   23.65    0.75 
   6  -2 -12   23.75    0.73 
  -6   2  12   23.34    0.68 
   6   2 -12   23.51    0.78 
   4  -2 -12    0.87    0.12 
  -4  -2  12    0.53    0.13 
   4   2 -12    0.47    0.11 
   4   2 -12    0.41    0.11 
  -4   2  12    0.59    0.10 
  -2  -2  12    9.20    0.37 
   2  -2 -12    9.33    0.33 
   2  -2 -12    8.77    0.33 
  -2   2  12    9.49    0.32 
   2   2 -12    9.29    0.36 
   2   2 -12    9.18    0.36 
   0  -2 -12    6.00    0.25 
   0  -2  12    5.84    0.27 
   0  -2  12    5.94    0.29 
   0  -2 -12    5.99    0.26 
   0   2 -12    5.84    0.27 
   0   2 -12    6.02    0.28 
   0   2  12    5.74    0.25 
  -2  -2 -12    0.08    0.06 
   2  -2  12    0.05    0.06 
  -2  -2 -12    0.07    0.06 
   2  -2  12    0.04    0.06 
  -2   2 -12   -0.07    0.06 
   2   2  12    0.01    0.04 
   2   2  12   -0.04    0.05 
  -2   2 -12    0.15    0.07 
  -4  -2 -12   10.78    0.42 
   4  -2  12   10.12    0.40 
  -4  -2 -12   10.30    0.40 
   4  -2  12    9.56    0.43 
  -4   2 -12   10.34    0.43 
   4   2  12   10.11    0.42 
  -6  -2 -12   20.82    0.73 
   6  -2  12   20.64    0.75 
  -6  -2 -12   20.57    0.75 
  -6  -2 -12   21.83    0.70 
  -6   2 -12   22.62    0.73 
  -6   2 -12   21.09    0.74 
   8  -2  12   -0.27    0.11 
  -8  -2 -12   -0.14    0.15 
  -8  -2 -12   -0.04    0.14 
  -8   2 -12   -0.17    0.13 
  -8   2 -12    0.00    0.12 
 -10  -2 -12   -0.22    0.18 
 -10  -2 -12   -0.15    0.19 
 -10   2 -12   -0.05    0.15 
 -10   2 -12   -0.20    0.17 
 -12  -2 -12    0.01    0.19 
 -12  -2 -12   -0.34    0.13 
 -12   2 -12    0.28    0.19 
 -12   2 -12   -0.03    0.15 
 -14  -2 -12    0.15    0.23 
 -14  -2 -12   -0.09    0.23 
 -14   2 -12    0.12    0.21 
 -14   2 -12    0.03    0.19 
 -16  -2 -12    0.08    0.26 
 -16  -2 -12    0.03    0.22 
 -16   2 -12    0.52    0.26 
 -16   2 -12   -0.06    0.25 
 -17  -3  12   -0.09    0.22 
 -15  -3  12    1.68    0.36 
 -15   3  12    1.30    0.27 
 -13  -3  12    1.40    0.28 
 -13   3  12    1.97    0.27 
 -11  -3  12    2.18    0.32 
 -11   3  12    3.19    0.32 
  -9  -3  12    9.07    0.50 
   9  -3 -12    9.36    0.48 
  -9   3  12    9.55    0.41 
  -7  -3  12    2.13    0.24 
   7  -3 -12    2.65    0.24 
   7  -3 -12    2.74    0.23 
  -7   3  12    2.68    0.19 
  -5  -3  12   30.28    0.87 
   5  -3 -12   28.22    0.81 
  -5   3  12   29.60    0.75 
   5   3 -12   28.90    0.89 
   5   3 -12   29.18    0.82 
   3  -3 -12   58.23    1.29 
  -3  -3  12   56.76    1.37 
  -3   3  12   46.75    1.22 
   3   3 -12   58.80    1.34 
  -1  -3  12   -0.10    0.07 
  -1  -3  12   -0.01    0.05 
   1  -3 -12    0.12    0.05 
   1  -3 -12    0.00    0.05 
   1   3 -12   -0.01    0.07 
  -1   3  12    0.00    0.02 
   1   3 -12   -0.05    0.06 
   1  -3  12    0.28    0.08 
  -1  -3 -12    0.13    0.06 
   1  -3  12    0.17    0.08 
  -1  -3 -12    0.27    0.08 
  -1   3 -12    0.15    0.08 
   1   3  12    0.15    0.06 
   3  -3  12   -0.01    0.06 
  -3  -3 -12   -0.05    0.05 
  -3  -3 -12   -0.09    0.05 
   3  -3  12   -0.03    0.07 
   3   3  12   -0.04    0.03 
  -3   3 -12   -0.14    0.06 
  -5  -3 -12    1.94    0.25 
  -5  -3 -12    1.61    0.20 
  -5  -3 -12    2.40    0.21 
   5  -3  12    2.39    0.26 
   5  -3  12    2.21    0.20 
  -5   3 -12    1.77    0.20 
  -5   3 -12    1.91    0.22 
  -7  -3 -12    5.66    0.40 
   7  -3  12    6.23    0.42 
  -7  -3 -12    6.58    0.46 
  -7  -3 -12    5.83    0.36 
  -7   3 -12    5.99    0.41 
  -7   3 -12    6.09    0.38 
   9  -3  12    6.29    0.48 
  -9  -3 -12    7.03    0.54 
  -9  -3 -12    5.37    0.46 
  -9   3 -12    5.87    0.46 
  -9   3 -12    6.79    0.44 
 -11  -3 -12    2.01    0.36 
 -11  -3 -12    1.60    0.36 
 -11   3 -12    1.87    0.30 
 -11   3 -12    1.97    0.33 
 -13  -3 -12    0.46    0.28 
 -13  -3 -12    0.18    0.20 
 -13   3 -12    0.16    0.22 
 -13   3 -12    0.33    0.19 
 -15  -3 -12    0.57    0.32 
 -15  -3 -12    0.62    0.31 
 -15   3 -12    0.17    0.25 
 -15   3 -12    0.90    0.27 
 -16  -4  12   -0.06    0.20 
 -14  -4  12   -0.08    0.18 
 -12  -4  12    1.25    0.29 
 -12   4  12    0.69    0.18 
  10  -4 -12    0.59    0.19 
 -10  -4  12    0.94    0.24 
 -10   4  12    0.88    0.16 
   8  -4 -12    0.38    0.12 
  -8  -4  12    0.29    0.14 
  -8   4  12    0.25    0.09 
   8   4 -12    0.14    0.11 
  -6  -4  12    1.11    0.18 
   6  -4 -12    1.24    0.16 
  -6   4  12    1.24    0.11 
   6   4 -12    1.23    0.24 
   6   4 -12    1.38    0.18 
   4  -4 -12    0.96    0.12 
  -4  -4  12    1.60    0.20 
   4   4 -12    1.37    0.17 
   4   4 -12    1.61    0.20 
   2  -4 -12   13.28    0.42 
  -2  -4  12   13.13    0.48 
  -2  -4  12   13.72    0.50 
   2   4 -12   13.69    0.46 
   0  -4 -12    0.06    0.05 
   0  -4  12    0.03    0.06 
   0  -4  12    0.01    0.09 
   0  -4 -12   -0.03    0.05 
   0   4 -12    0.09    0.07 
  -2  -4 -12    0.82    0.12 
   2  -4  12    0.70    0.12 
  -2  -4 -12    0.70    0.11 
   2  -4  12    0.82    0.15 
  -2   4 -12    1.06    0.15 
  -4  -4 -12    0.16    0.13 
  -4  -4 -12   -0.06    0.06 
   4  -4  12    0.11    0.08 
   4  -4  12    0.10    0.10 
  -4  -4 -12    0.06    0.09 
  -4   4 -12    0.13    0.08 
  -4   4 -12    0.05    0.09 
  -6  -4 -12    0.04    0.11 
  -6  -4 -12    0.67    0.17 
   6  -4  12    0.39    0.12 
  -6  -4 -12    0.88    0.22 
   6  -4  12    0.86    0.20 
  -6   4 -12    0.73    0.15 
  -6   4 -12    0.46    0.15 
  -8  -4 -12    2.98    0.39 
  -8  -4 -12    3.15    0.33 
   8  -4  12    2.91    0.37 
  -8  -4 -12    2.65    0.35 
  -8   4 -12    2.68    0.32 
  -8   4 -12    3.44    0.30 
 -10  -4 -12    0.62    0.27 
  10  -4  12    0.40    0.21 
 -10  -4 -12    0.44    0.24 
 -10   4 -12    0.54    0.19 
 -10   4 -12    0.56    0.22 
 -12  -4 -12    0.19    0.22 
 -12  -4 -12    0.29    0.27 
 -12   4 -12    0.27    0.17 
 -12   4 -12    0.47    0.22 
 -14  -4 -12    0.21    0.29 
 -14  -4 -12   -0.24    0.19 
 -14   4 -12    0.19    0.28 
 -14   4 -12    0.26    0.21 
 -15  -5  12   -0.03    0.24 
 -13  -5  12    0.09    0.21 
 -11  -5  12   -0.27    0.17 
  -9  -5  12   -0.14    0.14 
  -9   5  12    0.08    0.07 
   9   5 -12    0.03    0.10 
  -7  -5  12    0.22    0.14 
   7  -5 -12    0.16    0.10 
   7  -5 -12    0.06    0.08 
   7   5 -12    0.07    0.09 
  -5  -5  12    0.90    0.18 
   5  -5 -12    0.64    0.12 
   5   5 -12    0.65    0.16 
   5   5 -12    0.63    0.12 
   3  -5 -12    0.52    0.09 
  -3  -5  12    0.52    0.14 
   3   5 -12    0.60    0.11 
   3   5 -12    0.63    0.13 
   1  -5 -12    1.58    0.12 
   1  -5 -12    1.46    0.13 
  -1  -5  12    1.54    0.17 
  -1  -5  12    1.95    0.21 
   1   5 -12    1.71    0.17 
   1   5 -12    1.55    0.15 
   1  -5  12    0.10    0.09 
  -1  -5 -12    0.11    0.07 
  -1  -5 -12    0.19    0.07 
   1  -5  12   -0.02    0.06 
  -1   5 -12    0.15    0.07 
  -3  -5 -12    0.51    0.12 
  -3  -5 -12    0.34    0.09 
   3  -5  12    0.34    0.10 
  -3  -5 -12    0.25    0.12 
   3  -5  12    0.18    0.11 
  -3   5 -12    0.18    0.10 
  -5  -5 -12   -0.08    0.13 
  -5  -5 -12    0.02    0.11 
  -5  -5 -12    0.07    0.09 
   5  -5  12    0.15    0.12 
   5  -5  12   -0.06    0.07 
  -5   5 -12    0.09    0.10 
  -5   5 -12    0.05    0.08 
  -7  -5 -12    0.67    0.24 
  -7  -5 -12    0.94    0.23 
  -7  -5 -12    0.83    0.18 
   7  -5  12    0.93    0.22 
  -7   5 -12    0.90    0.17 
  -7   5 -12    0.55    0.18 
   9  -5  12    0.06    0.18 
  -9  -5 -12    0.03    0.20 
  -9  -5 -12   -0.18    0.17 
  -9   5 -12    0.01    0.10 
  -9   5 -12   -0.07    0.14 
 -11  -5 -12   -0.02    0.21 
 -11  -5 -12   -0.03    0.19 
  11  -5  12   -0.12    0.19 
 -11   5 -12   -0.04    0.21 
 -11   5 -12    0.04    0.12 
 -13  -5 -12   -0.03    0.21 
 -13  -5 -12   -0.23    0.24 
 -13   5 -12   -0.02    0.15 
 -14  -6  12    0.48    0.26 
 -12  -6  12    0.12    0.22 
 -10  -6  12    0.26    0.20 
  -8  -6  12    1.83    0.27 
   8   6 -12    1.88    0.22 
   6  -6 -12    0.42    0.12 
  -6  -6  12    0.58    0.18 
   6  -6 -12    0.47    0.12 
   6   6 -12    0.58    0.12 
   4  -6 -12    0.38    0.09 
  -4  -6  12    0.44    0.15 
   4   6 -12    0.57    0.11 
   4   6 -12    0.47    0.13 
   2  -6 -12    0.55    0.09 
   2  -6 -12    0.59    0.10 
  -2  -6  12    0.52    0.14 
   2   6 -12    0.50    0.12 
   0  -6  12    3.53    0.28 
   0  -6 -12    3.21    0.18 
   0  -6  12    3.19    0.23 
   0  -6 -12    3.21    0.17 
   0   6 -12    3.01    0.19 
  -2  -6 -12    0.22    0.07 
   2  -6  12    0.20    0.08 
  -2  -6 -12    0.13    0.08 
   2  -6  12    0.22    0.12 
  -2  -6 -12    0.16    0.13 
  -2   6 -12    0.04    0.04 
  -2   6 -12    0.16    0.07 
  -4  -6 -12    1.20    0.18 
  -4  -6 -12    1.06    0.23 
   4  -6  12    1.03    0.17 
  -4  -6 -12    0.79    0.13 
   4  -6  12    0.86    0.19 
  -4   6 -12    1.08    0.16 
  -4   6 -12    0.90    0.11 
   6  -6  12    1.36    0.26 
  -6  -6 -12    1.31    0.22 
  -6  -6 -12    0.83    0.26 
  -6   6 -12    1.38    0.19 
  -6   6 -12    0.90    0.14 
  -8  -6 -12    0.26    0.20 
  -8  -6 -12    0.71    0.27 
   8  -6  12    1.24    0.28 
  -8   6 -12    0.99    0.16 
 -10  -6 -12    0.08    0.19 
 -10  -6 -12   -0.25    0.22 
  10  -6  12   -0.02    0.20 
 -10   6 -12   -0.04    0.10 
 -12  -6 -12   -0.02    0.29 
 -12  -6 -12   -0.08    0.20 
 -13  -7  12   -0.35    0.20 
 -11  -7  12   -0.03    0.21 
  -9  -7  12    0.79    0.26 
  -7  -7  12    0.73    0.21 
  -5  -7  12    2.81    0.31 
  -3  -7  12    1.53    0.23 
   3  -7 -12    1.28    0.13 
   3   7 -12    1.81    0.22 
   1  -7 -12    0.39    0.07 
  -1  -7  12    0.42    0.15 
   1  -7 -12    0.48    0.09 
   1   7 -12    0.34    0.08 
  -1  -7 -12    1.82    0.14 
  -1  -7 -12    1.88    0.16 
  -1  -7 -12    2.18    0.26 
   1  -7  12    1.85    0.25 
  -3  -7 -12    0.09    0.09 
  -3  -7 -12    0.03    0.13 
   3  -7  12   -0.10    0.10 
  -5  -7 -12    0.07    0.18 
  -5  -7 -12    0.20    0.13 
   5  -7  12    0.00    0.12 
  -7  -7 -12    1.35    0.27 
   7  -7  12    0.97    0.26 
  -7  -7 -12    0.99    0.28 
  -9  -7 -12   -0.15    0.22 
  -9  -7 -12    0.05    0.19 
   9  -7  12    0.09    0.21 
 -11  -7 -12   -0.30    0.23 
  11  -7  12   -0.11    0.21 
 -11  -7 -12   -0.14    0.21 
 -10  -8  12    0.83    0.29 
  -8  -8  12   -0.17    0.17 
  -6  -8  12    0.58    0.21 
  -4  -8  12    0.05    0.14 
  -2  -8  12   -0.08    0.11 
   2  -8 -12    0.01    0.06 
   0  -8 -12    0.01    0.13 
   0  -8  12    0.36    0.15 
   0  -8 -12    0.41    0.08 
  -2  -8 -12    0.93    0.15 
  -2  -8 -12    0.73    0.20 
   2  -8  12    1.06    0.22 
   4  -8  12    0.16    0.15 
  -4  -8 -12    0.08    0.11 
  -4  -8 -12   -0.07    0.16 
  -6  -8 -12    2.60    0.39 
   6  -8  12    2.29    0.33 
  -6  -8 -12    2.24    0.30 
  -8  -8 -12    0.16    0.20 
   8  -8  12    0.07    0.20 
  -8  -8 -12    0.16    0.25 
 -10  -8 -12   -0.24    0.21 
 -10  -8 -12   -0.17    0.26 
  10  -8  12    0.09    0.23 
  -9  -9  12    0.86    0.27 
  -7  -9  12    0.40    0.20 
  -5  -9  12    0.49    0.21 
   3  -9 -12    0.70    0.10 
  -3  -9  12    0.47    0.18 
  -1  -9  12    0.46    0.18 
   1  -9 -12    0.51    0.07 
  -1  -9 -12    0.09    0.08 
   1  -9  12    0.06    0.13 
   3  -9  12    0.78    0.21 
  -3  -9 -12    0.83    0.17 
   5  -9  12    1.02    0.25 
  -5  -9 -12    0.82    0.34 
  -5  -9 -12    0.59    0.19 
   7  -9  12    1.23    0.30 
  -7  -9 -12    0.75    0.26 
  -7  -9 -12    1.42    0.36 
  -4 -10  12   -0.03    0.15 
  -2 -10  12    0.49    0.19 
   0 -10  12    0.22    0.16 
   2 -10  12    0.33    0.17 
 -18   0  13    0.01    0.23 
 -16   0  13    0.09    0.21 
 -14   0  13   -0.14    0.18 
 -12   0  13   -0.08    0.15 
 -10   0  13   -0.42    0.11 
  -8   0  13    0.09    0.10 
   6   0 -13   -0.03    0.07 
  -6   0  13    0.01    0.10 
   4   0 -13    0.04    0.08 
  -4   0  13    0.19    0.10 
  -2   0  13   -0.03    0.05 
   2   0 -13    0.05    0.06 
   2   0 -13    0.06    0.06 
   0   0 -13    0.02    0.04 
   0   0  13   -0.01    0.04 
   0   0  13   -0.04    0.04 
   0   0 -13   -0.05    0.05 
  -2   0 -13    0.09    0.07 
   2   0  13   -0.01    0.04 
   2   0  13    0.12    0.08 
  -2   0 -13    0.11    0.07 
   4   0  13    0.02    0.07 
  -4   0 -13   -0.07    0.07 
   4   0  13   -0.11    0.07 
  -4   0 -13    0.01    0.06 
  -6   0 -13   -0.10    0.08 
   6   0  13    0.07    0.09 
  -6   0 -13    0.08    0.10 
   8   0  13   -0.05    0.12 
  -8   0 -13    0.26    0.15 
  -8   0 -13    0.09    0.15 
 -10   0 -13   -0.49    0.16 
 -10   0 -13   -0.03    0.15 
 -12   0 -13   -0.14    0.17 
 -12   0 -13   -0.05    0.16 
 -14   0 -13   -0.37    0.15 
 -14   0 -13   -0.24    0.16 
 -16   0 -13    0.11    0.23 
 -16   0 -13    0.01    0.23 
 -17  -1  13    0.27    0.28 
 -17   1  13    0.62    0.24 
 -15  -1  13    0.75    0.30 
 -15   1  13    0.38    0.21 
 -13  -1  13    0.53    0.24 
 -13   1  13    0.89    0.23 
 -11  -1  13    0.20    0.18 
 -11   1  13    0.40    0.19 
  -9  -1  13    0.35    0.15 
  -9   1  13    0.42    0.15 
   7  -1 -13    0.13    0.08 
  -7  -1  13    0.30    0.12 
  -7   1  13    0.25    0.11 
   5  -1 -13   19.75    0.63 
  -5  -1  13   19.06    0.63 
   5   1 -13   18.86    0.64 
  -5   1  13   19.27    0.60 
   3  -1 -13   -0.09    0.04 
  -3  -1  13    0.02    0.08 
   3   1 -13   -0.04    0.05 
  -3   1  13   -0.11    0.05 
   3   1 -13    0.01    0.06 
  -1  -1  13    8.88    0.35 
  -1  -1  13    8.70    0.36 
   1  -1 -13    9.01    0.34 
   1  -1 -13    9.51    0.35 
   1   1 -13    8.98    0.35 
   1   1 -13    9.51    0.35 
  -1   1  13    8.85    0.34 
  -1  -1 -13    0.80    0.12 
  -1  -1 -13    0.99    0.13 
   1  -1  13    0.69    0.11 
   1  -1  13    1.21    0.15 
  -1   1 -13    0.82    0.11 
  -1   1 -13    1.10    0.14 
   1   1  13    0.64    0.11 
   1   1  13    0.77    0.10 
   3  -1  13    9.95    0.41 
  -3  -1 -13    9.68    0.39 
   3  -1  13    9.30    0.37 
  -3  -1 -13    9.47    0.38 
  -3   1 -13    9.59    0.39 
   3   1  13    9.71    0.40 
   3   1  13    9.39    0.36 
  -3   1 -13    9.54    0.39 
   5  -1  13    5.90    0.34 
  -5  -1 -13    5.49    0.30 
  -5  -1 -13    5.76    0.33 
   5   1  13    5.66    0.33 
  -5   1 -13    5.91    0.34 
   7  -1  13    0.17    0.13 
  -7  -1 -13    0.01    0.12 
  -7  -1 -13    0.24    0.14 
  -7   1 -13    0.08    0.12 
  -7   1 -13    0.13    0.12 
  -9  -1 -13    1.81    0.30 
   9  -1  13    0.75    0.24 
  -9  -1 -13    0.95    0.26 
  -9   1 -13    0.95    0.25 
  -9   1 -13    1.21    0.24 
 -11  -1 -13    1.37    0.30 
 -11  -1 -13    0.89    0.25 
 -11   1 -13    0.79    0.25 
 -11   1 -13    1.40    0.28 
 -13  -1 -13    0.17    0.23 
 -13  -1 -13    0.04    0.18 
 -13   1 -13   -0.07    0.18 
 -13   1 -13   -0.08    0.16 
 -15  -1 -13    0.13    0.22 
 -15  -1 -13   -0.24    0.20 
 -15   1 -13    0.05    0.21 
 -15   1 -13   -0.03    0.17 
 -18  -2  13    0.21    0.29 
 -16  -2  13   -0.37    0.20 
 -16   2  13   -0.08    0.17 
 -14  -2  13    0.80    0.27 
 -14   2  13    0.92    0.25 
 -12  -2  13    2.58    0.35 
 -12   2  13    3.21    0.35 
 -10  -2  13    3.86    0.39 
 -10   2  13    3.85    0.32 
  -8  -2  13    1.18    0.21 
   8  -2 -13    0.89    0.17 
  -8   2  13    0.97    0.16 
   6  -2 -13   12.27    0.49 
  -6  -2  13   12.99    0.51 
   6   2 -13   12.21    0.53 
  -6   2  13   11.87    0.44 
   4  -2 -13    5.42    0.27 
  -4  -2  13    5.46    0.31 
  -4   2  13    5.60    0.26 
   4   2 -13    5.65    0.29 
   2  -2 -13    9.03    0.34 
  -2  -2  13    9.11    0.37 
  -2  -2  13    8.95    0.38 
   2  -2 -13    9.51    0.35 
  -2   2  13    9.82    0.34 
   2   2 -13   10.00    0.37 
   2   2 -13    9.40    0.38 
   0  -2  13   61.82    1.50 
   0  -2 -13   63.61    1.46 
   0  -2  13   62.92    1.48 
   0  -2 -13   61.31    1.44 
   0   2  13   62.89    1.44 
   0   2 -13   61.03    1.48 
   0   2 -13   63.45    1.49 
  -2  -2 -13    0.09    0.07 
   2  -2  13    0.03    0.08 
  -2  -2 -13    0.05    0.06 
   2  -2  13   -0.01    0.05 
   2   2  13    0.03    0.05 
  -2   2 -13   -0.01    0.06 
  -2   2 -13    0.02    0.06 
   2   2  13    0.04    0.06 
   4  -2  13   11.64    0.49 
  -4  -2 -13   11.79    0.47 
   4  -2  13   11.81    0.45 
  -4  -2 -13   11.84    0.45 
  -4   2 -13   11.80    0.48 
   4   2  13   11.10    0.46 
  -6  -2 -13    3.05    0.24 
   6  -2  13    3.38    0.29 
  -6  -2 -13    2.98    0.27 
  -6  -2 -13    3.14    0.29 
  -6   2 -13    3.01    0.28 
  -6   2 -13    3.14    0.27 
   8  -2  13   -0.04    0.14 
  -8  -2 -13    0.06    0.16 
  -8  -2 -13    0.05    0.17 
  -8   2 -13    0.21    0.14 
  -8   2 -13    0.00    0.15 
  10  -2  13    2.10    0.35 
 -10  -2 -13    2.64    0.40 
 -10  -2 -13    1.95    0.35 
 -10   2 -13    1.88    0.33 
 -10   2 -13    1.97    0.30 
 -12  -2 -13    0.14    0.20 
 -12  -2 -13   -0.14    0.17 
 -12   2 -13    0.11    0.18 
 -12   2 -13    0.22    0.20 
 -14  -2 -13   -0.06    0.19 
 -14  -2 -13   -0.06    0.18 
 -14   2 -13   -0.02    0.21 
 -14   2 -13    0.19    0.19 
 -16  -2 -13   -0.23    0.21 
 -16  -2 -13   -0.06    0.26 
 -16   2 -13    0.27    0.26 
 -16   2 -13   -0.01    0.28 
 -17  -3  13    0.08    0.25 
 -15  -3  13   -0.01    0.21 
 -15   3  13    0.46    0.22 
 -13  -3  13    0.46    0.25 
 -13   3  13    0.50    0.17 
 -11  -3  13   -0.09    0.16 
 -11   3  13   -0.24    0.12 
  -9  -3  13    2.09    0.28 
   9  -3 -13    2.13    0.27 
  -9   3  13    2.37    0.24 
  -7  -3  13    0.78    0.17 
   7  -3 -13    0.84    0.15 
  -7   3  13    0.88    0.14 
  -5  -3  13   60.50    1.52 
   5  -3 -13   58.72    1.46 
   5   3 -13   61.42    1.56 
  -5   3  13   61.09    1.39 
   5   3 -13   61.12    1.48 
   3  -3 -13    3.29    0.21 
  -3  -3  13    3.86    0.27 
   3   3 -13    4.39    0.25 
  -3   3  13    4.07    0.19 
   1  -3 -13   14.01    0.43 
  -1  -3  13   13.83    0.47 
   1  -3 -13   13.54    0.43 
  -1  -3  13   12.75    0.48 
  -1   3  13   11.41    0.37 
   1   3 -13   12.64    0.45 
   1  -3  13   28.04    0.78 
   1  -3  13   27.78    0.82 
  -1  -3 -13   27.29    0.74 
  -1  -3 -13   27.58    0.74 
  -1   3 -13   27.74    0.79 
   1   3  13   28.68    0.73 
   3  -3  13   -0.01    0.08 
  -3  -3 -13    0.00    0.06 
  -3  -3 -13    0.00    0.07 
   3  -3  13    0.02    0.07 
  -3   3 -13   -0.04    0.07 
  -5  -3 -13    4.38    0.27 
  -5  -3 -13    4.65    0.35 
   5  -3  13    4.57    0.29 
  -5  -3 -13    3.76    0.29 
   5  -3  13    4.21    0.32 
  -5   3 -13    4.41    0.28 
  -5   3 -13    4.44    0.32 
   7  -3  13    7.17    0.47 
  -7  -3 -13    6.69    0.39 
  -7  -3 -13    7.39    0.50 
  -7  -3 -13    6.74    0.44 
  -7   3 -13    7.28    0.43 
  -7   3 -13    6.92    0.45 
  -9  -3 -13    5.73    0.51 
   9  -3  13    4.86    0.45 
  -9  -3 -13    5.47    0.46 
  -9   3 -13    5.00    0.40 
  -9   3 -13    4.95    0.45 
 -11  -3 -13    0.13    0.19 
 -11  -3 -13    0.06    0.20 
 -11   3 -13    0.00    0.16 
 -11   3 -13    0.76    0.24 
 -13  -3 -13    0.70    0.34 
 -13  -3 -13    1.65    0.34 
 -13   3 -13    0.95    0.26 
 -13   3 -13    0.05    0.21 
 -15  -3 -13    0.19    0.28 
 -15  -3 -13    0.06    0.28 
 -15   3 -13    0.18    0.27 
 -15   3 -13    0.23    0.23 
 -16  -4  13   -0.33    0.20 
 -14  -4  13    0.62    0.24 
 -12  -4  13    0.70    0.21 
 -12   4  13    0.60    0.17 
 -10  -4  13   -0.18    0.14 
  10  -4 -13   -0.05    0.11 
 -10   4  13    0.08    0.11 
  -8  -4  13    1.21    0.22 
   8  -4 -13    1.14    0.19 
   8   4 -13    1.17    0.20 
  -8   4  13    1.46    0.16 
   6  -4 -13   13.29    0.51 
  -6  -4  13   14.40    0.57 
   6   4 -13   13.91    0.51 
  -4  -4  13    8.66    0.41 
   4  -4 -13    7.58    0.33 
   4   4 -13    8.35    0.41 
  -4   4  13    9.02    0.24 
   4   4 -13    8.36    0.37 
  -2  -4  13    1.84    0.20 
   2  -4 -13    1.65    0.15 
  -2  -4  13    1.08    0.17 
   2  -4 -13    1.59    0.15 
   2   4 -13    1.72    0.18 
   0  -4  13   11.78    0.47 
   0  -4 -13   11.01    0.38 
   0  -4  13   11.63    0.44 
   0  -4 -13   11.53    0.39 
   0   4 -13   12.02    0.44 
   2  -4  13    1.35    0.17 
   2  -4  13    1.35    0.19 
  -2  -4 -13    1.28    0.15 
  -2  -4 -13    0.90    0.12 
  -2   4 -13    1.04    0.15 
   4  -4  13   13.32    0.57 
   4  -4  13   13.63    0.51 
  -4  -4 -13   13.01    0.50 
  -4  -4 -13   13.64    0.49 
  -4   4 -13   12.93    0.53 
   6  -4  13   12.67    0.60 
  -6  -4 -13   13.01    0.53 
  -6  -4 -13   12.05    0.55 
  -6  -4 -13   12.82    0.64 
  -6   4 -13   13.67    0.54 
  -6   4 -13   13.24    0.59 
  -8  -4 -13    0.35    0.23 
  -8  -4 -13    0.41    0.16 
   8  -4  13    0.23    0.20 
  -8  -4 -13    0.40    0.21 
  -8   4 -13    0.40    0.19 
  -8   4 -13    0.48    0.17 
 -10  -4 -13    3.83    0.48 
 -10  -4 -13    1.86    0.34 
  10  -4  13    1.95    0.33 
 -10   4 -13    1.93    0.29 
 -10   4 -13    2.58    0.35 
 -12  -4 -13   -0.02    0.26 
 -12  -4 -13    0.44    0.25 
 -12   4 -13    0.58    0.21 
 -12   4 -13    0.07    0.19 
 -14  -4 -13    0.06    0.22 
 -14  -4 -13   -0.39    0.22 
 -14   4 -13   -0.08    0.16 
 -15  -5  13    0.35    0.25 
 -13  -5  13    0.22    0.21 
 -11  -5  13    0.02    0.17 
  11   5 -13   -0.10    0.11 
  -9  -5  13    1.68    0.27 
  -9   5  13    2.11    0.17 
   9   5 -13    2.28    0.25 
   7  -5 -13    0.00    0.09 
  -7  -5  13    0.13    0.13 
   7   5 -13    0.02    0.08 
  -5  -5  13   15.00    0.59 
   5  -5 -13   13.70    0.50 
   5   5 -13   15.14    0.62 
   5   5 -13   13.88    0.51 
  -3  -5  13    1.83    0.22 
   3  -5 -13    1.97    0.15 
   3   5 -13    2.04    0.18 
   3   5 -13    1.91    0.22 
   1  -5 -13    2.84    0.18 
  -1  -5  13    2.78    0.21 
  -1  -5  13    2.63    0.24 
   1  -5 -13    2.53    0.16 
   1   5 -13    2.57    0.19 
   1   5 -13    2.71    0.20 
   1  -5  13   15.02    0.57 
  -1  -5 -13   14.43    0.46 
  -1  -5 -13   14.48    0.46 
   1  -5  13   14.40    0.52 
  -1   5 -13   14.23    0.51 
   3  -5  13   -0.01    0.07 
  -3  -5 -13    0.19    0.08 
   3  -5  13    0.25    0.12 
  -3  -5 -13    0.24    0.11 
  -3   5 -13    0.04    0.09 
   5  -5  13    0.38    0.12 
   5  -5  13    0.07    0.12 
  -5  -5 -13    0.31    0.13 
  -5  -5 -13    0.06    0.14 
  -5  -5 -13    0.20    0.10 
  -5   5 -13    0.14    0.09 
  -5   5 -13    0.26    0.13 
   7  -5  13    4.19    0.39 
  -7  -5 -13    3.89    0.37 
  -7  -5 -13    4.37    0.41 
  -7   5 -13    4.13    0.35 
  -7   5 -13    4.62    0.31 
   9  -5  13    0.23    0.21 
  -9  -5 -13    0.07    0.18 
  -9  -5 -13    0.24    0.22 
  -9   5 -13   -0.01    0.15 
  -9   5 -13    0.37    0.15 
 -11  -5 -13   -0.15    0.24 
  11  -5  13    0.25    0.22 
 -11  -5 -13   -0.01    0.21 
 -11   5 -13    0.10    0.24 
 -11   5 -13    0.16    0.15 
 -13  -5 -13   -0.14    0.22 
 -13  -5 -13   -0.06    0.26 
 -13   5 -13   -0.15    0.15 
 -14  -6  13    0.52    0.27 
 -12  -6  13    0.23    0.23 
 -10  -6  13   -0.03    0.17 
  -8  -6  13    0.02    0.15 
   8   6 -13    0.58    0.14 
   6  -6 -13    0.77    0.15 
  -6  -6  13    1.05    0.21 
   6   6 -13    1.25    0.17 
   4  -6 -13    3.77    0.23 
  -4  -6  13    4.17    0.33 
   4   6 -13    4.52    0.25 
   4   6 -13    3.80    0.29 
   2  -6 -13    4.66    0.23 
  -2  -6  13    4.62    0.32 
   2  -6 -13    4.78    0.22 
   2   6 -13    3.97    0.26 
   2   6 -13    4.37    0.24 
   0  -6 -13    2.75    0.17 
   0  -6  13    2.83    0.26 
   0  -6  13    2.76    0.23 
   0  -6 -13    3.21    0.19 
   0   6 -13    2.67    0.19 
   0   6 -13    2.86    0.20 
   2  -6  13    0.61    0.13 
  -2  -6 -13    0.92    0.12 
   2  -6  13    1.10    0.20 
  -2  -6 -13    1.00    0.14 
  -2   6 -13    1.05    0.15 
   4  -6  13    0.55    0.16 
   4  -6  13    0.60    0.14 
  -4  -6 -13    0.70    0.20 
  -4  -6 -13    0.84    0.14 
  -4  -6 -13    0.75    0.15 
  -4   6 -13    0.79    0.15 
  -4   6 -13    0.65    0.11 
   6  -6  13    1.61    0.27 
  -6  -6 -13    1.13    0.29 
  -6  -6 -13    1.49    0.23 
  -6   6 -13    1.13    0.20 
  -6   6 -13    1.47    0.17 
  -8  -6 -13    2.78    0.41 
  -8  -6 -13    3.21    0.38 
   8  -6  13    3.11    0.39 
  -8   6 -13    3.15    0.25 
 -10  -6 -13   -0.20    0.20 
 -10  -6 -13   -0.02    0.20 
  10  -6  13    0.15    0.22 
 -10   6 -13    0.23    0.14 
 -12  -6 -13    0.07    0.23 
 -12  -6 -13   -0.02    0.27 
 -13  -7  13   -0.01    0.24 
 -11  -7  13    0.06    0.21 
  -9  -7  13    1.04    0.25 
  -7  -7  13    0.11    0.16 
  -5  -7  13    3.15    0.33 
   3  -7 -13    0.15    0.07 
  -3  -7  13    0.11    0.13 
  -1  -7  13    1.68    0.23 
   1  -7 -13    1.48    0.13 
   1  -7 -13    1.60    0.14 
  -1  -7 -13    0.98    0.13 
  -1  -7 -13    0.93    0.14 
   1  -7  13    1.08    0.20 
  -1  -7 -13    0.87    0.19 
  -3  -7 -13   -0.02    0.14 
   3  -7  13    0.11    0.12 
  -3  -7 -13    0.04    0.10 
   5  -7  13   -0.08    0.13 
  -5  -7 -13    0.25    0.13 
  -5  -7 -13   -0.04    0.17 
  -7  -7 -13    1.88    0.29 
  -7  -7 -13    1.66    0.34 
   7  -7  13    1.71    0.30 
   9  -7  13    0.12    0.20 
  -9  -7 -13   -0.20    0.23 
  -9  -7 -13    0.08    0.19 
 -11  -7 -13   -0.14    0.27 
 -11  -7 -13   -0.28    0.20 
  11  -7  13    0.13    0.23 
 -10  -8  13   -0.17    0.19 
  -8  -8  13   -0.04    0.18 
  -6  -8  13   -0.03    0.15 
  -4  -8  13    0.18    0.15 
   2  -8 -13    0.44    0.09 
  -2  -8  13    0.44    0.16 
   0  -8 -13    1.17    0.22 
   0  -8 -13    1.45    0.14 
   0  -8  13    1.32    0.23 
  -2  -8 -13    0.16    0.10 
   2  -8  13    0.23    0.15 
  -2  -8 -13    0.16    0.17 
  -4  -8 -13    0.18    0.12 
  -4  -8 -13   -0.10    0.16 
   4  -8  13    0.02    0.13 
  -6  -8 -13    0.50    0.19 
   6  -8  13    0.96    0.25 
  -6  -8 -13    0.79    0.28 
  -8  -8 -13    2.63    0.47 
   8  -8  13    1.67    0.34 
  -8  -8 -13    1.98    0.34 
  10  -8  13    0.21    0.25 
 -10  -8 -13   -0.08    0.23 
  -9  -9  13    0.05    0.19 
  -7  -9  13    0.16    0.19 
  -5  -9  13    0.01    0.17 
  -3  -9  13    0.08    0.15 
   3  -9 -13   -0.04    0.06 
   1  -9 -13    0.68    0.10 
  -1  -9  13    0.81    0.22 
   1  -9  13    0.12    0.15 
  -1  -9 -13    0.14    0.10 
  -3  -9 -13    0.26    0.13 
   3  -9  13    0.04    0.16 
  -5  -9 -13   -0.14    0.23 
   5  -9  13    0.19    0.19 
  -5  -9 -13    0.19    0.15 
  -7  -9 -13    0.05    0.25 
   7  -9  13    0.13    0.19 
  -7  -9 -13   -0.04    0.18 
  -2 -10  13    0.48    0.20 
   0 -10  13    0.07    0.15 
   2 -10  13    0.02    0.15 
 -18   0  14    0.26    0.24 
 -16   0  14    0.87    0.28 
 -14   0  14    0.98    0.27 
 -12   0  14    0.40    0.18 
 -10   0  14    8.71    0.48 
  -8   0  14    6.65    0.37 
  -6   0  14   21.83    0.70 
   6   0 -14   22.76    0.74 
   4   0 -14  135.77    3.01 
  -4   0  14  136.90    2.99 
  -2   0  14   10.90    0.41 
   2   0 -14   11.10    0.41 
   2   0 -14   11.55    0.42 
   0   0  14    2.80    0.18 
   0   0  14    2.81    0.19 
   0   0 -14    2.84    0.19 
   0   0 -14    2.69    0.18 
  -2   0 -14   25.42    0.73 
   2   0  14   25.37    0.75 
  -2   0 -14   24.95    0.74 
   2   0  14   24.77    0.71 
   4   0  14    3.28    0.25 
  -4   0 -14    3.13    0.25 
  -4   0 -14    3.45    0.23 
  -6   0 -14    5.51    0.35 
   6   0  14    5.95    0.38 
  -6   0 -14    5.00    0.34 
  -8   0 -14    0.03    0.15 
  -8   0 -14    0.14    0.14 
   8   0  14   -0.16    0.12 
 -10   0 -14    3.06    0.39 
 -10   0 -14    2.44    0.34 
 -12   0 -14   -0.30    0.16 
 -12   0 -14    0.19    0.17 
 -14   0 -14    0.35    0.22 
 -14   0 -14    0.01    0.20 
 -16   0 -14    0.18    0.24 
 -16   0 -14    0.00    0.22 
 -17  -1  14    0.28    0.26 
 -17   1  14    0.08    0.22 
 -15  -1  14    0.52    0.27 
 -15   1  14    0.11    0.20 
 -13  -1  14    0.30    0.20 
 -13   1  14    0.65    0.23 
 -11  -1  14    4.11    0.38 
 -11   1  14    3.77    0.34 
  -9  -1  14    5.09    0.37 
  -9   1  14    4.70    0.33 
  -7  -1  14    0.53    0.14 
   7  -1 -14    0.96    0.16 
  -7   1  14    0.78    0.14 
   5  -1 -14   67.99    1.63 
  -5  -1  14   64.54    1.61 
   5   1 -14   68.70    1.67 
  -5   1  14   64.81    1.58 
   3  -1 -14    0.31    0.08 
   3  -1 -14    0.31    0.09 
  -3  -1  14    0.26    0.10 
  -3   1  14    0.10    0.08 
   3   1 -14    0.33    0.10 
   3   1 -14    0.44    0.11 
   1  -1 -14    8.55    0.35 
   1  -1 -14    8.54    0.34 
  -1  -1  14   10.60    0.38 
  -1  -1  14    8.64    0.37 
   1   1 -14    8.73    0.35 
   1   1 -14    8.86    0.36 
  -1   1  14    8.70    0.34 
   1  -1  14    6.97    0.33 
  -1  -1 -14    7.48    0.32 
  -1  -1 -14    6.95    0.31 
  -1   1 -14    7.27    0.32 
   1   1  14    7.29    0.32 
   1   1  14    6.96    0.29 
  -1   1 -14    7.27    0.33 
   3  -1  14   31.50    0.86 
  -3  -1 -14   30.01    0.86 
   3  -1  14   30.27    0.90 
  -3  -1 -14   31.54    0.87 
   3   1  14   31.45    0.90 
  -3   1 -14   31.15    0.89 
  -3   1 -14   31.43    0.89 
   5  -1  14   14.69    0.59 
  -5  -1 -14   14.90    0.57 
  -5  -1 -14   14.22    0.53 
   5   1  14   13.73    0.56 
  -5   1 -14   13.95    0.56 
  -7  -1 -14    0.16    0.14 
   7  -1  14    0.28    0.14 
  -7  -1 -14   -0.09    0.12 
  -7   1 -14    0.18    0.15 
   7   1  14    0.07    0.13 
  -7   1 -14    0.25    0.13 
  -9  -1 -14    9.97    0.59 
   9  -1  14    9.42    0.58 
  -9  -1 -14   11.09    0.62 
  -9   1 -14    9.57    0.57 
  -9   1 -14   10.50    0.58 
 -11  -1 -14   -0.29    0.15 
 -11  -1 -14    0.01    0.20 
 -11   1 -14   -0.34    0.15 
 -11   1 -14    0.12    0.18 
 -13  -1 -14    0.18    0.20 
 -13  -1 -14   -0.15    0.17 
 -13   1 -14    0.01    0.17 
 -13   1 -14    0.16    0.19 
 -15  -1 -14   -0.21    0.21 
 -15  -1 -14   -0.03    0.22 
 -15   1 -14   -0.17    0.17 
 -15   1 -14    0.02    0.23 
 -18  -2  14    0.00    0.24 
 -16  -2  14    0.21    0.23 
 -16   2  14   -0.10    0.17 
 -14  -2  14    0.18    0.20 
 -14   2  14    1.10    0.24 
 -12  -2  14    0.06    0.16 
 -12   2  14    0.40    0.17 
 -10  -2  14    8.39    0.51 
 -10   2  14    8.78    0.45 
   8  -2 -14    0.12    0.10 
  -8  -2  14    0.05    0.11 
  -8   2  14    0.05    0.09 
  -6  -2  14    1.09    0.17 
   6  -2 -14    0.53    0.12 
  -6   2  14    0.61    0.12 
   4  -2 -14   42.00    1.07 
  -4  -2  14   41.63    1.11 
  -4   2  14   41.80    1.04 
   4   2 -14   41.24    1.08 
  -2  -2  14    0.12    0.07 
   2  -2 -14    0.15    0.06 
   2  -2 -14    0.04    0.07 
  -2  -2  14    0.07    0.07 
   2   2 -14    0.20    0.08 
  -2   2  14    0.18    0.07 
   2   2 -14    0.08    0.07 
   0  -2 -14    0.26    0.08 
   0  -2  14    0.18    0.07 
   0  -2 -14    0.16    0.06 
   0   2 -14    0.15    0.07 
   0   2  14    0.06    0.06 
   0   2 -14   -0.01    0.06 
   2  -2  14   28.29    0.84 
   2  -2  14   28.30    0.80 
  -2  -2 -14   29.44    0.80 
  -2  -2 -14   26.78    0.79 
   2   2  14   28.73    0.80 
  -2   2 -14   27.77    0.82 
   2   2  14   30.02    0.82 
  -4  -2 -14    0.32    0.11 
   4  -2  14    0.28    0.11 
   4  -2  14    0.47    0.11 
  -4  -2 -14    0.32    0.10 
  -4   2 -14    0.42    0.12 
   4   2  14    0.30    0.10 
  -6  -2 -14    0.89    0.16 
   6  -2  14    1.00    0.21 
  -6  -2 -14    0.87    0.18 
  -6  -2 -14    0.85    0.20 
  -6   2 -14    0.61    0.16 
  -6   2 -14    0.80    0.19 
  -8  -2 -14    1.39    0.27 
   8  -2  14    1.02    0.24 
  -8  -2 -14    1.66    0.28 
  -8   2 -14    1.30    0.27 
  -8   2 -14    1.26    0.23 
  10  -2  14   -0.31    0.15 
 -10  -2 -14    0.19    0.20 
 -10  -2 -14    0.06    0.19 
 -10   2 -14    0.22    0.19 
 -10   2 -14    0.48    0.24 
 -12  -2 -14   -0.20    0.16 
 -12  -2 -14    0.17    0.20 
 -12   2 -14   -0.05    0.17 
 -12   2 -14    0.37    0.19 
 -14  -2 -14   -0.07    0.18 
 -14  -2 -14    0.21    0.22 
 -14   2 -14    0.23    0.25 
 -14   2 -14    0.34    0.21 
 -16  -2 -14   -0.17    0.21 
 -16  -2 -14   -0.02    0.24 
 -16   2 -14   -0.01    0.27 
 -16   2 -14    0.08    0.24 
 -17  -3  14    0.38    0.27 
 -15  -3  14   -0.04    0.20 
 -15   3  14   -0.03    0.24 
 -13  -3  14    0.73    0.25 
 -13   3  14    0.74    0.21 
 -11  -3  14    0.17    0.17 
 -11   3  14   -0.21    0.11 
  -9  -3  14    1.58    0.25 
   9  -3 -14    1.46    0.22 
  -9   3  14    1.62    0.21 
   7  -3 -14    3.69    0.28 
  -7  -3  14    3.91    0.30 
  -7   3  14    3.25    0.22 
   7   3 -14    2.79    0.25 
   5  -3 -14    0.44    0.11 
  -5  -3  14    0.72    0.16 
   5   3 -14    0.55    0.13 
  -5   3  14    0.34    0.10 
   5   3 -14    0.56    0.15 
  -3  -3  14    0.15    0.11 
   3  -3 -14   -0.01    0.06 
  -3   3  14    0.08    0.06 
   3   3 -14   -0.09    0.08 
  -1  -3  14    3.07    0.24 
   1  -3 -14    3.26    0.20 
  -1  -3  14    2.97    0.21 
   1  -3 -14    3.04    0.19 
  -1   3  14    3.46    0.18 
   1   3 -14    3.10    0.22 
  -1  -3 -14   15.36    0.50 
   1  -3  14   15.11    0.53 
   1  -3  14   15.14    0.56 
  -1  -3 -14   15.89    0.50 
   1   3  14   15.55    0.48 
  -1   3 -14   15.55    0.54 
   3  -3  14    0.37    0.12 
   3  -3  14    0.48    0.12 
  -3  -3 -14    0.58    0.13 
  -3  -3 -14    0.52    0.12 
  -3   3 -14    0.61    0.14 
  -5  -3 -14    8.82    0.41 
  -5  -3 -14    9.10    0.44 
   5  -3  14    9.46    0.48 
  -5   3 -14    9.21    0.46 
   7  -3  14    4.19    0.39 
  -7  -3 -14    4.45    0.33 
  -7  -3 -14    4.48    0.39 
  -7  -3 -14    5.11    0.42 
  -7   3 -14    4.72    0.40 
  -7   3 -14    4.65    0.35 
  -9  -3 -14    1.17    0.28 
   9  -3  14    1.53    0.32 
  -9  -3 -14    2.25    0.37 
  -9   3 -14    1.85    0.29 
  -9   3 -14    2.07    0.33 
 -11  -3 -14    4.54    0.54 
 -11  -3 -14    4.31    0.47 
  11  -3  14    3.84    0.49 
 -11   3 -14    4.37    0.48 
 -11   3 -14    3.52    0.42 
 -13  -3 -14    0.32    0.23 
 -13  -3 -14   -0.28    0.24 
 -13   3 -14   -0.14    0.15 
 -13   3 -14   -0.25    0.20 
 -15  -3 -14    0.03    0.25 
 -15  -3 -14    0.43    0.33 
 -15   3 -14    0.04    0.22 
 -15   3 -14    0.38    0.30 
 -16  -4  14    0.40    0.28 
 -14  -4  14    0.37    0.23 
 -12  -4  14    0.93    0.25 
 -12   4  14    0.76    0.19 
 -10  -4  14    0.36    0.20 
  10  -4 -14    0.39    0.16 
 -10   4  14    0.99    0.17 
   8  -4 -14    2.17    0.26 
  -8  -4  14    1.45    0.23 
  -8   4  14    2.34    0.18 
   8   4 -14    1.99    0.23 
  -6  -4  14    1.49    0.22 
   6  -4 -14    1.41    0.19 
   6   4 -14    1.46    0.19 
  -4  -4  14    0.21    0.13 
   4  -4 -14    0.20    0.07 
   4   4 -14   -0.06    0.10 
  -4   4  14    0.09    0.04 
   4   4 -14    0.05    0.08 
  -2  -4  14    0.14    0.10 
  -2  -4  14    0.05    0.07 
   2  -4 -14    0.05    0.07 
   2  -4 -14   -0.04    0.04 
   2   4 -14    0.03    0.07 
   0  -4  14    1.80    0.20 
   0  -4 -14    1.73    0.16 
   0  -4 -14    1.53    0.14 
   0  -4  14    1.47    0.19 
   0   4 -14    1.69    0.18 
   2  -4  14    0.05    0.07 
   2  -4  14    0.22    0.12 
  -2  -4 -14    0.23    0.08 
  -2  -4 -14    0.16    0.08 
  -2   4 -14    0.13    0.09 
  -4  -4 -14    1.96    0.21 
   4  -4  14    1.95    0.26 
  -4  -4 -14    1.51    0.20 
   4  -4  14    1.96    0.22 
  -4   4 -14    1.79    0.22 
   6  -4  14    4.28    0.38 
  -6  -4 -14    3.64    0.28 
  -6  -4 -14    5.04    0.42 
  -6  -4 -14    3.63    0.34 
  -6   4 -14    3.19    0.34 
  -6   4 -14    3.79    0.30 
  -8  -4 -14    0.24    0.16 
  -8  -4 -14   -0.24    0.17 
  -8  -4 -14    0.05    0.19 
   8  -4  14    0.58    0.21 
  -8   4 -14    0.32    0.16 
  -8   4 -14   -0.19    0.15 
  10  -4  14    0.16    0.20 
 -10  -4 -14    0.20    0.22 
 -10  -4 -14    0.02    0.24 
 -10   4 -14    0.42    0.22 
 -10   4 -14    0.37    0.19 
 -12  -4 -14   -0.07    0.24 
 -12  -4 -14   -0.16    0.20 
 -12   4 -14    0.06    0.22 
 -12   4 -14    0.21    0.19 
 -14  -4 -14    0.17    0.29 
 -14  -4 -14    0.05    0.25 
 -14   4 -14    0.25    0.20 
 -15  -5  14    0.41    0.25 
 -13  -5  14    0.21    0.21 
 -11  -5  14   -0.24    0.15 
  11   5 -14   -0.04    0.12 
  -9  -5  14    0.00    0.15 
   9   5 -14    0.02    0.10 
  -7  -5  14    0.38    0.16 
   7  -5 -14    0.13    0.10 
   7   5 -14    0.11    0.09 
   5  -5 -14    0.27    0.09 
  -5  -5  14    0.63    0.17 
   5   5 -14    0.24    0.15 
   5   5 -14    0.53    0.13 
   3  -5 -14    3.22    0.20 
  -3  -5  14    3.28    0.28 
   3   5 -14    3.58    0.24 
   3   5 -14    3.32    0.27 
  -1  -5  14    0.65    0.14 
   1  -5 -14    0.87    0.13 
  -1  -5  14    0.66    0.16 
   1  -5 -14    0.57    0.10 
   1   5 -14    0.67    0.12 
  -1  -5 -14    1.97    0.18 
   1  -5  14    2.02    0.23 
   1  -5  14    1.56    0.19 
  -1  -5 -14    1.80    0.16 
  -1   5 -14    1.36    0.18 
   3  -5  14    0.96    0.19 
  -3  -5 -14    1.25    0.17 
  -3  -5 -14    0.86    0.14 
   3  -5  14    1.00    0.16 
  -3   5 -14    0.88    0.16 
  -5  -5 -14   -0.22    0.14 
  -5  -5 -14    0.30    0.10 
   5  -5  14   -0.13    0.11 
  -5  -5 -14    0.04    0.12 
   5  -5  14    0.02    0.09 
  -5   5 -14   -0.03    0.09 
  -5   5 -14    0.08    0.10 
  -7  -5 -14    0.51    0.20 
  -7  -5 -14    0.18    0.21 
   7  -5  14    0.34    0.19 
  -7   5 -14    0.48    0.14 
  -7   5 -14    0.33    0.16 
   9  -5  14    2.10    0.35 
  -9  -5 -14    2.61    0.37 
  -9  -5 -14    2.17    0.39 
  -9   5 -14    2.10    0.32 
  -9   5 -14    2.10    0.28 
 -11  -5 -14   -0.02    0.20 
 -11  -5 -14   -0.23    0.21 
  11  -5  14   -0.14    0.18 
 -11   5 -14    0.00    0.13 
 -13  -5 -14   -0.06    0.25 
 -13  -5 -14    0.25    0.23 
 -13   5 -14    0.42    0.21 
 -14  -6  14   -0.12    0.21 
 -12  -6  14    2.06    0.36 
 -10  -6  14    0.08    0.19 
  -8  -6  14    0.66    0.21 
   8   6 -14    1.17    0.19 
  -6  -6  14    0.07    0.14 
   6   6 -14    0.11    0.09 
  -4  -6  14    1.60    0.23 
   4  -6 -14    1.74    0.18 
   4   6 -14    1.76    0.19 
   4   6 -14    1.91    0.23 
  -2  -6  14    0.19    0.13 
   2  -6 -14    0.51    0.11 
   2  -6 -14    0.31    0.08 
   2   6 -14    0.33    0.12 
   2   6 -14    0.35    0.10 
   0  -6 -14    0.22    0.09 
   0  -6  14    0.17    0.12 
   0  -6  14    0.25    0.10 
   0  -6 -14    0.11    0.06 
   0   6 -14    0.21    0.09 
   0   6 -14    0.25    0.10 
  -2  -6 -14    1.87    0.16 
   2  -6  14    2.27    0.28 
  -2  -6 -14    1.80    0.19 
   2  -6  14    1.78    0.21 
  -2   6 -14    1.85    0.21 
  -4  -6 -14    0.11    0.11 
   4  -6  14    0.11    0.13 
  -4  -6 -14    0.14    0.16 
  -4   6 -14    0.17    0.09 
  -4   6 -14    0.34    0.13 
  -6  -6 -14    0.87    0.21 
  -6  -6 -14    1.24    0.29 
   6  -6  14    0.97    0.24 
  -6   6 -14    0.91    0.20 
  -6   6 -14    1.06    0.16 
  -8  -6 -14    1.84    0.38 
   8  -6  14    2.30    0.37 
  -8  -6 -14    1.53    0.28 
  -8   6 -14    1.92    0.23 
 -10  -6 -14    0.32    0.24 
 -10  -6 -14    0.13    0.24 
  10  -6  14    0.21    0.22 
 -10   6 -14    0.24    0.16 
 -12  -6 -14    0.18    0.23 
 -12  -6 -14   -0.01    0.26 
 -13  -7  14    0.23    0.25 
 -11  -7  14    0.03    0.22 
  -9  -7  14    0.37    0.22 
  -7  -7  14   -0.04    0.15 
  -5  -7  14    0.08    0.15 
  -3  -7  14    3.90    0.34 
   3  -7 -14    3.48    0.22 
   1  -7 -14    0.07    0.06 
   1  -7 -14    0.03    0.07 
  -1  -7  14   -0.13    0.10 
  -1  -7 -14    1.53    0.16 
  -1  -7 -14    1.42    0.23 
   1  -7  14    1.60    0.25 
  -3  -7 -14    0.35    0.18 
  -3  -7 -14    0.14    0.11 
   3  -7  14    0.21    0.14 
   5  -7  14    0.16    0.15 
  -5  -7 -14   -0.01    0.18 
  -5  -7 -14    0.25    0.14 
   7  -7  14   -0.05    0.16 
  -7  -7 -14    0.18    0.17 
  -7  -7 -14   -0.11    0.19 
  -9  -7 -14    0.89    0.28 
   9  -7  14    0.44    0.25 
  -9  -7 -14    0.90    0.31 
 -11  -7 -14   -0.08    0.22 
 -11  -7 -14   -0.14    0.26 
  11  -7  14    0.08    0.24 
 -10  -8  14    0.17    0.22 
  -8  -8  14    0.13    0.19 
  -6  -8  14    0.76    0.23 
  -4  -8  14    4.17    0.41 
   2  -8 -14    0.49    0.10 
  -2  -8  14    0.51    0.19 
   0  -8 -14    0.05    0.12 
   0  -8 -14    0.07    0.07 
   0  -8  14    0.08    0.13 
   2  -8  14    2.04    0.29 
  -2  -8 -14    2.10    0.22 
  -2  -8 -14    2.28    0.31 
  -4  -8 -14    0.51    0.23 
   4  -8  14    0.59    0.21 
  -4  -8 -14    0.91    0.18 
   6  -8  14    0.17    0.19 
  -6  -8 -14    0.47    0.27 
  -6  -8 -14    0.04    0.16 
  -8  -8 -14    0.37    0.29 
   8  -8  14   -0.16    0.20 
  -8  -8 -14    0.87    0.26 
  -7  -9  14    0.26    0.20 
  -5  -9  14    0.36    0.19 
   3  -9 -14    0.13    0.08 
  -3  -9  14    0.02    0.17 
   1  -9 -14    0.40    0.09 
  -1  -9  14    0.37    0.18 
   1  -9  14    0.12    0.15 
  -1  -9 -14    0.48    0.12 
  -3  -9 -14    0.61    0.16 
   3  -9  14    0.74    0.24 
  -5  -9 -14    0.66    0.32 
   5  -9  14    0.44    0.21 
  -5  -9 -14    0.68    0.21 
  -2 -10  14    0.07    0.17 
   0 -10  14    0.10    0.16 
 -18   0  15   -0.18    0.21 
 -16   0  15   -0.01    0.21 
 -14   0  15   -0.37    0.16 
 -12   0  15   -0.12    0.14 
 -10   0  15   -0.14    0.13 
  -8   0  15    0.30    0.13 
  -6   0  15    0.25    0.11 
   6   0 -15   -0.05    0.08 
   4   0 -15   -0.06    0.06 
   4   0 -15    0.13    0.07 
  -4   0  15    0.16    0.10 
  -2   0  15   -0.17    0.06 
   2   0 -15   -0.12    0.04 
   2   0 -15    0.00    0.07 
   0   0  15    0.00    0.05 
   0   0 -15   -0.03    0.04 
   0   0  15    0.08    0.07 
   0   0 -15    0.08    0.07 
   2   0  15    0.23    0.09 
   2   0  15    0.10    0.07 
  -2   0 -15    0.23    0.08 
  -2   0 -15    0.14    0.08 
  -4   0 -15   -0.05    0.06 
  -4   0 -15   -0.04    0.08 
   4   0  15    0.03    0.08 
  -6   0 -15    0.35    0.14 
   6   0  15    0.00    0.09 
  -8   0 -15    0.07    0.15 
   8   0  15   -0.01    0.14 
  -8   0 -15    0.07    0.13 
 -10   0 -15   -0.18    0.16 
 -10   0 -15   -0.02    0.17 
 -12   0 -15   -0.01    0.18 
 -12   0 -15   -0.26    0.17 
 -14   0 -15   -0.05    0.20 
 -14   0 -15    0.08    0.22 
 -16   0 -15    0.44    0.25 
 -16   0 -15    0.13    0.26 
 -17  -1  15    0.55    0.28 
 -17   1  15    0.14    0.25 
 -15  -1  15    0.43    0.26 
 -15   1  15   -0.13    0.19 
 -13  -1  15   -0.48    0.13 
 -13   1  15   -0.14    0.15 
 -11  -1  15    2.00    0.28 
 -11   1  15    2.66    0.30 
  -9  -1  15    2.80    0.30 
  -9   1  15    3.52    0.29 
   7  -1 -15    0.39    0.12 
  -7  -1  15    0.58    0.15 
  -7   1  15    0.31    0.12 
  -5  -1  15    0.29    0.12 
   5  -1 -15    0.23    0.09 
   5   1 -15    0.13    0.09 
  -5   1  15    0.23    0.10 
   3  -1 -15    5.73    0.29 
  -3  -1  15    4.99    0.30 
   3  -1 -15    5.91    0.28 
   3   1 -15    5.54    0.30 
  -3   1  15    4.94    0.28 
   3   1 -15    5.86    0.30 
  -1  -1  15    3.15    0.23 
  -1  -1  15    3.71    0.22 
   1  -1 -15    3.70    0.22 
   1   1 -15    3.13    0.22 
   1   1 -15    3.21    0.22 
  -1   1  15    3.53    0.22 
   1  -1  15    1.28    0.16 
  -1  -1 -15    1.70    0.16 
  -1  -1 -15    1.37    0.16 
   1  -1  15    1.12    0.14 
   1   1  15    1.67    0.18 
   1   1  15    1.49    0.16 
  -1   1 -15    1.05    0.15 
  -1   1 -15    1.73    0.19 
  -3  -1 -15    2.26    0.21 
   3  -1  15    2.58    0.23 
  -3  -1 -15    2.05    0.19 
  -3   1 -15    2.55    0.22 
   3   1  15    2.35    0.21 
  -5  -1 -15    0.35    0.10 
   5  -1  15    0.51    0.14 
  -5  -1 -15    0.48    0.14 
   5   1  15    0.44    0.13 
  -5   1 -15    0.24    0.12 
   7  -1  15    1.40    0.25 
  -7  -1 -15    1.55    0.26 
  -7  -1 -15    1.18    0.22 
   7   1  15    1.65    0.26 
  -7   1 -15    1.38    0.24 
  -7   1 -15    1.44    0.23 
  -9  -1 -15    2.86    0.38 
   9  -1  15    3.25    0.40 
  -9  -1 -15    3.44    0.42 
  -9   1 -15    3.25    0.40 
  -9   1 -15    4.05    0.44 
 -11  -1 -15   -0.50    0.13 
 -11  -1 -15    0.15    0.17 
 -11   1 -15   -0.08    0.14 
 -11   1 -15    0.06    0.17 
 -13  -1 -15    0.00    0.18 
 -13  -1 -15   -0.15    0.16 
 -13   1 -15    0.48    0.25 
 -13   1 -15   -0.11    0.18 
 -15  -1 -15   -0.15    0.23 
 -15  -1 -15    0.12    0.22 
 -15   1 -15    0.08    0.21 
 -15   1 -15   -0.17    0.22 
 -16  -2  15    0.46    0.24 
 -16   2  15    0.53    0.24 
 -14  -2  15    0.36    0.20 
 -14   2  15   -0.01    0.16 
 -12  -2  15    0.20    0.18 
 -12   2  15    0.14    0.15 
 -10  -2  15    0.04    0.16 
 -10   2  15    0.07    0.13 
  -8  -2  15    0.92    0.18 
   8  -2 -15    1.22    0.19 
  -8   2  15    1.38    0.19 
   6  -2 -15    2.70    0.23 
  -6  -2  15    2.67    0.25 
  -6   2  15    2.32    0.20 
   6   2 -15    2.38    0.23 
   4  -2 -15   74.29    1.76 
  -4  -2  15   75.65    1.82 
  -4   2  15   75.92    1.75 
   4   2 -15   74.42    1.77 
  -2  -2  15    7.28    0.36 
   2  -2 -15    7.76    0.33 
  -2  -2  15    7.97    0.35 
   2  -2 -15    7.26    0.32 
  -2   2  15    7.63    0.32 
   2   2 -15    7.79    0.35 
   0  -2 -15    1.01    0.14 
   0  -2 -15    1.05    0.14 
   0  -2  15    0.52    0.13 
   0  -2  15    0.77    0.12 
   0   2  15    0.79    0.12 
   0   2 -15    0.82    0.13 
   2  -2  15   32.51    0.95 
   2  -2  15   33.24    0.91 
  -2  -2 -15   32.58    0.90 
  -2  -2 -15   32.97    0.90 
  -2   2 -15   33.09    0.93 
   2   2  15   33.08    0.91 
  -4  -2 -15    1.98    0.19 
   4  -2  15    2.34    0.26 
  -4  -2 -15    1.87    0.21 
  -4   2 -15    1.73    0.22 
   4   2  15    1.65    0.20 
  -6  -2 -15   16.99    0.62 
   6  -2  15   16.60    0.70 
  -6  -2 -15   16.87    0.67 
  -6  -2 -15   17.08    0.72 
  -6   2 -15   15.91    0.67 
  -6   2 -15   16.98    0.66 
  -8  -2 -15    1.93    0.30 
  -8  -2 -15    2.76    0.35 
   8  -2  15    3.20    0.38 
  -8   2 -15    2.86    0.32 
  -8   2 -15    2.74    0.36 
  10  -2  15    3.15    0.40 
 -10  -2 -15    2.62    0.39 
 -10  -2 -15    2.41    0.39 
 -10   2 -15    2.59    0.36 
 -10   2 -15    2.30    0.36 
 -12  -2 -15   -0.41    0.13 
 -12  -2 -15   -0.15    0.16 
 -12   2 -15    0.02    0.20 
 -12   2 -15    0.20    0.18 
 -14  -2 -15    0.45    0.25 
 -14  -2 -15    0.75    0.29 
 -14   2 -15   -0.01    0.20 
 -14   2 -15   -0.03    0.23 
 -16  -2 -15   -0.22    0.27 
 -16   2 -15   -0.22    0.26 
 -17  -3  15    0.33    0.27 
 -15  -3  15    1.73    0.36 
 -13  -3  15    1.96    0.33 
 -13   3  15    1.61    0.25 
 -11  -3  15    1.49    0.27 
 -11   3  15    1.82    0.24 
  -9  -3  15    6.50    0.44 
   9  -3 -15    6.72    0.42 
  -9   3  15    6.81    0.36 
   7  -3 -15    1.42    0.20 
  -7  -3  15    1.13    0.20 
   7   3 -15    1.17    0.18 
  -7   3  15    1.55    0.18 
  -5  -3  15    0.09    0.12 
   5  -3 -15    0.05    0.07 
  -5   3  15    0.03    0.07 
   5   3 -15   -0.09    0.07 
  -3  -3  15   53.20    1.38 
   3  -3 -15   51.68    1.29 
  -3   3  15   54.20    1.26 
   3   3 -15   53.94    1.34 
   1  -3 -15   22.67    0.66 
  -1  -3  15   22.86    0.73 
   1  -3 -15   22.21    0.66 
  -1  -3  15   22.26    0.69 
   1   3 -15   22.94    0.69 
  -1   3  15   22.86    0.62 
  -1  -3 -15    4.99    0.26 
   1  -3  15    5.48    0.29 
   1  -3  15    5.34    0.32 
  -1  -3 -15    5.52    0.28 
  -1   3 -15    4.97    0.29 
   1   3  15    5.26    0.26 
  -3  -3 -15   31.57    0.87 
  -3  -3 -15   30.01    0.87 
   3  -3  15   30.77    0.94 
   3  -3  15   30.20    0.88 
  -3   3 -15   31.15    0.92 
  -5  -3 -15    5.89    0.33 
   5  -3  15    4.99    0.37 
  -5  -3 -15    5.33    0.36 
  -5   3 -15    5.69    0.38 
  -7  -3 -15   24.26    0.89 
  -7  -3 -15   25.82    0.97 
  -7  -3 -15   24.04    0.95 
   7  -3  15   23.89    0.92 
  -7   3 -15   23.98    0.86 
  -7   3 -15   23.77    0.90 
   9  -3  15    0.17    0.20 
  -9  -3 -15    0.07    0.23 
  -9  -3 -15    0.21    0.22 
  -9   3 -15    0.07    0.19 
  -9   3 -15    0.31    0.19 
 -11  -3 -15    0.67    0.25 
  11  -3  15    0.35    0.21 
 -11  -3 -15    0.05    0.25 
 -11   3 -15    0.26    0.21 
 -11   3 -15    0.24    0.20 
 -13  -3 -15    0.20    0.22 
 -13  -3 -15    0.21    0.28 
 -13   3 -15   -0.02    0.18 
 -13   3 -15    0.14    0.21 
 -15  -3 -15    0.05    0.32 
 -15  -3 -15    0.02    0.24 
 -15   3 -15    0.23    0.30 
 -15   3 -15    0.32    0.26 
 -16  -4  15    0.29    0.23 
 -14  -4  15    0.06    0.18 
 -12  -4  15    0.84    0.24 
 -10  -4  15    0.52    0.21 
 -10   4  15    0.75    0.16 
  -8  -4  15    7.49    0.45 
   8  -4 -15    7.63    0.43 
   8   4 -15    7.08    0.40 
  -8   4  15    7.55    0.33 
   6  -4 -15    7.75    0.39 
  -6  -4  15    8.30    0.44 
   6   4 -15    8.47    0.40 
  -4  -4  15   18.70    0.67 
   4  -4 -15   17.69    0.58 
  -4   4  15   18.74    0.50 
   4   4 -15   18.29    0.62 
   4   4 -15   19.86    0.69 
   2  -4 -15    0.04    0.05 
  -2  -4  15   -0.02    0.09 
  -2  -4  15    0.04    0.07 
   2  -4 -15    0.05    0.07 
  -2   4  15   -0.01    0.04 
   2   4 -15   -0.04    0.06 
   0  -4 -15    0.09    0.08 
   0  -4  15    0.17    0.08 
   0  -4  15    0.11    0.10 
   0  -4 -15    0.09    0.06 
   0   4 -15    0.13    0.08 
   2  -4  15   14.51    0.54 
  -2  -4 -15   14.99    0.51 
   2  -4  15   14.79    0.59 
  -2  -4 -15   15.54    0.53 
  -2   4 -15   14.89    0.56 
   4  -4  15    2.92    0.24 
  -4  -4 -15    2.87    0.26 
   4  -4  15    2.28    0.28 
  -4  -4 -15    2.05    0.21 
  -4   4 -15    2.30    0.26 
  -6  -4 -15   20.77    0.79 
  -6  -4 -15   23.06    0.92 
   6  -4  15   21.86    0.84 
  -6  -4 -15   20.61    0.73 
  -6   4 -15   21.68    0.82 
  -6   4 -15   20.67    0.74 
   8  -4  15    0.53    0.22 
  -8  -4 -15    0.58    0.25 
  -8  -4 -15    1.15    0.31 
  -8   4 -15    0.78    0.20 
  -8   4 -15    0.30    0.19 
  10  -4  15    0.22    0.21 
 -10  -4 -15   -0.19    0.19 
 -10  -4 -15    0.12    0.23 
 -10   4 -15   -0.15    0.17 
 -10   4 -15    0.11    0.15 
 -12  -4 -15   -0.21    0.22 
 -12  -4 -15    0.03    0.24 
 -12   4 -15   -0.10    0.19 
 -12   4 -15    0.26    0.18 
 -14  -4 -15   -0.13    0.25 
 -14  -4 -15   -0.18    0.19 
 -14   4 -15    0.22    0.19 
 -15  -5  15    0.60    0.28 
 -13  -5  15    1.19    0.31 
 -11  -5  15    0.01    0.16 
  11   5 -15   -0.02    0.12 
  -9  -5  15    1.11    0.24 
   9   5 -15    1.15    0.20 
  -7  -5  15    2.52    0.30 
   7  -5 -15    2.47    0.23 
   7   5 -15    2.60    0.27 
   5  -5 -15    0.08    0.08 
  -5  -5  15    0.06    0.12 
   5   5 -15    0.04    0.09 
   3  -5 -15   22.23    0.66 
  -3  -5  15   21.99    0.77 
   3   5 -15   22.92    0.71 
   3   5 -15   23.44    0.77 
  -1  -5  15   17.62    0.63 
  -1  -5  15   19.08    0.68 
   1  -5 -15   18.49    0.57 
   1  -5 -15   17.46    0.55 
   1   5 -15   17.94    0.60 
   1  -5  15    3.51    0.26 
   1  -5  15    4.32    0.32 
  -1  -5 -15    4.00    0.25 
  -1  -5 -15    3.67    0.22 
  -1   5 -15    3.68    0.26 
  -3  -5 -15    7.04    0.33 
  -3  -5 -15    6.88    0.35 
   3  -5  15    6.76    0.41 
   3  -5  15    6.89    0.36 
  -3   5 -15    6.40    0.38 
  -5  -5 -15    1.02    0.22 
  -5  -5 -15    0.87    0.15 
  -5  -5 -15    1.07    0.21 
   5  -5  15    1.15    0.23 
  -5   5 -15    1.13    0.20 
  -5   5 -15    1.20    0.18 
  -7  -5 -15    5.24    0.47 
   7  -5  15    5.27    0.46 
  -7  -5 -15    5.68    0.43 
  -7   5 -15    5.66    0.42 
  -7   5 -15    5.56    0.38 
   9  -5  15    0.05    0.21 
  -9  -5 -15    0.13    0.22 
  -9  -5 -15    0.04    0.19 
  -9   5 -15    0.25    0.18 
  -9   5 -15    0.16    0.14 
 -11  -5 -15    1.07    0.31 
  11  -5  15    1.46    0.33 
 -11  -5 -15    1.54    0.38 
 -11   5 -15    0.88    0.21 
 -13  -5 -15    0.00    0.22 
 -13  -5 -15    0.06    0.26 
 -13   5 -15    0.18    0.18 
 -14  -6  15   -0.03    0.23 
 -12  -6  15   -0.01    0.19 
 -10  -6  15    0.14    0.18 
  -8  -6  15    2.57    0.34 
   8   6 -15    2.70    0.25 
  -6  -6  15   10.42    0.54 
   6   6 -15    9.86    0.43 
   4  -6 -15    0.38    0.10 
  -4  -6  15    0.51    0.18 
   4   6 -15    0.64    0.17 
   4   6 -15    0.45    0.12 
  -2  -6  15    1.91    0.25 
   2  -6 -15    1.96    0.18 
   2  -6 -15    1.69    0.15 
   2   6 -15    1.77    0.22 
   2   6 -15    1.67    0.19 
   0  -6 -15    0.08    0.06 
   0  -6  15    0.02    0.12 
   0  -6  15    0.22    0.10 
   0  -6 -15    0.02    0.07 
   0   6 -15    0.17    0.09 
   0   6 -15    0.13    0.09 
  -2  -6 -15    0.07    0.09 
  -2  -6 -15   -0.01    0.06 
   2  -6  15    0.15    0.13 
   2  -6  15    0.08    0.08 
  -2   6 -15    0.05    0.09 
  -4  -6 -15    0.75    0.16 
   4  -6  15    0.79    0.20 
  -4  -6 -15    0.65    0.22 
  -4   6 -15    0.74    0.16 
  -4   6 -15    0.77    0.13 
   6  -6  15    0.99    0.24 
  -6  -6 -15    1.08    0.27 
  -6  -6 -15    0.82    0.20 
  -6   6 -15    0.71    0.18 
  -6   6 -15    0.88    0.15 
  -8  -6 -15    0.33    0.25 
   8  -6  15    0.34    0.22 
  -8  -6 -15    0.39    0.21 
  -8   6 -15    0.12    0.11 
 -10  -6 -15    0.01    0.23 
 -10  -6 -15   -0.09    0.20 
  10  -6  15   -0.16    0.19 
 -12  -6 -15    0.08    0.21 
 -12  -6 -15    0.07    0.29 
 -13  -7  15    0.59    0.29 
 -11  -7  15    0.14    0.22 
  -9  -7  15    1.59    0.30 
  -7  -7  15    1.86    0.31 
  -5  -7  15    0.98    0.22 
   3  -7 -15    1.75    0.18 
  -3  -7  15    1.85    0.27 
   1  -7 -15    0.63    0.12 
  -1  -7  15    0.69    0.20 
  -1  -7 -15    1.34    0.16 
   1  -7  15    1.18    0.21 
   3  -7  15    0.59    0.18 
  -3  -7 -15    0.87    0.23 
  -3  -7 -15    1.21    0.18 
  -5  -7 -15    0.04    0.19 
  -5  -7 -15    0.02    0.13 
   5  -7  15    0.05    0.15 
  -7  -7 -15    0.15    0.25 
   7  -7  15    0.00    0.18 
  -7  -7 -15    0.28    0.18 
  -9  -7 -15    0.49    0.31 
   9  -7  15    0.12    0.22 
  -9  -7 -15    0.11    0.21 
  11  -7  15    0.15    0.27 
 -11  -7 -15    0.14    0.23 
 -11  -7 -15    0.11    0.30 
 -10  -8  15    0.42    0.24 
  -8  -8  15    0.02    0.19 
  -6  -8  15    1.00    0.24 
   4  -8 -15    0.04    0.10 
  -4  -8  15    0.21    0.16 
   2  -8 -15    0.02    0.07 
  -2  -8  15    0.07    0.15 
   0  -8 -15    0.10    0.08 
   0  -8  15    0.08    0.14 
   0  -8 -15    0.10    0.15 
   2  -8  15    0.00    0.14 
  -2  -8 -15   -0.04    0.15 
  -2  -8 -15    0.00    0.10 
   4  -8  15    0.46    0.18 
  -4  -8 -15    0.30    0.15 
  -4  -8 -15    0.38    0.22 
   6  -8  15    0.50    0.23 
  -6  -8 -15    0.17    0.16 
  -6  -8 -15   -0.11    0.22 
  -8  -8 -15    0.82    0.35 
  -8  -8 -15    0.77    0.27 
   8  -8  15    0.41    0.25 
  -7  -9  15    0.21    0.20 
  -5  -9  15    0.68    0.22 
   5  -9 -15    0.92    0.16 
  -3  -9  15   -0.31    0.13 
   3  -9 -15   -0.06    0.08 
  -1  -9  15   -0.15    0.16 
   1  -9 -15    0.18    0.08 
   1  -9  15    0.31    0.19 
  -1  -9 -15    0.43    0.12 
  -3  -9 -15    0.35    0.14 
   3  -9  15    0.20    0.18 
  -5  -9 -15    0.49    0.20 
  -5  -9 -15    0.34    0.27 
   5  -9  15    0.26    0.20 
 -18   0  16   -0.13    0.23 
 -16   0  16    0.11    0.23 
 -14   0  16    0.97    0.28 
 -12   0  16    4.10    0.38 
 -10   0  16    3.65    0.36 
  -8   0  16    8.14    0.42 
  -6   0  16    2.85    0.24 
   4   0 -16    0.17    0.08 
  -4   0  16    0.27    0.11 
   4   0 -16    0.23    0.09 
   2   0 -16    0.07    0.06 
   2   0 -16    0.10    0.07 
  -2   0  16   -0.07    0.06 
   0   0  16    7.61    0.36 
   0   0 -16    7.94    0.35 
   0   0 -16    8.12    0.35 
   0   0  16    8.24    0.47 
  -2   0 -16   58.45    1.51 
  -2   0 -16   61.37    1.51 
   2   0  16   62.91    1.54 
  -4   0 -16    0.03    0.10 
   4   0  16    0.17    0.09 
  -6   0 -16   23.70    0.85 
   6   0  16   25.58    0.88 
   8   0  16   17.66    0.78 
  -8   0 -16   19.34    0.80 
  -8   0 -16   19.00    0.81 
 -10   0 -16    0.62    0.22 
 -10   0 -16    0.08    0.18 
 -12   0 -16    0.74    0.27 
 -12   0 -16    0.16    0.23 
 -14   0 -16    0.57    0.29 
 -14   0 -16    0.18    0.25 
 -16   0 -16    0.47    0.26 
 -16   0 -16    0.30    0.28 
 -17  -1  16    0.37    0.26 
 -17   1  16    2.43    0.41 
 -15  -1  16   -0.35    0.18 
 -15   1  16    0.15    0.21 
 -13  -1  16    0.17    0.21 
 -13   1  16    0.76    0.23 
 -11  -1  16   10.49    0.56 
 -11   1  16   10.02    0.53 
  -9  -1  16    0.54    0.19 
  -9   1  16    0.91    0.19 
   7  -1 -16    7.65    0.41 
  -7  -1  16    8.29    0.42 
  -7   1  16    7.76    0.39 
  -5  -1  16    8.29    0.39 
   5  -1 -16    7.93    0.38 
  -5   1  16    7.87    0.36 
   5   1 -16    8.38    0.39 
   3  -1 -16    1.31    0.17 
  -3  -1  16    0.62    0.13 
   3  -1 -16    0.71    0.12 
   3   1 -16    0.68    0.13 
   3   1 -16    0.94    0.15 
  -3   1  16    0.62    0.12 
  -1  -1  16    3.29    0.24 
   1  -1 -16    3.11    0.21 
   1  -1 -16    2.85    0.20 
  -1   1  16    2.98    0.21 
   1   1 -16    2.71    0.21 
   1   1 -16    3.28    0.22 
  -1  -1 -16    0.14    0.08 
  -1  -1 -16    0.29    0.09 
   1  -1  16    0.19    0.08 
   1  -1  16    0.15    0.08 
  -1   1 -16    0.14    0.08 
   1   1  16    0.22    0.09 
  -1   1 -16    0.24    0.09 
  -3  -1 -16    0.55    0.11 
  -3  -1 -16    0.31    0.11 
   3  -1  16    0.44    0.13 
   3   1  16    0.42    0.12 
  -3   1 -16    0.51    0.14 
   5  -1  16    0.28    0.12 
  -5  -1 -16    0.37    0.14 
   5   1  16    0.57    0.15 
  -5   1 -16    0.33    0.12 
  -7  -1 -16   25.46    0.93 
  -7  -1 -16   26.97    0.97 
   7  -1  16   25.66    0.95 
  -7   1 -16   26.07    0.94 
  -7   1 -16   26.55    0.93 
   7   1  16   25.14    0.92 
  -9  -1 -16    9.84    0.60 
   9  -1  16   10.04    0.62 
  -9  -1 -16   10.73    0.63 
  -9   1 -16    9.09    0.57 
  -9   1 -16    9.90    0.61 
 -11  -1 -16   -0.54    0.14 
 -11  -1 -16   -0.12    0.14 
 -11   1 -16   -0.23    0.15 
 -11   1 -16    0.32    0.20 
 -13  -1 -16    0.06    0.17 
 -13  -1 -16    0.13    0.22 
 -13   1 -16    0.14    0.20 
 -13   1 -16   -0.22    0.19 
 -15  -1 -16   -0.02    0.19 
 -15  -1 -16    0.70    0.30 
 -15   1 -16   -0.27    0.23 
 -15   1 -16    0.07    0.22 
 -16  -2  16   -0.04    0.19 
 -16   2  16    0.22    0.21 
 -14  -2  16    0.94    0.27 
 -14   2  16    1.92    0.30 
 -12  -2  16    4.24    0.44 
 -12   2  16    4.32    0.36 
 -10  -2  16    0.38    0.18 
 -10   2  16    0.07    0.13 
  -8  -2  16    9.51    0.48 
   8  -2 -16    9.94    0.51 
  -8   2  16    9.66    0.43 
   6  -2 -16    5.09    0.31 
  -6  -2  16    5.36    0.34 
  -6   2  16    4.94    0.28 
   6   2 -16    4.50    0.30 
  -4  -2  16    3.65    0.27 
   4  -2 -16    3.17    0.22 
   4   2 -16    3.27    0.24 
  -4   2  16    3.43    0.23 
   2  -2 -16    6.63    0.31 
  -2  -2  16    6.69    0.35 
   2  -2 -16    6.28    0.30 
  -2   2  16    6.14    0.30 
   2   2 -16    6.40    0.33 
   0  -2  16   -0.02    0.05 
   0  -2 -16   -0.03    0.04 
   0  -2  16   -0.08    0.06 
   0  -2 -16    0.01    0.07 
   0   2  16   -0.01    0.05 
   0   2 -16   -0.07    0.07 
   2  -2  16    5.35    0.32 
   2  -2  16    4.98    0.32 
  -2  -2 -16    5.14    0.29 
  -2  -2 -16    5.74    0.29 
   2   2  16    5.75    0.31 
  -2   2 -16    5.50    0.32 
   4  -2  16    2.30    0.26 
  -4  -2 -16    2.41    0.21 
  -4  -2 -16    2.71    0.24 
   4   2  16    2.56    0.23 
  -4   2 -16    2.52    0.26 
  -6  -2 -16    9.07    0.48 
  -6  -2 -16    8.54    0.52 
   6  -2  16    8.94    0.51 
  -6   2 -16    9.02    0.47 
  -6   2 -16    8.31    0.49 
  -8  -2 -16    7.70    0.55 
  -8  -2 -16    6.59    0.49 
   8  -2  16    8.44    0.55 
  -8   2 -16    6.92    0.50 
  -8   2 -16    7.87    0.50 
 -10  -2 -16    1.17    0.29 
  10  -2  16    0.77    0.25 
 -10  -2 -16    0.25    0.24 
 -10   2 -16    0.34    0.20 
 -10   2 -16    0.41    0.23 
 -12  -2 -16   -0.16    0.18 
 -12  -2 -16   -0.17    0.16 
 -12   2 -16   -0.15    0.18 
 -12   2 -16    0.11    0.18 
 -14  -2 -16    0.40    0.24 
 -14  -2 -16    0.01    0.21 
 -14   2 -16   -0.09    0.18 
 -14   2 -16   -0.03    0.17 
 -17  -3  16   -0.22    0.22 
 -15  -3  16    0.05    0.21 
 -13  -3  16    0.24    0.20 
 -13   3  16    0.41    0.17 
 -11  -3  16    0.32    0.18 
 -11   3  16    0.27    0.14 
  -9  -3  16    1.37    0.25 
   9  -3 -16    1.11    0.23 
  -9   3  16    1.20    0.19 
   7  -3 -16   -0.05    0.07 
  -7  -3  16    0.23    0.14 
   7   3 -16   -0.09    0.10 
  -7   3  16    0.04    0.08 
   5  -3 -16    4.65    0.28 
  -5  -3  16    4.52    0.32 
   5   3 -16    4.28    0.29 
  -5   3  16    4.33    0.24 
   3  -3 -16    6.37    0.32 
  -3  -3  16    6.41    0.36 
   3  -3 -16    6.37    0.31 
  -3   3  16    6.96    0.30 
   3   3 -16    7.29    0.35 
   1  -3 -16    2.64    0.21 
   1  -3 -16    2.98    0.20 
  -1  -3  16    3.29    0.26 
  -1  -3  16    3.03    0.22 
   1   3 -16    2.69    0.22 
  -1   3  16    2.92    0.19 
   1  -3  16    7.22    0.35 
  -1  -3 -16    7.59    0.35 
   1  -3  16    7.86    0.40 
  -1  -3 -16    7.29    0.33 
   1   3  16    7.67    0.33 
  -1   3 -16    7.85    0.37 
   3  -3  16    2.30    0.26 
  -3  -3 -16    1.49    0.18 
  -3  -3 -16    1.30    0.18 
   3   3  16    1.48    0.18 
  -3   3 -16    1.76    0.23 
   5  -3  16    6.87    0.44 
  -5  -3 -16    7.49    0.39 
  -5  -3 -16    7.43    0.43 
  -5   3 -16    7.11    0.44 
  -7  -3 -16   17.31    0.82 
  -7  -3 -16   17.31    0.75 
   7  -3  16   17.50    0.79 
  -7   3 -16   17.39    0.76 
  -7   3 -16   17.53    0.74 
  -9  -3 -16    1.25    0.29 
   9  -3  16    1.70    0.32 
  -9  -3 -16    1.58    0.34 
  -9   3 -16    1.82    0.33 
  -9   3 -16    1.68    0.29 
 -11  -3 -16    0.25    0.26 
  11  -3  16    0.71    0.26 
 -11  -3 -16    0.04    0.20 
 -11   3 -16    0.26    0.22 
 -11   3 -16    0.42    0.20 
 -13  -3 -16    0.22    0.31 
 -13  -3 -16   -0.21    0.19 
 -13   3 -16    0.41    0.24 
 -13   3 -16    0.62    0.26 
 -15  -3 -16    0.10    0.31 
 -15  -3 -16    0.20    0.25 
 -15   3 -16    0.33    0.25 
 -15   3 -16    0.24    0.26 
 -16  -4  16    0.09    0.21 
 -14  -4  16   -0.31    0.16 
 -12  -4  16   -0.21    0.16 
 -10  -4  16    2.63    0.33 
 -10   4  16    2.71    0.25 
  10   4 -16    2.78    0.31 
  -8  -4  16    0.12    0.15 
   8  -4 -16    0.28    0.13 
  -8   4  16    0.32    0.10 
   8   4 -16    0.38    0.14 
  -6  -4  16    7.52    0.42 
   6  -4 -16    6.52    0.35 
   6   4 -16    5.92    0.35 
   4  -4 -16    4.82    0.27 
  -4  -4  16    5.24    0.34 
   4   4 -16    5.09    0.31 
   4   4 -16    5.30    0.35 
  -4   4  16    5.05    0.22 
   2  -4 -16    0.84    0.13 
  -2  -4  16    0.87    0.18 
  -2  -4  16    1.15    0.17 
   2  -4 -16    1.07    0.15 
  -2   4  16    0.99    0.10 
   2   4 -16    1.02    0.17 
   0  -4 -16    0.05    0.07 
   0  -4 -16    0.21    0.09 
   0  -4  16    0.15    0.11 
   0  -4  16    0.14    0.08 
   0   4 -16    0.11    0.09 
  -2  -4 -16    0.12    0.08 
   2  -4  16    0.16    0.12 
   2  -4  16    0.02    0.08 
  -2  -4 -16   -0.03    0.08 
  -2   4 -16    0.11    0.10 
  -4  -4 -16    3.76    0.30 
   4  -4  16    4.01    0.35 
  -4  -4 -16    3.68    0.27 
  -4   4 -16    3.65    0.31 
  -6  -4 -16    0.43    0.18 
   6  -4  16    0.43    0.18 
  -6  -4 -16    0.38    0.13 
  -6  -4 -16    0.70    0.24 
  -6   4 -16    0.18    0.14 
  -6   4 -16    0.37    0.17 
  -8  -4 -16    3.42    0.39 
  -8  -4 -16    4.48    0.50 
   8  -4  16    3.49    0.43 
  -8   4 -16    4.69    0.40 
  -8   4 -16    4.20    0.43 
 -10  -4 -16    0.12    0.19 
 -10  -4 -16   -0.02    0.23 
  10  -4  16    0.63    0.25 
 -10   4 -16    0.15    0.19 
 -10   4 -16    0.32    0.17 
 -12  -4 -16    0.28    0.23 
 -12  -4 -16    0.56    0.28 
 -12   4 -16    0.45    0.21 
 -12   4 -16    0.40    0.22 
 -14  -4 -16   -0.17    0.29 
 -14  -4 -16    0.21    0.25 
 -14   4 -16   -0.08    0.19 
 -15  -5  16   -0.15    0.22 
 -13  -5  16    0.25    0.21 
  13   5 -16    0.19    0.17 
 -11  -5  16    0.62    0.22 
  11   5 -16    0.62    0.18 
  -9  -5  16   -0.04    0.17 
   9   5 -16    0.21    0.13 
  -7  -5  16    2.36    0.29 
   7  -5 -16    2.62    0.29 
   7   5 -16    1.82    0.23 
  -7   5  16    2.26    0.11 
   5  -5 -16    1.81    0.20 
  -5  -5  16    1.66    0.25 
   5   5 -16    1.73    0.21 
   3  -5 -16    0.75    0.14 
  -3  -5  16    1.13    0.21 
   3  -5 -16    0.76    0.13 
   3   5 -16    0.87    0.15 
   3   5 -16    0.71    0.17 
   1  -5 -16    3.43    0.23 
  -1  -5  16    3.35    0.26 
   1  -5 -16    3.41    0.22 
  -1  -5  16    3.41    0.30 
   1   5 -16    3.43    0.25 
  -1  -5 -16    9.68    0.40 
  -1  -5 -16    9.22    0.38 
   1  -5  16    9.20    0.43 
   1  -5  16    9.45    0.48 
  -1   5 -16    9.26    0.43 
  -3  -5 -16    1.50    0.18 
   3  -5  16    1.49    0.19 
  -3  -5 -16    1.60    0.21 
   3  -5  16    1.71    0.24 
  -3   5 -16    2.39    0.27 
   5  -5  16    0.57    0.19 
  -5  -5 -16    0.45    0.20 
  -5  -5 -16    0.32    0.14 
  -5  -5 -16    0.83    0.18 
  -5   5 -16    0.69    0.19 
  -5   5 -16    0.62    0.15 
  -7  -5 -16    3.40    0.43 
  -7  -5 -16    4.10    0.39 
   7  -5  16    3.72    0.42 
  -7   5 -16    3.46    0.37 
  -7   5 -16    3.50    0.31 
  -9  -5 -16    0.14    0.21 
   9  -5  16   -0.25    0.18 
  -9  -5 -16   -0.19    0.19 
  -9   5 -16   -0.15    0.11 
  -9   5 -16   -0.17    0.15 
 -11  -5 -16    0.00    0.22 
 -11  -5 -16    0.15    0.24 
  11  -5  16    0.34    0.23 
 -11   5 -16    0.13    0.15 
 -13  -5 -16    0.54    0.29 
 -13  -5 -16   -0.17    0.26 
 -13   5 -16    0.08    0.19 
 -14  -6  16    0.11    0.23 
 -12  -6  16   -0.14    0.19 
 -10  -6  16    0.42    0.22 
  -8  -6  16    1.63    0.27 
   8   6 -16    1.63    0.23 
  -6  -6  16    0.22    0.16 
   6   6 -16    0.10    0.09 
  -4  -6  16   -0.03    0.13 
   4  -6 -16    0.01    0.07 
   4   6 -16    0.08    0.13 
   4   6 -16   -0.16    0.07 
  -2  -6  16    0.19    0.13 
   2  -6 -16   -0.05    0.06 
   2  -6 -16    0.06    0.09 
   2   6 -16    0.07    0.08 
   2   6 -16    0.11    0.11 
   0  -6 -16    1.91    0.17 
   0  -6  16    2.25    0.25 
   0  -6 -16    2.10    0.19 
   0  -6  16    2.17    0.27 
   0   6 -16    2.27    0.21 
   0   6 -16    2.16    0.22 
   2  -6  16   -0.06    0.11 
  -2  -6 -16    0.04    0.08 
   2  -6  16    0.14    0.11 
  -2  -6 -16    0.08    0.09 
  -2   6 -16    0.09    0.10 
  -4  -6 -16    0.09    0.11 
   4  -6  16   -0.13    0.11 
  -4  -6 -16    0.01    0.16 
  -4   6 -16    0.12    0.08 
  -4   6 -16    0.21    0.13 
   6  -6  16    1.50    0.27 
  -6  -6 -16    1.53    0.26 
  -6  -6 -16    1.55    0.31 
  -6   6 -16    1.42    0.30 
  -6   6 -16    1.26    0.19 
   8  -6  16    1.26    0.31 
  -8  -6 -16    1.45    0.30 
  -8  -6 -16    1.55    0.37 
  -8   6 -16    1.58    0.23 
  10  -6  16    0.25    0.27 
 -10  -6 -16    0.17    0.24 
 -10  -6 -16    0.34    0.27 
  12  -6  16   -0.09    0.25 
 -12  -6 -16   -0.19    0.21 
 -12  -6 -16   -0.20    0.27 
 -13  -7  16    0.30    0.26 
 -11  -7  16    0.26    0.24 
  -9  -7  16    0.21    0.19 
  -7  -7  16    0.85    0.24 
  -5  -7  16    0.15    0.16 
   3  -7 -16   -0.01    0.09 
  -3  -7  16   -0.07    0.12 
  -1  -7  16    0.17    0.13 
   1  -7 -16    0.33    0.11 
   1  -7  16    2.09    0.29 
  -1  -7 -16    2.38    0.23 
  -3  -7 -16    0.17    0.12 
   3  -7  16    0.27    0.16 
  -3  -7 -16    0.14    0.17 
  -5  -7 -16    0.00    0.14 
   5  -7  16    0.35    0.20 
  -5  -7 -16    0.15    0.21 
  -7  -7 -16    2.39    0.34 
  -7  -7 -16    3.16    0.45 
   7  -7  16    1.84    0.34 
   9  -7  16    0.08    0.24 
  -9  -7 -16   -0.20    0.20 
  -9  -7 -16    0.15    0.27 
 -10  -8  16   -0.15    0.20 
  -8  -8  16    1.03    0.26 
  -6  -8  16    1.94    0.32 
  -4  -8  16    0.41    0.19 
   4  -8 -16    0.36    0.12 
   2  -8 -16    0.87    0.14 
  -2  -8  16    1.02    0.24 
   0  -8 -16    0.25    0.16 
   0  -8  16    0.22    0.15 
   0  -8 -16    0.00    0.08 
  -2  -8 -16    0.02    0.10 
  -2  -8 -16   -0.08    0.15 
   2  -8  16    0.16    0.15 
  -4  -8 -16    0.18    0.16 
   4  -8  16    0.31    0.19 
  -4  -8 -16    0.08    0.21 
   6  -8  16    1.64    0.33 
  -6  -8 -16    1.02    0.24 
  -6  -8 -16    1.11    0.34 
  -8  -8 -16    0.70    0.33 
  -8  -8 -16    1.06    0.31 
   8  -8  16    0.96    0.31 
  -7  -9  16    0.08    0.20 
  -5  -9  16    1.63    0.31 
   5  -9 -16    1.47    0.21 
  -3  -9  16   -0.25    0.14 
   3  -9 -16   -0.03    0.08 
  -1  -9  16    0.22    0.18 
   1  -9 -16    0.56    0.12 
  -1  -9 -16    0.78    0.15 
   1  -9  16    0.23    0.18 
   3  -9  16    0.09    0.17 
  -3  -9 -16    0.05    0.13 
   5  -9  16    0.06    0.20 
  -5  -9 -16    0.05    0.24 
  -5  -9 -16   -0.08    0.16 
 -16   0  17    0.20    0.23 
 -14   0  17    0.06    0.20 
 -12   0  17    0.20    0.16 
 -10   0  17    0.02    0.15 
  -8   0  17    0.05    0.12 
  -6   0  17    0.20    0.11 
  -4   0  17    0.02    0.07 
   4   0 -17   -0.06    0.06 
   4   0 -17    0.05    0.07 
  -2   0  17    0.00    0.07 
   2   0 -17   -0.05    0.05 
   2   0 -17    0.03    0.07 
   0   0  17    0.14    0.08 
   0   0 -17    0.01    0.05 
   0   0 -17    0.18    0.09 
   2   0  17    0.26    0.10 
  -2   0 -17    0.22    0.09 
  -2   0 -17    0.25    0.09 
  -4   0 -17   -0.17    0.07 
   4   0  17   -0.02    0.08 
   6   0  17    0.08    0.13 
  -6   0 -17    0.02    0.12 
  -8   0 -17    0.54    0.21 
   8   0  17    0.52    0.20 
  -8   0 -17    0.79    0.22 
 -10   0 -17    0.18    0.17 
 -10   0 -17    0.14    0.19 
 -12   0 -17    0.00    0.20 
 -12   0 -17    0.25    0.23 
 -14   0 -17    0.07    0.25 
 -14   0 -17   -0.17    0.19 
 -17  -1  17    0.05    0.24 
 -17   1  17    0.59    0.27 
 -15  -1  17   -0.16    0.20 
 -15   1  17    0.02    0.17 
 -13  -1  17    0.36    0.21 
 -13   1  17   -0.13    0.17 
 -11  -1  17    1.68    0.27 
 -11   1  17    1.55    0.25 
  -9  -1  17    1.13    0.22 
  -9   1  17    1.34    0.21 
  -7  -1  17    2.96    0.28 
  -7   1  17    3.40    0.27 
   5  -1 -17    4.58    0.29 
  -5  -1  17    4.29    0.30 
  -5   1  17    4.36    0.27 
   5   1 -17    3.94    0.27 
   3  -1 -17    2.95    0.22 
   3  -1 -17    2.94    0.22 
  -3  -1  17    2.95    0.24 
   3   1 -17    2.63    0.22 
  -3   1  17    2.85    0.22 
   1  -1 -17    0.80    0.13 
  -1  -1  17    1.11    0.17 
   1  -1 -17    0.90    0.14 
  -1   1  17    1.33    0.17 
   1   1 -17    1.13    0.16 
  -1  -1 -17    2.02    0.19 
   1  -1  17    1.90    0.21 
  -1  -1 -17    1.89    0.17 
  -1   1 -17    2.10    0.23 
   1   1  17    2.00    0.19 
  -3  -1 -17    0.15    0.08 
   3  -1  17    0.22    0.11 
  -3  -1 -17    0.17    0.09 
   3   1  17    0.15    0.10 
  -3   1 -17    0.11    0.10 
  -5  -1 -17    0.54    0.15 
   5  -1  17    0.33    0.14 
   5   1  17    0.50    0.15 
  -5   1 -17    0.53    0.15 
  -7  -1 -17    2.70    0.31 
  -7  -1 -17    3.11    0.38 
   7  -1  17    2.65    0.34 
  -7   1 -17    3.77    0.40 
  -7   1 -17    3.30    0.35 
   7   1  17    3.37    0.36 
  -9  -1 -17    0.95    0.26 
  -9  -1 -17    1.64    0.31 
   9  -1  17    1.24    0.28 
  -9   1 -17    1.13    0.28 
  -9   1 -17    1.75    0.29 
 -11  -1 -17   -0.37    0.16 
 -11  -1 -17    0.02    0.16 
 -11   1 -17   -0.33    0.17 
 -11   1 -17   -0.09    0.17 
 -13  -1 -17    0.12    0.22 
 -13  -1 -17    0.09    0.19 
 -13   1 -17   -0.09    0.20 
 -13   1 -17    0.06    0.21 
 -15  -1 -17    0.00    0.25 
 -15  -1 -17    0.06    0.24 
 -15   1 -17   -0.09    0.26 
 -15   1 -17   -0.03    0.20 
 -16  -2  17    0.44    0.25 
 -16   2  17    0.32    0.25 
 -14  -2  17    0.03    0.20 
 -14   2  17    0.09    0.18 
 -12  -2  17    2.46    0.33 
 -12   2  17    2.89    0.33 
 -10  -2  17    1.76    0.29 
 -10   2  17    1.64    0.24 
   8  -2 -17    7.05    0.49 
  -8  -2  17    6.84    0.42 
  -8   2  17    6.27    0.36 
   6  -2 -17    0.67    0.15 
  -6  -2  17    0.53    0.15 
  -6   2  17    0.55    0.13 
   6   2 -17    0.50    0.14 
   4  -2 -17    6.11    0.32 
  -4  -2  17    6.06    0.35 
  -4   2  17    6.04    0.31 
   4   2 -17    5.76    0.33 
   2  -2 -17    5.65    0.30 
  -2  -2  17    5.84    0.34 
   2  -2 -17    6.04    0.31 
  -2   2  17    5.91    0.29 
   2   2 -17    6.44    0.33 
   0  -2 -17    3.51    0.24 
   0  -2  17    3.61    0.26 
   0  -2 -17    3.02    0.21 
   0   2  17    3.44    0.23 
   0   2 -17    3.15    0.24 
   2  -2  17    0.55    0.13 
  -2  -2 -17    0.51    0.12 
  -2  -2 -17    0.53    0.11 
   2   2  17    0.51    0.12 
  -2   2 -17    0.58    0.14 
   4  -2  17    0.67    0.16 
  -4  -2 -17    0.97    0.16 
  -4  -2 -17    0.83    0.18 
  -4   2 -17    0.75    0.17 
   4   2  17    1.04    0.18 
   6  -2  17    3.68    0.38 
  -6  -2 -17    3.16    0.33 
   6   2  17    3.62    0.32 
  -6   2 -17    3.58    0.34 
  -8  -2 -17   11.19    0.66 
  -8  -2 -17   10.40    0.61 
   8  -2  17   10.68    0.62 
  -8   2 -17   10.83    0.60 
  -8   2 -17   10.80    0.61 
 -10  -2 -17    0.17    0.22 
  10  -2  17    0.74    0.25 
 -10  -2 -17    0.31    0.22 
 -10   2 -17    0.49    0.24 
 -10   2 -17    0.31    0.21 
 -12  -2 -17   -0.21    0.16 
 -12  -2 -17    0.01    0.18 
 -12   2 -17    0.05    0.17 
 -12   2 -17   -0.06    0.18 
 -14  -2 -17    0.13    0.22 
 -14  -2 -17   -0.04    0.24 
 -14   2 -17   -0.02    0.20 
 -14   2 -17    0.22    0.23 
 -17  -3  17    1.30    0.37 
 -15  -3  17   -0.15    0.19 
 -13  -3  17    0.16    0.20 
 -13   3  17    0.43    0.18 
 -11  -3  17    6.91    0.48 
 -11   3  17    5.86    0.38 
   9  -3 -17    1.71    0.30 
  -9  -3  17    1.22    0.25 
  -9   3  17    1.84    0.23 
   7  -3 -17   16.99    0.67 
  -7  -3  17   16.04    0.66 
  -7   3  17   16.94    0.58 
   7   3 -17   16.79    0.64 
   5  -3 -17    3.32    0.25 
  -5  -3  17    4.35    0.32 
   5   3 -17    3.33    0.26 
  -5   3  17    3.94    0.24 
  -3  -3  17    0.10    0.11 
   3  -3 -17    0.00    0.06 
   3  -3 -17    0.02    0.08 
   3   3 -17   -0.05    0.08 
  -3   3  17   -0.07    0.05 
  -1  -3  17    4.36    0.31 
  -1  -3  17    4.75    0.28 
   1  -3 -17    4.45    0.27 
   1  -3 -17    4.27    0.25 
   1   3 -17    3.89    0.27 
  -1   3  17    4.53    0.24 
  -1  -3 -17    0.44    0.10 
   1  -3  17    0.59    0.19 
  -1  -3 -17    0.26    0.10 
   1  -3  17    0.30    0.12 
  -1   3 -17    0.38    0.12 
   1   3  17    0.25    0.09 
   3  -3  17    5.41    0.36 
  -3  -3 -17    5.30    0.33 
  -3  -3 -17    5.74    0.31 
  -3   3 -17    5.78    0.36 
   3   3  17    5.08    0.31 
  -5  -3 -17   15.55    0.60 
  -5  -3 -17   16.26    0.65 
   5  -3  17   16.22    0.70 
  -5   3 -17   15.89    0.68 
   7  -3  17   12.81    0.67 
  -7  -3 -17   13.19    0.65 
  -7  -3 -17   13.63    0.71 
  -7   3 -17   12.44    0.64 
  -7   3 -17   12.56    0.62 
  -9  -3 -17    7.54    0.55 
   9  -3  17    8.22    0.58 
  -9  -3 -17    7.90    0.59 
  -9   3 -17    7.10    0.52 
  -9   3 -17    7.10    0.50 
 -11  -3 -17    0.06    0.19 
 -11  -3 -17    0.18    0.27 
  11  -3  17    0.06    0.20 
 -11   3 -17   -0.11    0.19 
 -11   3 -17    0.44    0.22 
 -13  -3 -17    0.77    0.29 
 -13  -3 -17    0.21    0.27 
 -13   3 -17    0.85    0.28 
 -13   3 -17    0.60    0.24 
 -16  -4  17    1.40    0.33 
 -14  -4  17    0.65    0.26 
 -12  -4  17    0.06    0.18 
 -10  -4  17    6.34    0.46 
 -10   4  17    6.09    0.35 
  10   4 -17    5.74    0.41 
  -8  -4  17    6.77    0.44 
   8  -4 -17    7.02    0.42 
  -8   4  17    6.83    0.33 
   8   4 -17    6.93    0.41 
   6  -4 -17    0.73    0.15 
  -6  -4  17    0.90    0.20 
   6   4 -17    0.55    0.15 
  -6   4  17    0.71    0.12 
  -4  -4  17   11.80    0.53 
   4  -4 -17   11.47    0.45 
   4   4 -17   11.35    0.48 
  -4   4  17    9.83    0.36 
   2  -4 -17    0.46    0.11 
  -2  -4  17    0.66    0.14 
  -2  -4  17    0.45    0.15 
   2  -4 -17    0.43    0.12 
  -2   4  17    0.65    0.09 
   2   4 -17    0.61    0.14 
   0  -4 -17   11.71    0.46 
   0  -4  17   11.85    0.49 
   0  -4  17   12.40    0.55 
   0  -4 -17   12.21    0.45 
   0   4  17   11.67    0.38 
   0   4 -17   11.60    0.48 
  -2  -4 -17   12.63    0.48 
  -2  -4 -17   12.72    0.50 
   2  -4  17   12.34    0.57 
  -2   4 -17   12.43    0.53 
   4  -4  17    1.92    0.29 
  -4  -4 -17    2.09    0.25 
  -4  -4 -17    1.87    0.22 
  -4   4 -17    1.54    0.23 
   6  -4  17    0.03    0.16 
  -6  -4 -17    0.29    0.12 
  -6  -4 -17    0.36    0.22 
  -6  -4 -17    0.35    0.18 
  -6   4 -17    0.13    0.16 
  -6   4 -17    0.08    0.14 
  -8  -4 -17   11.32    0.64 
   8  -4  17   11.27    0.68 
  -8  -4 -17   13.98    0.77 
  -8   4 -17   12.11    0.63 
  -8   4 -17   11.32    0.65 
 -10  -4 -17    0.56    0.25 
  10  -4  17    0.28    0.25 
 -10  -4 -17    0.81    0.29 
 -10   4 -17    0.33    0.18 
 -10   4 -17    0.13    0.21 
 -12  -4 -17    0.96    0.35 
  12  -4  17    1.38    0.38 
 -12  -4 -17    0.96    0.31 
 -12   4 -17    0.61    0.24 
 -12   4 -17    1.57    0.35 
 -14  -4 -17    0.32    0.25 
 -14  -4 -17   -0.70    0.27 
 -14   4 -17    0.19    0.22 
 -15  -5  17    0.06    0.22 
 -13  -5  17    0.30    0.21 
  13   5 -17   -0.03    0.16 
 -11  -5  17    1.15    0.28 
  11   5 -17    0.88    0.20 
  -9  -5  17    0.39    0.18 
   9   5 -17    0.02    0.12 
  -7  -5  17    2.83    0.33 
  -7   5  17    2.37    0.14 
   7   5 -17    2.92    0.30 
  -5  -5  17    9.84    0.52 
   5  -5 -17    8.68    0.40 
   5   5 -17    9.47    0.44 
  -3  -5  17    0.81    0.19 
   3  -5 -17    0.79    0.15 
   3  -5 -17    0.58    0.12 
   3   5 -17    0.56    0.16 
   3   5 -17    0.76    0.15 
   1  -5 -17    0.26    0.11 
  -1  -5  17    0.41    0.15 
  -1  -5  17    0.25    0.11 
   1  -5 -17    0.22    0.09 
   1   5 -17    0.31    0.12 
  -1  -5 -17    0.71    0.14 
   1  -5  17    0.41    0.12 
   1  -5  17    0.76    0.18 
  -1  -5 -17    0.62    0.12 
  -1   5 -17    0.82    0.16 
  -3  -5 -17    0.47    0.12 
   3  -5  17    0.49    0.17 
  -3  -5 -17    0.73    0.16 
  -3   5 -17    0.53    0.15 
  -5  -5 -17    1.95    0.26 
   5  -5  17    1.96    0.30 
  -5  -5 -17    2.10    0.31 
  -5   5 -17    2.27    0.29 
  -5   5 -17    2.29    0.25 
   7  -5  17   10.19    0.64 
  -7  -5 -17   11.48    0.70 
  -7  -5 -17   10.93    0.60 
  -7   5 -17   10.92    0.61 
  -7   5 -17   10.68    0.56 
   9  -5  17    0.44    0.24 
  -9  -5 -17    0.08    0.21 
  -9  -5 -17    0.26    0.22 
  -9   5 -17    0.27    0.22 
  -9   5 -17    0.23    0.14 
  11  -5  17    0.06    0.22 
 -11  -5 -17    0.38    0.29 
 -11  -5 -17    0.13    0.24 
 -11   5 -17    0.15    0.18 
 -13  -5 -17    0.13    0.27 
 -13  -5 -17    0.05    0.32 
 -13   5 -17    0.17    0.20 
 -14  -6  17    0.35    0.26 
 -12  -6  17    0.48    0.24 
 -10  -6  17    1.11    0.26 
  -8  -6  17    0.49    0.20 
   8   6 -17    0.48    0.14 
  -6  -6  17   -0.11    0.15 
   6   6 -17    0.09    0.10 
  -4  -6  17    6.18    0.42 
   4   6 -17    6.33    0.35 
   2  -6 -17    0.93    0.15 
   2  -6 -17    1.02    0.17 
  -2  -6  17    0.58    0.18 
   2   6 -17    0.98    0.16 
   2   6 -17    0.72    0.17 
   0  -6  17    3.22    0.39 
   0  -6 -17    2.99    0.23 
   0  -6  17    2.61    0.30 
   0  -6 -17    2.94    0.25 
   0   6 -17    3.11    0.25 
   2  -6  17    1.34    0.24 
  -2  -6 -17    1.52    0.20 
  -2   6 -17    1.51    0.21 
  -4  -6 -17    0.11    0.12 
  -4  -6 -17    0.08    0.18 
   4  -6  17    0.09    0.14 
  -4   6 -17    0.07    0.10 
  -4   6 -17    0.09    0.09 
  -6  -6 -17   -0.06    0.15 
   6  -6  17    0.32    0.19 
  -6  -6 -17   -0.02    0.20 
  -6   6 -17   -0.09    0.09 
  -8  -6 -17    1.68    0.39 
   8  -6  17    2.25    0.40 
  -8  -6 -17    1.54    0.33 
  -8   6 -17    1.80    0.25 
  10  -6  17   -0.12    0.22 
 -10  -6 -17   -0.11    0.20 
 -10  -6 -17   -0.30    0.24 
  12  -6  17    0.04    0.26 
 -12  -6 -17   -0.08    0.29 
 -12  -6 -17   -0.04    0.26 
 -11  -7  17    0.16    0.21 
  -9  -7  17    0.15    0.19 
  -7  -7  17   -0.20    0.15 
  -5  -7  17    2.21    0.31 
  -3  -7  17    0.53    0.18 
   3  -7 -17    0.87    0.15 
   1  -7 -17    1.02    0.16 
  -1  -7  17    1.00    0.22 
  -1  -7 -17    1.25    0.18 
   1  -7  17    1.24    0.24 
   3  -7  17    1.33    0.26 
  -3  -7 -17    0.94    0.24 
  -3  -7 -17    0.82    0.17 
  -5  -7 -17    0.60    0.19 
   5  -7  17    0.48    0.21 
  -5  -7 -17    0.63    0.26 
  -7  -7 -17    0.39    0.28 
  -7  -7 -17    0.49    0.22 
   7  -7  17    0.11    0.22 
  -9  -7 -17    0.14    0.28 
   9  -7  17   -0.01    0.23 
  -9  -7 -17    0.08    0.23 
 -10  -8  17   -0.09    0.21 
  -8  -8  17   -0.32    0.17 
  -6  -8  17    0.23    0.20 
  -4  -8  17    2.28    0.33 
   4  -8 -17    2.37    0.24 
  -2  -8  17    0.38    0.19 
   2  -8 -17    0.39    0.12 
   0  -8  17    0.11    0.15 
   0  -8 -17    0.03    0.09 
  -2  -8 -17    0.94    0.25 
  -2  -8 -17    1.14    0.19 
   2  -8  17    0.77    0.23 
   4  -8  17    0.03    0.16 
  -4  -8 -17    0.32    0.16 
  -4  -8 -17    0.08    0.20 
  -6  -8 -17    0.25    0.18 
  -6  -8 -17   -0.25    0.21 
   6  -8  17   -0.01    0.19 
  -8  -8 -17    0.33    0.30 
   8  -8  17   -0.12    0.23 
  -8  -8 -17    0.10    0.21 
  -7  -9  17    0.01    0.20 
  -5  -9  17    0.12    0.21 
   5  -9 -17    0.17    0.13 
  -3  -9  17    0.04    0.18 
   3  -9 -17    0.07    0.10 
   1  -9 -17   -0.02    0.08 
  -1  -9  17    0.11    0.16 
  -1  -9 -17   -0.12    0.10 
   1  -9  17    0.01    0.16 
  -3  -9 -17    0.24    0.16 
   3  -9  17    0.02    0.17 
  -5  -9 -17   -0.04    0.17 
 -16   0  18    0.68    0.26 
 -14   0  18    0.31    0.22 
 -12   0  18    7.56    0.49 
 -10   0  18    2.25    0.30 
  -8   0  18    7.79    0.43 
  -6   0  18   10.32    0.47 
  -4   0  18    1.03    0.17 
   4   0 -18    1.17    0.17 
  -2   0  18   10.19    0.44 
   2   0 -18   10.35    0.43 
   2   0 -18   10.13    0.43 
   0   0 -18   12.33    0.48 
   0   0  18   12.65    0.49 
   0   0 -18   11.86    0.47 
   2   0  18    4.35    0.29 
  -2   0 -18    3.85    0.27 
   4   0  18    0.35    0.13 
  -4   0 -18    0.23    0.12 
  -6   0 -18    3.36    0.31 
   6   0  18    3.92    0.34 
  -8   0 -18   21.69    0.91 
  -8   0 -18   23.47    0.93 
   8   0  18   21.76    0.93 
 -10   0 -18    3.03    0.42 
 -10   0 -18    2.66    0.39 
 -12   0 -18   -0.22    0.20 
 -12   0 -18    0.11    0.20 
 -14   0 -18    0.05    0.23 
 -14   0 -18    0.01    0.24 
 -17  -1  18    0.22    0.26 
 -17   1  18   -0.16    0.23 
 -15  -1  18    1.03    0.29 
 -15   1  18    1.06    0.28 
 -13  -1  18    0.40    0.20 
 -13   1  18    0.89    0.22 
 -11  -1  18   -0.05    0.18 
 -11   1  18    0.28    0.16 
  -9  -1  18   15.21    0.65 
  -9   1  18   15.83    0.63 
  -7  -1  18    3.01    0.28 
  -7   1  18    3.13    0.27 
   5  -1 -18   34.21    0.99 
  -5  -1  18   32.44    0.97 
   5   1 -18   32.65    0.96 
  -5   1  18   33.18    0.95 
   3  -1 -18   16.47    0.57 
   3  -1 -18   16.66    0.58 
  -3  -1  18   15.59    0.60 
  -3   1  18   17.33    0.58 
   3   1 -18   16.52    0.59 
   1  -1 -18    0.25    0.09 
   1  -1 -18    0.07    0.08 
  -1  -1  18    0.24    0.11 
  -1   1  18    0.21    0.09 
   1   1 -18    0.22    0.10 
  -1  -1 -18    3.39    0.24 
  -1  -1 -18    3.10    0.22 
   1  -1  18    3.28    0.26 
   1   1  18    3.34    0.24 
  -1   1 -18    3.17    0.24 
  -3  -1 -18   10.36    0.45 
  -3  -1 -18   11.01    0.47 
   3  -1  18   10.25    0.49 
  -3   1 -18   10.52    0.47 
   3   1  18   10.55    0.49 
  -5  -1 -18    3.17    0.29 
   5  -1  18    3.60    0.32 
  -5   1 -18    3.41    0.30 
   5   1  18    3.56    0.30 
  -7  -1 -18   -0.24    0.13 
  -7  -1 -18    0.11    0.15 
   7  -1  18   -0.04    0.13 
  -7   1 -18   -0.22    0.12 
  -7   1 -18    0.17    0.17 
   7   1  18    0.13    0.14 
   9  -1  18    3.90    0.46 
  -9  -1 -18    4.19    0.45 
  -9  -1 -18    4.20    0.48 
  -9   1 -18    3.97    0.45 
  -9   1 -18    4.59    0.41 
 -11  -1 -18    0.02    0.19 
 -11  -1 -18   -0.18    0.18 
 -11   1 -18    0.19    0.19 
 -11   1 -18    0.07    0.20 
 -13  -1 -18   -0.32    0.20 
 -13  -1 -18    0.24    0.22 
 -13   1 -18    0.33    0.27 
 -13   1 -18    0.32    0.24 
 -15  -1 -18    0.25    0.24 
 -15  -1 -18    0.19    0.28 
 -15   1 -18    0.00    0.21 
 -15   1 -18    0.22    0.25 
 -16  -2  18    0.78    0.28 
 -16   2  18    0.83    0.33 
 -14  -2  18    0.27    0.22 
 -14   2  18    0.04    0.16 
 -12  -2  18    0.48    0.21 
 -12   2  18    0.27    0.15 
 -10  -2  18    0.48    0.20 
 -10   2  18    0.52    0.17 
  -8  -2  18    1.73    0.25 
  -8   2  18    1.79    0.23 
  -6  -2  18   10.71    0.51 
   6  -2 -18   10.63    0.49 
  -6   2  18   10.32    0.45 
   6   2 -18   10.56    0.48 
  -4  -2  18    6.10    0.36 
   4  -2 -18    6.42    0.34 
   4  -2 -18    7.01    0.36 
  -4   2  18    7.01    0.35 
   4   2 -18    6.27    0.35 
   2  -2 -18    0.06    0.08 
   2  -2 -18    0.10    0.07 
  -2  -2  18   -0.10    0.09 
   2   2 -18   -0.18    0.06 
  -2   2  18    0.00    0.06 
   0  -2 -18    0.88    0.15 
   0  -2 -18    0.92    0.14 
   0  -2  18    1.20    0.19 
   0   2  18    1.02    0.15 
   0   2 -18    0.86    0.16 
  -2  -2 -18    0.85    0.14 
   2  -2  18    0.73    0.15 
  -2  -2 -18    0.67    0.14 
   2   2  18    0.81    0.15 
  -2   2 -18    0.59    0.14 
  -4  -2 -18    1.57    0.19 
   4  -2  18    1.18    0.21 
  -4  -2 -18    1.55    0.23 
   4   2  18    1.45    0.22 
  -4   2 -18    1.51    0.22 
   6  -2  18    4.03    0.42 
  -6  -2 -18    4.72    0.37 
  -6   2 -18    4.48    0.38 
   6   2  18    4.06    0.35 
  -8  -2 -18    5.41    0.48 
   8  -2  18    4.27    0.45 
  -8  -2 -18    5.58    0.46 
  -8   2 -18    5.37    0.44 
  -8   2 -18    5.62    0.46 
 -10  -2 -18   -0.11    0.16 
  10  -2  18    0.05    0.18 
 -10  -2 -18   -0.08    0.20 
 -10   2 -18   -0.24    0.14 
 -10   2 -18   -0.04    0.16 
 -12  -2 -18    0.24    0.22 
 -12  -2 -18    0.24    0.24 
 -12   2 -18    0.15    0.20 
 -12   2 -18    0.79    0.28 
 -14  -2 -18    0.05    0.23 
 -14  -2 -18    0.21    0.26 
 -14   2 -18    0.19    0.22 
 -14   2 -18    0.41    0.21 
 -15  -3  18    0.05    0.20 
 -13  -3  18    0.02    0.17 
 -13   3  18    0.20    0.16 
 -11  -3  18    0.30    0.19 
 -11   3  18   -0.14    0.12 
  -9  -3  18    1.60    0.27 
   9   3 -18    1.29    0.23 
  -9   3  18    1.51    0.21 
   7  -3 -18    0.94    0.19 
  -7  -3  18    1.19    0.22 
  -7   3  18    1.43    0.18 
   7   3 -18    1.04    0.21 
   5  -3 -18    0.05    0.08 
  -5  -3  18    0.08    0.12 
  -5   3  18    0.15    0.09 
   5   3 -18    0.10    0.10 
  -3  -3  18    9.80    0.47 
   3  -3 -18    9.36    0.40 
   3  -3 -18    9.31    0.41 
   3   3 -18    9.27    0.43 
  -3   3  18    9.86    0.39 
  -1  -3  18    2.82    0.26 
   1  -3 -18    2.77    0.23 
   1  -3 -18    2.27    0.19 
  -1   3  18    2.68    0.20 
   1   3 -18    2.46    0.23 
   1  -3  18    5.50    0.35 
  -1  -3 -18    5.44    0.30 
  -1  -3 -18    5.47    0.32 
   1   3  18    5.08    0.29 
  -1   3 -18    4.59    0.31 
  -3  -3 -18   14.83    0.59 
   3  -3  18   14.38    0.64 
  -3  -3 -18   15.31    0.57 
  -3   3 -18   15.64    0.62 
   3   3  18   15.48    0.58 
  -5  -3 -18    3.06    0.26 
   5  -3  18    2.40    0.32 
  -5  -3 -18    2.08    0.27 
  -5   3 -18    2.00    0.28 
   7  -3  18    3.88    0.43 
  -7  -3 -18    3.53    0.38 
  -7  -3 -18    3.65    0.43 
  -7   3 -18    3.35    0.36 
  -7   3 -18    4.65    0.41 
   9  -3  18    0.68    0.26 
  -9  -3 -18    0.95    0.26 
  -9  -3 -18    0.60    0.25 
  -9   3 -18    0.40    0.19 
  -9   3 -18    0.60    0.22 
 -11  -3 -18    0.01    0.25 
 -11  -3 -18    0.02    0.18 
  11  -3  18    0.07    0.19 
 -11   3 -18    0.22    0.18 
 -11   3 -18   -0.21    0.17 
 -13  -3 -18   -0.07    0.21 
 -13  -3 -18   -0.10    0.24 
 -13   3 -18    0.50    0.25 
 -13   3 -18    0.10    0.19 
 -16  -4  18    0.35    0.24 
 -14  -4  18    0.20    0.21 
 -12  -4  18    0.38    0.21 
 -10  -4  18   -0.16    0.16 
 -10   4  18    0.12    0.12 
  10   4 -18    0.43    0.16 
   8  -4 -18    0.29    0.13 
  -8  -4  18    0.11    0.15 
  -8   4  18   -0.04    0.08 
   8   4 -18    0.03    0.11 
   6  -4 -18    1.00    0.18 
  -6  -4  18    0.90    0.21 
  -6   4  18    0.82    0.13 
   6   4 -18    1.20    0.20 
   4  -4 -18    2.62    0.27 
   4  -4 -18    2.93    0.23 
  -4  -4  18    3.54    0.31 
   4   4 -18    2.82    0.26 
   2  -4 -18    1.66    0.21 
  -2  -4  18    1.87    0.25 
   2  -4 -18    1.80    0.20 
   2   4 -18    1.68    0.21 
  -2   4  18    1.48    0.14 
   0  -4 -18    1.11    0.16 
   0  -4  18    0.89    0.19 
   0  -4 -18    1.29    0.19 
   0   4 -18    1.19    0.18 
   2  -4  18    2.64    0.31 
  -2  -4 -18    2.53    0.22 
  -2  -4 -18    2.67    0.25 
  -2   4 -18    2.25    0.27 
  -4  -4 -18    0.69    0.19 
   4  -4  18    0.41    0.19 
  -4  -4 -18    0.45    0.13 
  -4   4 -18    0.45    0.17 
   6  -4  18    0.13    0.16 
  -6  -4 -18    0.05    0.19 
  -6  -4 -18    0.27    0.12 
  -6  -4 -18   -0.15    0.14 
  -6   4 -18    0.30    0.17 
  -6   4 -18    0.02    0.13 
  -8  -4 -18    1.22    0.32 
   8  -4  18    1.20    0.28 
  -8  -4 -18    1.45    0.29 
  -8   4 -18    1.26    0.26 
  -8   4 -18    1.38    0.29 
 -10  -4 -18   -0.02    0.19 
  10  -4  18   -0.19    0.20 
 -10  -4 -18   -0.31    0.21 
 -10   4 -18    0.06    0.19 
 -10   4 -18    0.15    0.18 
 -12  -4 -18    0.07    0.28 
  12  -4  18    0.21    0.26 
 -12  -4 -18    0.01    0.23 
 -12   4 -18    0.07    0.19 
 -12   4 -18    0.70    0.27 
 -15  -5  18    0.21    0.25 
 -13  -5  18    0.19    0.22 
  13   5 -18    0.30    0.23 
 -11  -5  18   -0.48    0.14 
  11   5 -18    0.20    0.15 
  -9  -5  18   -0.10    0.14 
   9   5 -18    0.17    0.13 
  -7  -5  18    0.22    0.16 
   7   5 -18    0.21    0.11 
  -5  -5  18    0.26    0.16 
   5  -5 -18    0.15    0.09 
   5   5 -18    0.20    0.11 
  -3  -5  18    1.54    0.24 
   3  -5 -18    1.63    0.20 
   3  -5 -18    2.01    0.21 
   3   5 -18    1.65    0.22 
  -1  -5  18    0.05    0.12 
   1  -5 -18   -0.03    0.09 
   1  -5 -18   -0.11    0.05 
   1   5 -18   -0.01    0.08 
  -1  -5 -18    0.17    0.08 
  -1  -5 -18   -0.10    0.08 
   1  -5  18    0.08    0.12 
  -1   5 -18    0.07    0.09 
   3  -5  18    0.11    0.14 
  -3  -5 -18    0.05    0.11 
  -3  -5 -18    0.11    0.08 
  -3   5 -18   -0.02    0.10 
  -5  -5 -18    2.24    0.35 
   5  -5  18    2.49    0.34 
  -5  -5 -18    2.36    0.29 
  -5   5 -18    2.32    0.30 
  -5   5 -18    2.35    0.26 
  -7  -5 -18    1.14    0.30 
  -7  -5 -18    0.94    0.25 
   7  -5  18    1.16    0.29 
  -7   5 -18    0.82    0.20 
  -7   5 -18    0.88    0.24 
   9  -5  18   -0.26    0.17 
  -9  -5 -18    0.01    0.19 
  -9  -5 -18   -0.04    0.23 
  -9   5 -18   -0.20    0.15 
  -9   5 -18    0.18    0.15 
 -11  -5 -18    0.40    0.30 
  11  -5  18   -0.09    0.18 
 -11  -5 -18    0.14    0.23 
 -11   5 -18    0.22    0.17 
 -14  -6  18    0.35    0.25 
  12   6 -18   -0.10    0.23 
 -10  -6  18    0.56    0.24 
  -8  -6  18    0.16    0.18 
   8   6 -18    0.09    0.11 
  -6  -6  18    1.97    0.29 
   6   6 -18    1.74    0.22 
   4  -6 -18    1.92    0.23 
  -4  -6  18    2.32    0.30 
   4   6 -18    2.11    0.24 
  -2  -6  18    2.26    0.29 
   2  -6 -18    2.19    0.22 
   2   6 -18    2.33    0.27 
   2   6 -18    2.27    0.25 
   0  -6 -18    0.03    0.09 
   0  -6  18    0.19    0.14 
   0   6 -18    0.05    0.09 
   2  -6  18    0.27    0.15 
  -2  -6 -18    0.09    0.11 
  -2   6 -18    0.16    0.12 
   4  -6  18    1.34    0.27 
  -4  -6 -18    0.85    0.19 
  -4  -6 -18    0.83    0.26 
  -4   6 -18    0.93    0.17 
  -4   6 -18    0.60    0.17 
  -6  -6 -18    0.14    0.16 
  -6  -6 -18   -0.03    0.21 
   6  -6  18    0.18    0.18 
  -6   6 -18   -0.07    0.10 
  -8  -6 -18    0.34    0.27 
   8  -6  18    0.26    0.24 
  -8  -6 -18    0.35    0.23 
  -8   6 -18    0.66    0.20 
 -10  -6 -18   -0.14    0.21 
 -10  -6 -18   -0.14    0.28 
  10  -6  18    0.01    0.22 
 -11  -7  18    0.21    0.22 
  -9  -7  18   -0.07    0.17 
  -7  -7  18   -0.23    0.14 
  -5  -7  18    0.63    0.23 
   3  -7 -18   -0.07    0.10 
  -3  -7  18   -0.23    0.13 
  -1  -7  18   -0.05    0.13 
   1  -7 -18    0.12    0.10 
  -1  -7 -18    0.01    0.09 
   1  -7  18   -0.03    0.13 
  -3  -7 -18    0.32    0.19 
  -3  -7 -18    0.61    0.16 
   3  -7  18    0.35    0.18 
   5  -7  18    1.15    0.28 
  -5  -7 -18    1.88    0.36 
  -5  -7 -18    1.73    0.27 
  -7  -7 -18    0.46    0.23 
  -7  -7 -18    0.67    0.31 
   7  -7  18    0.75    0.28 
  -9  -7 -18    0.15    0.23 
   9  -7  18    0.23    0.26 
  -9  -7 -18    0.10    0.31 
 -10  -8  18   -0.15    0.20 
  -8  -8  18    0.33    0.22 
  -6  -8  18    1.05    0.28 
  -4  -8  18    0.40    0.20 
   4  -8 -18    0.49    0.16 
   2  -8 -18    0.11    0.11 
  -2  -8  18    0.27    0.18 
   0  -8  18    0.00    0.15 
   0  -8 -18    0.16    0.11 
  -2  -8 -18    0.13    0.12 
   2  -8  18    0.27    0.18 
  -2  -8 -18    0.11    0.18 
  -4  -8 -18    0.16    0.22 
   4  -8  18    0.16    0.19 
  -4  -8 -18    0.25    0.16 
  -6  -8 -18    0.67    0.31 
  -6  -8 -18    0.67    0.23 
   6  -8  18    0.73    0.27 
   5  -9 -18    0.43    0.16 
  -5  -9  18    0.20    0.21 
  -3  -9  18    1.65    0.31 
   3  -9 -18    1.41    0.19 
   1  -9 -18   -0.07    0.09 
  -1  -9  18    0.06    0.17 
   1  -9  18   -0.27    0.14 
  -1  -9 -18    0.16    0.12 
   3  -9  18    1.43    0.32 
  -3  -9 -18    1.39    0.24 
 -16   0  19   -0.11    0.22 
 -14   0  19   -0.34    0.17 
 -10   0  19   -0.11    0.13 
  -8   0  19   -0.05    0.12 
   6   0 -19   -0.03    0.09 
  -6   0  19    0.19    0.12 
  -4   0  19   -0.11    0.08 
   4   0 -19    0.07    0.09 
  -2   0  19   -0.07    0.07 
   2   0 -19   -0.02    0.06 
   0   0  19    0.08    0.08 
   0   0 -19   -0.02    0.07 
   2   0  19    0.01    0.08 
  -2   0 -19    0.11    0.08 
  -4   0 -19    0.02    0.10 
   4   0  19   -0.02    0.08 
  -6   0 -19    0.00    0.14 
   6   0  19    0.16    0.14 
  -8   0 -19    0.44    0.23 
  -8   0 -19    0.28    0.19 
   8   0  19    0.20    0.18 
 -10   0 -19    0.05    0.22 
 -10   0 -19   -0.04    0.18 
 -12   0 -19   -0.31    0.15 
 -12   0 -19    0.03    0.18 
 -14   0 -19    0.14    0.27 
 -14   0 -19   -0.19    0.19 
 -17  -1  19    0.20    0.24 
 -15  -1  19    0.30    0.23 
 -15   1  19    0.21    0.21 
 -13  -1  19   -0.05    0.19 
 -13   1  19    0.20    0.18 
 -11  -1  19    0.25    0.16 
 -11   1  19    0.20    0.17 
  -9  -1  19    0.41    0.17 
  -9   1  19    0.10    0.14 
  -7  -1  19    0.64    0.17 
   7   1 -19    0.33    0.13 
  -7   1  19    0.34    0.14 
  -5  -1  19    3.86    0.32 
   5  -1 -19    3.92    0.29 
   5  -1 -19    4.55    0.30 
   5   1 -19    4.02    0.30 
  -5   1  19    3.95    0.29 
   3  -1 -19   -0.05    0.08 
   3  -1 -19   -0.04    0.05 
  -3  -1  19   -0.03    0.09 
   3   1 -19    0.04    0.09 
  -3   1  19    0.01    0.07 
   1  -1 -19   -0.02    0.06 
  -1  -1  19    0.03    0.08 
   1  -1 -19   -0.01    0.07 
   1   1 -19    0.12    0.09 
  -1   1  19    0.06    0.07 
  -1  -1 -19    1.33    0.18 
   1  -1  19    0.84    0.16 
  -1  -1 -19    1.40    0.18 
   1   1  19    1.22    0.17 
  -1   1 -19    1.53    0.21 
  -3  -1 -19    1.39    0.20 
   3  -1  19    1.09    0.18 
   3   1  19    0.95    0.17 
  -3   1 -19    1.06    0.18 
  -5  -1 -19    0.54    0.16 
   5  -1  19    0.73    0.18 
  -5   1 -19    0.40    0.15 
   5   1  19    0.58    0.16 
  -7  -1 -19    0.92    0.26 
  -7  -1 -19    0.94    0.23 
   7  -1  19    1.28    0.26 
   7   1  19    1.32    0.25 
  -7   1 -19    1.32    0.26 
  -7   1 -19    0.89    0.25 
   9  -1  19    0.08    0.17 
  -9  -1 -19    0.21    0.21 
  -9  -1 -19   -0.26    0.13 
  -9   1 -19    0.31    0.19 
  -9   1 -19    0.12    0.17 
 -11  -1 -19   -0.19    0.17 
 -11  -1 -19   -0.24    0.17 
 -11   1 -19   -0.44    0.15 
 -11   1 -19    0.16    0.19 
 -13  -1 -19   -0.09    0.21 
 -13  -1 -19   -0.14    0.19 
 -13   1 -19   -0.11    0.19 
 -13   1 -19    0.05    0.23 
 -15  -1 -19    0.29    0.27 
 -15   1 -19    0.56    0.29 
 -16  -2  19    0.14    0.24 
 -14  -2  19    0.48    0.23 
 -14   2  19    0.59    0.21 
 -12  -2  19    0.05    0.18 
 -12   2  19    0.73    0.20 
 -10  -2  19   -0.08    0.15 
 -10   2  19    0.30    0.15 
  -8  -2  19    8.19    0.48 
   8   2 -19    8.65    0.47 
  -8   2  19    8.30    0.43 
  -6  -2  19   22.57    0.79 
   6  -2 -19   22.52    0.78 
   6   2 -19   22.70    0.77 
  -6   2  19   22.44    0.73 
   4  -2 -19    2.99    0.25 
   4  -2 -19    3.19    0.24 
  -4  -2  19    3.40    0.29 
   4   2 -19    3.59    0.27 
  -4   2  19    3.20    0.24 
   2  -2 -19    4.33    0.28 
  -2  -2  19    4.63    0.32 
   2  -2 -19    4.81    0.28 
  -2   2  19    4.71    0.28 
   2   2 -19    4.36    0.29 
   0  -2 -19    0.10    0.09 
   0  -2  19    0.11    0.11 
   0  -2 -19    0.13    0.08 
   0   2 -19    0.02    0.09 
   0   2  19    0.20    0.09 
  -2  -2 -19    0.06    0.07 
   2  -2  19    0.15    0.10 
  -2  -2 -19   -0.06    0.07 
  -2   2 -19    0.10    0.10 
   2   2  19   -0.08    0.06 
  -4  -2 -19    0.81    0.25 
  -4  -2 -19    1.20    0.20 
   4  -2  19    1.10    0.21 
   4   2  19    0.77    0.17 
  -4   2 -19    1.12    0.21 
   6  -2  19   10.29    0.59 
  -6  -2 -19   10.42    0.55 
   6   2  19    9.90    0.53 
  -6   2 -19    9.29    0.55 
   8  -2  19    0.64    0.23 
  -8  -2 -19    0.94    0.29 
  -8  -2 -19    0.65    0.22 
  -8   2 -19    0.76    0.23 
  -8   2 -19    0.99    0.24 
 -10  -2 -19   -0.15    0.19 
  10  -2  19   -0.03    0.16 
 -10  -2 -19   -0.31    0.15 
 -10   2 -19   -0.07    0.18 
 -10   2 -19    0.13    0.17 
 -12  -2 -19   -0.09    0.17 
 -12  -2 -19    0.61    0.25 
 -12   2 -19    0.36    0.22 
 -12   2 -19    0.20    0.23 
 -14  -2 -19   -0.28    0.24 
 -14  -2 -19   -0.20    0.25 
 -14   2 -19    0.40    0.24 
 -14   2 -19    0.33    0.25 
 -15  -3  19    0.21    0.22 
 -13  -3  19    0.80    0.26 
 -13   3  19    0.84    0.24 
 -11  -3  19    0.15    0.19 
 -11   3  19    0.09    0.14 
  -9  -3  19    1.64    0.28 
   9   3 -19    1.15    0.24 
  -9   3  19    1.51    0.21 
   7  -3 -19    1.42    0.22 
  -7  -3  19    1.67    0.27 
   7   3 -19    1.76    0.25 
  -7   3  19    1.65    0.21 
  -5  -3  19   39.06    1.18 
   5  -3 -19   39.60    1.13 
  -5   3  19   40.67    1.07 
   5   3 -19   40.08    1.15 
   3  -3 -19    4.12    0.27 
   3  -3 -19    4.09    0.29 
  -3  -3  19    3.88    0.32 
  -3   3  19    4.23    0.25 
   3   3 -19    4.27    0.30 
   1  -3 -19    4.84    0.28 
   1  -3 -19    4.54    0.29 
  -1  -3  19    5.11    0.35 
  -1   3  19    4.85    0.27 
   1   3 -19    5.00    0.32 
  -1  -3 -19   11.56    0.48 
  -1  -3 -19   10.65    0.45 
   1  -3  19   10.79    0.52 
   1   3  19   11.26    0.46 
  -1   3 -19   10.76    0.49 
  -3  -3 -19    0.59    0.14 
  -3  -3 -19    0.51    0.16 
   3  -3  19    0.70    0.20 
  -3   3 -19    0.59    0.18 
   3   3  19    0.45    0.14 
  -5  -3 -19    1.55    0.24 
  -5  -3 -19    1.20    0.22 
   5  -3  19    1.28    0.26 
  -5   3 -19    1.30    0.25 
  -7  -3 -19    4.92    0.43 
  -7  -3 -19    5.43    0.54 
   7  -3  19    5.25    0.46 
  -7   3 -19    4.89    0.41 
  -7   3 -19    4.80    0.42 
  -9  -3 -19    1.18    0.29 
   9  -3  19    0.80    0.25 
  -9  -3 -19    1.28    0.33 
  -9   3 -19    1.14    0.28 
  -9   3 -19    0.79    0.23 
 -11  -3 -19   -0.22    0.20 
 -11  -3 -19    0.09    0.19 
  11  -3  19   -0.01    0.19 
 -11   3 -19    0.73    0.26 
 -11   3 -19    0.01    0.17 
 -13  -3 -19    0.01    0.24 
 -13  -3 -19    0.08    0.30 
 -13   3 -19    0.16    0.24 
 -13   3 -19    0.81    0.31 
 -16  -4  19    0.12    0.26 
 -14  -4  19    1.47    0.32 
 -12  -4  19    0.11    0.19 
  12   4 -19   -0.21    0.16 
 -10  -4  19    0.55    0.22 
 -10   4  19    0.45    0.19 
  10   4 -19    0.10    0.14 
  -8  -4  19    5.20    0.41 
   8   4 -19    4.48    0.35 
  -8   4  19    5.15    0.30 
   6  -4 -19   18.32    0.69 
  -6  -4  19   18.13    0.74 
   6   4 -19   18.79    0.70 
  -6   4  19   18.73    0.59 
   4  -4 -19    7.55    0.37 
   4  -4 -19    6.90    0.39 
  -4  -4  19    7.36    0.44 
   4   4 -19    7.11    0.40 
  -2  -4  19   39.61    1.19 
   2  -4 -19   40.89    1.10 
   2  -4 -19   41.97    1.11 
   2   4 -19   39.51    1.14 
   0  -4  19    7.97    0.46 
   0  -4 -19    7.84    0.38 
   0  -4 -19    7.67    0.39 
   0   4 -19    7.93    0.42 
  -2  -4 -19    2.59    0.27 
   2  -4  19    2.68    0.32 
  -2  -4 -19    2.73    0.23 
  -2   4 -19    3.07    0.32 
  -4  -4 -19    5.71    0.34 
   4  -4  19    5.64    0.43 
  -4  -4 -19    5.82    0.38 
  -4   4 -19    5.59    0.40 
   6  -4  19    0.93    0.23 
  -6  -4 -19    0.56    0.26 
  -6  -4 -19    0.76    0.22 
  -6   4 -19    1.20    0.26 
  -6   4 -19    0.79    0.21 
  -8  -4 -19    1.70    0.32 
   8  -4  19    2.91    0.41 
  -8  -4 -19    2.16    0.39 
  -8   4 -19    2.52    0.37 
  -8   4 -19    2.81    0.35 
  10  -4  19    0.06    0.21 
 -10  -4 -19    0.13    0.21 
 -10  -4 -19   -0.07    0.24 
 -10   4 -19    0.08    0.19 
 -10   4 -19   -0.06    0.17 
  12  -4  19    0.33    0.28 
 -12  -4 -19    0.11    0.23 
 -12  -4 -19    0.01    0.25 
 -12   4 -19    0.39    0.24 
 -12   4 -19    0.10    0.19 
 -15  -5  19    0.31    0.26 
 -13  -5  19   -0.32    0.19 
  13   5 -19    0.55    0.32 
 -11  -5  19    0.44    0.22 
  11   5 -19    0.08    0.14 
  -9  -5  19    0.62    0.21 
   9   5 -19    0.47    0.16 
  -7  -5  19    0.55    0.20 
   7   5 -19    0.74    0.17 
  -5  -5  19   11.74    0.58 
   5   5 -19   11.50    0.51 
  -3  -5  19    0.47    0.18 
   3  -5 -19    0.47    0.14 
   3  -5 -19    0.52    0.13 
   3   5 -19    0.31    0.13 
   1  -5 -19   -0.03    0.06 
   1  -5 -19   -0.06    0.09 
  -1  -5  19    0.01    0.13 
   1   5 -19   -0.08    0.08 
  -1  -5 -19    0.07    0.08 
   1  -5  19    0.11    0.14 
  -1  -5 -19    0.07    0.10 
  -1   5 -19    0.18    0.11 
   3  -5  19    2.61    0.33 
  -3  -5 -19    2.96    0.30 
  -3   5 -19    2.83    0.31 
  -5  -5 -19    0.80    0.26 
   5  -5  19    0.85    0.24 
  -5  -5 -19    0.65    0.20 
  -5   5 -19    0.94    0.21 
  -5   5 -19    0.57    0.16 
  -7  -5 -19    3.26    0.46 
   7  -5  19    3.07    0.42 
  -7  -5 -19    2.73    0.37 
  -7   5 -19    2.46    0.31 
  -7   5 -19    2.72    0.37 
  -9  -5 -19    0.13    0.26 
  -9  -5 -19    0.60    0.25 
   9  -5  19    0.53    0.26 
  -9   5 -19    0.52    0.24 
  -9   5 -19    0.12    0.17 
 -11  -5 -19    0.19    0.29 
 -11  -5 -19    0.09    0.25 
  11  -5  19    0.32    0.26 
 -11   5 -19    0.28    0.18 
 -12  -6  19    0.25    0.23 
 -10  -6  19    0.41    0.22 
  -8  -6  19    0.62    0.23 
   8   6 -19    1.00    0.23 
  -6  -6  19    1.16    0.26 
   6   6 -19    0.87    0.18 
   4  -6 -19    1.01    0.18 
  -4  -6  19    1.03    0.23 
   4   6 -19    0.70    0.17 
  -2  -6  19    4.18    0.38 
   2  -6 -19    4.09    0.29 
   2   6 -19    3.99    0.28 
   0  -6 -19    1.04    0.18 
   0  -6  19    0.78    0.21 
   0   6 -19    0.48    0.14 
   2  -6  19   -0.14    0.12 
  -2  -6 -19   -0.03    0.10 
  -2   6 -19   -0.02    0.10 
  -4  -6 -19    1.48    0.30 
  -4  -6 -19    1.70    0.26 
   4  -6  19    1.73    0.30 
  -4   6 -19    1.59    0.26 
  -4   6 -19    1.67    0.22 
  -6  -6 -19    0.40    0.25 
   6  -6  19    0.38    0.23 
  -6  -6 -19    0.49    0.21 
  -6   6 -19    0.54    0.17 
   8  -6  19    0.47    0.26 
  -8  -6 -19    0.41    0.27 
  -8  -6 -19    0.22    0.19 
  -8   6 -19    0.56    0.22 
  10  -6  19    0.16    0.26 
 -10  -6 -19    0.07    0.23 
 -10  -6 -19   -0.02    0.27 
 -11  -7  19    0.36    0.24 
  -9  -7  19   -0.11    0.18 
  -7  -7  19    0.57    0.23 
  -5  -7  19    0.90    0.24 
   5  -7 -19    0.84    0.19 
   3  -7 -19    0.14    0.13 
  -3  -7  19   -0.10    0.14 
  -1  -7  19    0.24    0.17 
   1  -7 -19    0.06    0.10 
   1  -7  19    0.27    0.18 
  -1  -7 -19    0.11    0.12 
  -3  -7 -19    0.58    0.16 
  -3  -7 -19    0.24    0.20 
   3  -7  19    0.63    0.23 
  -5  -7 -19   -0.03    0.15 
   5  -7  19    0.28    0.21 
  -5  -7 -19   -0.05    0.20 
  -7  -7 -19    0.40    0.22 
  -7  -7 -19    0.91    0.31 
   7  -7  19    0.65    0.28 
   9  -7  19   -0.16    0.22 
  -9  -7 -19   -0.05    0.29 
  -9  -7 -19    0.12    0.25 
  -8  -8  19    0.38    0.21 
   6  -8 -19   -0.01    0.14 
  -6  -8  19   -0.13    0.17 
   4  -8 -19    0.18    0.14 
  -4  -8  19   -0.13    0.16 
  -2  -8  19    0.53    0.21 
   2  -8 -19    0.57    0.15 
   0  -8  19    0.08    0.16 
   0  -8 -19    0.05    0.11 
  -2  -8 -19    0.14    0.13 
  -2  -8 -19    0.35    0.22 
   2  -8  19    0.12    0.17 
  -4  -8 -19    0.22    0.17 
  -4  -8 -19   -0.13    0.20 
   4  -8  19    0.10    0.18 
  -6  -8 -19    0.04    0.19 
  -6  -8 -19   -0.18    0.24 
   6  -8  19    0.26    0.23 
  -5  -9  19    0.28    0.22 
   5  -9 -19    0.25    0.16 
  -3  -9  19    0.24    0.20 
   3  -9 -19   -0.01    0.11 
  -1  -9  19    0.00    0.18 
   1  -9 -19   -0.06    0.09 
   1  -9  19    0.03    0.19 
  -1  -9 -19    0.07    0.13 
   3  -9  19    0.00    0.20 
  -3  -9 -19    0.08    0.15 
 -16   0  20   -0.63    0.20 
 -14   0  20    0.24    0.20 
 -12   0  20   10.80    0.59 
 -10   0  20    1.02    0.23 
  -8   0  20    0.20    0.14 
   6   0 -20   10.24    0.48 
  -6   0  20    9.91    0.48 
  -4   0  20    0.50    0.15 
   4   0 -20    0.86    0.17 
   2   0 -20   -0.08    0.07 
  -2   0  20    0.06    0.08 
   0   0 -20    0.39    0.11 
   0   0  20    0.65    0.14 
  -2   0 -20    1.80    0.22 
   2   0  20    1.69    0.23 
   4   0  20    3.20    0.30 
  -4   0 -20    3.01    0.28 
   6   0  20    5.76    0.44 
  -6   0 -20    5.49    0.41 
   8   0  20    4.85    0.45 
  -8   0 -20    4.70    0.43 
  -8   0 -20    4.44    0.47 
 -10   0 -20    1.10    0.30 
 -10   0 -20    0.48    0.23 
 -12   0 -20    0.18    0.23 
 -12   0 -20    0.49    0.25 
 -14   0 -20    0.19    0.28 
 -14   0 -20    0.25    0.28 
 -17  -1  20    0.26    0.26 
 -17   1  20    0.29    0.24 
 -15  -1  20   -0.31    0.20 
 -15   1  20    0.02    0.19 
 -13  -1  20    2.35    0.36 
 -13   1  20    2.02    0.32 
 -11  -1  20    0.88    0.24 
 -11   1  20    0.67    0.20 
  -9  -1  20    2.48    0.31 
  -9   1  20    2.35    0.28 
  -7  -1  20    8.55    0.46 
  -7   1  20    8.33    0.43 
   7   1 -20    7.88    0.45 
   5  -1 -20   24.40    0.79 
  -5  -1  20   23.30    0.81 
  -5   1  20   22.79    0.78 
   5   1 -20   24.50    0.80 
  -3  -1  20    0.54    0.15 
   3  -1 -20    0.85    0.15 
   3  -1 -20    0.52    0.14 
  -3   1  20    0.62    0.14 
   3   1 -20    0.73    0.15 
   1  -1 -20    0.23    0.09 
   1  -1 -20    0.29    0.12 
  -1  -1  20    0.49    0.13 
   1   1 -20    0.49    0.14 
  -1   1  20    0.44    0.12 
   1  -1  20    2.03    0.24 
  -1  -1 -20    1.63    0.21 
  -1  -1 -20    2.12    0.26 
  -1   1 -20    1.74    0.21 
   1   1  20    1.88    0.23 
  -3  -1 -20    0.20    0.12 
   3  -1  20    0.18    0.12 
   3   1  20    0.05    0.10 
  -3   1 -20    0.12    0.10 
  -5  -1 -20    0.39    0.16 
   5  -1  20    0.49    0.18 
  -5   1 -20    0.39    0.15 
   5   1  20    0.46    0.15 
  -7  -1 -20   13.45    0.71 
  -7  -1 -20   14.66    0.71 
   7  -1  20   14.30    0.73 
  -7   1 -20   14.21    0.70 
   7   1  20   14.66    0.70 
  -7   1 -20   13.43    0.70 
  -9  -1 -20    2.95    0.40 
   9  -1  20    3.79    0.46 
  -9  -1 -20    4.42    0.50 
  -9   1 -20    4.62    0.50 
  -9   1 -20    4.33    0.49 
 -11  -1 -20   -0.21    0.17 
 -11  -1 -20    0.11    0.20 
 -11   1 -20   -0.21    0.15 
 -11   1 -20   -0.20    0.18 
 -13  -1 -20    0.24    0.24 
 -13  -1 -20    0.10    0.25 
 -13   1 -20   -0.27    0.19 
 -13   1 -20    0.14    0.19 
 -16  -2  20    0.78    0.31 
 -14  -2  20    0.27    0.24 
 -14   2  20    0.37    0.21 
 -12  -2  20    2.44    0.34 
 -12   2  20    3.26    0.35 
 -10  -2  20    2.88    0.35 
 -10   2  20    2.48    0.29 
  -8  -2  20    1.25    0.24 
   8   2 -20    1.04    0.23 
  -8   2  20    0.88    0.18 
   6  -2 -20    2.10    0.26 
  -6  -2  20    1.61    0.25 
   6   2 -20    1.49    0.22 
  -6   2  20    2.11    0.24 
  -4  -2  20    9.54    0.48 
   4  -2 -20    9.31    0.44 
   4  -2 -20    9.66    0.45 
   4   2 -20    9.68    0.46 
  -4   2  20    9.63    0.44 
  -2  -2  20    6.35    0.39 
   2  -2 -20    6.86    0.36 
   2  -2 -20    6.64    0.35 
  -2   2  20    6.81    0.35 
   2   2 -20    6.76    0.37 
   0  -2 -20    1.47    0.20 
   0  -2 -20    1.08    0.16 
   0  -2  20    0.93    0.19 
   0   2  20    1.25    0.18 
   0   2 -20    0.99    0.18 
  -2  -2 -20    7.00    0.37 
   2  -2  20    7.60    0.42 
  -2  -2 -20    7.68    0.40 
  -2   2 -20    6.96    0.40 
   2   2  20    6.71    0.39 
   4  -2  20    1.43    0.24 
  -4  -2 -20    1.42    0.24 
   4   2  20    1.12    0.21 
  -4   2 -20    1.24    0.21 
   6  -2  20    0.04    0.16 
  -6  -2 -20    0.02    0.13 
  -6   2 -20    0.07    0.15 
   6   2  20    0.10    0.12 
  -8  -2 -20    3.00    0.39 
  -8  -2 -20    3.36    0.43 
   8  -2  20    4.50    0.48 
  -8   2 -20    3.23    0.41 
  -8   2 -20    3.74    0.43 
  10  -2  20    0.89    0.26 
 -10  -2 -20    0.35    0.24 
 -10  -2 -20    0.50    0.24 
 -10   2 -20    0.65    0.26 
 -10   2 -20    1.09    0.27 
 -12  -2 -20    0.00    0.21 
 -12  -2 -20    0.46    0.28 
 -12   2 -20    0.73    0.30 
 -12   2 -20    0.19    0.23 
 -14  -2 -20   -0.14    0.20 
 -14  -2 -20   -0.06    0.23 
 -14   2 -20    0.02    0.24 
 -14   2 -20    0.41    0.26 
 -15  -3  20    0.35    0.25 
 -13  -3  20   -0.12    0.20 
 -11  -3  20    1.11    0.27 
 -11   3  20    0.79    0.20 
  -9  -3  20    1.45    0.27 
  -9   3  20    1.05    0.19 
   9   3 -20    1.18    0.22 
   7  -3 -20    5.72    0.38 
  -7  -3  20    5.98    0.41 
  -7   3  20    5.35    0.33 
   7   3 -20    5.72    0.38 
   5  -3 -20    9.02    0.45 
   5  -3 -20    8.49    0.43 
  -5  -3  20    8.93    0.49 
   5   3 -20    8.66    0.45 
  -5   3  20    8.32    0.39 
   3  -3 -20    9.10    0.44 
   3  -3 -20    9.65    0.44 
  -3  -3  20    9.15    0.49 
  -3   3  20    9.80    0.41 
   3   3 -20    9.34    0.46 
  -1  -3  20    1.92    0.26 
   1  -3 -20    2.24    0.21 
   1  -3 -20    1.87    0.22 
   1   3 -20    1.82    0.24 
  -1   3  20    2.15    0.22 
  -1  -3 -20    7.63    0.39 
   1  -3  20    7.94    0.47 
  -1  -3 -20    7.81    0.40 
  -1   3 -20    7.70    0.43 
   1   3  20    8.25    0.40 
   3  -3  20    6.95    0.45 
  -3  -3 -20    6.04    0.35 
  -3  -3 -20    6.76    0.40 
   3   3  20    6.60    0.38 
  -3   3 -20    6.05    0.41 
   5  -3  20   -0.01    0.15 
  -5  -3 -20    0.23    0.15 
  -5   3 -20    0.09    0.13 
   7  -3  20    0.28    0.19 
  -7  -3 -20    0.08    0.21 
  -7  -3 -20   -0.05    0.15 
  -7   3 -20    0.08    0.16 
  -7   3 -20    0.02    0.16 
   9  -3  20    0.37    0.19 
  -9  -3 -20    0.29    0.21 
  -9  -3 -20   -0.04    0.20 
  -9   3 -20    0.42    0.20 
  -9   3 -20    0.45    0.25 
 -11  -3 -20    0.02    0.26 
  11  -3  20    0.58    0.29 
 -11  -3 -20    0.27    0.21 
 -11   3 -20    0.38    0.23 
 -11   3 -20    0.32    0.23 
 -13  -3 -20    0.32    0.29 
 -13  -3 -20    0.19    0.26 
 -13   3 -20    0.41    0.26 
 -13   3 -20    0.03    0.21 
 -14  -4  20   -0.26    0.21 
 -12  -4  20   -0.08    0.17 
  12   4 -20   -0.14    0.16 
 -10  -4  20    0.40    0.19 
  10   4 -20    0.14    0.14 
  -8  -4  20    0.45    0.19 
  -8   4  20    0.04    0.10 
   8   4 -20    0.19    0.15 
  -6  -4  20    2.63    0.32 
   6  -4 -20    2.50    0.27 
  -6   4  20    2.69    0.21 
   6   4 -20    3.19    0.33 
   4  -4 -20    0.16    0.10 
   4  -4 -20    0.04    0.14 
  -4  -4  20    0.50    0.20 
   4   4 -20    0.22    0.14 
  -4   4  20    0.20    0.09 
   2  -4 -20    4.80    0.30 
  -2  -4  20    5.33    0.40 
   2  -4 -20    5.37    0.35 
   2   4 -20    4.49    0.33 
   0  -4 -20    1.97    0.24 
   0  -4 -20    1.76    0.21 
   0  -4  20    2.08    0.29 
   0   4  20    1.94    0.19 
   0   4 -20    1.65    0.24 
   2  -4  20    2.45    0.31 
  -2  -4 -20    2.18    0.23 
  -2  -4 -20    2.89    0.29 
  -2   4 -20    2.53    0.30 
  -4  -4 -20    5.44    0.35 
   4  -4  20    5.41    0.45 
  -4  -4 -20    5.43    0.39 
  -4   4 -20    4.72    0.38 
  -6  -4 -20   -0.18    0.17 
  -6  -4 -20    0.12    0.16 
   6  -4  20   -0.03    0.15 
  -6   4 -20   -0.10    0.13 
  -6   4 -20   -0.01    0.15 
  -8  -4 -20    1.15    0.27 
  -8  -4 -20    0.57    0.29 
   8  -4  20    0.82    0.27 
  -8   4 -20    0.86    0.23 
  -8   4 -20    0.72    0.25 
 -10  -4 -20    0.00    0.27 
 -10  -4 -20    0.25    0.26 
  10  -4  20    0.16    0.22 
 -10   4 -20    0.41    0.22 
 -10   4 -20    0.32    0.22 
 -12  -4 -20   -0.12    0.19 
 -12  -4 -20   -0.15    0.28 
  12  -4  20    0.16    0.22 
 -12   4 -20    0.10    0.20 
 -12   4 -20    0.00    0.23 
 -13  -5  20   -0.01    0.22 
 -11  -5  20    0.19    0.21 
  11   5 -20    0.65    0.20 
  -9  -5  20    0.73    0.23 
   9   5 -20   -0.03    0.12 
  -7  -5  20    0.07    0.15 
   7   5 -20    0.14    0.12 
   5  -5 -20    1.76    0.23 
  -5  -5  20    1.54    0.26 
   5   5 -20    1.60    0.22 
   3  -5 -20    1.34    0.21 
   3  -5 -20    1.41    0.23 
  -3  -5  20    1.37    0.25 
   3   5 -20    1.35    0.21 
  -1  -5  20    0.13    0.14 
   1  -5 -20    0.41    0.12 
   1  -5 -20    0.16    0.13 
   1   5 -20    0.32    0.13 
  -1  -5 -20    0.32    0.13 
   1  -5  20    0.33    0.17 
  -1   5 -20    0.19    0.11 
   3  -5  20    0.04    0.15 
  -3  -5 -20    0.03    0.12 
  -3   5 -20   -0.06    0.11 
  -5  -5 -20   -0.19    0.19 
  -5  -5 -20    0.01    0.14 
   5  -5  20   -0.14    0.14 
  -5   5 -20    0.06    0.14 
  -5   5 -20   -0.22    0.10 
   7  -5  20    0.40    0.22 
  -7  -5 -20    0.25    0.20 
  -7  -5 -20    0.53    0.25 
  -7   5 -20   -0.01    0.15 
  -7   5 -20    0.32    0.17 
  -9  -5 -20    0.04    0.19 
  -9  -5 -20    0.11    0.24 
   9  -5  20   -0.07    0.19 
  -9   5 -20    0.12    0.15 
  -9   5 -20    0.22    0.24 
  11  -5  20    0.09    0.22 
 -11  -5 -20    0.27    0.24 
 -11  -5 -20   -0.06    0.27 
 -11   5 -20    0.00    0.19 
 -12  -6  20    0.42    0.24 
 -10  -6  20    0.26    0.20 
  -8  -6  20    0.03    0.18 
  -6  -6  20    0.11    0.18 
   6   6 -20   -0.02    0.10 
   4  -6 -20    0.79    0.17 
  -4  -6  20    0.63    0.22 
   4   6 -20    0.39    0.14 
  -2  -6  20    0.15    0.15 
   2  -6 -20    0.41    0.14 
   2   6 -20    0.32    0.12 
   0  -6 -20    0.63    0.15 
   0  -6  20    0.94    0.23 
   0   6 -20    0.75    0.17 
  -2  -6 -20    0.33    0.14 
   2  -6  20    0.19    0.17 
  -2   6 -20    0.49    0.16 
  -4  -6 -20    0.22    0.15 
   4  -6  20    0.08    0.17 
  -4  -6 -20    0.19    0.21 
  -4   6 -20    0.04    0.15 
  -6  -6 -20    0.76    0.24 
  -6  -6 -20    0.49    0.27 
   6  -6  20    0.43    0.22 
  -6   6 -20    0.77    0.20 
  -8  -6 -20    0.77    0.34 
  -8  -6 -20    0.76    0.28 
   8  -6  20    0.85    0.32 
 -10  -6 -20    0.14    0.31 
  10  -6  20    0.20    0.25 
 -10  -6 -20    0.03    0.22 
 -11  -7  20   -0.07    0.23 
  -9  -7  20    0.05    0.21 
  -7  -7  20    0.08    0.17 
   5  -7 -20    1.29    0.21 
  -5  -7  20    1.53    0.30 
   3  -7 -20    0.31    0.14 
  -3  -7  20    0.26    0.20 
  -1  -7  20   -0.22    0.14 
   1  -7 -20   -0.04    0.10 
   1  -7  20    0.14    0.17 
  -1  -7 -20   -0.07    0.09 
  -3  -7 -20    1.08    0.29 
  -3  -7 -20    0.96    0.21 
   3  -7  20    0.98    0.27 
   5  -7  20   -0.05    0.18 
  -5  -7 -20   -0.14    0.20 
  -5  -7 -20   -0.05    0.16 
  -7  -7 -20    1.66    0.33 
  -7  -7 -20    1.74    0.40 
   7  -7  20    1.89    0.38 
   9  -7  20   -0.28    0.24 
  -9  -7 -20    0.18    0.30 
  -9  -7 -20   -0.11    0.19 
  -8  -8  20    0.14    0.23 
  -6  -8  20    0.22    0.21 
   6  -8 -20   -0.06    0.14 
  -4  -8  20    0.98    0.27 
   4  -8 -20    1.50    0.23 
  -2  -8  20    0.16    0.19 
   2  -8 -20   -0.11    0.10 
   0  -8  20    0.63    0.21 
   0  -8 -20    0.30    0.13 
   2  -8  20   -0.03    0.16 
  -2  -8 -20    0.07    0.12 
  -2  -8 -20    0.11    0.19 
  -4  -8 -20   -0.07    0.15 
   4  -8  20    0.04    0.19 
  -4  -8 -20   -0.06    0.23 
  -6  -8 -20    0.33    0.21 
  -6  -8 -20   -0.06    0.26 
   6  -8  20    0.30    0.23 
  -3  -9  20    0.12    0.20 
   3  -9 -20    0.09    0.12 
  -1  -9  20    1.21    0.28 
   1  -9 -20    0.89    0.18 
  -1  -9 -20    0.44    0.16 
   1  -9  20    0.10    0.20 
 -16   0  21   -0.09    0.20 
 -14   0  21   -0.18    0.18 
 -12   0  21    0.35    0.20 
 -10   0  21   -0.07    0.14 
  -8   0  21   -0.12    0.12 
  -6   0  21    0.10    0.12 
   6   0 -21   -0.18    0.10 
  -4   0  21   -0.20    0.09 
   4   0 -21   -0.01    0.10 
  -2   0  21   -0.04    0.08 
   2   0 -21   -0.06    0.08 
   0   0 -21   -0.07    0.07 
   0   0  21    0.07    0.09 
  -2   0 -21    0.06    0.10 
   2   0  21    0.08    0.10 
   4   0  21   -0.01    0.11 
  -4   0 -21   -0.09    0.10 
   6   0  21    0.02    0.13 
  -6   0 -21    0.10    0.16 
   8   0  21    0.20    0.18 
  -8   0 -21    0.10    0.18 
  -8   0 -21    0.26    0.21 
 -10   0 -21    0.21    0.23 
 -10   0 -21    0.23    0.21 
 -12   0 -21   -0.06    0.18 
 -12   0 -21   -0.03    0.19 
 -14   0 -21   -0.02    0.24 
 -14   0 -21    0.05    0.25 
 -17  -1  21   -0.74    0.21 
 -17   1  21    0.10    0.26 
 -15  -1  21    0.02    0.22 
 -15   1  21    0.30    0.20 
 -13  -1  21   -0.04    0.17 
 -13   1  21   -0.26    0.14 
 -11  -1  21    0.03    0.16 
 -11   1  21    0.15    0.17 
  -9  -1  21   -0.03    0.14 
  -9   1  21   -0.03    0.13 
  -7  -1  21    0.68    0.18 
   7   1 -21    0.59    0.20 
  -7   1  21    0.85    0.18 
   5  -1 -21    0.54    0.15 
  -5  -1  21    0.23    0.14 
  -5   1  21    0.40    0.13 
   5   1 -21    0.88    0.18 
  -3  -1  21    0.83    0.18 
   3  -1 -21    0.61    0.16 
   3   1 -21    0.85    0.17 
  -3   1  21    0.96    0.17 
   1  -1 -21    1.36    0.19 
  -1  -1  21    1.22    0.20 
   1   1 -21    1.41    0.21 
  -1   1  21    1.04    0.17 
   1  -1  21    0.10    0.10 
  -1  -1 -21    0.08    0.09 
  -1   1 -21    0.24    0.11 
   1   1  21    0.04    0.08 
   3  -1  21    0.67    0.17 
  -3  -1 -21    0.73    0.18 
  -3   1 -21    0.84    0.18 
   3   1  21    0.81    0.18 
  -5  -1 -21   -0.15    0.11 
   5  -1  21    0.05    0.14 
  -5   1 -21    0.02    0.13 
   5   1  21    0.08    0.12 
  -7  -1 -21    0.11    0.18 
   7  -1  21   -0.05    0.14 
  -7  -1 -21    0.29    0.20 
   7   1  21    0.04    0.14 
  -7   1 -21    0.11    0.19 
   9  -1  21    4.63    0.52 
  -9  -1 -21    3.89    0.47 
  -9  -1 -21    3.24    0.44 
  -9   1 -21    3.77    0.45 
  -9   1 -21    3.72    0.44 
 -11  -1 -21    0.07    0.19 
 -11  -1 -21    0.27    0.23 
 -11   1 -21    0.22    0.22 
 -11   1 -21    0.15    0.21 
 -13  -1 -21    0.46    0.26 
 -13  -1 -21    0.28    0.25 
 -13   1 -21    0.29    0.26 
 -13   1 -21    0.33    0.28 
 -16  -2  21   -0.17    0.26 
 -14  -2  21    0.00    0.22 
 -14   2  21    0.18    0.19 
 -12  -2  21    2.80    0.37 
 -12   2  21    2.78    0.34 
 -10  -2  21    1.59    0.30 
 -10   2  21    1.15    0.23 
  -8  -2  21    0.65    0.21 
   8   2 -21    0.66    0.18 
  -8   2  21    0.71    0.18 
  -6  -2  21    4.12    0.35 
   6   2 -21    4.31    0.34 
  -6   2  21    3.96    0.30 
  -4  -2  21    2.08    0.28 
   4  -2 -21    2.04    0.24 
   4  -2 -21    2.06    0.25 
   4   2 -21    2.25    0.26 
  -4   2  21    2.11    0.24 
   2  -2 -21    1.51    0.21 
  -2  -2  21    1.14    0.21 
   2  -2 -21    1.09    0.18 
   2   2 -21    1.36    0.21 
  -2   2  21    1.35    0.19 
   0  -2 -21    0.04    0.10 
   0  -2 -21   -0.02    0.07 
   0  -2  21   -0.05    0.10 
   0   2  21   -0.01    0.08 
   0   2 -21   -0.15    0.08 
  -2  -2 -21    1.02    0.20 
   2  -2  21    1.27    0.22 
  -2  -2 -21    1.21    0.20 
   2   2  21    1.22    0.19 
  -2   2 -21    1.29    0.21 
   4  -2  21   -0.15    0.12 
  -4  -2 -21    0.08    0.13 
   4   2  21   -0.01    0.10 
  -4   2 -21   -0.03    0.13 
   6  -2  21    0.69    0.23 
  -6  -2 -21    0.78    0.21 
   6   2  21    0.62    0.20 
  -6   2 -21    0.44    0.19 
  -8  -2 -21    6.46    0.54 
  -8  -2 -21    6.63    0.52 
   8  -2  21    6.59    0.53 
  -8   2 -21    7.13    0.52 
  -8   2 -21    7.16    0.54 
 -10  -2 -21    0.61    0.25 
 -10  -2 -21    0.84    0.29 
  10  -2  21    0.90    0.29 
 -10   2 -21    0.52    0.26 
 -10   2 -21    0.28    0.20 
 -12  -2 -21    0.04    0.20 
 -12  -2 -21    0.09    0.23 
 -12   2 -21    0.33    0.22 
 -12   2 -21    0.12    0.22 
 -14  -2 -21    0.02    0.27 
 -15  -3  21    1.10    0.34 
 -13  -3  21    0.63    0.25 
 -11  -3  21    0.58    0.22 
 -11   3  21    0.85    0.19 
  11   3 -21    0.45    0.19 
  -9  -3  21   10.38    0.57 
  -9   3  21    8.90    0.46 
   9   3 -21   10.21    0.55 
  -7  -3  21    7.34    0.46 
   7  -3 -21    7.48    0.49 
   7   3 -21    6.71    0.43 
  -7   3  21    6.78    0.38 
  -5  -3  21    1.16    0.23 
   5  -3 -21    1.16    0.19 
   5  -3 -21    0.72    0.19 
  -5   3  21    0.91    0.16 
   5   3 -21    1.00    0.20 
   3  -3 -21   11.63    0.51 
  -3  -3  21   11.98    0.58 
   3  -3 -21   12.16    0.53 
   3   3 -21   11.97    0.53 
  -3   3  21   12.66    0.48 
   1  -3 -21    0.78    0.17 
   1  -3 -21    0.51    0.13 
  -1  -3  21    0.50    0.18 
  -1   3  21    0.81    0.15 
   1   3 -21    0.46    0.16 
   1  -3  21   15.22    0.67 
  -1  -3 -21   13.00    0.55 
  -1  -3 -21   15.24    0.61 
  -1   3 -21   14.64    0.61 
   1   3  21   14.58    0.57 
  -3  -3 -21    4.39    0.31 
  -3  -3 -21    4.69    0.34 
   3  -3  21    4.48    0.37 
  -3   3 -21    4.44    0.36 
   3   3  21    4.91    0.33 
   5  -3  21    0.75    0.21 
  -5  -3 -21    0.92    0.22 
  -5   3 -21    0.67    0.20 
  -7  -3 -21    0.01    0.16 
  -7  -3 -21   -0.01    0.18 
   7  -3  21    0.54    0.22 
  -7   3 -21    0.05    0.15 
  -7   3 -21    0.11    0.17 
   9  -3  21    3.38    0.49 
  -9  -3 -21    2.97    0.45 
  -9  -3 -21    3.26    0.44 
  -9   3 -21    3.25    0.41 
  -9   3 -21    3.35    0.44 
  11  -3  21    0.25    0.24 
 -11  -3 -21   -0.05    0.19 
 -11  -3 -21   -0.10    0.27 
 -11   3 -21    0.10    0.19 
 -11   3 -21    0.02    0.21 
 -13  -3 -21    0.03    0.28 
 -13  -3 -21    0.94    0.36 
 -13   3 -21    0.55    0.30 
 -13   3 -21   -0.10    0.23 
 -14  -4  21    0.30    0.25 
  14   4 -21    0.05    0.21 
 -12  -4  21    1.10    0.26 
  12   4 -21    1.06    0.24 
 -10  -4  21    1.83    0.31 
  10   4 -21    1.93    0.29 
  -8  -4  21    1.07    0.26 
   8   4 -21    0.87    0.21 
  -8   4  21    0.93    0.18 
  -6  -4  21   11.48    0.59 
   6  -4 -21   10.57    0.59 
  -6   4  21   11.35    0.45 
   6   4 -21   11.99    0.55 
   4  -4 -21   12.91    0.54 
   4  -4 -21   13.58    0.56 
  -4  -4  21   13.09    0.62 
  -4   4  21   12.28    0.46 
   4   4 -21   12.39    0.55 
   2  -4 -21    0.10    0.13 
  -2  -4  21    0.05    0.15 
   2  -4 -21    0.35    0.12 
   2   4 -21   -0.02    0.12 
  -2   4  21    0.07    0.08 
   0  -4 -21    4.03    0.31 
   0  -4  21    4.06    0.37 
   0  -4 -21    3.65    0.27 
   0   4  21    3.39    0.24 
   0   4 -21    3.61    0.31 
  -2  -4 -21    0.34    0.12 
  -2  -4 -21    0.22    0.14 
   2  -4  21    0.32    0.16 
  -2   4 -21    0.00    0.13 
   4  -4  21    5.19    0.44 
  -4  -4 -21    4.44    0.37 
  -4   4 -21    4.31    0.37 
  -6  -4 -21    0.61    0.25 
  -6  -4 -21    0.96    0.24 
   6  -4  21    0.75    0.22 
  -6   4 -21    0.58    0.20 
  -6   4 -21    0.84    0.22 
  -8  -4 -21    3.09    0.40 
   8  -4  21    3.10    0.44 
  -8  -4 -21    3.56    0.49 
  -8   4 -21    3.04    0.41 
  -8   4 -21    4.01    0.43 
  10  -4  21    0.37    0.25 
 -10  -4 -21    0.34    0.26 
 -10  -4 -21    0.33    0.25 
 -10   4 -21    0.51    0.22 
 -10   4 -21    0.02    0.21 
  12  -4  21    0.21    0.25 
 -12  -4 -21    0.40    0.31 
 -12  -4 -21   -0.20    0.31 
 -12   4 -21   -0.08    0.32 
 -12   4 -21    0.34    0.25 
 -13  -5  21    0.11    0.21 
 -11  -5  21    0.51    0.23 
  11   5 -21    0.11    0.15 
  -9  -5  21    6.96    0.51 
   9   5 -21    6.46    0.45 
  -7  -5  21    1.86    0.30 
   7   5 -21    2.22    0.29 
  -5  -5  21    0.28    0.18 
   5  -5 -21    0.44    0.17 
   5   5 -21    0.51    0.16 
   3  -5 -21    1.72    0.24 
  -3  -5  21    1.75    0.29 
   3   5 -21    2.23    0.26 
  -1  -5  21    0.06    0.15 
   1  -5 -21   -0.19    0.10 
   1   5 -21   -0.13    0.09 
   1  -5  21    1.49    0.26 
  -1  -5 -21    1.29    0.21 
  -1   5 -21    1.44    0.23 
   3  -5  21    1.96    0.30 
  -3  -5 -21    2.46    0.30 
  -3   5 -21    2.16    0.29 
  -5  -5 -21    1.26    0.25 
   5  -5  21    1.13    0.28 
  -5  -5 -21    1.51    0.33 
  -5   5 -21    1.41    0.27 
  -7  -5 -21    0.17    0.19 
  -7  -5 -21    0.34    0.26 
   7  -5  21    0.24    0.22 
  -7   5 -21    0.41    0.19 
  -7   5 -21    0.46    0.21 
  -9  -5 -21    1.39    0.32 
  -9  -5 -21    1.61    0.40 
   9  -5  21    1.35    0.34 
  -9   5 -21    1.53    0.31 
 -11  -5 -21    0.13    0.29 
 -11  -5 -21    0.30    0.26 
  11  -5  21   -0.24    0.18 
 -11   5 -21   -0.06    0.17 
 -12  -6  21    0.15    0.21 
 -10  -6  21    0.04    0.19 
  -8  -6  21    0.44    0.21 
  -6  -6  21   -0.14    0.15 
   6   6 -21    0.15    0.11 
  -4  -6  21    2.96    0.35 
   4  -6 -21    3.06    0.28 
   4   6 -21    3.06    0.32 
   2  -6 -21    0.39    0.14 
  -2  -6  21    0.23    0.18 
   2   6 -21    0.34    0.13 
   0  -6 -21    0.63    0.17 
   0  -6  21    0.96    0.26 
   0   6 -21    0.44    0.15 
  -2  -6 -21    0.12    0.13 
   2  -6  21    0.16    0.17 
  -2   6 -21    0.21    0.13 
  -4  -6 -21    0.51    0.24 
  -4  -6 -21    0.61    0.19 
   4  -6  21    0.52    0.21 
  -6  -6 -21    1.68    0.37 
  -6  -6 -21    2.00    0.32 
   6  -6  21    1.87    0.35 
  -6   6 -21    1.29    0.24 
  -8  -6 -21    0.67    0.29 
   8  -6  21    0.94    0.33 
  -8  -6 -21    0.80    0.29 
 -10  -6 -21   -0.10    0.25 
 -10  -6 -21    0.25    0.24 
  10  -6  21    0.14    0.23 
 -11  -7  21    0.13    0.23 
  -9  -7  21    0.77    0.27 
  -7  -7  21   -0.18    0.17 
  -5  -7  21   -0.05    0.17 
   5  -7 -21    0.20    0.14 
   3  -7 -21    2.38    0.26 
  -3  -7  21    2.79    0.36 
   1  -7 -21    0.16    0.13 
  -1  -7  21    0.41    0.21 
  -1  -7 -21    0.01    0.11 
   1  -7  21    0.11    0.17 
  -3  -7 -21    0.14    0.21 
  -3  -7 -21    0.24    0.16 
   3  -7  21    0.33    0.20 
  -5  -7 -21    0.21    0.25 
   5  -7  21    0.10    0.22 
  -5  -7 -21   -0.01    0.16 
  -7  -7 -21    0.55    0.32 
  -7  -7 -21    0.36    0.23 
   7  -7  21    0.49    0.27 
  -8  -8  21    0.51    0.26 
  -6  -8  21    0.05    0.20 
   6  -8 -21    0.13    0.16 
   4  -8 -21    0.28    0.16 
  -4  -8  21    0.34    0.23 
   2  -8 -21   -0.12    0.10 
  -2  -8  21   -0.07    0.17 
   0  -8 -21   -0.14    0.10 
   0  -8  21    0.00    0.16 
  -2  -8 -21    0.01    0.12 
  -2  -8 -21    0.02    0.20 
   2  -8  21    0.12    0.19 
  -4  -8 -21    0.21    0.18 
  -4  -8 -21   -0.02    0.21 
   4  -8  21    0.23    0.22 
   1  -9 -21   -0.02    0.12 
  -1  -9  21    0.10    0.19 
 -16   0  22    0.04    0.22 
 -14   0  22    0.60    0.26 
 -12   0  22    0.68    0.23 
 -10   0  22    0.16    0.18 
  -8   0  22    1.08    0.22 
   6   0 -22    8.06    0.45 
  -6   0  22    7.74    0.44 
  -4   0  22    4.82    0.34 
   4   0 -22    5.44    0.36 
  -2   0  22    0.11    0.10 
   2   0 -22    0.06    0.09 
   0   0  22    1.50    0.22 
   0   0 -22    0.93    0.18 
   2   0  22    1.49    0.23 
  -2   0 -22    1.46    0.22 
   4   0  22    9.91    0.53 
  -4   0 -22   10.31    0.54 
   6   0  22    4.16    0.39 
  -6   0 -22    3.32    0.38 
   8   0  22    0.41    0.24 
  -8   0 -22    0.37    0.23 
  -8   0 -22    0.51    0.22 
 -10   0 -22    3.55    0.47 
 -10   0 -22    4.05    0.52 
 -12   0 -22    0.81    0.30 
 -12   0 -22    0.41    0.25 
 -15  -1  22    0.78    0.28 
 -15   1  22    0.30    0.23 
 -13  -1  22    0.22    0.19 
 -13   1  22    0.17    0.19 
 -11  -1  22    0.33    0.20 
 -11   1  22   -0.09    0.16 
  -9  -1  22    0.55    0.19 
   9   1 -22    0.39    0.17 
  -9   1  22    0.08    0.15 
  -7  -1  22   -0.05    0.13 
  -7   1  22   -0.10    0.11 
   7   1 -22   -0.17    0.11 
  -5  -1  22    9.82    0.50 
   5  -1 -22    9.65    0.48 
  -5   1  22    8.87    0.46 
   5   1 -22    9.65    0.49 
   3  -1 -22   -0.02    0.09 
  -3  -1  22   -0.08    0.10 
  -3   1  22    0.12    0.11 
   3   1 -22    0.03    0.11 
  -1  -1  22    0.09    0.10 
   1  -1 -22    0.11    0.10 
  -1   1  22   -0.10    0.06 
   1   1 -22    0.11    0.10 
   1  -1  22    0.06    0.10 
  -1  -1 -22    0.17    0.11 
  -1   1 -22    0.01    0.10 
   1   1  22   -0.02    0.08 
  -3  -1 -22    1.94    0.26 
   3  -1  22    2.18    0.29 
  -3   1 -22    1.86    0.26 
   3   1  22    1.62    0.24 
  -5  -1 -22    0.16    0.15 
   5  -1  22    0.13    0.16 
   5   1  22    0.17    0.14 
  -5   1 -22   -0.05    0.14 
   7  -1  22    0.53    0.20 
  -7  -1 -22    0.39    0.22 
  -7   1 -22    0.32    0.19 
   7   1  22    0.02    0.14 
  -9  -1 -22    6.91    0.57 
  -9  -1 -22    6.06    0.54 
   9  -1  22    6.34    0.56 
  -9   1 -22    7.41    0.57 
  -9   1 -22    6.89    0.57 
 -11  -1 -22    0.07    0.21 
 -11  -1 -22   -0.50    0.18 
 -11   1 -22   -0.17    0.18 
 -11   1 -22    0.12    0.21 
 -13  -1 -22    0.43    0.29 
 -13  -1 -22    0.86    0.31 
 -13   1 -22    0.62    0.30 
 -13   1 -22    0.53    0.29 
 -16  -2  22    0.32    0.27 
 -14  -2  22    1.38    0.32 
 -14   2  22    0.78    0.26 
 -12  -2  22    0.78    0.26 
 -12   2  22    0.98    0.23 
 -10  -2  22   -0.01    0.15 
  10   2 -22   -0.08    0.17 
 -10   2  22   -0.01    0.13 
  -8  -2  22    3.85    0.36 
  -8   2  22    4.09    0.32 
   8   2 -22    3.77    0.34 
   6  -2 -22    7.26    0.44 
  -6  -2  22    7.25    0.46 
  -6   2  22    7.91    0.42 
   6   2 -22    7.46    0.45 
   4  -2 -22    2.55    0.29 
   4  -2 -22    2.97    0.34 
  -4  -2  22    2.75    0.31 
   4   2 -22    2.73    0.29 
  -4   2  22    2.94    0.25 
  -2  -2  22    7.06    0.44 
   2  -2 -22    7.18    0.40 
   2  -2 -22    7.03    0.38 
  -2   2  22    6.33    0.36 
   2   2 -22    6.47    0.39 
   0  -2 -22    3.85    0.29 
   0  -2 -22    4.06    0.31 
   0  -2  22    4.03    0.33 
   0   2 -22    3.53    0.30 
   0   2  22    3.77    0.28 
  -2  -2 -22    3.22    0.32 
   2  -2  22    3.54    0.33 
  -2   2 -22    3.12    0.32 
   2   2  22    3.26    0.29 
   4  -2  22    5.91    0.43 
  -4  -2 -22    5.64    0.41 
  -4   2 -22    5.98    0.44 
   4   2  22    5.58    0.40 
  -6  -2 -22    0.09    0.16 
   6  -2  22    0.31    0.20 
   6   2  22    0.19    0.14 
  -6   2 -22    0.10    0.15 
   8  -2  22    0.55    0.25 
  -8  -2 -22    0.29    0.19 
  -8  -2 -22    0.27    0.21 
  -8   2 -22    0.59    0.24 
  -8   2 -22    0.35    0.21 
  10  -2  22    0.18    0.19 
 -10  -2 -22    0.97    0.31 
 -10  -2 -22    0.99    0.30 
 -10   2 -22    1.09    0.30 
 -10   2 -22    0.31    0.23 
 -12  -2 -22   -0.22    0.17 
 -12  -2 -22    0.75    0.30 
 -12   2 -22    0.40    0.27 
 -12   2 -22    0.22    0.24 
 -15  -3  22    0.65    0.28 
 -13  -3  22    0.26    0.23 
 -11  -3  22    1.09    0.26 
 -11   3  22    1.12    0.22 
  11   3 -22    1.43    0.29 
  -9  -3  22    0.97    0.24 
  -9   3  22    0.72    0.18 
   9   3 -22    0.99    0.23 
  -7  -3  22    4.77    0.40 
  -7   3  22    4.90    0.33 
   7   3 -22    4.98    0.37 
   5  -3 -22    2.16    0.26 
   5  -3 -22    1.65    0.25 
  -5  -3  22    1.84    0.28 
  -5   3  22    1.84    0.23 
   5   3 -22    2.37    0.29 
   3  -3 -22    4.14    0.33 
   3  -3 -22    4.05    0.30 
  -3  -3  22    4.54    0.38 
  -3   3  22    3.78    0.27 
   3   3 -22    4.32    0.33 
   1  -3 -22    9.44    0.45 
  -1  -3  22    9.74    0.53 
   1  -3 -22   10.11    0.48 
  -1   3  22    9.38    0.44 
   1   3 -22    9.37    0.48 
   1  -3  22    0.49    0.18 
  -1  -3 -22    0.33    0.12 
  -1  -3 -22    0.43    0.15 
  -1   3 -22    0.23    0.14 
   1   3  22    0.20    0.12 
   3  -3  22    2.48    0.31 
  -3  -3 -22    2.18    0.28 
  -3   3 -22    2.75    0.33 
   3   3  22    2.47    0.28 
   5  -3  22    0.10    0.15 
  -5  -3 -22    0.07    0.15 
  -5   3 -22    0.01    0.12 
   5   3  22    0.11    0.13 
   7  -3  22    0.22    0.21 
  -7  -3 -22    0.02    0.19 
  -7  -3 -22    0.30    0.19 
  -7   3 -22    0.20    0.17 
  -7   3 -22    0.16    0.17 
  -9  -3 -22    0.15    0.24 
  -9  -3 -22    0.20    0.20 
   9  -3  22    0.31    0.20 
  -9   3 -22    0.33    0.19 
  -9   3 -22    0.01    0.19 
 -11  -3 -22   -0.03    0.20 
 -11  -3 -22   -0.32    0.20 
  11  -3  22    0.13    0.20 
 -11   3 -22    0.04    0.21 
 -11   3 -22    0.12    0.20 
 -13  -3 -22    0.06    0.22 
 -13  -3 -22    0.04    0.30 
 -13   3 -22   -0.14    0.22 
 -13   3 -22    0.30    0.28 
 -14  -4  22    0.01    0.22 
  14   4 -22   -0.16    0.19 
 -12  -4  22    0.28    0.22 
  12   4 -22    0.34    0.20 
 -10  -4  22    1.27    0.28 
  10   4 -22    1.37    0.27 
  -8  -4  22    0.02    0.18 
   8   4 -22    0.04    0.13 
   6  -4 -22    1.58    0.27 
  -6  -4  22    1.28    0.27 
   6   4 -22    1.61    0.25 
  -6   4  22    1.63    0.20 
  -4  -4  22    5.58    0.43 
   4  -4 -22    4.58    0.33 
   4  -4 -22    5.19    0.38 
   4   4 -22    5.66    0.38 
  -4   4  22    5.16    0.29 
   2  -4 -22    3.23    0.32 
  -2  -4  22    3.89    0.36 
   2  -4 -22    3.93    0.29 
  -2   4  22    3.84    0.25 
   2   4 -22    3.55    0.31 
   0  -4 -22   14.78    0.59 
   0  -4 -22   15.65    0.62 
   0  -4  22   15.29    0.69 
   0   4 -22   15.23    0.65 
   0   4  22   15.40    0.55 
  -2  -4 -22    0.09    0.12 
  -2  -4 -22   -0.01    0.13 
   2  -4  22   -0.08    0.13 
   2   4  22    0.06    0.10 
  -2   4 -22   -0.20    0.11 
   4  -4  22    3.10    0.39 
  -4  -4 -22    3.23    0.35 
  -4   4 -22    2.88    0.34 
  -6  -4 -22    0.99    0.25 
  -6  -4 -22    0.65    0.26 
   6  -4  22    0.61    0.23 
  -6   4 -22    0.59    0.20 
  -6   4 -22    0.74    0.23 
  -8  -4 -22    2.31    0.37 
   8  -4  22    2.02    0.37 
  -8  -4 -22    2.71    0.45 
  -8   4 -22    2.52    0.37 
  -8   4 -22    1.82    0.35 
 -10  -4 -22    0.11    0.22 
  10  -4  22    0.03    0.19 
 -10  -4 -22   -0.31    0.23 
 -10   4 -22   -0.22    0.16 
 -10   4 -22   -0.02    0.18 
 -12  -4 -22   -0.33    0.17 
  12  -4  22    0.04    0.22 
 -12  -4 -22   -0.28    0.26 
 -12   4 -22    0.39    0.24 
 -13  -5  22    0.12    0.22 
 -11  -5  22    0.18    0.22 
  11   5 -22   -0.09    0.13 
  -9  -5  22    0.74    0.25 
   9   5 -22    0.23    0.15 
  -7  -5  22    1.91    0.30 
   7   5 -22    1.86    0.27 
   5  -5 -22    1.81    0.25 
  -5  -5  22    1.52    0.30 
   5   5 -22    1.88    0.25 
  -3  -5  22    0.25    0.19 
   3  -5 -22    0.63    0.18 
   3   5 -22    0.25    0.14 
  -1  -5  22    0.63    0.21 
   1  -5 -22    0.73    0.19 
   1   5 -22    0.88    0.19 
   1  -5  22    0.45    0.20 
  -1  -5 -22    0.55    0.19 
  -1   5 -22    0.72    0.19 
  -3  -5 -22    0.02    0.13 
   3  -5  22    0.04    0.15 
  -3   5 -22    0.02    0.13 
   5  -5  22    0.41    0.20 
  -5  -5 -22    0.11    0.17 
  -5   5 -22    0.07    0.16 
  -7  -5 -22    0.14    0.19 
  -7  -5 -22    0.49    0.29 
   7  -5  22    0.45    0.23 
  -7   5 -22    0.27    0.20 
  -7   5 -22    0.21    0.17 
  -9  -5 -22    0.88    0.35 
   9  -5  22    0.52    0.29 
  -9  -5 -22    0.51    0.28 
  -9   5 -22    0.60    0.23 
  11  -5  22   -0.03    0.24 
 -11  -5 -22    0.11    0.24 
 -11  -5 -22   -0.17    0.28 
 -11   5 -22   -0.31    0.18 
 -12  -6  22    0.47    0.26 
 -10  -6  22    0.10    0.21 
  -8  -6  22    0.37    0.20 
   6  -6 -22    0.15    0.17 
  -6  -6  22    0.62    0.23 
   6   6 -22    0.33    0.18 
  -4  -6  22    0.06    0.17 
   4  -6 -22    0.03    0.14 
   4   6 -22    0.15    0.12 
   2  -6 -22    0.05    0.13 
  -2  -6  22    0.32    0.20 
   2   6 -22    0.26    0.13 
   0  -6 -22   -0.01    0.11 
   0  -6  22    0.07    0.15 
   0   6 -22    0.17    0.12 
  -2  -6 -22   -0.05    0.11 
   2  -6  22    0.07    0.16 
  -2   6 -22    0.12    0.13 
   4  -6  22    0.34    0.23 
  -4  -6 -22    0.37    0.19 
  -6  -6 -22   -0.13    0.21 
   6  -6  22    0.43    0.26 
  -6  -6 -22    0.15    0.18 
  -6   6 -22    0.37    0.17 
  -8  -6 -22    1.58    0.38 
  -8  -6 -22    1.01    0.29 
   8  -6  22    0.65    0.27 
  -9  -7  22    0.23    0.22 
   7  -7 -22    0.53    0.20 
  -7  -7  22    0.13    0.19 
  -5  -7  22    0.50    0.21 
   5  -7 -22    0.70    0.19 
  -3  -7  22    0.20    0.19 
   3  -7 -22   -0.13    0.13 
  -1  -7  22    0.04    0.16 
   1  -7 -22   -0.07    0.11 
  -1  -7 -22    0.30    0.15 
   1  -7  22    0.36    0.20 
  -3  -7 -22    0.42    0.23 
  -3  -7 -22    0.38    0.17 
   3  -7  22    0.39    0.23 
   5  -7  22    0.38    0.24 
  -5  -7 -22    0.03    0.23 
  -5  -7 -22    0.02    0.18 
  -7  -7 -22    1.22    0.39 
   7  -7  22    0.11    0.25 
  -7  -7 -22    0.43    0.25 
   6  -8 -22    0.09    0.16 
  -6  -8  22   -0.17    0.18 
  -4  -8  22    0.11    0.21 
   4  -8 -22    0.01    0.13 
  -2  -8  22    0.42    0.24 
   2  -8 -22    0.55    0.16 
   0  -8  22   -0.20    0.15 
   0  -8 -22    0.06    0.12 
   2  -8  22   -0.11    0.18 
  -2  -8 -22   -0.12    0.20 
  -2  -8 -22    0.10    0.15 
   4  -8  22    0.74    0.27 
  -4  -8 -22    0.07    0.25 
  -4  -8 -22    0.50    0.21 
 -16   0  23   -0.01    0.21 
 -14   0  23    0.09    0.23 
 -12   0  23   -0.04    0.18 
 -10   0  23   -0.29    0.12 
   8   0 -23   -0.15    0.12 
  -8   0  23   -0.11    0.13 
   6   0 -23   -0.09    0.12 
  -6   0  23    0.17    0.13 
  -4   0  23    0.41    0.15 
   4   0 -23    0.25    0.13 
   2   0 -23   -0.09    0.10 
  -2   0  23   -0.15    0.08 
   0   0  23   -0.01    0.08 
   0   0 -23   -0.04    0.09 
  -2   0 -23    0.05    0.12 
   2   0  23    0.03    0.11 
  -4   0 -23    0.21    0.15 
   4   0  23    0.19    0.15 
  -6   0 -23   -0.02    0.15 
   6   0  23   -0.26    0.10 
   8   0  23   -0.08    0.15 
  -8   0 -23   -0.07    0.18 
  -8   0 -23   -0.24    0.16 
  10   0  23    0.06    0.20 
 -10   0 -23    0.00    0.21 
 -10   0 -23    0.13    0.21 
 -12   0 -23    0.16    0.24 
 -12   0 -23   -0.22    0.20 
 -15  -1  23    0.12    0.22 
 -15   1  23    0.10    0.22 
 -13  -1  23    0.19    0.22 
 -13   1  23    0.04    0.18 
 -11  -1  23    0.13    0.20 
 -11   1  23    0.47    0.20 
  -9  -1  23    0.31    0.17 
   9   1 -23   -0.13    0.13 
  -9   1  23    0.20    0.16 
   7  -1 -23   -0.26    0.11 
  -7  -1  23   -0.17    0.12 
  -7   1  23   -0.04    0.11 
   7   1 -23   -0.09    0.11 
   5  -1 -23   12.19    0.58 
  -5  -1  23   14.35    0.63 
   5   1 -23   12.96    0.59 
  -5   1  23   13.59    0.58 
   3  -1 -23    0.68    0.17 
  -3  -1  23    0.62    0.17 
   3   1 -23    0.54    0.15 
  -3   1  23    0.61    0.15 
  -1  -1  23    1.16    0.21 
   1  -1 -23    1.24    0.21 
   1   1 -23    1.00    0.20 
  -1   1  23    1.41    0.21 
  -1  -1 -23    0.13    0.12 
   1  -1  23    0.00    0.11 
   1   1  23    0.03    0.10 
  -1   1 -23   -0.12    0.09 
  -3  -1 -23   -0.16    0.10 
   3  -1  23    0.08    0.12 
   3   1  23    0.11    0.11 
  -3   1 -23   -0.14    0.10 
  -5  -1 -23    0.66    0.21 
   5  -1  23    1.03    0.25 
  -5   1 -23    0.13    0.16 
   5   1  23    0.71    0.19 
   7  -1  23    0.79    0.26 
  -7  -1 -23    1.12    0.27 
  -7   1 -23    0.72    0.24 
   7   1  23    0.48    0.22 
  -9  -1 -23    0.52    0.25 
  -9  -1 -23    0.42    0.23 
   9  -1  23    0.17    0.22 
  -9   1 -23    0.75    0.24 
  -9   1 -23    0.32    0.21 
  11  -1  23    0.21    0.24 
 -11  -1 -23    0.42    0.27 
 -11  -1 -23    0.44    0.28 
 -11   1 -23    0.28    0.24 
 -11   1 -23   -0.07    0.19 
 -13  -1 -23   -0.12    0.26 
 -13  -1 -23    0.24    0.29 
 -13   1 -23    0.16    0.23 
 -13   1 -23    0.20    0.26 
 -16  -2  23    0.29    0.25 
 -14  -2  23    0.13    0.21 
 -14   2  23    0.25    0.26 
 -12  -2  23    0.90    0.27 
 -12   2  23    1.48    0.27 
 -10  -2  23    1.20    0.27 
  10   2 -23    0.62    0.21 
 -10   2  23    0.95    0.21 
  -8  -2  23    0.73    0.21 
  -8   2  23    0.61    0.17 
   8   2 -23    0.64    0.19 
   6  -2 -23    5.16    0.38 
  -6  -2  23    4.81    0.39 
  -6   2  23    4.93    0.35 
   6   2 -23    5.05    0.38 
   4  -2 -23   19.00    0.73 
  -4  -2  23   18.87    0.76 
   4   2 -23   18.91    0.74 
  -4   2  23   18.38    0.69 
  -2  -2  23    0.21    0.17 
   2  -2 -23    0.07    0.13 
  -2   2  23    0.12    0.10 
   2   2 -23    0.05    0.13 
   0  -2  23    3.97    0.35 
   0  -2 -23    4.15    0.32 
   0   2  23    3.62    0.29 
   0   2 -23    4.08    0.33 
   2  -2  23   10.28    0.56 
  -2  -2 -23    9.58    0.51 
  -2   2 -23   10.10    0.53 
   2   2  23   10.16    0.50 
  -4  -2 -23    4.23    0.38 
   4  -2  23    3.98    0.42 
   4   2  23    3.98    0.35 
  -4   2 -23    4.19    0.38 
   6  -2  23    0.06    0.16 
  -6  -2 -23    0.17    0.17 
  -6   2 -23   -0.09    0.14 
   6   2  23    0.15    0.13 
  -8  -2 -23    0.21    0.20 
   8  -2  23    0.21    0.20 
  -8  -2 -23    0.30    0.22 
  -8   2 -23    0.32    0.21 
  -8   2 -23    0.06    0.17 
 -10  -2 -23    0.01    0.20 
  10  -2  23    0.22    0.22 
 -10  -2 -23    0.01    0.22 
 -10   2 -23    0.03    0.21 
 -10   2 -23    0.12    0.18 
 -12  -2 -23   -0.23    0.18 
 -12  -2 -23   -0.02    0.24 
 -12   2 -23   -0.35    0.21 
 -12   2 -23    0.21    0.22 
 -15  -3  23    0.08    0.26 
 -13  -3  23    0.92    0.30 
  13   3 -23    0.90    0.29 
 -11  -3  23    0.07    0.19 
  11   3 -23    0.00    0.17 
 -11   3  23    0.14    0.19 
  -9  -3  23    0.79    0.23 
  -9   3  23    0.35    0.16 
   9   3 -23    0.17    0.18 
  -7  -3  23    2.33    0.32 
  -7   3  23    3.18    0.29 
   7   3 -23    3.18    0.36 
  -5  -3  23   19.62    0.80 
   5  -3 -23   20.06    0.76 
   5  -3 -23   19.92    0.77 
  -5   3  23   21.48    0.73 
   5   3 -23   20.70    0.78 
   3  -3 -23   27.67    0.90 
   3  -3 -23   25.98    0.87 
  -3  -3  23   26.89    0.97 
  -3   3  23   25.91    0.83 
   3   3 -23   26.95    0.90 
  -1  -3  23   11.30    0.59 
   1  -3 -23   10.79    0.50 
   1  -3 -23   12.05    0.55 
   1   3 -23   12.08    0.56 
  -1   3  23   11.12    0.49 
  -1  -3 -23    2.03    0.27 
   1  -3  23    1.86    0.29 
  -1  -3 -23    1.73    0.23 
  -1   3 -23    2.07    0.28 
   1   3  23    1.82    0.23 
   3  -3  23    1.57    0.26 
  -3  -3 -23    1.21    0.23 
   3   3  23    1.64    0.24 
  -3   3 -23    1.44    0.26 
   5  -3  23   -0.14    0.14 
  -5  -3 -23    0.11    0.15 
   5   3  23    0.03    0.12 
  -5   3 -23    0.10    0.15 
   7  -3  23    0.22    0.21 
  -7  -3 -23   -0.15    0.19 
  -7  -3 -23    0.19    0.19 
  -7   3 -23    0.20    0.18 
  -7   3 -23    0.27    0.19 
   9  -3  23    0.82    0.29 
  -9  -3 -23    0.87    0.31 
  -9  -3 -23    0.35    0.22 
  -9   3 -23    0.42    0.23 
  -9   3 -23    0.50    0.25 
 -11  -3 -23    0.13    0.27 
  11  -3  23    0.49    0.26 
 -11  -3 -23    0.33    0.24 
 -11   3 -23    0.03    0.19 
 -11   3 -23    0.52    0.24 
 -14  -4  23   -0.06    0.23 
  14   4 -23    0.33    0.24 
 -12  -4  23    1.20    0.31 
  12   4 -23    1.32    0.29 
 -10  -4  23    1.94    0.34 
  10   4 -23    2.77    0.37 
  -8  -4  23    0.64    0.22 
   8   4 -23    0.67    0.20 
  -6  -4  23    0.07    0.17 
   6  -4 -23   -0.20    0.14 
  -6   4  23   -0.01    0.08 
   6   4 -23    0.16    0.14 
  -4  -4  23   24.47    0.94 
   4  -4 -23   25.26    0.87 
  -4   4  23   24.94    0.77 
   4   4 -23   25.17    0.87 
  -2  -4  23    0.89    0.24 
   2  -4 -23    1.23    0.24 
   2  -4 -23    1.09    0.22 
  -2   4  23    1.07    0.17 
   2   4 -23    1.09    0.22 
   0  -4  23    6.39    0.47 
   0  -4 -23    6.39    0.41 
   0  -4 -23    6.00    0.53 
   0   4 -23    7.08    0.43 
   0   4  23    6.55    0.35 
   2  -4  23    1.08    0.23 
  -2  -4 -23    1.13    0.23 
  -2   4 -23    1.11    0.22 
   2   4  23    1.38    0.20 
  -4  -4 -23    0.72    0.19 
   4  -4  23    0.56    0.22 
  -4   4 -23    0.73    0.20 
  -6  -4 -23    0.39    0.19 
  -6  -4 -23    0.15    0.21 
   6  -4  23    0.58    0.23 
  -6   4 -23    0.63    0.22 
  -8  -4 -23    0.08    0.24 
   8  -4  23   -0.03    0.19 
  -8  -4 -23    0.44    0.25 
  -8   4 -23    0.32    0.21 
  -8   4 -23    0.33    0.20 
 -10  -4 -23    0.23    0.23 
  10  -4  23    0.63    0.28 
 -10  -4 -23    0.02    0.27 
 -10   4 -23    0.38    0.23 
 -10   4 -23    0.30    0.23 
 -13  -5  23    1.56    0.37 
 -11  -5  23    0.09    0.22 
  11   5 -23    0.05    0.14 
  -9  -5  23    0.09    0.19 
   9   5 -23    0.36    0.16 
  -7  -5  23    0.67    0.24 
   7   5 -23    0.53    0.18 
   5  -5 -23    9.37    0.50 
  -5  -5  23    8.94    0.58 
   5   5 -23    9.67    0.50 
   3  -5 -23    3.31    0.33 
  -3  -5  23    2.40    0.34 
   3   5 -23    3.27    0.34 
   1  -5 -23    9.06    0.47 
  -1  -5  23    8.38    0.53 
   1   5 -23    8.48    0.48 
   1  -5  23    3.08    0.37 
  -1  -5 -23    2.55    0.30 
  -1   5 -23    2.12    0.30 
  -3  -5 -23    0.58    0.19 
   3  -5  23    0.26    0.18 
  -3   5 -23    0.26    0.16 
  -5  -5 -23    1.62    0.29 
   5  -5  23    1.44    0.31 
  -5   5 -23    1.38    0.29 
   7  -5  23    1.66    0.35 
  -7  -5 -23    1.13    0.29 
  -7  -5 -23    1.21    0.34 
  -7   5 -23    0.83    0.27 
  -7   5 -23    1.25    0.27 
  -9  -5 -23    0.20    0.23 
   9  -5  23    0.22    0.23 
  -9  -5 -23    0.12    0.27 
  -9   5 -23   -0.10    0.15 
 -12  -6  23    0.31    0.27 
 -10  -6  23    0.14    0.21 
  -8  -6  23    0.04    0.19 
   6  -6 -23   -0.10    0.14 
  -6  -6  23    0.06    0.16 
   4  -6 -23    1.25    0.24 
  -4  -6  23    1.13    0.26 
   4   6 -23    1.10    0.22 
   2  -6 -23   -0.07    0.13 
  -2  -6  23    0.09    0.17 
   2   6 -23   -0.05    0.11 
   0  -6 -23    0.00    0.12 
   0  -6  23   -0.10    0.14 
   0   6 -23    0.10    0.13 
  -2  -6 -23    2.41    0.31 
   2  -6  23    2.46    0.38 
  -4  -6 -23    1.07    0.25 
   4  -6  23    1.28    0.32 
  -6  -6 -23   -0.08    0.21 
   6  -6  23   -0.14    0.18 
  -6  -6 -23   -0.08    0.17 
  -6   6 -23    0.06    0.14 
  -8  -6 -23    1.59    0.35 
  -8  -6 -23    1.61    0.42 
   8  -6  23    1.12    0.33 
  -9  -7  23   -0.11    0.20 
   7  -7 -23    0.43    0.19 
  -7  -7  23    0.95    0.29 
   5  -7 -23    0.62    0.20 
  -5  -7  23    0.44    0.23 
   3  -7 -23    0.16    0.15 
  -3  -7  23    0.19    0.19 
   1  -7 -23    0.26    0.15 
  -1  -7  23    0.24    0.19 
   1  -7  23    0.21    0.20 
  -1  -7 -23    0.29    0.15 
   3  -7  23    0.18    0.21 
  -3  -7 -23    0.27    0.17 
  -3  -7 -23    0.35    0.23 
  -5  -7 -23    0.44    0.28 
  -5  -7 -23    0.41    0.22 
   5  -7  23    0.06    0.22 
  -7  -7 -23    0.64    0.34 
   7  -7  23    0.91    0.33 
  -7  -7 -23    0.98    0.30 
   6  -8 -23    0.61    0.19 
  -6  -8  23    0.44    0.25 
   4  -8 -23    0.25    0.16 
  -4  -8  23    0.11    0.22 
  -2  -8  23    0.19    0.22 
   2  -8 -23    0.17    0.15 
   0  -8  23    0.18    0.20 
   0  -8 -23   -0.05    0.13 
  -2  -8 -23    0.15    0.15 
   2  -8  23    0.03    0.21 
  -2  -8 -23    0.10    0.23 
   4  -8  23   -0.01    0.23 
  -4  -8 -23   -0.01    0.17 
  -4  -8 -23   -0.32    0.22 
 -16   0  24    0.33    0.26 
 -14   0  24    0.11    0.22 
 -12   0  24    1.42    0.29 
 -10   0  24   -0.04    0.16 
   8   0 -24    0.28    0.15 
  -8   0  24    0.49    0.17 
   6   0 -24    0.94    0.21 
  -6   0  24    0.28    0.15 
  -4   0  24   69.09    1.83 
   4   0 -24   70.08    1.81 
  -2   0  24    0.91    0.19 
   2   0 -24    1.41    0.23 
   0   0 -24   13.86    0.60 
   0   0  24   14.31    0.63 
   2   0  24    5.42    0.39 
  -2   0 -24    6.09    0.41 
  -4   0 -24    0.08    0.15 
   4   0  24    0.25    0.16 
  -6   0 -24    2.08    0.33 
   6   0  24    2.16    0.34 
  -8   0 -24    0.13    0.20 
   8   0  24    0.04    0.19 
  -8   0 -24    0.30    0.22 
 -10   0 -24    0.15    0.22 
  10   0  24    0.16    0.22 
 -10   0 -24    0.52    0.27 
 -12   0 -24    0.52    0.26 
 -12   0 -24    0.23    0.29 
 -15  -1  24    0.31    0.25 
 -15   1  24    0.02    0.23 
 -13  -1  24   -0.33    0.19 
 -13   1  24    0.18    0.20 
 -11  -1  24    6.79    0.50 
 -11   1  24    6.98    0.49 
  -9  -1  24    2.35    0.33 
   9   1 -24    2.26    0.31 
  -9   1  24    1.73    0.28 
  -7  -1  24   -0.05    0.13 
   7  -1 -24   -0.04    0.11 
   7   1 -24   -0.10    0.11 
  -7   1  24   -0.07    0.12 
   5  -1 -24   28.64    0.95 
  -5  -1  24   27.96    0.97 
  -5   1  24   26.84    0.93 
   5   1 -24   28.74    0.96 
  -3  -1  24   15.72    0.69 
   3  -1 -24   15.68    0.65 
   3   1 -24   16.17    0.66 
  -3   1  24   16.05    0.64 
   1  -1 -24    3.63    0.31 
  -1  -1  24    3.78    0.37 
  -1   1  24    2.86    0.27 
   1   1 -24    3.77    0.36 
  -1  -1 -24    4.86    0.36 
   1  -1  24    4.98    0.39 
   1   1  24    4.40    0.34 
  -1   1 -24    4.74    0.37 
   3  -1  24    3.45    0.37 
  -3  -1 -24    3.77    0.39 
  -3   1 -24    3.66    0.34 
   3   1  24    3.45    0.33 
   5  -1  24    1.31    0.28 
  -5  -1 -24    1.51    0.28 
  -5   1 -24    1.14    0.26 
   5   1  24    1.46    0.26 
   7  -1  24    1.76    0.34 
  -7  -1 -24    1.34    0.29 
   7   1  24    1.20    0.28 
  -7   1 -24    1.19    0.27 
  -9  -1 -24   -0.25    0.17 
  -9  -1 -24    0.06    0.19 
   9  -1  24   -0.22    0.16 
  -9   1 -24    0.13    0.19 
  -9   1 -24    0.30    0.21 
 -11  -1 -24    0.27    0.24 
  11  -1  24   -0.07    0.19 
 -11  -1 -24    0.24    0.28 
 -11   1 -24    0.11    0.21 
 -11   1 -24   -0.11    0.20 
 -13  -1 -24   -0.09    0.24 
 -13   1 -24    0.12    0.23 
 -14  -2  24   -0.37    0.19 
 -12  -2  24    1.76    0.33 
 -12   2  24    1.32    0.26 
  12   2 -24    0.98    0.28 
 -10  -2  24    0.61    0.24 
 -10   2  24    0.30    0.17 
  10   2 -24    0.76    0.23 
  -8  -2  24    1.88    0.30 
   8   2 -24    1.93    0.27 
  -8   2  24    2.01    0.27 
  -6  -2  24    2.64    0.33 
   6  -2 -24    2.13    0.28 
  -6   2  24    2.36    0.27 
   6   2 -24    1.88    0.28 
  -4  -2  24   29.67    1.02 
   4  -2 -24   29.38    0.98 
  -4   2  24   28.14    0.93 
   4   2 -24   29.91    0.99 
  -2  -2  24    2.00    0.29 
   2  -2 -24    2.18    0.27 
  -2   2  24    2.17    0.26 
   2   2 -24    2.63    0.30 
   0  -2 -24    3.49    0.32 
   0  -2  24    3.24    0.36 
   0   2 -24    3.56    0.33 
   0   2  24    3.64    0.30 
   2  -2  24    0.38    0.18 
  -2  -2 -24    0.14    0.14 
   2   2  24    0.08    0.11 
  -2   2 -24   -0.02    0.15 
  -4  -2 -24    0.82    0.22 
   4  -2  24    1.03    0.24 
   4   2  24    1.18    0.24 
  -4   2 -24    0.97    0.23 
  -6  -2 -24    0.45    0.20 
   6  -2  24    0.04    0.16 
   6   2  24    0.29    0.16 
  -6   2 -24    0.38    0.21 
  -8  -2 -24    1.07    0.29 
   8  -2  24    1.22    0.29 
  -8  -2 -24    1.19    0.29 
  -8   2 -24    0.46    0.24 
  -8   2 -24    0.69    0.25 
 -10  -2 -24    0.14    0.24 
 -10  -2 -24    0.20    0.24 
  10  -2  24   -0.19    0.18 
 -10   2 -24    0.53    0.25 
 -10   2 -24    0.30    0.21 
 -12  -2 -24    0.37    0.26 
 -12  -2 -24    0.19    0.26 
 -12   2 -24   -0.04    0.22 
 -12   2 -24   -0.32    0.18 
 -15  -3  24    0.58    0.31 
  15   3 -24    0.75    0.31 
 -13  -3  24    0.29    0.25 
  13   3 -24   -0.04    0.21 
 -11  -3  24    3.12    0.41 
  11   3 -24    2.31    0.35 
  -9  -3  24    1.89    0.30 
   9   3 -24    1.64    0.29 
  -9   3  24    1.30    0.23 
   7  -3 -24    0.67    0.20 
  -7  -3  24    0.77    0.23 
  -7   3  24    1.05    0.20 
   7   3 -24    1.07    0.23 
   5  -3 -24    0.68    0.20 
  -5  -3  24    0.87    0.24 
   5   3 -24    0.50    0.16 
  -5   3  24    0.53    0.15 
  -3  -3  24    0.39    0.20 
   3  -3 -24    0.55    0.19 
   3  -3 -24    0.34    0.14 
   3   3 -24    0.28    0.16 
  -3   3  24    0.69    0.15 
  -1  -3  24    1.65    0.28 
   1  -3 -24    1.88    0.27 
   1  -3 -24    1.52    0.22 
   1   3 -24    1.38    0.24 
  -1   3  24    1.64    0.22 
   1  -3  24    0.60    0.21 
  -1  -3 -24    0.43    0.17 
   1   3  24    0.73    0.17 
  -1   3 -24    0.61    0.19 
  -3  -3 -24    0.07    0.13 
   3  -3  24   -0.12    0.12 
   3   3  24    0.05    0.11 
  -3   3 -24   -0.25    0.10 
  -5  -3 -24   -0.08    0.13 
   5  -3  24    0.21    0.18 
  -5   3 -24   -0.06    0.13 
   5   3  24    0.09    0.14 
  -7  -3 -24    0.03    0.19 
  -7  -3 -24    0.25    0.24 
   7  -3  24    0.08    0.19 
  -7   3 -24   -0.06    0.16 
  -7   3 -24    0.04    0.17 
   9  -3  24    0.21    0.22 
  -9  -3 -24    0.07    0.24 
  -9  -3 -24    0.66    0.25 
  -9   3 -24    0.57    0.23 
  -9   3 -24    0.48    0.25 
 -11  -3 -24   -0.22    0.19 
  11  -3  24    0.42    0.24 
 -11  -3 -24    0.41    0.28 
 -11   3 -24    0.22    0.22 
 -11   3 -24    0.13    0.23 
 -14  -4  24    0.74    0.31 
  14   4 -24    0.89    0.29 
 -12  -4  24    0.44    0.25 
  12   4 -24    0.14    0.20 
 -10  -4  24    3.04    0.42 
  10   4 -24    3.27    0.39 
  -8  -4  24    0.98    0.26 
   8   4 -24    1.02    0.23 
  -6  -4  24    4.76    0.43 
   6  -4 -24    5.25    0.39 
   6   4 -24    4.64    0.37 
   4  -4 -24    3.09    0.32 
  -4  -4  24    3.38    0.38 
  -4   4  24    3.39    0.25 
   4   4 -24    3.59    0.33 
   2  -4 -24    0.43    0.19 
  -2  -4  24   -0.02    0.19 
  -2   4  24    0.22    0.12 
   2   4 -24    0.46    0.18 
   0  -4  24    0.77    0.22 
   0  -4 -24    0.41    0.18 
   0   4 -24    0.64    0.19 
   0   4  24    0.54    0.14 
   2  -4  24    0.73    0.23 
  -2  -4 -24    0.19    0.15 
  -2   4 -24    0.29    0.17 
   2   4  24    0.26    0.13 
   4  -4  24    1.33    0.29 
  -4  -4 -24    0.92    0.23 
  -4   4 -24    0.83    0.23 
   6  -4  24    1.28    0.32 
  -6  -4 -24    1.07    0.27 
  -6   4 -24    0.86    0.26 
  -8  -4 -24    2.05    0.42 
  -8  -4 -24    1.53    0.34 
   8  -4  24    1.52    0.35 
  -8   4 -24    1.75    0.34 
  -8   4 -24    1.73    0.33 
  10  -4  24   -0.03    0.18 
 -10  -4 -24    0.07    0.23 
 -10  -4 -24   -0.03    0.28 
 -10   4 -24   -0.16    0.18 
 -10   4 -24    0.31    0.24 
 -13  -5  24   -0.13    0.21 
 -11  -5  24    0.28    0.24 
  11   5 -24    0.38    0.21 
  -9  -5  24    0.33    0.21 
   9   5 -24    0.26    0.16 
  -7  -5  24    0.01    0.19 
   7  -5 -24    0.01    0.15 
   7   5 -24   -0.04    0.12 
   5  -5 -24    1.09    0.22 
  -5  -5  24    1.19    0.28 
   5   5 -24    1.05    0.22 
  -3  -5  24    3.41    0.40 
   3  -5 -24    3.86    0.36 
   3   5 -24    3.83    0.35 
   1  -5 -24    0.46    0.18 
  -1  -5  24    0.17    0.18 
   1   5 -24    0.37    0.16 
  -1  -5 -24    0.37    0.17 
   1  -5  24   -0.04    0.17 
  -1   5 -24   -0.11    0.13 
   3  -5  24    0.43    0.22 
  -3  -5 -24    0.18    0.17 
  -3   5 -24    0.02    0.14 
   5  -5  24    0.07    0.17 
  -5  -5 -24    0.17    0.17 
  -5   5 -24   -0.03    0.16 
   7  -5  24    0.02    0.20 
  -7  -5 -24    0.28    0.21 
  -7  -5 -24   -0.38    0.22 
  -7   5 -24    0.39    0.25 
  -7   5 -24    0.08    0.17 
   9  -5  24    0.38    0.25 
  -9  -5 -24    0.65    0.34 
  -9  -5 -24    0.28    0.27 
  -9   5 -24    0.57    0.25 
 -10  -6  24    0.60    0.26 
  -8  -6  24    0.29    0.21 
   6  -6 -24    0.96    0.22 
  -6  -6  24    1.19    0.29 
  -4  -6  24    7.27    0.54 
   4  -6 -24    6.18    0.44 
   4   6 -24    6.64    0.57 
  -2  -6  24   -0.05    0.18 
   2  -6 -24   -0.17    0.13 
   2   6 -24    0.09    0.16 
   0  -6 -24    0.44    0.17 
   0  -6  24    0.98    0.26 
   0   6 -24    0.40    0.28 
  -2  -6 -24   -0.21    0.12 
   2  -6  24    0.15    0.18 
   4  -6  24    0.37    0.24 
  -4  -6 -24    0.20    0.19 
   6  -6  24    0.02    0.19 
  -6  -6 -24    0.13    0.20 
  -6  -6 -24    0.04    0.24 
   8  -6  24   -0.08    0.20 
  -8  -6 -24    0.21    0.25 
  -8  -6 -24    0.33    0.30 
  -9  -7  24   -0.03    0.23 
  -7  -7  24    0.06    0.20 
   7  -7 -24    0.27    0.18 
   5  -7 -24    2.64    0.33 
  -5  -7  24    1.88    0.36 
   3  -7 -24    3.17    0.34 
  -3  -7  24    2.83    0.42 
   1  -7 -24    1.15    0.23 
  -1  -7  24    0.95    0.28 
  -1  -7 -24    0.45    0.18 
   1  -7  24    0.55    0.24 
   3  -7  24    0.64    0.26 
  -3  -7 -24    0.71    0.22 
  -5  -7 -24    0.35    0.28 
  -5  -7 -24   -0.03    0.20 
   5  -7  24    0.41    0.27 
  -6  -8  24   -0.23    0.20 
  -4  -8  24    1.77    0.36 
   4  -8 -24    1.87    0.28 
   2  -8 -24    0.20    0.16 
  -2  -8  24    0.03    0.19 
   0  -8 -24    0.67    0.19 
   0  -8  24    0.48    0.25 
   2  -8  24    0.36    0.26 
  -2  -8 -24    0.04    0.23 
  -2  -8 -24    0.32    0.18 
 -14   0  25    0.09    0.21 
 -12   0  25    0.20    0.20 
 -10   0  25   -0.28    0.16 
  10   0 -25    0.24    0.19 
   8   0 -25    0.17    0.15 
  -8   0  25   -0.05    0.14 
   6   0 -25    0.07    0.13 
  -6   0  25   -0.17    0.12 
  -4   0  25    0.52    0.19 
   2   0 -25    0.04    0.14 
  -2   0  25   -0.18    0.10 
   0   0 -25    0.05    0.12 
   0   0  25    0.13    0.12 
  -2   0 -25    0.09    0.13 
   2   0  25    0.14    0.13 
   4   0  25   -0.14    0.12 
  -4   0 -25   -0.25    0.12 
  -6   0 -25    0.11    0.19 
   6   0  25   -0.30    0.11 
   8   0  25   -0.06    0.16 
  -8   0 -25    0.07    0.20 
  -8   0 -25    0.26    0.20 
  10   0  25    0.13    0.21 
 -10   0 -25    0.31    0.25 
 -10   0 -25    0.07    0.23 
 -12   0 -25    0.20    0.27 
 -12   0 -25   -0.14    0.24 
 -15  -1  25    0.13    0.23 
 -15   1  25   -0.15    0.20 
 -13  -1  25    0.03    0.21 
 -13   1  25    0.24    0.21 
 -11  -1  25    0.57    0.22 
  11   1 -25    0.92    0.26 
 -11   1  25    0.50    0.21 
   9  -1 -25    0.05    0.16 
  -9  -1  25    0.01    0.18 
   9   1 -25    0.15    0.17 
  -9   1  25    0.11    0.16 
  -7  -1  25    0.19    0.15 
   7  -1 -25    0.39    0.18 
   7   1 -25    0.02    0.14 
  -7   1  25    0.03    0.14 
   5  -1 -25    2.12    0.28 
  -5  -1  25    1.62    0.26 
  -5   1  25    1.98    0.27 
   5   1 -25    1.41    0.23 
   3  -1 -25    2.72    0.31 
  -3  -1  25    3.61    0.37 
   3   1 -25    3.54    0.33 
  -3   1  25    3.93    0.33 
   1  -1 -25    0.33    0.17 
  -1  -1  25    0.33    0.17 
   1   1 -25    0.27    0.16 
  -1   1  25    0.24    0.14 
   1  -1  25    0.91    0.21 
  -1  -1 -25    1.07    0.21 
   1   1  25    0.85    0.19 
  -1   1 -25    1.15    0.23 
  -3  -1 -25    0.11    0.15 
   3  -1  25    0.12    0.15 
  -3   1 -25    0.03    0.14 
   3   1  25   -0.18    0.11 
  -5  -1 -25   -0.01    0.16 
   5  -1  25    0.12    0.17 
   5   1  25    0.12    0.16 
  -5   1 -25    0.30    0.19 
   7  -1  25    0.17    0.20 
  -7  -1 -25   -0.03    0.18 
   7   1  25    0.14    0.16 
  -7   1 -25    0.63    0.26 
  -9  -1 -25    0.00    0.21 
  -9  -1 -25    0.16    0.22 
   9  -1  25   -0.04    0.20 
  -9   1 -25    0.27    0.22 
   9   1  25    0.10    0.17 
  -9   1 -25    0.08    0.19 
  11  -1  25    0.09    0.22 
 -11  -1 -25   -0.29    0.21 
 -11  -1 -25   -0.05    0.21 
 -11   1 -25   -0.10    0.23 
 -11   1 -25    0.19    0.24 
 -14  -2  25    0.48    0.27 
 -12  -2  25    1.16    0.29 
  12   2 -25    1.41    0.33 
 -12   2  25    1.26    0.27 
 -10  -2  25    0.14    0.20 
  10   2 -25    0.51    0.21 
 -10   2  25    0.52    0.19 
  -8  -2  25    3.54    0.40 
   8  -2 -25    4.03    0.38 
  -8   2  25    4.07    0.35 
   8   2 -25    3.50    0.38 
   6  -2 -25    0.74    0.20 
  -6  -2  25    0.69    0.21 
  -6   2  25    0.40    0.16 
   6   2 -25    0.44    0.18 
  -4  -2  25    7.67    0.49 
   4  -2 -25    6.81    0.44 
  -4   2  25    6.92    0.41 
   4   2 -25    7.12    0.45 
   2  -2 -25   18.17    0.73 
  -2  -2  25   18.25    0.77 
  -2   2  25   18.21    0.70 
   2   2 -25   17.42    0.71 
   0  -2  25    7.38    0.50 
   0  -2 -25    7.63    0.45 
   0   2  25    6.63    0.42 
   0   2 -25    6.41    0.43 
  -2  -2 -25    2.61    0.31 
   2  -2  25    3.49    0.38 
   2   2  25    2.84    0.32 
  -2   2 -25    2.95    0.34 
  -4  -2 -25    1.15    0.25 
   4  -2  25    1.42    0.28 
  -4   2 -25    1.27    0.26 
   4   2  25    1.42    0.25 
   6  -2  25   -0.01    0.15 
  -6  -2 -25    0.06    0.16 
   6   2  25   -0.06    0.11 
  -6   2 -25   -0.09    0.14 
  -8  -2 -25    0.94    0.29 
   8  -2  25    0.98    0.29 
  -8  -2 -25    1.26    0.30 
  -8   2 -25    0.72    0.25 
  -8   2 -25    0.85    0.26 
  10  -2  25   -0.30    0.18 
 -10  -2 -25   -0.28    0.19 
 -10  -2 -25    0.06    0.23 
 -10   2 -25    0.18    0.21 
 -10   2 -25   -0.02    0.20 
 -12  -2 -25    0.11    0.27 
 -12  -2 -25    0.47    0.28 
 -12   2 -25    0.01    0.24 
 -12   2 -25   -0.13    0.22 
 -13  -3  25    0.40    0.25 
  13   3 -25    0.35    0.24 
 -11  -3  25    4.41    0.48 
  11   3 -25    4.92    0.46 
  -9  -3  25    0.21    0.19 
  -9   3  25   -0.07    0.12 
   9   3 -25    0.00    0.17 
  -7  -3  25    5.73    0.47 
   7  -3 -25    5.99    0.43 
   7   3 -25    5.68    0.43 
  -7   3  25    5.21    0.36 
  -5  -3  25    0.44    0.20 
   5  -3 -25    0.90    0.21 
  -5   3  25    1.32    0.22 
   5   3 -25    1.61    0.26 
   3  -3 -25    4.51    0.37 
  -3  -3  25    4.83    0.42 
  -3   3  25    4.07    0.31 
   3   3 -25    4.84    0.37 
  -1  -3  25   -0.08    0.13 
   1  -3 -25    0.01    0.15 
   1   3 -25    0.03    0.13 
  -1   3  25    0.09    0.11 
  -1  -3 -25    1.36    0.23 
   1  -3  25    1.45    0.26 
   1   3  25    1.68    0.24 
  -1   3 -25    1.54    0.25 
   3  -3  25    0.33    0.18 
  -3  -3 -25    0.26    0.17 
   3   3  25    0.07    0.12 
  -3   3 -25    0.43    0.19 
   5  -3  25   -0.08    0.15 
  -5  -3 -25    0.13    0.16 
  -5   3 -25   -0.06    0.13 
   5   3  25   -0.08    0.11 
  -7  -3 -25   -0.02    0.16 
  -7  -3 -25   -0.31    0.17 
   7  -3  25   -0.28    0.15 
  -7   3 -25   -0.18    0.16 
  -7   3 -25   -0.03    0.16 
  -9  -3 -25    0.22    0.22 
   9  -3  25    0.06    0.19 
  -9  -3 -25   -0.07    0.21 
  -9   3 -25    0.10    0.19 
  -9   3 -25    0.24    0.23 
  11  -3  25   -0.20    0.18 
 -11  -3 -25   -0.43    0.26 
 -11  -3 -25   -0.04    0.25 
 -11   3 -25   -0.19    0.21 
 -11   3 -25   -0.07    0.18 
 -14  -4  25    1.54    0.37 
 -12  -4  25    0.25    0.26 
  12   4 -25    0.59    0.26 
 -10  -4  25    3.91    0.45 
  10   4 -25    3.60    0.41 
   8  -4 -25   10.86    0.58 
  -8  -4  25   10.98    0.65 
   8   4 -25   10.46    0.59 
  -6  -4  25    0.03    0.19 
   6  -4 -25    0.07    0.16 
   6   4 -25    0.13    0.14 
  -4  -4  25    0.81    0.25 
   4  -4 -25    1.39    0.25 
   4   4 -25    1.23    0.24 
  -2  -4  25    2.01    0.32 
   2  -4 -25    2.05    0.28 
  -2   4  25    1.82    0.23 
   2   4 -25    1.84    0.27 
   0  -4  25    0.09    0.15 
   0  -4 -25    0.06    0.14 
   0   4  25    0.22    0.11 
   0   4 -25    0.20    0.15 
   2  -4  25    2.34    0.35 
  -2  -4 -25    2.02    0.28 
  -2   4 -25    2.18    0.31 
  -4  -4 -25    0.09    0.16 
   4  -4  25    0.23    0.21 
  -4   4 -25    0.37    0.18 
   6  -4  25    0.37    0.22 
  -6  -4 -25    0.13    0.18 
  -6   4 -25   -0.11    0.14 
  -8  -4 -25    0.21    0.22 
   8  -4  25    0.20    0.21 
  -8  -4 -25    0.15    0.25 
  -8   4 -25    0.58    0.24 
  -8   4 -25    0.28    0.21 
  10  -4  25    0.13    0.21 
 -10  -4 -25    0.10    0.28 
 -10  -4 -25   -0.18    0.20 
 -10   4 -25   -0.20    0.19 
 -10   4 -25    0.20    0.21 
 -11  -5  25    1.46    0.35 
  11   5 -25    1.23    0.35 
  -9  -5  25    1.60    0.35 
   9   5 -25    1.13    0.25 
   7  -5 -25    0.01    0.16 
  -7  -5  25    0.27    0.21 
   7   5 -25    0.03    0.13 
   5  -5 -25    0.85    0.22 
  -5  -5  25    1.25    0.28 
   5   5 -25    0.30    0.15 
   3  -5 -25   11.29    0.58 
  -3  -5  25   12.02    0.69 
   3   5 -25   11.33    0.58 
   1  -5 -25    0.04    0.16 
  -1  -5  25   -0.03    0.17 
   1   5 -25    0.05    0.15 
  -1  -5 -25    6.65    0.45 
   1  -5  25    6.61    0.52 
  -1   5 -25    6.12    0.45 
  -3  -5 -25   -0.15    0.15 
   3  -5  25    0.30    0.21 
  -3   5 -25    0.12    0.15 
  -5  -5 -25    0.09    0.18 
   5  -5  25   -0.13    0.18 
  -5   5 -25   -0.11    0.15 
   7  -5  25    0.20    0.22 
  -7  -5 -25    0.33    0.22 
  -7  -5 -25    0.19    0.26 
  -7   5 -25    0.19    0.18 
  -9  -5 -25   -0.04    0.23 
  -9  -5 -25    0.51    0.31 
   9  -5  25    0.16    0.22 
  -9   5 -25    0.07    0.20 
 -10  -6  25   -0.11    0.22 
  -8  -6  25    1.62    0.34 
   8  -6 -25    1.29    0.26 
   6  -6 -25    0.67    0.21 
  -6  -6  25    0.39    0.23 
   4  -6 -25    0.00    0.15 
  -4  -6  25    0.20    0.20 
  -2  -6  25    0.89    0.26 
   2  -6 -25    0.88    0.23 
   0  -6 -25    0.77    0.21 
   0  -6  25    0.64    0.24 
  -2  -6 -25    0.26    0.18 
   2  -6  25    0.25    0.20 
  -4  -6 -25    0.66    0.22 
   4  -6  25    0.51    0.24 
   6  -6  25    0.23    0.25 
  -6  -6 -25    0.09    0.21 
  -6  -6 -25   -0.14    0.24 
  -8  -6 -25    0.27    0.26 
   8  -6  25   -0.11    0.20 
   7  -7 -25    0.08    0.16 
  -7  -7  25   -0.08    0.20 
  -5  -7  25    0.92    0.29 
   5  -7 -25    0.43    0.21 
   3  -7 -25    0.26    0.17 
  -3  -7  25    0.42    0.25 
   1  -7 -25   -0.07    0.14 
  -1  -7  25    0.10    0.20 
  -1  -7 -25    0.02    0.16 
   1  -7  25    0.39    0.26 
   3  -7  25   -0.04    0.20 
  -3  -7 -25    0.20    0.19 
   5  -7  25    0.19    0.25 
  -5  -7 -25    0.22    0.29 
  -5  -7 -25   -0.05    0.21 
   4  -8 -25    1.03    0.23 
  -4  -8  25    1.51    0.37 
  -2  -8  25    0.19    0.22 
   2  -8 -25    0.09    0.15 
   0  -8  25   -0.04    0.21 
   0  -8 -25    0.14    0.15 
 -14   0  26    0.30    0.23 
 -12   0  26    0.08    0.20 
  10   0 -26    1.77    0.30 
 -10   0  26    1.99    0.33 
  -8   0  26    5.60    0.43 
   8   0 -26    6.19    0.44 
   6   0 -26    0.24    0.15 
  -6   0  26   -0.04    0.12 
   4   0 -26    0.35    0.16 
  -4   0  26    0.29    0.17 
  -2   0  26    3.38    0.37 
   2   0 -26    3.52    0.33 
   0   0 -26    0.13    0.14 
   0   0  26    0.42    0.16 
   2   0  26   13.44    0.65 
  -2   0 -26   13.00    0.64 
   4   0  26    0.34    0.18 
  -4   0 -26    0.48    0.21 
  -6   0 -26    0.77    0.24 
   6   0  26    0.68    0.23 
   8   0  26    3.14    0.45 
  -8   0 -26    2.06    0.38 
  -8   0 -26    2.79    0.42 
  10   0  26    0.09    0.20 
 -10   0 -26    0.40    0.25 
 -10   0 -26    0.25    0.25 
 -12   0 -26    0.37    0.29 
 -12   0 -26   -0.03    0.24 
 -15  -1  26   -0.31    0.22 
 -13  -1  26    2.43    0.37 
 -13   1  26    1.99    0.33 
 -11  -1  26    1.74    0.32 
 -11   1  26    1.51    0.28 
  11   1 -26    0.98    0.27 
  -9  -1  26   -0.02    0.18 
   9  -1 -26   -0.21    0.14 
  -9   1  26    0.33    0.17 
   9   1 -26    0.11    0.16 
  -7  -1  26    0.90    0.23 
   7  -1 -26    1.33    0.24 
  -7   1  26    1.09    0.23 
   7   1 -26    0.99    0.23 
  -5  -1  26    0.34    0.18 
   5  -1 -26    0.07    0.12 
   5   1 -26    0.51    0.17 
  -5   1  26   -0.14    0.11 
  -3  -1  26    2.15    0.31 
   3  -1 -26    2.13    0.28 
  -3   1  26    2.31    0.29 
   3   1 -26    2.44    0.30 
  -1  -1  26    0.49    0.18 
   1  -1 -26    1.34    0.25 
  -1   1  26    1.21    0.21 
   1   1 -26    1.16    0.22 
  -1  -1 -26    6.61    0.44 
   1  -1  26    6.97    0.47 
  -1   1 -26    6.26    0.43 
   1   1  26    5.51    0.40 
   3  -1  26    0.22    0.17 
  -3  -1 -26    0.45    0.20 
  -3   1 -26    0.18    0.18 
   3   1  26    0.27    0.16 
   5  -1  26    3.09    0.42 
  -5  -1 -26    2.35    0.35 
  -5   1 -26    2.67    0.38 
   5   1  26    1.96    0.32 
   7  -1  26    1.83    0.37 
  -7  -1 -26    1.22    0.30 
  -7   1 -26    1.40    0.32 
   7   1  26    1.07    0.27 
   9  -1  26    0.39    0.26 
  -9  -1 -26    0.75    0.29 
  -9  -1 -26    0.92    0.32 
  -9   1 -26    0.54    0.27 
  -9   1 -26    0.78    0.29 
   9   1  26    0.16    0.19 
  11  -1  26    0.17    0.24 
 -11  -1 -26   -0.03    0.23 
 -11  -1 -26   -0.13    0.19 
 -11   1 -26    0.31    0.28 
 -11   1 -26    0.01    0.25 
 -14  -2  26    0.02    0.25 
  14   2 -26   -0.18    0.20 
 -12  -2  26    0.78    0.26 
 -12   2  26    0.36    0.21 
  12   2 -26    0.72    0.27 
 -10  -2  26    4.58    0.48 
 -10   2  26    4.33    0.40 
  10   2 -26    4.54    0.46 
   8  -2 -26    2.47    0.32 
  -8  -2  26    3.12    0.39 
  -8   2  26    3.44    0.35 
   8   2 -26    2.99    0.36 
  -6  -2  26    0.73    0.24 
   6  -2 -26    0.89    0.22 
   6   2 -26    0.84    0.21 
  -6   2  26    0.88    0.21 
  -4  -2  26    0.20    0.16 
   4  -2 -26    0.79    0.21 
  -4   2  26    0.69    0.17 
   4   2 -26    0.50    0.17 
   2  -2 -26    2.03    0.29 
  -2  -2  26    2.32    0.30 
   2   2 -26    2.55    0.30 
  -2   2  26    2.56    0.29 
   0  -2  26    1.71    0.29 
   0  -2 -26    1.79    0.26 
   0   2  26    1.46    0.22 
   0   2 -26    2.04    0.29 
   2  -2  26    2.61    0.35 
  -2  -2 -26    1.34    0.25 
  -2   2 -26    1.92    0.29 
   2   2  26    1.73    0.26 
   4  -2  26   -0.10    0.14 
  -4  -2 -26   -0.01    0.15 
   4   2  26   -0.01    0.11 
  -4   2 -26    0.05    0.17 
  -6  -2 -26    0.68    0.24 
   6  -2  26    0.18    0.20 
  -6   2 -26    0.43    0.21 
   6   2  26    0.24    0.16 
   8  -2  26    0.39    0.24 
  -8  -2 -26    0.28    0.21 
  -8  -2 -26    0.15    0.23 
  -8   2 -26    0.13    0.22 
  -8   2 -26    0.33    0.23 
  10  -2  26   -0.25    0.18 
 -10  -2 -26   -0.07    0.22 
 -10  -2 -26    0.72    0.28 
 -10   2 -26    0.14    0.22 
 -10   2 -26   -0.25    0.18 
 -13  -3  26    0.55    0.29 
  13   3 -26    0.92    0.27 
 -11  -3  26    0.41    0.24 
  11   3 -26   -0.02    0.18 
  -9  -3  26   -0.03    0.20 
   9   3 -26    0.04    0.17 
  -7  -3  26    0.39    0.22 
   7  -3 -26    0.38    0.19 
   7   3 -26    0.34    0.18 
  -7   3  26    0.04    0.12 
  -5  -3  26    0.00    0.16 
   5  -3 -26    0.01    0.14 
   5   3 -26   -0.06    0.11 
  -5   3  26    0.02    0.10 
   3  -3 -26   -0.02    0.13 
  -3  -3  26    0.00    0.16 
  -3   3  26   -0.05    0.09 
   3   3 -26    0.07    0.13 
   1  -3 -26    0.20    0.16 
  -1  -3  26    0.10    0.17 
   1   3 -26    0.40    0.18 
  -1   3  26    0.18    0.12 
   1  -3  26    2.77    0.36 
  -1  -3 -26    3.28    0.37 
  -1   3 -26    2.83    0.33 
   1   3  26    2.76    0.32 
   3  -3  26    0.15    0.18 
  -3  -3 -26    0.01    0.15 
   3   3  26   -0.10    0.10 
  -3   3 -26   -0.01    0.14 
   5  -3  26    0.57    0.24 
  -5  -3 -26    0.62    0.21 
  -5   3 -26    0.55    0.22 
   5   3  26    0.55    0.18 
  -7  -3 -26   -0.13    0.21 
  -7  -3 -26    0.04    0.19 
   7  -3  26   -0.11    0.15 
  -7   3 -26   -0.08    0.16 
  -7   3 -26   -0.15    0.14 
   9  -3  26    0.28    0.24 
  -9  -3 -26    0.37    0.26 
  -9  -3 -26    0.98    0.37 
  -9   3 -26    0.83    0.28 
  -9   3 -26    0.72    0.28 
  11  -3  26    0.28    0.24 
 -11  -3 -26    0.03    0.26 
 -11  -3 -26    0.09    0.31 
 -11   3 -26   -0.35    0.20 
 -11   3 -26   -0.03    0.21 
 -12  -4  26    0.37    0.26 
  12   4 -26    0.29    0.22 
 -10  -4  26    1.44    0.33 
  10   4 -26    0.61    0.23 
  -8  -4  26    3.39    0.42 
   8  -4 -26    2.72    0.35 
   8   4 -26    3.41    0.40 
  -6  -4  26    0.00    0.18 
   6  -4 -26    0.42    0.19 
   6   4 -26   -0.24    0.10 
   4  -4 -26    6.77    0.46 
  -4  -4  26    6.97    0.53 
   4   4 -26    6.48    0.44 
   2  -4 -26   -0.07    0.14 
  -2  -4  26   -0.01    0.17 
   2   4 -26    0.36    0.16 
   0  -4  26    1.08    0.27 
   0  -4 -26    0.98    0.22 
   0   4 -26    1.29    0.24 
   2  -4  26    0.78    0.25 
  -2  -4 -26    0.97    0.22 
  -2   4 -26    0.73    0.21 
   4  -4  26    0.06    0.18 
  -4  -4 -26   -0.05    0.15 
  -4   4 -26    0.01    0.15 
   6  -4  26   -0.05    0.18 
  -6  -4 -26    0.11    0.19 
  -6   4 -26    0.18    0.19 
  -8  -4 -26    0.17    0.22 
   8  -4  26   -0.04    0.19 
  -8  -4 -26   -0.19    0.21 
  -8   4 -26    0.03    0.19 
  -8   4 -26   -0.09    0.16 
  10  -4  26   -0.08    0.21 
 -10  -4 -26    0.25    0.27 
 -10  -4 -26   -0.06    0.25 
 -10   4 -26   -0.04    0.20 
 -10   4 -26    0.12    0.25 
 -11  -5  26    0.43    0.24 
  -9  -5  26    0.45    0.25 
   9   5 -26    0.97    0.23 
  -7  -5  26    0.34    0.23 
   7  -5 -26    0.20    0.18 
   7   5 -26    0.31    0.16 
   5  -5 -26    1.24    0.25 
  -5  -5  26    1.29    0.31 
   5   5 -26    0.59    0.20 
  -3  -5  26    0.45    0.22 
   3  -5 -26    0.53    0.20 
   3   5 -26    0.54    0.19 
  -1  -5  26   -0.07    0.17 
   1  -5 -26    0.00    0.14 
   1   5 -26    0.10    0.14 
   1  -5  26    0.42    0.21 
  -1  -5 -26    0.11    0.15 
  -1   5 -26   -0.07    0.13 
   3  -5  26    0.15    0.19 
  -3  -5 -26   -0.12    0.15 
  -3   5 -26    0.09    0.15 
  -5  -5 -26   -0.03    0.17 
   5  -5  26    0.03    0.17 
  -5   5 -26   -0.22    0.14 
  -7  -5 -26    0.12    0.22 
   7  -5  26    0.03    0.20 
  -7  -5 -26    0.07    0.25 
  -7   5 -26    0.24    0.17 
  -9  -5 -26    0.00    0.26 
 -10  -6  26   -0.31    0.20 
   8  -6 -26    0.23    0.19 
  -8  -6  26    0.12    0.22 
  -6  -6  26    0.32    0.23 
   6  -6 -26    0.28    0.19 
   4  -6 -26    1.73    0.29 
  -4  -6  26    1.34    0.30 
  -2  -6  26    0.07    0.19 
   2  -6 -26   -0.19    0.13 
   0  -6 -26    0.05    0.14 
   0  -6  26    0.17    0.19 
   2  -6  26   -0.02    0.17 
  -2  -6 -26    0.17    0.17 
  -4  -6 -26    0.18    0.19 
   4  -6  26    0.20    0.22 
   6  -6  26    0.16    0.21 
  -6  -6 -26    0.31    0.29 
  -6  -6 -26    0.11    0.22 
  -7  -7  26    0.33    0.23 
   7  -7 -26    0.25    0.20 
  -5  -7  26    0.26    0.24 
   5  -7 -26    0.93    0.24 
   3  -7 -26   -0.40    0.14 
  -3  -7  26    0.04    0.23 
  -1  -7  26    1.59    0.34 
   1  -7 -26    1.46    0.27 
  -1  -7 -26    1.19    0.25 
   1  -7  26    1.04    0.29 
  -3  -7 -26    1.21    0.28 
   3  -7  26    1.22    0.34 
 -14   0  27   -0.09    0.20 
 -12   0  27   -0.54    0.16 
 -10   0  27   -0.07    0.16 
  10   0 -27   -0.07    0.16 
   8   0 -27    0.14    0.15 
  -8   0  27    0.01    0.15 
   6   0 -27   -0.02    0.13 
  -6   0  27    0.01    0.13 
   4   0 -27    0.12    0.14 
  -4   0  27    0.13    0.14 
   2   0 -27    0.48    0.18 
  -2   0  27    0.26    0.14 
   0   0  27   -0.07    0.11 
   0   0 -27    0.03    0.14 
  -2   0 -27    0.26    0.16 
   2   0  27    0.02    0.13 
   4   0  27   -0.19    0.13 
  -4   0 -27   -0.03    0.15 
   6   0  27    0.14    0.18 
  -6   0 -27    0.01    0.18 
  -8   0 -27    0.16    0.19 
   8   0  27   -0.04    0.19 
  -8   0 -27   -0.20    0.18 
 -10   0 -27    0.17    0.23 
  10   0  27    0.05    0.21 
 -10   0 -27    0.04    0.22 
 -13  -1  27    0.18    0.21 
 -13   1  27   -0.07    0.19 
  13   1 -27   -0.36    0.18 
 -11  -1  27    0.12    0.21 
  11   1 -27    0.17    0.20 
 -11   1  27    0.09    0.18 
  -9  -1  27    0.65    0.23 
   9  -1 -27    1.17    0.27 
  -9   1  27    0.27    0.19 
   9   1 -27    0.79    0.24 
  -7  -1  27   -0.15    0.15 
   7  -1 -27    0.37    0.18 
  -7   1  27    0.19    0.15 
   7   1 -27   -0.03    0.14 
  -5  -1  27   -0.16    0.13 
   5  -1 -27    0.02    0.13 
   5   1 -27    0.13    0.13 
  -5   1  27    0.27    0.15 
   3  -1 -27    0.33    0.16 
  -3  -1  27    0.24    0.14 
  -3   1  27   -0.09    0.10 
   3   1 -27    0.16    0.15 
  -1  -1  27    0.05    0.14 
   1  -1 -27    0.10    0.14 
   1   1 -27    0.53    0.18 
  -1   1  27    0.09    0.12 
  -1  -1 -27    2.19    0.32 
   1  -1  27    2.08    0.31 
  -1   1 -27    1.96    0.31 
   1   1  27    2.08    0.30 
  -3  -1 -27    0.79    0.23 
   3  -1  27    1.53    0.31 
  -3   1 -27    1.17    0.26 
   3   1  27    1.54    0.28 
  -5  -1 -27   -0.08    0.17 
   5  -1  27    0.00    0.16 
   5   1  27    0.09    0.14 
  -5   1 -27   -0.04    0.18 
  -7  -1 -27   -0.23    0.14 
   7  -1  27   -0.08    0.18 
  -7   1 -27    0.26    0.21 
   7   1  27   -0.06    0.16 
   9  -1  27   -0.03    0.18 
  -9  -1 -27   -0.22    0.18 
  -9  -1 -27    0.06    0.24 
   9   1  27    0.26    0.22 
  -9   1 -27    0.06    0.18 
  -9   1 -27    0.05    0.20 
  11  -1  27    0.01    0.21 
 -11  -1 -27   -0.21    0.21 
 -11  -1 -27   -0.31    0.20 
 -11   1 -27    0.24    0.26 
 -11   1 -27    0.02    0.23 
 -14  -2  27    0.39    0.26 
  14   2 -27    0.13    0.22 
 -12  -2  27    0.86    0.28 
  12   2 -27    0.09    0.20 
 -10  -2  27    3.40    0.42 
  10  -2 -27    2.73    0.38 
  10   2 -27    2.47    0.36 
 -10   2  27    2.56    0.35 
  -8  -2  27    0.27    0.19 
   8  -2 -27    0.16    0.16 
   8   2 -27    0.27    0.18 
  -8   2  27    0.06    0.14 
  -6  -2  27    4.23    0.44 
   6  -2 -27    4.69    0.40 
  -6   2  27    4.48    0.35 
   6   2 -27    4.75    0.40 
  -4  -2  27    3.85    0.40 
   4  -2 -27    4.25    0.37 
  -4   2  27    3.84    0.33 
   4   2 -27    3.95    0.36 
   2  -2 -27    3.80    0.36 
  -2  -2  27    4.58    0.41 
  -2   2  27    3.32    0.31 
   2   2 -27    4.10    0.41 
   0  -2  27    5.78    0.46 
   0  -2 -27    5.30    0.41 
   0   2 -27    6.25    0.45 
   0   2  27    5.78    0.40 
  -2  -2 -27    0.21    0.16 
   2  -2  27    0.57    0.22 
  -2   2 -27    0.30    0.17 
   2   2  27    0.32    0.15 
  -4  -2 -27    0.03    0.15 
   4  -2  27    0.07    0.16 
   4   2  27   -0.10    0.11 
  -4   2 -27   -0.04    0.14 
  -6  -2 -27    0.70    0.25 
   6  -2  27    0.20    0.21 
  -6   2 -27    0.44    0.23 
   6   2  27    0.22    0.15 
  -8  -2 -27    0.96    0.32 
   8  -2  27    1.28    0.33 
  -8  -2 -27    1.69    0.35 
  -8   2 -27    1.39    0.32 
  -8   2 -27    1.37    0.32 
 -10  -2 -27   -0.07    0.26 
  10  -2  27   -0.01    0.20 
 -10  -2 -27   -0.04    0.21 
 -10   2 -27    0.04    0.23 
 -10   2 -27    0.31    0.24 
 -13  -3  27   -0.11    0.25 
  13   3 -27    0.25    0.24 
 -11  -3  27    2.14    0.38 
  11   3 -27    2.33    0.37 
   9  -3 -27    3.02    0.38 
  -9  -3  27    2.45    0.37 
   9   3 -27    1.95    0.34 
  -7  -3  27    1.07    0.26 
   7  -3 -27    0.58    0.21 
   7   3 -27    0.75    0.23 
  -7   3  27    0.68    0.18 
   5  -3 -27    0.11    0.17 
  -5  -3  27   -0.01    0.18 
  -5   3  27    0.16    0.12 
   5   3 -27    0.16    0.16 
  -3  -3  27    0.20    0.19 
   3  -3 -27    0.27    0.16 
   3   3 -27    0.16    0.13 
  -3   3  27    0.05    0.10 
  -1  -3  27    1.40    0.28 
   1  -3 -27    1.75    0.27 
   1   3 -27    1.70    0.28 
  -1   3  27    1.52    0.23 
  -1  -3 -27    1.00    0.23 
   1  -3  27    1.23    0.27 
  -1   3 -27    1.10    0.26 
   1   3  27    1.13    0.22 
   3  -3  27    1.38    0.30 
  -3  -3 -27    1.28    0.28 
   3   3  27    1.17    0.23 
  -3   3 -27    1.04    0.25 
   5  -3  27    0.64    0.24 
  -5  -3 -27    0.68    0.24 
   5   3  27    0.62    0.17 
  -5   3 -27    0.77    0.23 
   7  -3  27    0.10    0.21 
  -7  -3 -27    0.24    0.23 
  -7  -3 -27    0.20    0.20 
  -7   3 -27    0.11    0.17 
  -7   3 -27   -0.14    0.16 
   9  -3  27   -0.04    0.21 
  -9  -3 -27    0.31    0.25 
  -9  -3 -27    0.25    0.26 
  -9   3 -27    0.52    0.25 
  -9   3 -27    0.13    0.20 
 -12  -4  27    1.89    0.37 
  12   4 -27    1.54    0.32 
 -10  -4  27    0.25    0.25 
  10   4 -27    0.22    0.21 
   8  -4 -27    0.87    0.23 
  -8  -4  27    1.33    0.31 
   8   4 -27    0.52    0.21 
   6  -4 -27    0.23    0.18 
  -6  -4  27    0.20    0.22 
   6   4 -27    0.22    0.17 
   4  -4 -27    0.38    0.21 
  -4  -4  27    0.23    0.20 
   4   4 -27    0.66    0.19 
   2  -4 -27    4.17    0.41 
  -2  -4  27    2.51    0.36 
   2   4 -27    3.29    0.37 
   0  -4 -27    1.89    0.30 
   0  -4  27    1.57    0.31 
   0   4 -27    1.83    0.28 
  -2  -4 -27    0.49    0.19 
   2  -4  27    0.48    0.22 
  -2   4 -27    0.46    0.21 
   4  -4  27    0.43    0.21 
  -4  -4 -27   -0.04    0.16 
  -4   4 -27    0.33    0.18 
   6  -4  27    0.08    0.18 
  -6  -4 -27    0.20    0.20 
  -6   4 -27    0.74    0.26 
   8  -4  27    1.01    0.34 
  -8  -4 -27    0.63    0.26 
  -8  -4 -27    0.54    0.33 
  -8   4 -27    1.11    0.33 
  -8   4 -27    1.13    0.29 
 -11  -5  27   -0.08    0.23 
  -9  -5  27    2.01    0.38 
   9  -5 -27    1.83    0.32 
   9   5 -27    1.32    0.28 
   7  -5 -27    0.98    0.24 
  -7  -5  27    1.10    0.32 
   7   5 -27    1.09    0.24 
   5  -5 -27    0.32    0.19 
  -5  -5  27   -0.19    0.17 
   5   5 -27   -0.05    0.12 
   3  -5 -27    5.55    0.44 
  -3  -5  27    5.49    0.57 
   3   5 -27    6.25    0.45 
   1  -5 -27    0.09    0.17 
  -1  -5  27    0.01    0.20 
   1   5 -27    0.20    0.16 
   1  -5  27    1.24    0.31 
  -1  -5 -27    0.77    0.22 
  -1   5 -27    0.56    0.21 
  -3  -5 -27    2.05    0.33 
   3  -5  27    1.92    0.36 
  -3   5 -27    2.49    0.36 
  -5  -5 -27    0.42    0.23 
   5  -5  27    0.93    0.29 
  -5   5 -27    0.39    0.21 
  -7  -5 -27    0.40    0.25 
  -7  -5 -27    0.27    0.28 
   7  -5  27    0.45    0.27 
  -7   5 -27    0.26    0.18 
 -10  -6  27    0.03    0.24 
   8  -6 -27    0.10    0.17 
  -8  -6  27   -0.30    0.19 
   6  -6 -27    0.46    0.22 
  -6  -6  27    0.12    0.21 
  -4  -6  27    3.33    0.45 
   4  -6 -27    2.84    0.35 
  -2  -6  27    0.89    0.27 
   2  -6 -27    0.79    0.22 
   0  -6  27    0.85    0.27 
   0  -6 -27    1.03    0.25 
  -2  -6 -27    0.28    0.20 
   2  -6  27   -0.14    0.17 
  -4  -6 -27    0.66    0.24 
   4  -6  27    1.06    0.31 
  -6  -6 -27    0.34    0.26 
   6  -6  27    0.03    0.21 
  -6  -6 -27    0.39    0.25 
  -7  -7  27    0.36    0.27 
   5  -7 -27    0.73    0.24 
  -5  -7  27    0.19    0.23 
  -3  -7  27    0.60    0.29 
   3  -7 -27    0.67    0.23 
   1  -7 -27    0.06    0.16 
  -1  -7  27    0.02    0.21 
  -1  -7 -27    0.08    0.17 
   1  -7  27    0.58    0.28 
   3  -7  27    0.98    0.36 
  -3  -7 -27    0.85    0.25 
 -14   0  28    0.66    0.28 
 -12   0  28    0.23    0.22 
  12   0 -28    0.91    0.27 
 -10   0  28    0.23    0.20 
  10   0 -28   -0.13    0.16 
  -8   0  28    6.62    0.50 
   8   0 -28    7.00    0.50 
  -6   0  28    0.64    0.21 
   6   0 -28    0.89    0.23 
   4   0 -28    1.16    0.24 
  -4   0  28    1.24    0.23 
   2   0 -28   23.91    0.90 
  -2   0  28   22.21    0.88 
   0   0 -28    3.15    0.35 
   0   0  28    4.08    0.37 
  -2   0 -28    5.88    0.45 
   2   0  28    5.85    0.46 
   4   0  28    0.89    0.27 
  -4   0 -28    0.27    0.21 
   6   0  28   -0.07    0.14 
  -6   0 -28   -0.01    0.16 
  -8   0 -28    0.02    0.18 
  -8   0 -28   -0.23    0.15 
   8   0  28   -0.04    0.19 
 -10   0 -28   -0.01    0.22 
 -10   0 -28    0.06    0.22 
  10   0  28   -0.17    0.20 
 -13  -1  28    0.03    0.24 
  13   1 -28   -0.20    0.20 
 -13   1  28   -0.16    0.19 
  11  -1 -28    1.10    0.28 
 -11  -1  28    1.40    0.32 
 -11   1  28    1.59    0.32 
  11   1 -28    1.00    0.27 
  -9  -1  28    1.61    0.32 
   9  -1 -28    0.80    0.24 
   9   1 -28    1.19    0.27 
  -9   1  28    1.48    0.30 
  -7  -1  28    0.15    0.19 
   7  -1 -28    0.18    0.16 
   7   1 -28    0.46    0.19 
  -7   1  28    0.57    0.19 
  -5  -1  28    0.13    0.15 
   5  -1 -28    0.28    0.17 
   5   1 -28    0.22    0.17 
  -5   1  28    0.08    0.12 
   3  -1 -28   11.47    0.59 
  -3  -1  28   11.32    0.61 
   3   1 -28   11.76    0.60 
  -3   1  28   11.05    0.58 
   1  -1 -28    0.11    0.14 
  -1  -1  28    0.19    0.15 
   1   1 -28    0.10    0.15 
  -1   1  28    0.05    0.12 
   1  -1  28    9.16    0.57 
  -1  -1 -28    9.59    0.56 
   1   1  28    8.84    0.53 
  -1   1 -28    7.91    0.53 
   3  -1  28    1.42    0.30 
  -3  -1 -28    1.73    0.30 
  -3   1 -28    1.90    0.32 
   3   1  28    1.21    0.25 
  -5  -1 -28    0.49    0.24 
   5  -1  28    0.39    0.22 
  -5   1 -28    0.38    0.23 
   5   1  28    0.22    0.18 
   7  -1  28    0.08    0.19 
  -7  -1 -28    0.31    0.22 
   7   1  28    0.11    0.18 
  -7   1 -28   -0.05    0.22 
   9  -1  28    0.13    0.23 
  -9  -1 -28    0.26    0.23 
  -9  -1 -28    0.18    0.24 
   9   1  28   -0.04    0.21 
  -9   1 -28    0.74    0.31 
  -9   1 -28    0.12    0.23 
 -14  -2  28    1.08    0.33 
  14   2 -28    0.92    0.31 
 -12  -2  28    0.50    0.26 
  12   2 -28    0.09    0.20 
  10  -2 -28    2.28    0.35 
 -10  -2  28    2.33    0.37 
 -10   2  28    2.24    0.33 
  10   2 -28    1.74    0.32 
  -8  -2  28    4.05    0.47 
   8  -2 -28    3.31    0.39 
  -8   2  28    3.66    0.39 
   8   2 -28    3.42    0.41 
  -6  -2  28    1.01    0.25 
   6  -2 -28    0.73    0.23 
   6   2 -28    1.15    0.26 
  -6   2  28    0.83    0.19 
   4  -2 -28   -0.08    0.12 
  -4  -2  28   -0.25    0.14 
   4   2 -28    0.03    0.14 
  -4   2  28   -0.07    0.11 
   2  -2 -28    3.87    0.37 
  -2  -2  28    4.54    0.41 
   2   2 -28    4.09    0.37 
  -2   2  28    4.50    0.35 
   0  -2 -28    0.11    0.15 
   0  -2  28   -0.04    0.16 
   0   2 -28    0.26    0.17 
   0   2  28    0.23    0.12 
  -2  -2 -28    0.66    0.21 
   2  -2  28    0.58    0.21 
   2   2  28    0.40    0.16 
  -2   2 -28    0.90    0.23 
  -4  -2 -28    0.41    0.22 
   4  -2  28    0.35    0.20 
   4   2  28    0.14    0.15 
  -4   2 -28    0.09    0.18 
  -6  -2 -28    0.36    0.23 
   6  -2  28    0.30    0.21 
   6   2  28    0.16    0.17 
  -6   2 -28    0.15    0.19 
  -8  -2 -28    0.02    0.22 
  -8  -2 -28    0.42    0.25 
   8  -2  28    0.29    0.22 
  -8   2 -28    0.14    0.23 
  -8   2 -28    0.42    0.26 
 -10  -2 -28    0.04    0.21 
 -10  -2 -28    0.24    0.24 
  10  -2  28   -0.13    0.20 
 -10   2 -28    0.11    0.22 
 -10   2 -28   -0.17    0.22 
 -13  -3  28   -0.02    0.24 
  13   3 -28    0.10    0.23 
 -11  -3  28    0.19    0.25 
  11   3 -28    0.27    0.23 
   9  -3 -28    0.15    0.19 
  -9  -3  28    0.07    0.21 
   9   3 -28    0.10    0.19 
   7  -3 -28    0.06    0.18 
  -7  -3  28   -0.02    0.19 
   7   3 -28    0.28    0.18 
  -5  -3  28    0.34    0.20 
   5  -3 -28    0.00    0.15 
  -5   3  28    0.01    0.10 
   5   3 -28   -0.16    0.14 
  -3  -3  28    5.12    0.52 
   3  -3 -28    5.35    0.41 
  -3   3  28    4.71    0.35 
   3   3 -28    4.58    0.39 
   1  -3 -28    0.54    0.20 
  -1  -3  28    0.45    0.21 
  -1   3  28    0.53    0.15 
   1   3 -28    0.75    0.21 
  -1  -3 -28    0.35    0.19 
   1  -3  28    0.42    0.19 
   1   3  28   -0.01    0.11 
  -1   3 -28    0.59    0.20 
   3  -3  28    0.01    0.19 
  -3  -3 -28    0.21    0.17 
  -3   3 -28   -0.04    0.16 
   3   3  28    0.11    0.12 
  -5  -3 -28    0.51    0.23 
   5  -3  28    0.23    0.22 
  -5   3 -28    0.70    0.24 
  -7  -3 -28    0.05    0.19 
   7  -3  28    0.07    0.22 
  -7  -3 -28    0.18    0.22 
  -7   3 -28   -0.05    0.15 
  -7   3 -28    0.01    0.20 
  -9  -3 -28    0.20    0.30 
  -9  -3 -28    0.23    0.25 
   9  -3  28    0.09    0.24 
  -9   3 -28   -0.06    0.20 
  -9   3 -28    0.40    0.24 
 -12  -4  28    0.87    0.32 
  12   4 -28    0.49    0.24 
  10  -4 -28    0.42    0.23 
 -10  -4  28    0.42    0.25 
  10   4 -28    0.50    0.22 
  -8  -4  28    1.92    0.36 
   8  -4 -28    2.00    0.32 
   8   4 -28    2.26    0.36 
  -6  -4  28    0.00    0.20 
   6  -4 -28    0.11    0.18 
   6   4 -28    0.31    0.18 
  -4  -4  28    0.30    0.20 
   4  -4 -28    0.60    0.21 
   4   4 -28    0.56    0.21 
  -2  -4  28    2.21    0.35 
   2  -4 -28    2.07    0.30 
   2   4 -28    2.24    0.33 
   0  -4 -28    0.68    0.22 
   0  -4  28    0.29    0.20 
   0   4 -28    0.23    0.17 
   2  -4  28    0.47    0.23 
  -2  -4 -28    0.11    0.16 
  -2   4 -28    0.03    0.16 
  -4  -4 -28    0.53    0.23 
   4  -4  28    0.71    0.24 
  -4   4 -28    0.39    0.19 
   6  -4  28    0.01    0.20 
  -6  -4 -28    0.01    0.19 
  -6   4 -28   -0.07    0.17 
  -8  -4 -28    0.23    0.29 
  -8  -4 -28    0.28    0.24 
   8  -4  28    0.04    0.22 
  -8   4 -28    0.14    0.23 
  -8   4 -28    0.32    0.22 
 -11  -5  28    0.04    0.26 
  -9  -5  28    0.43    0.24 
   9  -5 -28    0.47    0.22 
   9   5 -28    0.20    0.18 
  -7  -5  28    0.43    0.25 
   7  -5 -28    0.38    0.22 
   7   5 -28    0.51    0.19 
  -5  -5  28    0.19    0.23 
   5  -5 -28    0.01    0.18 
   5   5 -28    0.17    0.14 
   3  -5 -28    0.11    0.17 
  -3  -5  28    0.32    0.23 
   3   5 -28    0.09    0.14 
   1  -5 -28    0.13    0.17 
  -1  -5  28   -0.07    0.17 
   1   5 -28    0.01    0.14 
  -1  -5 -28    0.41    0.18 
   1  -5  28    0.44    0.21 
  -1   5 -28    0.14    0.17 
  -3  -5 -28    0.08    0.18 
   3  -5  28   -0.19    0.19 
  -3   5 -28    0.28    0.19 
  -5  -5 -28    0.37    0.22 
   5  -5  28    0.47    0.26 
   7  -5  28   -0.08    0.20 
  -7  -5 -28    0.16    0.24 
  -7  -5 -28    0.26    0.28 
  -7   5 -28    0.05    0.17 
  -8  -6  28    0.01    0.23 
   8  -6 -28    0.47    0.22 
   6  -6 -28   -0.05    0.18 
  -6  -6  28    0.07    0.22 
   4  -6 -28    0.10    0.19 
  -4  -6  28    0.36    0.25 
   2  -6 -28    0.04    0.17 
  -2  -6  28    0.30    0.22 
   0  -6  28    0.84    0.27 
   0  -6 -28    1.07    0.24 
  -2  -6 -28    0.07    0.19 
   2  -6  28    0.02    0.21 
   4  -6  28    0.12    0.23 
  -4  -6 -28   -0.05    0.19 
   5  -7 -28    0.17    0.20 
  -5  -7  28   -0.26    0.20 
   3  -7 -28    1.76    0.30 
  -3  -7  28    1.68    0.38 
  -1  -7  28    0.56    0.27 
   1  -7 -28    0.42    0.20 
   1  -7  28    1.63    0.38 
  -1  -7 -28    1.66    0.29 
 -14   0  29   -0.10    0.22 
  14   0 -29    0.07    0.25 
 -12   0  29   -0.18    0.18 
  12   0 -29    0.26    0.23 
  10   0 -29    0.12    0.20 
 -10   0  29    0.40    0.22 
   8   0 -29    0.27    0.19 
  -8   0  29    0.17    0.18 
  -6   0  29   -0.21    0.13 
   6   0 -29    0.18    0.18 
  -4   0  29    0.20    0.14 
   4   0 -29   -0.15    0.10 
   2   0 -29    0.60    0.19 
  -2   0  29    0.44    0.18 
   0   0  29    0.08    0.13 
   0   0 -29    0.27    0.18 
  -2   0 -29    0.40    0.19 
   2   0  29    0.43    0.19 
   4   0  29    0.16    0.16 
  -4   0 -29   -0.08    0.16 
  -6   0 -29   -0.14    0.16 
   6   0  29   -0.13    0.16 
  -8   0 -29    0.18    0.21 
  -8   0 -29   -0.15    0.18 
   8   0  29   -0.36    0.15 
 -10   0 -29   -0.10    0.25 
  10   0  29   -0.10    0.22 
 -10   0 -29    0.16    0.24 
 -13  -1  29    0.10    0.25 
 -13   1  29    0.23    0.26 
  13   1 -29    0.16    0.23 
  11  -1 -29    0.61    0.27 
 -11  -1  29    0.79    0.27 
  11   1 -29    0.82    0.26 
 -11   1  29    0.60    0.23 
  -9  -1  29    0.15    0.18 
   9  -1 -29    0.10    0.18 
  -9   1  29   -0.20    0.13 
   9   1 -29   -0.02    0.16 
  -7  -1  29    0.90    0.25 
   7  -1 -29    1.09    0.26 
  -7   1  29    0.78    0.22 
   7   1 -29    1.23    0.26 
   5  -1 -29   -0.05    0.14 
  -5  -1  29    0.12    0.17 
   5   1 -29    0.08    0.15 
  -5   1  29    0.03    0.12 
   3  -1 -29    0.12    0.16 
  -3  -1  29    0.20    0.17 
  -3   1  29    0.25    0.15 
   3   1 -29    0.27    0.16 
   1  -1 -29    2.36    0.34 
  -1  -1  29    2.18    0.32 
   1   1 -29    2.45    0.32 
  -1   1  29    2.60    0.32 
  -1  -1 -29    0.88    0.23 
   1  -1  29    0.89    0.24 
   1   1  29    1.30    0.26 
  -1   1 -29    1.42    0.26 
  -3  -1 -29    1.04    0.27 
   3  -1  29    1.42    0.31 
   3   1  29    1.26    0.28 
  -3   1 -29    1.39    0.29 
   5  -1  29    0.09    0.17 
  -5  -1 -29    0.27    0.22 
   5   1  29    0.35    0.19 
  -5   1 -29    0.12    0.20 
   7  -1  29    0.31    0.22 
  -7  -1 -29   -0.01    0.18 
  -7   1 -29   -0.19    0.19 
   7   1  29    0.33    0.22 
  -9  -1 -29    0.04    0.25 
   9  -1  29    0.41    0.26 
  -9  -1 -29    0.38    0.23 
  -9   1 -29    0.20    0.23 
  -9   1 -29   -0.08    0.21 
   9   1  29    0.16    0.21 
 -12  -2  29    0.40    0.28 
  12   2 -29    0.34    0.23 
  10  -2 -29    2.90    0.39 
 -10  -2  29    3.18    0.43 
 -10   2  29    2.85    0.45 
  10   2 -29    2.22    0.36 
   8  -2 -29    1.46    0.29 
  -8  -2  29    1.56    0.32 
  -8   2  29    1.67    0.29 
   8   2 -29    1.41    0.29 
  -6  -2  29    2.54    0.39 
   6  -2 -29    2.14    0.31 
   6   2 -29    1.73    0.29 
  -6   2  29    2.32    0.30 
   4  -2 -29    0.00    0.15 
  -4  -2  29    0.04    0.16 
  -4   2  29    0.22    0.13 
   4   2 -29    0.33    0.17 
   2  -2 -29    2.83    0.36 
  -2  -2  29    2.66    0.38 
   2   2 -29    2.60    0.33 
  -2   2  29    2.09    0.30 
   0  -2 -29    0.40    0.19 
   0  -2  29    0.62    0.22 
   0   2  29    0.66    0.19 
   0   2 -29    0.39    0.18 
   2  -2  29    3.28    0.43 
  -2  -2 -29    2.47    0.34 
  -2   2 -29    2.88    0.39 
   2   2  29    2.72    0.36 
  -4  -2 -29    0.12    0.17 
   4  -2  29    0.07    0.17 
  -4   2 -29   -0.07    0.18 
   4   2  29   -0.01    0.13 
   6  -2  29    0.42    0.26 
  -6  -2 -29    0.29    0.21 
   6   2  29   -0.01    0.14 
  -6   2 -29    0.41    0.23 
  -8  -2 -29    0.47    0.26 
  -8  -2 -29    0.31    0.25 
   8  -2  29    0.71    0.29 
  -8   2 -29    0.50    0.26 
  -8   2 -29   -0.07    0.18 
 -11  -3  29    0.20    0.25 
  11  -3 -29   -0.01    0.19 
  11   3 -29    0.24    0.22 
  -9  -3  29    1.34    0.32 
   9  -3 -29    1.37    0.30 
   9   3 -29    1.39    0.32 
   7  -3 -29    1.35    0.28 
  -7  -3  29    2.26    0.39 
   7   3 -29    1.89    0.33 
   5  -3 -29    0.43    0.20 
  -5  -3  29    0.81    0.28 
   5   3 -29    0.89    0.23 
  -3  -3  29   -0.02    0.16 
   3  -3 -29    0.45    0.20 
  -3   3  29    0.41    0.15 
   3   3 -29    0.39    0.19 
  -1  -3  29    0.95    0.25 
   1  -3 -29    1.15    0.25 
   1   3 -29    1.09    0.24 
  -1   3  29    0.70    0.18 
   1  -3  29    3.97    0.46 
  -1  -3 -29    3.74    0.41 
   1   3  29    3.84    0.40 
  -1   3 -29    3.08    0.37 
   3  -3  29    0.82    0.26 
  -3  -3 -29    0.81    0.25 
  -3   3 -29    0.45    0.21 
  -5  -3 -29    0.04    0.17 
   5  -3  29   -0.12    0.15 
  -5   3 -29    0.12    0.19 
  -7  -3 -29   -0.19    0.21 
   7  -3  29   -0.02    0.20 
  -7  -3 -29   -0.06    0.18 
  -7   3 -29   -0.17    0.17 
  -7   3 -29   -0.30    0.14 
   9  -3  29    0.55    0.29 
  -9  -3 -29    0.20    0.27 
  -9  -3 -29    0.16    0.28 
  -9   3 -29    0.35    0.26 
  -9   3 -29    0.56    0.30 
  12   4 -29   -0.01    0.26 
 -10  -4  29    0.87    0.31 
  10  -4 -29    1.62    0.34 
  10   4 -29    1.10    0.28 
  -8  -4  29    0.34    0.26 
   8  -4 -29    0.48    0.22 
   8   4 -29    0.24    0.20 
   6  -4 -29    0.25    0.20 
  -6  -4  29    0.46    0.25 
   6   4 -29    0.49    0.20 
   4  -4 -29    0.16    0.17 
  -4  -4  29   -0.36    0.15 
   4   4 -29    0.03    0.14 
  -2  -4  29    2.37    0.37 
   2  -4 -29    3.10    0.37 
   2   4 -29    1.70    0.29 
   0  -4  29    0.04    0.18 
   0  -4 -29   -0.05    0.15 
   0   4 -29    0.03    0.14 
   2  -4  29    5.55    0.58 
  -2  -4 -29    4.78    0.44 
  -2   4 -29    4.11    0.44 
  -4  -4 -29   -0.17    0.17 
   4  -4  29   -0.03    0.17 
  -4   4 -29    0.16    0.18 
   6  -4  29   -0.25    0.16 
  -6  -4 -29    0.24    0.22 
  -6   4 -29   -0.03    0.18 
  -8  -4 -29   -0.14    0.22 
   8  -4  29   -0.13    0.22 
  -8  -4 -29    0.13    0.30 
  -8   4 -29    0.16    0.23 
  -8   4 -29    0.34    0.22 
   9  -5 -29    0.32    0.22 
  -9  -5  29    0.35    0.26 
   9   5 -29    0.43    0.32 
   7  -5 -29    4.27    0.44 
  -7  -5  29    3.20    0.46 
   7   5 -29    3.51    0.41 
   5  -5 -29    0.19    0.20 
  -5  -5  29    0.03    0.21 
   5   5 -29    0.08    0.16 
  -3  -5  29    0.17    0.25 
   3  -5 -29    0.05    0.17 
   3   5 -29    0.28    0.17 
   1  -5 -29    1.08    0.25 
  -1  -5  29    1.28    0.30 
   1   5 -29    1.27    0.25 
  -1  -5 -29    2.90    0.37 
   1  -5  29    2.71    0.41 
  -1   5 -29    1.96    0.33 
  -3  -5 -29   -0.06    0.18 
   3  -5  29   -0.28    0.17 
  -3   5 -29    0.22    0.18 
  -5  -5 -29   -0.05    0.18 
   5  -5  29    0.22    0.25 
   8  -6 -29    0.07    0.20 
  -8  -6  29    0.58    0.30 
   6  -6 -29   -0.14    0.19 
  -6  -6  29   -0.60    0.17 
  -4  -6  29    0.06    0.22 
   4  -6 -29    0.62    0.22 
  -2  -6  29   -0.03    0.23 
   2  -6 -29    0.63    0.22 
   0  -6  29    0.31    0.24 
   0  -6 -29    0.47    0.21 
  -2  -6 -29    1.31    0.28 
   2  -6  29    1.19    0.32 
  -4  -6 -29    0.08    0.22 
   4  -6  29    0.12    0.19 
  -3  -7  29    0.24    0.23 
  -1  -7  29    0.93    0.32 
 -12   0  30    3.48    0.45 
  12   0 -30    3.84    0.47 
  10   0 -30    2.34    0.38 
 -10   0  30    2.26    0.36 
   8   0 -30    0.06    0.18 
  -8   0  30   -0.08    0.17 
   6   0 -30    5.20    0.44 
  -6   0  30    3.93    0.44 
   4   0 -30    0.21    0.18 
  -4   0  30    0.30    0.17 
   2   0 -30    0.20    0.17 
  -2   0  30    0.19    0.15 
   0   0  30    0.14    0.16 
   0   0 -30    0.01    0.15 
   2   0  30    3.53    0.42 
  -2   0 -30    3.18    0.39 
  -4   0 -30    2.63    0.40 
   4   0  30    2.46    0.37 
   6   0  30   -0.09    0.17 
  -6   0 -30    0.05    0.21 
  -8   0 -30    0.70    0.29 
   8   0  30    0.82    0.30 
  -8   0 -30    0.67    0.29 
  13  -1 -30   -0.04    0.23 
 -13  -1  30    0.53    0.27 
  13   1 -30    0.64    0.28 
  11  -1 -30   -0.07    0.18 
 -11  -1  30   -0.02    0.22 
  11   1 -30    0.20    0.21 
 -11   1  30    0.26    0.23 
   9  -1 -30    3.50    0.42 
  -9  -1  30    3.99    0.48 
  -9   1  30    4.67    0.43 
   9   1 -30    3.53    0.42 
   7  -1 -30    6.50    0.50 
  -7  -1  30    6.49    0.51 
   7   1 -30    6.72    0.52 
  -7   1  30    6.11    0.47 
  -5  -1  30    0.09    0.19 
   5  -1 -30    0.19    0.17 
   5   1 -30   -0.16    0.13 
  -5   1  30    0.03    0.12 
   3  -1 -30    0.33    0.19 
  -3  -1  30    0.03    0.15 
   3   1 -30    0.35    0.17 
  -3   1  30    0.41    0.17 
   1  -1 -30    0.48    0.20 
  -1  -1  30    0.29    0.18 
  -1   1  30    0.68    0.20 
   1   1 -30    0.43    0.20 
   1  -1  30    0.66    0.23 
  -1  -1 -30    0.46    0.21 
  -1   1 -30    0.97    0.24 
   1   1  30    0.58    0.19 
   3  -1  30    6.96    0.57 
  -3  -1 -30    7.76    0.58 
   3   1  30    7.18    0.53 
  -3   1 -30    7.63    0.55 
  -5  -1 -30    0.11    0.19 
   5  -1  30    0.20    0.20 
   5   1  30    0.04    0.15 
  -5   1 -30   -0.25    0.16 
   7  -1  30   -0.03    0.19 
  -7  -1 -30   -0.12    0.16 
  -7   1 -30   -0.34    0.16 
   7   1  30    0.13    0.18 
  -9  -1 -30    0.85    0.35 
  -9  -1 -30    1.18    0.35 
   9  -1  30    1.19    0.37 
  -9   1 -30    0.70    0.30 
   9   1  30    0.88    0.31 
  -9   1 -30    0.90    0.31 
 -12  -2  30    1.92    0.37 
  12  -2 -30    1.24    0.34 
  12   2 -30    1.78    0.35 
  10  -2 -30    0.16    0.22 
 -10  -2  30   -0.15    0.21 
  10   2 -30    0.01    0.18 
   8  -2 -30   -0.13    0.16 
  -8  -2  30   -0.07    0.20 
   8   2 -30    0.07    0.18 
  -8   2  30   -0.20    0.14 
  -6  -2  30   -0.17    0.18 
   6  -2 -30    0.12    0.19 
   6   2 -30   -0.13    0.17 
  -6   2  30   -0.18    0.10 
   4  -2 -30   -0.23    0.13 
  -4  -2  30   -0.16    0.18 
  -4   2  30    0.12    0.12 
   4   2 -30    0.02    0.15 
  -2  -2  30   -0.03    0.15 
   2  -2 -30    0.39    0.18 
  -2   2  30   -0.03    0.10 
   2   2 -30    0.23    0.17 
   0  -2  30    0.32    0.19 
   0  -2 -30    0.75    0.21 
   0   2  30    0.52    0.18 
   0   2 -30    0.26    0.18 
   2  -2  30    4.89    0.55 
  -2  -2 -30    4.56    0.48 
   2   2  30    4.15    0.44 
  -2   2 -30    4.22    0.46 
  -4  -2 -30    0.63    0.26 
   4  -2  30    0.44    0.22 
   4   2  30    0.43    0.21 
  -4   2 -30    0.47    0.22 
  -6  -2 -30   -0.03    0.18 
   6  -2  30    0.00    0.19 
   6   2  30    0.00    0.15 
  -6   2 -30   -0.20    0.17 
  -8  -2 -30   -0.07    0.21 
  -8  -2 -30   -0.03    0.22 
   8  -2  30    0.29    0.23 
  -8   2 -30   -0.03    0.20 
  -8   2 -30    0.14    0.22 
  11  -3 -30   -0.03    0.19 
 -11  -3  30    0.02    0.25 
  11   3 -30    0.07    0.22 
  -9  -3  30    0.72    0.30 
   9  -3 -30    0.35    0.22 
   9   3 -30    0.44    0.22 
  -7  -3  30    1.37    0.32 
   7  -3 -30    1.10    0.28 
   7   3 -30    1.09    0.27 
   5  -3 -30    1.05    0.27 
  -5  -3  30    1.04    0.30 
   5   3 -30    1.02    0.26 
  -3  -3  30    0.36    0.21 
   3  -3 -30    0.34    0.20 
   3   3 -30    0.21    0.17 
   1  -3 -30    0.24    0.20 
  -1  -3  30    0.11    0.19 
   1   3 -30    0.41    0.20 
   1  -3  30    0.30    0.22 
  -1  -3 -30    0.18    0.18 
  -1   3 -30    0.21    0.18 
   3  -3  30    0.49    0.24 
  -3  -3 -30    0.35    0.21 
  -3   3 -30    0.47    0.22 
  -5  -3 -30   -0.02    0.16 
   5  -3  30   -0.29    0.14 
  -5   3 -30    0.15    0.20 
  -7  -3 -30    0.00    0.18 
   7  -3  30   -0.15    0.19 
  -7  -3 -30   -0.10    0.22 
  -7   3 -30   -0.04    0.17 
  -7   3 -30    0.05    0.18 
  10  -4 -30    0.28    0.23 
 -10  -4  30    0.46    0.29 
  10   4 -30    0.29    0.22 
   8  -4 -30    0.61    0.24 
  -8  -4  30    0.38    0.26 
   8   4 -30    0.02    0.15 
   6  -4 -30    0.15    0.20 
  -6  -4  30    0.16    0.23 
   6   4 -30    0.22    0.18 
  -4  -4  30    0.53    0.24 
   4  -4 -30    0.54    0.22 
   4   4 -30    0.61    0.20 
  -2  -4  30    0.91    0.26 
   2  -4 -30    0.76    0.24 
   2   4 -30    0.81    0.23 
   0  -4  30    0.64    0.24 
   0  -4 -30    0.66    0.23 
   0   4 -30    0.90    0.24 
  -2  -4 -30    0.03    0.17 
   2  -4  30    0.07    0.19 
  -2   4 -30    0.10    0.17 
  -4  -4 -30   -0.07    0.18 
   4  -4  30   -0.31    0.15 
  -4   4 -30    0.22    0.20 
  -6  -4 -30   -0.04    0.20 
   6  -4  30    0.46    0.28 
  -6   4 -30    0.27    0.22 
  -9  -5  30    0.36    0.29 
   9  -5 -30   -0.10    0.19 
  -7  -5  30    0.21    0.23 
   7  -5 -30    0.18    0.22 
   7   5 -30    0.24    0.17 
  -5  -5  30    0.00    0.21 
   5  -5 -30    0.11    0.19 
   5   5 -30   -0.27    0.12 
  -3  -5  30    1.47    0.33 
   3  -5 -30    1.15    0.27 
   3   5 -30    0.79    0.24 
   1  -5 -30    0.35    0.21 
  -1  -5  30    0.65    0.27 
   1   5 -30    0.25    0.19 
  -1  -5 -30    0.97    0.26 
   1  -5  30    0.68    0.28 
  -1   5 -30    0.63    0.23 
  -3  -5 -30   -0.04    0.18 
   3  -5  30    0.01    0.25 
  -3   5 -30    0.57    0.34 
   5  -5  30    0.01    0.23 
  -5  -5 -30    0.02    0.18 
   6  -6 -30    0.19    0.22 
  -6  -6  30    0.43    0.26 
   4  -6 -30    0.24    0.21 
  -4  -6  30   -0.45    0.22 
  -2  -6  30    0.45    0.27 
   2  -6 -30    0.27    0.21 
   0  -6  30   -0.19    0.20 
   0  -6 -30    0.24    0.20 
   2  -6  30    2.45    0.44 
  -2  -6 -30    1.77    0.33 
 -12   0  31    0.40    0.25 
  12   0 -31   -0.02    0.23 
 -10   0  31   -0.12    0.19 
  10   0 -31    0.08    0.18 
  -8   0  31   -0.14    0.16 
   8   0 -31   -0.07    0.18 
  -6   0  31   -0.24    0.15 
   6   0 -31    0.05    0.16 
   4   0 -31    0.16    0.17 
  -4   0  31    0.02    0.15 
   2   0 -31    0.11    0.15 
  -2   0  31    0.01    0.14 
   0   0 -31    0.13    0.17 
   0   0  31   -0.01    0.14 
  -2   0 -31    0.15    0.19 
   2   0  31    0.33    0.19 
  -4   0 -31    0.23    0.21 
   4   0  31    0.05    0.19 
   6   0  31    0.10    0.19 
  -6   0 -31    0.01    0.20 
  -8   0 -31   -0.25    0.17 
   8   0  31   -0.18    0.18 
  -8   0 -31   -0.28    0.19 
 -11  -1  31    0.44    0.26 
  11  -1 -31    0.98    0.30 
  11   1 -31    0.73    0.29 
 -11   1  31    0.67    0.25 
  -9  -1  31    1.31    0.31 
   9  -1 -31    0.70    0.25 
  -9   1  31    0.63    0.23 
   9   1 -31    0.81    0.26 
   7  -1 -31    0.52    0.22 
  -7  -1  31   -0.10    0.17 
  -7   1  31   -0.03    0.16 
   7   1 -31    0.23    0.19 
   5  -1 -31    1.57    0.29 
  -5  -1  31    1.62    0.32 
  -5   1  31    1.62    0.29 
   5   1 -31    1.87    0.32 
   3  -1 -31    0.36    0.20 
  -3  -1  31    0.24    0.20 
   3   1 -31    0.39    0.20 
  -3   1  31    0.37    0.17 
   1  -1 -31    1.50    0.31 
  -1  -1  31    1.65    0.30 
   1   1 -31    1.97    0.31 
  -1   1  31    1.46    0.28 
  -1  -1 -31   -0.07    0.16 
   1  -1  31    0.00    0.18 
  -1   1 -31   -0.04    0.15 
   1   1  31    0.06    0.15 
  -3  -1 -31   -0.03    0.18 
   3  -1  31   -0.09    0.20 
  -3   1 -31    0.42    0.22 
   3   1  31    0.07    0.16 
   5  -1  31    0.16    0.19 
  -5  -1 -31    0.31    0.22 
  -5   1 -31    0.12    0.21 
   5   1  31   -0.12    0.14 
  -7  -1 -31   -0.31    0.16 
   7  -1  31    0.02    0.17 
   7   1  31   -0.10    0.16 
  -7   1 -31   -0.04    0.20 
  12  -2 -31    0.51    0.28 
 -12  -2  31    1.13    0.33 
  12   2 -31    0.39    0.27 
 -10  -2  31    1.39    0.34 
  10  -2 -31    1.39    0.30 
  10   2 -31    1.20    0.31 
   8  -2 -31    1.70    0.32 
  -8  -2  31    2.42    0.40 
   8   2 -31    1.78    0.34 
  -6  -2  31    0.05    0.19 
   6  -2 -31   -0.16    0.15 
  -6   2  31   -0.14    0.12 
   6   2 -31    0.11    0.16 
  -4  -2  31    0.50    0.23 
   4  -2 -31    0.95    0.26 
  -4   2  31    0.77    0.20 
   4   2 -31    0.31    0.20 
   2  -2 -31    0.37    0.20 
  -2  -2  31    0.41    0.23 
  -2   2  31    0.30    0.15 
   2   2 -31    0.23    0.20 
   0  -2  31    0.06    0.16 
   0  -2 -31    0.20    0.18 
   0   2  31    0.09    0.12 
   0   2 -31    0.06    0.16 
   2  -2  31    0.55    0.24 
  -2  -2 -31    0.25    0.20 
   2   2  31    0.60    0.20 
  -2   2 -31    0.56    0.23 
  -4  -2 -31    2.45    0.38 
   4  -2  31    2.99    0.42 
  -4   2 -31    2.20    0.38 
   4   2  31    1.97    0.33 
  -6  -2 -31    0.33    0.23 
   6  -2  31    0.28    0.22 
  -6   2 -31   -0.02    0.20 
  -8  -2 -31    0.06    0.25 
  -8  -2 -31    0.32    0.26 
   8  -2  31    0.13    0.23 
  -8   2 -31    0.24    0.27 
  -8   2 -31   -0.35    0.18 
  11  -3 -31    1.30    0.33 
 -11  -3  31    0.23    0.29 
  11   3 -31   -0.01    0.23 
   9  -3 -31    0.54    0.24 
  -9  -3  31    0.28    0.24 
   9   3 -31    0.52    0.22 
   7  -3 -31    0.10    0.19 
  -7  -3  31   -0.07    0.20 
   7   3 -31   -0.09    0.16 
  -5  -3  31    0.11    0.22 
   5  -3 -31    0.57    0.24 
   5   3 -31    0.36    0.20 
  -3  -3  31   -0.04    0.17 
   3  -3 -31    0.09    0.17 
   3   3 -31    0.04    0.16 
  -1  -3  31    0.38    0.23 
   1  -3 -31    0.69    0.22 
   1   3 -31    0.12    0.18 
  -1  -3 -31   -0.21    0.15 
   1  -3  31    0.02    0.16 
  -1   3 -31   -0.01    0.16 
  -3  -3 -31    0.79    0.26 
   3  -3  31    0.92    0.28 
  -3   3 -31    0.57    0.22 
  -5  -3 -31    0.28    0.22 
   5  -3  31    0.22    0.20 
  -5   3 -31    0.21    0.21 
  -7  -3 -31    0.11    0.22 
   7  -3  31   -0.06    0.20 
  -7  -3 -31    0.05    0.25 
  -7   3 -31   -0.08    0.15 
  -7   3 -31   -0.03    0.20 
 -10  -4  31    0.39    0.29 
  10  -4 -31    0.42    0.24 
  10   4 -31    0.08    0.19 
   8  -4 -31    0.56    0.25 
  -8  -4  31    0.13    0.25 
   8   4 -31    0.64    0.25 
   6  -4 -31   -0.07    0.18 
  -6  -4  31   -0.20    0.18 
   6   4 -31   -0.14    0.13 
   4  -4 -31    0.31    0.20 
  -4  -4  31    0.55    0.29 
   4   4 -31    0.52    0.22 
   2  -4 -31    1.48    0.29 
  -2  -4  31    0.46    0.25 
   2   4 -31    0.82    0.24 
   0  -4  31   -0.10    0.17 
   0  -4 -31   -0.12    0.16 
   0   4 -31   -0.20    0.12 
   2  -4  31   -0.06    0.17 
  -2  -4 -31    0.09    0.19 
  -2   4 -31   -0.06    0.17 
   4  -4  31    0.60    0.29 
  -4  -4 -31    0.83    0.28 
  -4   4 -31    1.44    0.31 
   6  -4  31    0.00    0.20 
  -6  -4 -31   -0.11    0.19 
  -6   4 -31   -0.05    0.20 
   7  -5 -31    0.43    0.24 
  -7  -5  31    0.00    0.23 
   7   5 -31    0.60    0.30 
  -5  -5  31    0.03    0.22 
   5  -5 -31    0.02    0.21 
   5   5 -31    0.11    0.18 
  -3  -5  31    1.24    0.33 
   3  -5 -31    0.90    0.27 
   3   5 -31    0.58    0.22 
  -1  -5  31   -0.18    0.17 
   1  -5 -31   -0.02    0.17 
   1   5 -31   -0.14    0.14 
  -1  -5 -31    0.74    0.25 
   1  -5  31    0.74    0.29 
  -1   5 -31    0.87    0.27 
  -3  -5 -31    1.20    0.32 
   3  -5  31    1.10    0.33 
  -4  -6  31   -0.16    0.22 
   4  -6 -31   -0.09    0.17 
  -2  -6  31    0.76    0.29 
   2  -6 -31    1.26    0.28 
   0  -6  31   -0.10    0.21 
   0  -6 -31    0.09    0.19 
 -12   0  32    0.28    0.25 
  12   0 -32   -0.06    0.24 
 -10   0  32    2.94    0.41 
  10   0 -32    2.40    0.39 
  -8   0  32    0.82    0.25 
   8   0 -32    0.20    0.21 
  -6   0  32    0.48    0.24 
   6   0 -32    0.48    0.24 
   4   0 -32    1.88    0.34 
  -4   0  32    1.94    0.34 
   2   0 -32    0.32    0.20 
  -2   0  32    0.41    0.17 
   0   0 -32    0.56    0.22 
   0   0  32    0.49    0.21 
   2   0  32    0.02    0.17 
  -2   0 -32    0.61    0.24 
   4   0  32    2.58    0.41 
  -4   0 -32    1.76    0.35 
   6   0  32    0.10    0.19 
  -6   0 -32    0.03    0.20 
  -8   0 -32    0.11    0.25 
   8   0  32   -0.17    0.20 
  -8   0 -32   -0.33    0.18 
 -11  -1  32    4.70    0.55 
  11  -1 -32    3.85    0.47 
  11   1 -32    4.61    0.53 
  -9  -1  32    0.07    0.21 
   9  -1 -32    0.05    0.21 
  -9   1  32   -0.04    0.18 
   9   1 -32    0.00    0.19 
  -7  -1  32    3.32    0.44 
   7  -1 -32    3.01    0.42 
  -7   1  32    2.82    0.38 
   7   1 -32    2.74    0.42 
  -5  -1  32    1.92    0.33 
   5  -1 -32    1.94    0.31 
  -5   1  32    1.78    0.30 
   5   1 -32    1.19    0.27 
   3  -1 -32    3.85    0.42 
  -3  -1  32    2.85    0.39 
   3   1 -32    3.56    0.42 
  -3   1  32    3.81    0.43 
   1  -1 -32    8.09    0.56 
  -1  -1  32    8.07    0.57 
  -1   1  32    6.12    0.49 
   1   1 -32    8.08    0.56 
  -1  -1 -32    1.70    0.33 
   1  -1  32    2.34    0.37 
  -1   1 -32    1.71    0.31 
   1   1  32    1.78    0.31 
  -3  -1 -32    0.06    0.20 
   3  -1  32    0.19    0.21 
   3   1  32   -0.02    0.15 
  -3   1 -32   -0.33    0.16 
  -5  -1 -32    0.60    0.26 
   5  -1  32    0.68    0.26 
   5   1  32    0.88    0.27 
  -5   1 -32   -0.03    0.20 
  -7  -1 -32   -0.26    0.18 
   7  -1  32   -0.21    0.18 
  -7   1 -32   -0.18    0.20 
   7   1  32   -0.07    0.19 
 -10  -2  32    0.15    0.24 
  10  -2 -32    0.25    0.24 
  10   2 -32    0.06    0.22 
   8  -2 -32    0.01    0.21 
  -8  -2  32   -0.55    0.17 
   8   2 -32   -0.10    0.17 
  -6  -2  32   -0.04    0.20 
   6  -2 -32    0.17    0.19 
   6   2 -32   -0.26    0.13 
  -6   2  32    0.22    0.17 
   4  -2 -32    0.35    0.21 
  -4  -2  32    0.65    0.24 
   4   2 -32    0.25    0.19 
  -4   2  32    0.29    0.17 
  -2  -2  32    1.59    0.33 
   2  -2 -32    1.32    0.28 
   2   2 -32    1.37    0.29 
  -2   2  32    1.54    0.27 
   0  -2 -32    0.11    0.18 
   0  -2  32    0.03    0.17 
   0   2 -32   -0.15    0.14 
   0   2  32   -0.13    0.11 
   2  -2  32    1.59    0.35 
  -2  -2 -32    1.22    0.28 
  -2   2 -32    1.57    0.31 
   2   2  32    1.11    0.26 
   4  -2  32    0.76    0.26 
  -4  -2 -32    0.61    0.24 
  -4   2 -32    0.12    0.18 
  -6  -2 -32   -0.04    0.21 
   6  -2  32   -0.01    0.21 
  -6   2 -32    0.08    0.19 
  -9  -3  32   -0.11    0.22 
   9  -3 -32    0.28    0.21 
   9   3 -32   -0.12    0.19 
   7  -3 -32    0.80    0.27 
  -7  -3  32    0.57    0.27 
   7   3 -32    0.30    0.21 
   5  -3 -32    0.10    0.20 
  -5  -3  32   -0.23    0.18 
   5   3 -32    0.10    0.16 
  -3  -3  32    0.01    0.19 
   3  -3 -32    0.11    0.20 
   3   3 -32   -0.18    0.14 
   1  -3 -32    0.24    0.21 
  -1  -3  32    0.54    0.25 
   1   3 -32    0.29    0.19 
  -1  -3 -32   -0.05    0.16 
   1  -3  32   -0.21    0.15 
  -1   3 -32    0.04    0.16 
   3  -3  32    0.48    0.25 
  -3  -3 -32    0.09    0.18 
  -3   3 -32   -0.18    0.18 
   5  -3  32   -0.02    0.17 
  -5  -3 -32    0.09    0.19 
  -5   3 -32    0.08    0.16 
   8  -4 -32   -0.10    0.20 
  -8  -4  32    0.20    0.26 
   8   4 -32    0.17    0.18 
   6  -4 -32    0.15    0.21 
  -6  -4  32    0.28    0.24 
   6   4 -32    0.19    0.18 
  -4  -4  32   -0.02    0.18 
   4  -4 -32    0.06    0.19 
   4   4 -32   -0.12    0.14 
   2  -4 -32    1.15    0.29 
  -2  -4  32    1.16    0.30 
   2   4 -32    0.95    0.25 
   0  -4  32   -0.18    0.14 
   0  -4 -32   -0.11    0.17 
   0   4 -32   -0.17    0.13 
  -2  -4 -32    1.89    0.36 
   2  -4  32    1.40    0.35 
  -2   4 -32    1.19    0.30 
  -4  -4 -32    0.03    0.19 
   4  -4  32    0.18    0.24 
  -4   4 -32    0.06    0.18 
   7  -5 -32    0.10    0.24 
  -7  -5  32   -0.04    0.23 
   5  -5 -32    0.12    0.21 
  -5  -5  32    0.14    0.24 
   5   5 -32    0.59    0.28 
  -3  -5  32   -0.15    0.18 
   3  -5 -32    0.21    0.22 
   3   5 -32    0.53    0.22 
  -1  -5  32    0.17    0.21 
   1  -5 -32    0.26    0.21 
   1   5 -32   -0.07    0.17 
  -1  -5 -32    0.08    0.19 
   1  -5  32   -0.17    0.17 
  -3  -5 -32    0.50    0.24 
   3  -5  32    0.23    0.24 
  10   0 -33    0.03    0.22 
 -10   0  33    0.05    0.22 
   8   0 -33   -0.07    0.17 
  -8   0  33   -0.18    0.16 
  -6   0  33    0.37    0.19 
   6   0 -33    0.02    0.19 
  -4   0  33    0.05    0.15 
   4   0 -33   -0.09    0.16 
  -2   0  33   -0.04    0.15 
   2   0 -33    0.00    0.16 
   0   0  33   -0.03    0.17 
   0   0 -33    0.06    0.18 
  -2   0 -33    0.02    0.18 
   2   0  33    0.00    0.16 
   4   0  33   -0.20    0.15 
  -4   0 -33   -0.04    0.21 
  -6   0 -33    0.02    0.21 
   6   0  33    0.10    0.20 
  11  -1 -33   -0.07    0.21 
 -11  -1  33   -0.11    0.24 
  11   1 -33    0.29    0.25 
   9  -1 -33    0.83    0.29 
  -9  -1  33    0.78    0.29 
   9   1 -33    1.34    0.32 
  -9   1  33    0.04    0.22 
  -7  -1  33   -0.20    0.20 
   7  -1 -33    0.24    0.20 
   7   1 -33    0.08    0.20 
  -7   1  33    0.45    0.18 
   5  -1 -33    0.21    0.21 
  -5  -1  33    0.55    0.23 
  -5   1  33    0.26    0.16 
   5   1 -33    0.26    0.21 
   3  -1 -33    1.97    0.34 
  -3  -1  33    1.45    0.30 
   3   1 -33    1.79    0.30 
  -3   1  33    1.41    0.28 
   1  -1 -33    0.14    0.19 
  -1  -1  33    0.24    0.20 
   1   1 -33    0.56    0.23 
  -1   1  33    0.37    0.20 
  -1  -1 -33   -0.04    0.18 
   1  -1  33    0.10    0.22 
   1   1  33    0.23    0.18 
  -1   1 -33   -0.11    0.17 
  -3  -1 -33    0.25    0.24 
   3  -1  33    0.26    0.20 
   3   1  33    0.02    0.16 
  -3   1 -33   -0.01    0.19 
  -5  -1 -33    0.12    0.22 
   5  -1  33   -0.08    0.18 
  -5   1 -33   -0.22    0.17 
   5   1  33    0.15    0.18 
   7  -1  33    0.18    0.24 
  -7  -1 -33   -0.48    0.18 
  -7   1 -33   -0.32    0.18 
 -10  -2  33    0.52    0.29 
  10  -2 -33    0.82    0.28 
  10   2 -33    1.17    0.35 
  -8  -2  33    0.61    0.25 
   8  -2 -33    0.43    0.24 
   8   2 -33    0.04    0.20 
  -6  -2  33   -0.20    0.20 
   6  -2 -33    0.36    0.22 
   6   2 -33    0.07    0.18 
  -4  -2  33    1.82    0.35 
   4  -2 -33    1.56    0.30 
   4   2 -33    1.33    0.27 
  -2  -2  33    1.71    0.33 
   2  -2 -33    1.38    0.30 
   2   2 -33    1.35    0.29 
  -2   2  33    1.13    0.28 
   0  -2 -33    1.58    0.31 
   0  -2  33    1.81    0.35 
   0   2  33    1.58    0.34 
   0   2 -33    1.52    0.31 
   2  -2  33    0.96    0.29 
  -2  -2 -33    1.04    0.28 
  -2   2 -33    0.58    0.24 
  -4  -2 -33    0.03    0.20 
   4  -2  33    0.01    0.18 
  -4   2 -33    0.02    0.19 
   6  -2  33   -0.23    0.20 
  -6  -2 -33   -0.04    0.20 
  -6   2 -33   -0.11    0.17 
   9  -3 -33    0.90    0.30 
  -9  -3  33    0.54    0.29 
   9   3 -33    0.58    0.25 
   7  -3 -33    0.26    0.22 
  -7  -3  33   -0.16    0.20 
   7   3 -33    0.29    0.21 
  -5  -3  33   -0.34    0.17 
   5  -3 -33    0.00    0.20 
   5   3 -33    0.06    0.17 
   3  -3 -33    2.37    0.37 
  -3  -3  33    1.47    0.33 
   3   3 -33    2.46    0.36 
  -1  -3  33   -0.10    0.17 
   1  -3 -33    0.10    0.20 
   1   3 -33    0.07    0.17 
  -1  -3 -33    0.05    0.19 
   1  -3  33   -0.09    0.20 
  -1   3 -33   -0.10    0.16 
  -3  -3 -33    0.09    0.18 
   3  -3  33    0.10    0.18 
  -3   3 -33    0.12    0.17 
  -5  -3 -33    0.08    0.21 
   5  -3  33   -0.19    0.16 
  -5   3 -33    0.28    0.21 
   8  -4 -33    0.14    0.22 
  -8  -4  33   -0.01    0.25 
   8   4 -33    0.77    0.26 
  -6  -4  33    0.36    0.27 
   6  -4 -33    1.08    0.30 
   6   4 -33    0.80    0.23 
   4  -4 -33    0.85    0.27 
  -4  -4  33    1.14    0.31 
   4   4 -33    1.26    0.27 
  -2  -4  33    1.19    0.32 
   2  -4 -33    0.67    0.25 
   2   4 -33    0.89    0.25 
   0  -4  33    0.60    0.26 
   0  -4 -33    0.77    0.26 
   0   4 -33    0.53    0.23 
  -2  -4 -33    0.55    0.25 
   2  -4  33    0.55    0.27 
  -2   4 -33    0.26    0.20 
   4  -4  33   -0.35    0.19 
  -4  -4 -33   -0.18    0.19 
  -4   4 -33    0.60    0.25 
   5  -5 -33   -0.13    0.20 
  -5  -5  33   -0.39    0.23 
   3  -5 -33    1.48    0.32 
  -3  -5  33    1.13    0.35 
  -1  -5  33    0.12    0.24 
   1  -5 -33    0.07    0.20 
   1  -5  33    0.18    0.24 
  -1  -5 -33    0.61    0.25 
 -10   0  34    0.14    0.21 
  10   0 -34    0.01    0.25 
   8   0 -34    2.22    0.38 
  -8   0  34    1.41    0.34 
   6   0 -34   -0.06    0.16 
  -6   0  34    0.17    0.18 
  -4   0  34    0.77    0.24 
   4   0 -34    1.15    0.30 
   2   0 -34    2.35    0.36 
  -2   0  34    2.08    0.33 
   0   0  34   -0.05    0.15 
   0   0 -34    0.26    0.23 
   2   0  34    0.03    0.17 
  -2   0 -34    0.08    0.20 
  -4   0 -34    0.00    0.22 
   4   0  34    0.25    0.22 
  -6   0 -34   -0.08    0.20 
   6   0  34   -0.03    0.19 
   9  -1 -34    2.23    0.38 
  -9  -1  34    2.54    0.42 
   9   1 -34    3.01    0.43 
   7  -1 -34    0.24    0.21 
  -7  -1  34    0.00    0.24 
  -7   1  34   -0.14    0.16 
   7   1 -34   -0.06    0.19 
  -5  -1  34    0.71    0.25 
   5  -1 -34    0.60    0.24 
  -5   1  34    1.46    0.30 
   5   1 -34    0.64    0.26 
  -3  -1  34    9.27    0.65 
   3  -1 -34    9.49    0.63 
  -3   1  34    8.88    0.59 
   3   1 -34    9.21    0.62 
   1  -1 -34    0.14    0.19 
  -1  -1  34    0.04    0.19 
  -1   1  34    0.23    0.17 
   1   1 -34    0.08    0.22 
  -1  -1 -34    1.33    0.31 
   1  -1  34    1.05    0.29 
   1   1  34    1.22    0.28 
  -1   1 -34    1.28    0.31 
  -3  -1 -34    0.75    0.27 
   3  -1  34    0.30    0.21 
  -3   1 -34    0.24    0.23 
   3   1  34   -0.07    0.15 
   5  -1  34    0.17    0.21 
  -5  -1 -34    0.24    0.23 
  -5   1 -34    0.45    0.24 
   5   1  34    0.37    0.23 
 -10  -2  34    0.40    0.27 
   8  -2 -34    0.88    0.28 
  -8  -2  34    0.61    0.27 
   8   2 -34    1.06    0.31 
  -6  -2  34    0.63    0.28 
   6  -2 -34    0.59    0.24 
   6   2 -34    1.11    0.30 
  -4  -2  34    0.11    0.22 
   4  -2 -34    0.36    0.23 
   4   2 -34    0.42    0.22 
   2  -2 -34    1.79    0.34 
  -2  -2  34    1.65    0.33 
   2   2 -34    2.35    0.37 
   0  -2 -34    0.04    0.19 
   0  -2  34    0.34    0.24 
   0   2 -34   -0.01    0.17 
   2  -2  34    0.45    0.22 
  -2  -2 -34    0.43    0.24 
  -2   2 -34    0.23    0.20 
   4  -2  34    0.04    0.20 
  -4  -2 -34    0.18    0.23 
  -4   2 -34    0.18    0.21 
  -9  -3  34   -0.02    0.26 
   7  -3 -34    0.16    0.22 
  -7  -3  34   -0.08    0.21 
   7   3 -34    0.08    0.19 
  -5  -3  34   -0.13    0.19 
   5  -3 -34    0.27    0.21 
   5   3 -34    0.06    0.17 
  -3  -3  34    0.21    0.22 
   3  -3 -34    0.17    0.20 
   3   3 -34    0.33    0.19 
  -1  -3  34    0.32    0.21 
   1  -3 -34    0.29    0.23 
   1   3 -34    0.10    0.17 
  -1  -3 -34   -0.18    0.16 
   1  -3  34    0.28    0.20 
  -1   3 -34    0.28    0.19 
  -3  -3 -34    0.28    0.21 
   3  -3  34    0.20    0.22 
  -3   3 -34    0.32    0.23 
  -6  -4  34   -0.59    0.16 
   6  -4 -34   -0.37    0.19 
   6   4 -34   -0.19    0.13 
  -4  -4  34    0.59    0.27 
   4  -4 -34    0.21    0.24 
   4   4 -34    0.60    0.23 
  -2  -4  34    0.19    0.23 
   2  -4 -34    0.44    0.23 
   2   4 -34    0.26    0.19 
   0  -4  34   -0.18    0.21 
   0  -4 -34    0.03    0.19 
   0   4 -34    0.08    0.17 
  -2  -4 -34    0.04    0.20 
   2  -4  34   -0.25    0.21 
  -2   4 -34    0.34    0.23 
   8   0 -35    0.03    0.23 
  -8   0  35   -0.17    0.21 
  -6   0  35   -0.24    0.16 
   6   0 -35   -0.37    0.16 
  -4   0  35    0.08    0.16 
   4   0 -35    0.24    0.19 
   2   0 -35   -0.25    0.15 
  -2   0  35    0.24    0.18 
   0   0 -35   -0.21    0.16 
   0   0  35    0.18    0.17 
  -2   0 -35   -0.08    0.20 
   2   0  35    0.08    0.19 
   4   0  35   -0.15    0.20 
  -4   0 -35   -0.38    0.19 
   9  -1 -35    0.01    0.23 
  -9  -1  35    0.62    0.28 
   9   1 -35    0.31    0.23 
   7  -1 -35    0.24    0.24 
  -7  -1  35   -0.09    0.23 
   7   1 -35   -0.09    0.19 
  -7   1  35   -0.08    0.23 
  -5  -1  35    0.29    0.23 
   5  -1 -35    0.26    0.21 
   5   1 -35    0.44    0.22 
  -5   1  35    0.03    0.16 
  -3  -1  35    0.70    0.26 
   3  -1 -35    0.78    0.25 
  -3   1  35    0.82    0.22 
   3   1 -35    0.73    0.27 
  -1  -1  35    0.19    0.21 
   1  -1 -35    0.29    0.20 
  -1   1  35    0.12    0.18 
   1   1 -35    0.21    0.21 
   1  -1  35    0.40    0.23 
  -1  -1 -35    0.37    0.22 
   1   1  35    0.09    0.17 
  -1   1 -35    0.26    0.21 
   3  -1  35   -0.33    0.16 
  -3  -1 -35    0.28    0.23 
   3   1  35    0.04    0.18 
  -3   1 -35    0.24    0.23 
   5  -1  35   -0.19    0.20 
  -5  -1 -35    0.45    0.27 
  -5   1 -35    0.56    0.27 
  -8  -2  35    0.28    0.25 
   8  -2 -35    0.67    0.27 
   8   2 -35    0.68    0.28 
  -6  -2  35    0.06    0.20 
   6  -2 -35   -0.14    0.17 
   6   2 -35   -0.02    0.19 
   4  -2 -35    0.37    0.22 
  -4  -2  35   -0.20    0.16 
   4   2 -35   -0.27    0.15 
  -2  -2  35    1.31    0.31 
   2  -2 -35    1.19    0.28 
   2   2 -35    1.20    0.31 
   0  -2 -35    0.22    0.23 
   0  -2  35    0.45    0.24 
   0   2 -35    0.25    0.20 
   2  -2  35    0.35    0.22 
  -2  -2 -35    0.89    0.29 
  -2   2 -35    0.97    0.29 
   4  -2  35   -0.22    0.15 
  -4  -2 -35   -0.12    0.20 
  -4   2 -35   -0.05    0.18 
  -7  -3  35   -0.22    0.22 
   7  -3 -35    0.01    0.21 
   7   3 -35    0.09    0.19 
  -5  -3  35    0.92    0.29 
   5  -3 -35    0.05    0.21 
   5   3 -35    0.23    0.20 
   3  -3 -35    0.55    0.25 
  -3  -3  35    0.55    0.24 
   3   3 -35    0.34    0.22 
  -1  -3  35    0.50    0.24 
   1  -3 -35    0.30    0.21 
   1   3 -35   -0.01    0.18 
  -1  -3 -35    0.52    0.25 
   1  -3  35    0.42    0.23 
  -1   3 -35    0.69    0.25 
  -3  -3 -35   -0.07    0.19 
   3  -3  35   -0.25    0.17 
  -3   3 -35    0.18    0.21 
  -4  -4  35   -0.11    0.20 
   4  -4 -35   -0.06    0.21 
   4   4 -35    0.30    0.20 
  -2  -4  35    0.39    0.26 
   2  -4 -35    0.52    0.26 
   2   4 -35    0.62    0.22 
   0  -4  35    0.18    0.25 
   0  -4 -35    0.37    0.26 
   0   4 -35    0.61    0.24 
   8   0 -36    0.40    0.27 
  -8   0  36   -0.11    0.17 
  -6   0  36   -0.07    0.18 
   6   0 -36   -0.01    0.20 
   4   0 -36    0.32    0.22 
  -4   0  36   -0.11    0.18 
  -2   0  36    1.47    0.33 
   2   0 -36    1.28    0.30 
   0   0 -36    2.46    0.41 
   0   0  36    2.54    0.42 
   2   0  36    1.13    0.31 
  -2   0 -36    0.79    0.30 
  -4   0 -36    0.92    0.32 
   7  -1 -36   -0.05    0.22 
  -7  -1  36   -0.07    0.20 
   7   1 -36    0.20    0.23 
  -5  -1  36    0.06    0.20 
   5  -1 -36    0.31    0.22 
   5   1 -36   -0.31    0.18 
   3  -1 -36    0.01    0.21 
  -3  -1  36    0.22    0.20 
   3   1 -36    0.89    0.28 
  -3   1  36    0.43    0.21 
  -1  -1  36    0.69    0.25 
   1  -1 -36    0.28    0.23 
   1   1 -36    0.54    0.25 
  -1   1  36    0.59    0.23 
   1  -1  36    0.18    0.21 
  -1  -1 -36   -0.15    0.18 
   1   1  36   -0.06    0.19 
  -1   1 -36   -0.28    0.18 
   3  -1  36    1.30    0.34 
  -3  -1 -36    2.16    0.41 
  -3   1 -36    2.11    0.41 
   6  -2 -36   -0.03    0.21 
  -6  -2  36    0.71    0.28 
   6   2 -36    0.98    0.28 
   4  -2 -36    0.23    0.23 
  -4  -2  36   -0.17    0.19 
   4   2 -36   -0.15    0.17 
   2  -2 -36    0.40    0.23 
  -2  -2  36    0.66    0.25 
   2   2 -36    0.61    0.26 
   0  -2  36    0.11    0.21 
   0  -2 -36    0.03    0.22 
   0   2 -36    0.42    0.24 
   2  -2  36    0.36    0.24 
  -2  -2 -36    0.50    0.25 
  -2   2 -36    0.40    0.24 
  -5  -3  36    0.18    0.21 
   5  -3 -36    0.07    0.21 
   5   3 -36    0.02    0.17 
   3  -3 -36   -0.14    0.17 
  -3  -3  36   -0.18    0.18 
   3   3 -36    0.38    0.23 
   1  -3 -36    0.24    0.22 
  -1  -3  36    0.11    0.20 
   1   3 -36   -0.08    0.16 
   1  -3  36    0.23    0.24 
  -1  -3 -36    0.05    0.19 
  -1   3 -36    0.28    0.21 
  -6   0  37   -0.32    0.15 
   6   0 -37    0.13    0.21 
  -4   0  37    0.13    0.17 
   4   0 -37    0.15    0.22 
  -2   0  37    0.20    0.19 
   2   0 -37    0.89    0.27 
   0   0  37    0.01    0.17 
   0   0 -37    0.18    0.24 
  -2   0 -37    0.25    0.24 
   2   0  37    0.12    0.23 
  -5  -1  37   -0.16    0.17 
   5  -1 -37    0.20    0.21 
   5   1 -37   -0.35    0.16 
  -3  -1  37    0.20    0.19 
   3  -1 -37    0.48    0.25 
   3   1 -37   -0.18    0.19 
   1  -1 -37    0.08    0.21 
  -1  -1  37   -0.02    0.19 
   1   1 -37   -0.15    0.20 
  -1  -1 -37    0.49    0.27 
   1  -1  37   -0.26    0.17 
  -1   1 -37    0.37    0.26 
   4  -2 -37    0.46    0.25 
  -4  -2  37    0.83    0.29 
   4   2 -37    0.39    0.25 
   2  -2 -37    1.73    0.36 
  -2  -2  37    2.69    0.42 
   2   2 -37    2.27    0.38 
   0  -2 -37    0.25    0.23 
   0  -2  37   -0.02    0.21 
   0   2 -37    0.01    0.19 
  -4   0  38    1.12    0.30 
   4   0 -38    0.99    0.32 
   2   0 -38    4.01    0.51 
  -2   0  38    4.29    0.54 
  -3  -1  38   -0.04    0.18 
   3  -1 -38    0.34    0.25 
   3   1 -38    0.01    0.22 
   0   0   0    0.00    0.00 
;
_shelx_hkl_checksum              55652
loop_
_space_group_symop_operation_xyz
'x, y, z'
'-x, y, -z+1/2'
'x+1/2, y+1/2, z'
'-x+1/2, y+1/2, -z+1/2'
'-x, -y, -z'
'x, -y, z-1/2'
'-x+1/2, -y+1/2, -z'
'x+1/2, -y+1/2, z-1/2'
loop_
_atom_site_label
_atom_site_type_symbol
_atom_site_fract_x
_atom_site_fract_y
_atom_site_fract_z
_atom_site_U_iso_or_equiv
_atom_site_adp_type
_atom_site_occupancy
_atom_site_site_symmetry_order
_atom_site_calc_flag
_atom_site_refinement_flags_posn
_atom_site_refinement_flags_adp
C1 C -0.0505(5) 0.1558(9) 0.6828(3) 0.196(4) Uani 1 1 d . .
H1A H -0.0252 0.2116 0.7096 0.293 Uiso 1 1 calc R U
H1B H -0.1117 0.1242 0.6857 0.293 Uiso 1 1 calc R U
H1C H -0.0507 0.2242 0.6570 0.293 Uiso 1 1 calc R U
C2 C 0.0014(3) 0.0225(7) 0.6772(3) 0.135(2) Uani 1 1 d . .
H2A H -0.0136 -0.0149 0.6464 0.162 Uiso 1 1 calc R U
H2B H -0.0158 -0.0603 0.6971 0.162 Uiso 1 1 calc R U
C3 C 0.1062(3) 0.0455(5) 0.68675(14) 0.0746(10) Uani 1 1 d . .
C4 C 0.1590(3) -0.0457(4) 0.71795(13) 0.0746(10) Uani 1 1 d . .
H4 H 0.1308 -0.1171 0.7354 0.090 Uiso 1 1 calc R U
C5 C 0.2524(2) -0.0350(4) 0.72426(11) 0.0642(9) Uani 1 1 d . .
H5 H 0.2862 -0.1004 0.7452 0.077 Uiso 1 1 calc R U
C6 C 0.2959(2) 0.0728(4) 0.69949(10) 0.0541(8) Uani 1 1 d . .
C7 C 0.2443(3) 0.1704(4) 0.66909(11) 0.0659(9) Uani 1 1 d . .
H7 H 0.2725 0.2462 0.6530 0.079 Uiso 1 1 calc R U
C8 C 0.1510(3) 0.1556(4) 0.66263(12) 0.0739(10) Uani 1 1 d . .
H8 H 0.1171 0.2208 0.6416 0.089 Uiso 1 1 calc R U
C9 C 0.4507(2) 0.0777(4) 0.67689(9) 0.0537(8) Uani 1 1 d . .
C10 C 0.6007(2) 0.0875(4) 0.66542(10) 0.0555(8) Uani 1 1 d . .
H10 H 0.6615 0.0998 0.6772 0.067 Uiso 1 1 calc R U
C11 C 0.5803(2) 0.0653(3) 0.61953(9) 0.0514(7) Uani 1 1 d . .
C12 C 0.4890(2) 0.0462(4) 0.60208(10) 0.0617(9) Uani 1 1 d . .
H12 H 0.4727 0.0291 0.5713 0.074 Uiso 1 1 calc R U
C13 C 0.4240(2) 0.0527(4) 0.63017(10) 0.0629(9) Uani 1 1 d . .
H13 H 0.3629 0.0409 0.6189 0.076 Uiso 1 1 calc R U
C14 C 0.6529(2) 0.2233(3) 0.55054(9) 0.0488(7) Uani 1 1 d . .
C15 C 0.6265(3) 0.2095(4) 0.50493(11) 0.0714(10) Uani 1 1 d . .
H15 H 0.6157 0.1098 0.4919 0.086 Uiso 1 1 calc R U
C16 C 0.6161(3) 0.3448(5) 0.47852(11) 0.0798(11) Uani 1 1 d . .
H16 H 0.5987 0.3346 0.4476 0.096 Uiso 1 1 calc R U
C17 C 0.6305(2) 0.4929(4) 0.49657(11) 0.0639(9) Uani 1 1 d . .
C18 C 0.6583(3) 0.5037(4) 0.54280(12) 0.0713(10) Uani 1 1 d . .
H18 H 0.6697 0.6032 0.5559 0.086 Uiso 1 1 calc R U
C19 C 0.6692(2) 0.3707(4) 0.56964(10) 0.0638(9) Uani 1 1 d . .
H19 H 0.6874 0.3804 0.6005 0.077 Uiso 1 1 calc R U
C20 C 0.6172(3) 0.6396(5) 0.46761(14) 0.0949(14) Uani 1 1 d . .
H20A H 0.5695 0.7032 0.4772 0.142 Uiso 1 1 calc R U
H20B H 0.6011 0.6093 0.4366 0.142 Uiso 1 1 calc R U
H20C H 0.6726 0.7000 0.4706 0.142 Uiso 1 1 calc R U
N1 N 0.3912(2) 0.0850(4) 0.70764(9) 0.0648(8) Uani 1 1 d . .
N2 N 0.53904(18) 0.0926(3) 0.69389(8) 0.0558(7) Uani 1 1 d . .
O1 O 0.6470(2) -0.0830(3) 0.55557(8) 0.0899(9) Uani 1 1 d . .
O2 O 0.75154(17) 0.0600(3) 0.61330(8) 0.0839(8) Uani 1 1 d . .
S1 S 0.66602(6) 0.05219(10) 0.58463(3) 0.0623(3) Uani 1 1 d . .
H1N H 0.415(3) 0.087(4) 0.7335(13) 0.082(12) Uiso 1 1 d . .
loop_
_atom_site_aniso_label
_atom_site_aniso_U_11
_atom_site_aniso_U_22
_atom_site_aniso_U_33
_atom_site_aniso_U_23
_atom_site_aniso_U_13
_atom_site_aniso_U_12
C1 0.129(6) 0.152(6) 0.299(11) 0.050(7) 0.002(6) 0.004(5)
C2 0.083(4) 0.107(4) 0.224(7) 0.020(4) 0.052(4) 0.021(3)
C3 0.065(2) 0.074(2) 0.087(3) -0.001(2) 0.018(2) 0.0034(19)
C4 0.077(3) 0.069(2) 0.081(2) 0.0114(19) 0.022(2) -0.0059(19)
C5 0.070(2) 0.064(2) 0.0588(19) 0.0114(16) 0.0125(17) -0.0008(17)
C6 0.065(2) 0.0560(18) 0.0419(15) -0.0028(13) 0.0104(14) -0.0053(15)
C7 0.083(3) 0.0571(19) 0.059(2) 0.0075(15) 0.0144(18) -0.0051(18)
C8 0.078(3) 0.070(2) 0.072(2) 0.0065(18) 0.004(2) 0.016(2)
C9 0.066(2) 0.0583(18) 0.0373(15) 0.0001(13) 0.0082(14) -0.0114(15)
C10 0.061(2) 0.0612(19) 0.0441(16) 0.0028(14) 0.0057(14) -0.0042(15)
C11 0.063(2) 0.0500(16) 0.0420(15) 0.0022(13) 0.0091(14) -0.0009(14)
C12 0.085(3) 0.068(2) 0.0327(14) -0.0037(14) 0.0071(15) -0.0072(18)
C13 0.066(2) 0.083(2) 0.0392(16) -0.0039(15) 0.0027(15) -0.0151(18)
C14 0.0552(18) 0.0535(17) 0.0402(15) -0.0022(13) 0.0155(13) 0.0043(14)
C15 0.106(3) 0.064(2) 0.0445(17) -0.0084(16) 0.0097(18) -0.0031(19)
C16 0.112(3) 0.085(3) 0.0415(18) 0.0027(18) 0.0066(18) 0.004(2)
C17 0.070(2) 0.066(2) 0.062(2) 0.0119(17) 0.0295(17) 0.0149(17)
C18 0.097(3) 0.0556(19) 0.065(2) -0.0035(17) 0.024(2) -0.0016(18)
C19 0.087(3) 0.062(2) 0.0433(16) -0.0023(15) 0.0106(16) -0.0028(18)
C20 0.120(4) 0.086(3) 0.086(3) 0.033(2) 0.041(3) 0.029(2)
N1 0.0613(19) 0.096(2) 0.0374(14) -0.0001(14) 0.0054(13) -0.0127(15)
N2 0.0590(17) 0.0716(17) 0.0367(12) 0.0006(12) 0.0059(12) -0.0088(13)
O1 0.149(3) 0.0522(14) 0.0775(17) -0.0088(12) 0.0492(17) 0.0071(14)
O2 0.0691(17) 0.116(2) 0.0678(15) 0.0245(14) 0.0124(13) 0.0267(15)
S1 0.0820(7) 0.0566(5) 0.0520(5) 0.0049(4) 0.0231(4) 0.0118(4)
loop_
_atom_type_symbol
_atom_type_description
_atom_type_scat_dispersion_real
_atom_type_scat_dispersion_imag
_atom_type_scat_source
C C 0.0033 0.0016 'International Tables Vol C Tables 4.2.6.8 and 6.1.1.4'
H H 0.0000 0.0000 'International Tables Vol C Tables 4.2.6.8 and 6.1.1.4'
N N 0.0061 0.0033 'International Tables Vol C Tables 4.2.6.8 and 6.1.1.4'
O O 0.0106 0.0060 'International Tables Vol C Tables 4.2.6.8 and 6.1.1.4'
S S 0.1246 0.1234 'International Tables Vol C Tables 4.2.6.8 and 6.1.1.4'
loop_
_geom_angle_atom_site_label_1
_geom_angle_atom_site_label_2
_geom_angle_atom_site_label_3
_geom_angle
C2 C1 H1A 109.5
C2 C1 H1B 109.5
H1A C1 H1B 109.5
C2 C1 H1C 109.5
H1A C1 H1C 109.5
H1B C1 H1C 109.5
C1 C2 C3 115.9(5)
C1 C2 H2A 108.3
C3 C2 H2A 108.3
C1 C2 H2B 108.3
C3 C2 H2B 108.3
H2A C2 H2B 107.4
C4 C3 C8 117.0(4)
C4 C3 C2 121.6(4)
C8 C3 C2 121.4(4)
C3 C4 C5 122.2(3)
C3 C4 H4 118.9
C5 C4 H4 118.9
C4 C5 C6 120.1(3)
C4 C5 H5 120.0
C6 C5 H5 120.0
C7 C6 C5 119.0(3)
C7 C6 N1 121.9(3)
C5 C6 N1 119.0(3)
C8 C7 C6 119.9(3)
C8 C7 H7 120.0
C6 C7 H7 120.0
C7 C8 C3 121.7(3)
C7 C8 H8 119.1
C3 C8 H8 119.1
N2 C9 N1 115.3(3)
N2 C9 C13 121.3(3)
N1 C9 C13 123.4(3)
N2 C10 C11 124.1(3)
N2 C10 H10 118.0
C11 C10 H10 118.0
C10 C11 C12 117.7(3)
C10 C11 S1 121.2(3)
C12 C11 S1 121.1(2)
C13 C12 C11 119.8(3)
C13 C12 H12 120.1
C11 C12 H12 120.1
C12 C13 C9 118.9(3)
C12 C13 H13 120.6
C9 C13 H13 120.6
C15 C14 C19 120.0(3)
C15 C14 S1 120.0(2)
C19 C14 S1 120.0(2)
C14 C15 C16 119.5(3)
C14 C15 H15 120.3
C16 C15 H15 120.3
C17 C16 C15 121.9(3)
C17 C16 H16 119.1
C15 C16 H16 119.1
C16 C17 C18 117.5(3)
C16 C17 C20 121.4(3)
C18 C17 C20 121.1(4)
C19 C18 C17 121.5(3)
C19 C18 H18 119.2
C17 C18 H18 119.2
C14 C19 C18 119.5(3)
C14 C19 H19 120.2
C18 C19 H19 120.2
C17 C20 H20A 109.5
C17 C20 H20B 109.5
H20A C20 H20B 109.5
C17 C20 H20C 109.5
H20A C20 H20C 109.5
H20B C20 H20C 109.5
C9 N1 C6 127.5(3)
C9 N1 H1N 114(3)
C6 N1 H1N 118(3)
C10 N2 C9 118.2(2)
O2 S1 O1 119.00(17)
O2 S1 C11 107.27(15)
O1 S1 C11 107.95(16)
O2 S1 C14 109.26(15)
O1 S1 C14 107.53(14)
C11 S1 C14 104.97(14)
loop_
_geom_bond_atom_site_label_1
_geom_bond_atom_site_label_2
_geom_bond_distance
C1 C2 1.383(8)
C1 H1A 0.9600
C1 H1B 0.9600
C1 H1C 0.9600
C2 C3 1.555(6)
C2 H2A 0.9700
C2 H2B 0.9700
C3 C4 1.371(5)
C3 C8 1.394(5)
C4 C5 1.376(5)
C4 H4 0.9300
C5 C6 1.382(4)
C5 H5 0.9300
C6 C7 1.379(4)
C6 N1 1.408(4)
C7 C8 1.378(5)
C7 H7 0.9300
C8 H8 0.9300
C9 N2 1.347(4)
C9 N1 1.355(4)
C9 C13 1.415(4)
C10 N2 1.328(4)
C10 C11 1.376(4)
C10 H10 0.9300
C11 C12 1.395(4)
C11 S1 1.749(3)
C12 C13 1.359(5)
C12 H12 0.9300
C13 H13 0.9300
C14 C15 1.371(4)
C14 C19 1.373(4)
C14 S1 1.759(3)
C15 C16 1.382(5)
C15 H15 0.9300
C16 C17 1.363(5)
C16 H16 0.9300
C17 C18 1.390(5)
C17 C20 1.505(5)
C18 C19 1.373(5)
C18 H18 0.9300
C19 H19 0.9300
C20 H20A 0.9600
C20 H20B 0.9600
C20 H20C 0.9600
N1 H1N 0.81(4)
O1 S1 1.436(3)
O2 S1 1.436(3)
loop_
_geom_torsion_atom_site_label_1
_geom_torsion_atom_site_label_2
_geom_torsion_atom_site_label_3
_geom_torsion_atom_site_label_4
_geom_torsion
C1 C2 C3 C4 123.4(7)
C1 C2 C3 C8 -59.2(8)
C8 C3 C4 C5 -2.6(6)
C2 C3 C4 C5 175.0(4)
C3 C4 C5 C6 1.5(6)
C4 C5 C6 C7 1.0(5)
C4 C5 C6 N1 177.9(3)
C5 C6 C7 C8 -2.3(5)
N1 C6 C7 C8 -179.1(3)
C6 C7 C8 C3 1.2(5)
C4 C3 C8 C7 1.2(6)
C2 C3 C8 C7 -176.3(4)
N2 C10 C11 C12 -0.3(5)
N2 C10 C11 S1 -177.4(2)
C10 C11 C12 C13 1.1(5)
S1 C11 C12 C13 178.2(3)
C11 C12 C13 C9 -0.5(5)
N2 C9 C13 C12 -1.1(5)
N1 C9 C13 C12 -179.6(3)
C19 C14 C15 C16 -0.3(5)
S1 C14 C15 C16 179.8(3)
C14 C15 C16 C17 -0.6(6)
C15 C16 C17 C18 1.3(6)
C15 C16 C17 C20 -178.8(4)
C16 C17 C18 C19 -1.2(6)
C20 C17 C18 C19 178.9(3)
C15 C14 C19 C18 0.4(5)
S1 C14 C19 C18 -179.6(3)
C17 C18 C19 C14 0.4(6)
N2 C9 N1 C6 -179.8(3)
C13 C9 N1 C6 -1.2(5)
C7 C6 N1 C9 -55.1(5)
C5 C6 N1 C9 128.1(4)
C11 C10 N2 C9 -1.2(5)
N1 C9 N2 C10 -179.5(3)
C13 C9 N2 C10 1.8(4)
C10 C11 S1 O2 3.1(3)
C12 C11 S1 O2 -173.9(2)
C10 C11 S1 O1 132.5(3)
C12 C11 S1 O1 -44.6(3)
C10 C11 S1 C14 -113.1(3)
C12 C11 S1 C14 69.9(3)
C15 C14 S1 O2 131.9(3)
C19 C14 S1 O2 -48.0(3)
C15 C14 S1 O1 1.4(3)
C19 C14 S1 O1 -178.5(3)
C15 C14 S1 C11 -113.3(3)
C19 C14 S1 C11 66.7(3)
