#------------------------------------------------------------------------------
#$Date: 2017-09-28 16:23:38 +0300 (Thu, 28 Sep 2017) $
#$Revision: 201449 $
#$URL: file:///home/coder/svn-repositories/cod/cif/1/54/74/1547447.cif $
#------------------------------------------------------------------------------
#
# This file is available in the Crystallography Open Database (COD),
# http://www.crystallography.net/
#
# All data on this site have been placed in the public domain by the
# contributors.
#
data_1547447
loop_
_publ_author_name
'Anuradha R. Pallipurath'
'Jonathan M. Skelton'
'Mark R. Warren'
'Naghmeh Kamali'
'Patrick McArdle'
'Andrea Erxleben'
_publ_section_title
;
 Sulfamerazine: Understanding the Influence of Slip Planes in the
 Polymorphic Phase Transformation through X-Ray Crystallographic Studies
 and ab Initio Lattice Dynamics
;
_journal_name_full               'Molecular Pharmaceutics'
_journal_page_first              3735
_journal_page_last               3748
_journal_paper_doi               10.1021/acs.molpharmaceut.5b00504
_journal_volume                  12
_journal_year                    2015
_chemical_formula_moiety         'C11 H12 N4 O2 S'
_chemical_formula_sum            'C11 H12 N4 O2 S'
_chemical_formula_weight         264.31
_chemical_name_common            Sulfamerazine
_chemical_name_systematic        4-amino-N-(4-methylpyrimidin-2-yl)
_space_group_crystal_system      orthorhombic
_space_group_IT_number           61
_space_group_name_Hall           '-P 2ac 2ab'
_space_group_name_H-M_alt        'P b c a'
_symmetry_space_group_name_Hall  '-P 2ac 2ab'
_symmetry_space_group_name_H-M   'P b c a'
_atom_sites_solution_hydrogens   mixed
_cell_angle_alpha                90
_cell_angle_beta                 90
_cell_angle_gamma                90
_cell_formula_units_Z            8
_cell_length_a                   9.1280(3)
_cell_length_b                   11.6579(3)
_cell_length_c                   22.8759(5)
_cell_measurement_reflns_used    3394
_cell_measurement_temperature    250
_cell_measurement_theta_max      29.2490
_cell_measurement_theta_min      1.7270
_cell_volume                     2434.30(11)
_computing_cell_refinement
;
CrysAlisPro, Agilent Technologies,
Version 1.171.37.34 (release 22-05-2014 CrysAlis171 .NET)
(compiled May 22 2014,16:03:01)
;
_computing_data_collection
;
CrysAlisPro, Agilent Technologies,
Version 1.171.37.34 (release 22-05-2014 CrysAlis171 .NET)
(compiled May 22 2014,16:03:01)
;
_computing_data_reduction
;
CrysAlisPro, Agilent Technologies,
Version 1.171.37.34 (release 22-05-2014 CrysAlis171 .NET)
(compiled May 22 2014,16:03:01)
;
_computing_molecular_graphics    OSCAIL
_computing_structure_refinement  'SHELXL-2014/7 (Sheldrick, 2014)'
_computing_structure_solution    SHELXT
_diffrn_ambient_temperature      250
_diffrn_measured_fraction_theta_full 0.969
_diffrn_measured_fraction_theta_max 0.924
_diffrn_measurement_device       'CrystalLogic Kappa (3 circle)'
_diffrn_measurement_device_type  'Rigaku Saturn724+ (2x2 bin mode)'
_diffrn_measurement_method
;
omega rotation with 1 degree frames
;
_diffrn_measurement_specimen_support 'MiTeGen loop'
_diffrn_radiation_monochromator  'double crystal Silicon 111'
_diffrn_radiation_source         'Diamond Light Source Beamline I19'
_diffrn_radiation_type           Synchrotron
_diffrn_radiation_wavelength     0.68890
_diffrn_reflns_av_R_equivalents  0.0529
_diffrn_reflns_av_unetI/netI     0.0568
_diffrn_reflns_Laue_measured_fraction_full 0.969
_diffrn_reflns_Laue_measured_fraction_max 0.924
_diffrn_reflns_limit_h_max       11
_diffrn_reflns_limit_h_min       -7
_diffrn_reflns_limit_k_max       13
_diffrn_reflns_limit_k_min       -16
_diffrn_reflns_limit_l_max       32
_diffrn_reflns_limit_l_min       -21
_diffrn_reflns_number            9065
_diffrn_reflns_point_group_measured_fraction_full 0.969
_diffrn_reflns_point_group_measured_fraction_max 0.924
_diffrn_reflns_theta_full        24.415
_diffrn_reflns_theta_max         29.467
_diffrn_reflns_theta_min         1.726
_exptl_absorpt_coefficient_mu    0.266
_exptl_absorpt_correction_T_max  1.00000
_exptl_absorpt_correction_T_min  0.96413
_exptl_absorpt_correction_type   multi-scan
_exptl_absorpt_process_details
;
CrysAlisPro, Agilent Technologies,
Version 1.171.36.28 (release 01-02-2013 CrysAlis171 .NET)
Empirical absorption correction using spherical harmonics,
implemented in SCALE3 ABSPACK scaling algorithm.
;
_exptl_crystal_colour            Colourless
_exptl_crystal_density_diffrn    1.442
_exptl_crystal_description       Parallelepiped
_exptl_crystal_F_000             1104
_exptl_crystal_size_max          0.50
_exptl_crystal_size_mid          0.40
_exptl_crystal_size_min          0.20
_refine_diff_density_max         0.260
_refine_diff_density_min         -0.361
_refine_diff_density_rms         0.062
_refine_ls_extinction_coef       .
_refine_ls_extinction_method     none
_refine_ls_goodness_of_fit_ref   0.996
_refine_ls_hydrogen_treatment    mixed
_refine_ls_matrix_type           full
_refine_ls_number_parameters     176
_refine_ls_number_reflns         3431
_refine_ls_number_restraints     0
_refine_ls_restrained_S_all      0.996
_refine_ls_R_factor_all          0.0868
_refine_ls_R_factor_gt           0.0538
_refine_ls_shift/su_max          0.000
_refine_ls_shift/su_mean         0.000
_refine_ls_structure_factor_coef Fsqd
_refine_ls_weighting_details
'w=1/[\s^2^(Fo^2^)+(0.0463P)^2^+1.4827P] where P=(Fo^2^+2Fc^2^)/3'
_refine_ls_weighting_scheme      calc
_refine_ls_wR_factor_gt          0.1180
_refine_ls_wR_factor_ref         0.1449
_reflns_Friedel_coverage         0.000
_reflns_Friedel_fraction_full    .
_reflns_Friedel_fraction_max     .
_reflns_number_gt                2277
_reflns_number_total             3431
_reflns_threshold_expression     'I > 2\s(I)'
_cod_data_source_file            Exp_Form-II2FSynchrotron_Form-II_250K.cif
_cod_data_source_block           250k_smz-f2_a
_cod_database_code               1547447
_shelx_space_group_comment
;
The symmetry employed for this shelxl refinement is uniquely defined
by the following loop, which should always be used as a source of
symmetry information in preference to the above space-group names.
They are only intended as comments.
;
_shelx_estimated_absorpt_t_min   0.878
_shelx_estimated_absorpt_t_max   0.949
_shelx_res_file
;

    250k_smz-f2_a.res created by SHELXL-2014/7

TITL 250k_smz-f2_a.res in Pbca
REM Old TITL 035_250K_SulfamerazineF2_ in Pbca
REM SHELXT solution in Pbca
REM R1 0.142,  Rweak 0.292,  Alpha 0.023,  Orientation as input
REM Formula found by SHELXT:  C12 N3 O2 S
CELL  0.68890   9.1280  11.6579  22.8759   90.000   90.000   90.000
ZERR    8.000   0.0003   0.0003   0.0005    0.000    0.000    0.000
REM SG 61 8 8 Pbca P21/b21/c21/a PGmmm Orthorhombic
LATT 1
REM SG  ASUN  1  .5 .5 .5
REM SG  ORGN  at Inv.cen.
SYMM 0.5-X,-Y,0.5+Z
SYMM -X,0.5+Y,0.5-Z
SYMM 0.5+X,0.5-Y,-Z
SFAC C H N O S
UNIT 88 96  32  16  8
FMAP 2
PLAN -32
BOND $H
L.S. 12
SIZE    0.50  0.40  0.20
ACTA
CONF
REM Instructions for potential hydrogen bonds
EQIV $1 -x+1/2, y+1/2, z
HTAB C6 O1_$1
EQIV $2 -x+1, -y+1, -z+1
HTAB C8 O2_$2
EQIV $3 x+1, y, z
HTAB C9 O2_$3
HTAB N2 N4_$2
EQIV $4 x+1/2, y, -z+1/2
HTAB N1 O2_$4
EQIV $5 -x+1, y+1/2, -z+1/2
HTAB N1 O1_$5
HTAB N1 N3_$5
LIST 4
WGHT    0.046300    1.482700
FVAR       0.55579
S1    5    0.332572    0.346461    0.389795    11.00000    0.03609    0.03490 =
         0.03066   -0.00278   -0.00030   -0.00380
O2    4    0.197971    0.396919    0.409542    11.00000    0.03161    0.05618 =
         0.03741   -0.00105   -0.00028   -0.00227
O1    4    0.342274    0.224318    0.386236    11.00000    0.06083    0.03356 =
         0.04140   -0.00124   -0.00100   -0.00952
N4    3    0.666806    0.426416    0.485382    11.00000    0.03548    0.04190 =
         0.03495   -0.00265   -0.00223    0.00375
N3    3    0.655605    0.285880    0.409011    11.00000    0.03971    0.03753 =
         0.03748   -0.00235    0.00296    0.00547
N2    3    0.451273    0.394681    0.437528    11.00000    0.03395    0.04024 =
         0.03591   -0.00997   -0.00245    0.00555
N1    3    0.455977    0.532981    0.155142    11.00000    0.06886    0.04840 =
         0.04199    0.00540    0.01731    0.00308
C1    1    0.376217    0.404463    0.321727    11.00000    0.03677    0.03585 =
         0.03099   -0.00301    0.00139   -0.00190
C2    1    0.448557    0.338125    0.280535    11.00000    0.05486    0.03927 =
         0.04210   -0.00052    0.00939    0.01063
AFIX  43
H2    2    0.477518    0.263801    0.289732    11.00000   -1.30000
AFIX   0
C3    1    0.477466    0.382663    0.225863    11.00000    0.06240    0.04137 =
         0.03926   -0.00130    0.01234    0.00882
AFIX  43
H3    2    0.527318    0.338203    0.198592    11.00000   -1.30000
AFIX   0
C4    1    0.433070    0.493448    0.210811    11.00000    0.04232    0.04084 =
         0.03717   -0.00046    0.00660   -0.00403
C5    1    0.359501    0.558630    0.252922    11.00000    0.05183    0.03130 =
         0.04436    0.00273    0.00714    0.00031
AFIX  43
H5    2    0.327760    0.632207    0.243629    11.00000   -1.30000
AFIX   0
C6    1    0.333424    0.515322    0.307975    11.00000    0.04358    0.03264 =
         0.03848   -0.00596    0.00773   -0.00126
AFIX  43
H6    2    0.287090    0.560475    0.335929    11.00000   -1.30000
AFIX   0
C7    1    0.597652    0.366253    0.443444    11.00000    0.03610    0.03355 =
         0.03163    0.00222    0.00203    0.00090
C8    1    0.808191    0.401305    0.492793    11.00000    0.03634    0.05343 =
         0.04079    0.00117   -0.00420    0.00174
AFIX  43
H8    2    0.861032    0.440699    0.521168    11.00000   -1.30000
AFIX   0
C9    1    0.878065    0.319887    0.460231    11.00000    0.03521    0.05755 =
         0.04402    0.00816    0.00019    0.00861
AFIX  43
H9    2    0.976617    0.303541    0.466311    11.00000   -1.30000
AFIX   0
C10   1    0.798784    0.262502    0.418095    11.00000    0.04284    0.03902 =
         0.04185    0.00740    0.00709    0.00709
C11   1    0.866265    0.169699    0.381796    11.00000    0.05217    0.05419 =
         0.06793   -0.00567    0.01310    0.01572
AFIX 137
H11A  2    0.821124    0.097598    0.391099    11.00000   -1.30000
H11B  2    0.969328    0.165506    0.389877    11.00000   -1.30000
H11C  2    0.851632    0.186460    0.341126    11.00000   -1.30000
AFIX   0
H1N2  2    0.417696    0.445872    0.458347    11.00000    0.05193
H1N1  2    0.514470    0.494430    0.134236    11.00000    0.05577
H2N1  2    0.451751    0.606027    0.147742    11.00000    0.07578
HKLF 4

REM  250k_smz-f2_a.res in Pbca
REM R1 =  0.0538 for    2277 Fo > 4sig(Fo)  and  0.0868 for all    3431 data
REM    176 parameters refined using      0 restraints

END

WGHT      0.0413      0.8128

REM Highest difference peak  0.260,  deepest hole -0.361,  1-sigma level  0.062
Q1    1   0.4847  0.3484  0.2519  11.00000  0.05    0.26
Q2    1   0.3454  0.3794  0.3495  11.00000  0.05    0.25
Q3    1   0.6508  0.4047  0.2889  11.00000  0.05    0.24
Q4    1   0.6004  0.4541  0.5091  11.00000  0.05    0.23
Q5    1   0.7962  0.0976  0.3573  11.00000  0.05    0.22
Q6    1   0.1667  0.4839  0.3500  11.00000  0.05    0.21
Q7    1   0.2289  0.3810  0.3997  11.00000  0.05    0.21
Q8    1   0.6140  0.3871  0.3375  11.00000  0.05    0.21
Q9    1   0.3442  0.3354  0.3012  11.00000  0.05    0.21
Q10   1   0.8539  0.3185  0.4309  11.00000  0.05    0.21
Q11   1   0.4755  0.3341  0.4622  11.00000  0.05    0.21
Q12   1   0.8253  0.2153  0.3956  11.00000  0.05    0.20
Q13   1   0.3805  0.2184  0.3920  11.00000  0.05    0.20
Q14   1   0.4269  0.1749  0.4397  11.00000  0.05    0.20
Q15   1   0.0980  0.3558  0.3792  11.00000  0.05    0.19
Q16   1   0.4863  0.4605  0.2191  11.00000  0.05    0.19
Q17   1   0.2468  0.1615  0.4062  11.00000  0.05    0.19
Q18   1   0.1503  0.3820  0.4079  11.00000  0.05    0.19
Q19   1   0.5080  0.3782  0.2191  11.00000  0.05    0.19
Q20   1   0.5021  0.2164  0.3207  11.00000  0.05    0.18
Q21   1   0.9595  0.3426  0.4212  11.00000  0.05    0.18
Q22   1   0.5634  0.5527  0.4607  11.00000  0.05    0.18
Q23   1   0.2666  0.4171  0.2105  11.00000  0.05    0.18
Q24   1   0.6666  0.3959  0.3665  11.00000  0.05    0.18
Q25   1   0.3176  0.1920  0.3720  11.00000  0.05    0.18
Q26   1   0.5485  0.5255  0.1623  11.00000  0.05    0.18
Q27   1   0.2101  0.3482  0.2803  11.00000  0.05    0.18
Q28   1   0.5334  0.4215  0.2416  11.00000  0.05    0.18
Q29   1   1.0883  0.2002  0.4232  11.00000  0.05    0.18
Q30   1   0.2172  0.2212  0.3740  11.00000  0.05    0.18
Q31   1   0.3916  0.3734  0.3090  11.00000  0.05    0.18
Q32   1   0.6738  0.5609  0.4597  11.00000  0.05    0.17
;
_shelx_res_checksum              44226
_shelx_hkl_file
;
   0   0   2  836.16   15.05
   0   0   3    1.38    0.23
   0   0   4 2770.41   38.87
   0   0   5   -0.28    0.22
   0   0   6 7477.65   77.33
   0   0   7   -0.55    1.07
   0   0   8 1009.00   32.92
   0   0   9    3.33    2.99
   0   0  10 5189.57   83.36
   0   0  11    0.67    2.17
   0   0  12    7.64    4.11
   0   0  13    0.53    1.00
   0   0  14  812.65   38.75
   0   0  15    0.41    1.89
   0   0  16   22.43    7.95
   0   0  17   -1.46    3.70
   0   0  18 1249.50   55.15
   0   0  19   -0.46    0.92
   0   0  20  123.64   18.28
   0   0  21   -2.76    2.26
   0   0  22  185.43   22.40
   0   0  23    4.32    6.40
   0   0  24   83.89   16.37
   0   0  25   -1.96    2.92
   0   0  26   34.04   11.19
   0   0  27    7.88    5.82
   0   0  28   33.68   10.20
   0   0  29   -1.36    1.60
   0   0  30  174.39   25.86
   0   0  31   -1.72    3.29
   0   0  32    0.12    5.33
   0  -1   0   -0.66    0.49
   0  -1   1   -0.53    0.47
   0   1   1   -0.10    0.56
   0   1   2    0.79    0.86
   0  -1   2   -0.25    0.37
   0   1   3   -1.93    1.82
   0  -1   3   -0.10    0.57
   0  -1   4    0.30    1.27
   0   1   4    0.75    0.60
   0   1   5    0.72    1.46
   0  -1   5   -0.32    1.32
   0   1   6   -0.36    2.07
   0  -1   6    0.01    0.94
   0  -1   7    0.74    2.03
   0   1   7    2.57    2.21
   0  -1   8   -0.46    0.72
   0   1   8   -0.75    0.32
   0   1   9   -1.90    0.70
   0  -1   9   -0.13    0.47
   0   1  10    0.15    1.62
   0  -1  10    4.51    3.74
   0  -1  11    0.72    0.85
   0   1  11   -1.30    2.82
   0  -1  12    1.22    2.13
   0   1  12    1.04    2.88
   0  -1  13    1.51    2.21
   0   1  13   -1.62    3.00
   0  -1  14    0.37    2.96
   0   1  14   -1.76    4.16
   0   1  15    3.48    3.14
   0  -1  15   -1.65    2.82
   0   1  16   -0.46    2.03
   0  -1  16   -0.91    2.56
   0   1  17   -1.43    3.16
   0  -1  17   -2.94    3.90
   0   1  18    0.35    1.99
   0  -1  18   -1.60    1.35
   0   1  19    3.53    4.44
   0  -1  19    2.06    3.13
   0   1  20   -2.97    3.74
   0  -1  20    1.48    4.47
   0   1  21   -1.86    1.47
   0  -1  21    1.59    5.11
   0   1  22    3.56    8.64
   0  -1  22    2.23    5.64
   0   1  23   -4.58    5.69
   0  -1  23    4.98    4.57
   0  -1  24   -5.94    5.23
   0   1  24    5.39    5.94
   0   1  25    5.80    5.99
   0  -1  25    0.55    4.32
   0   1  26    2.44    4.48
   0  -1  26    3.97    6.44
   0   1  27   -2.85    3.09
   0  -1  27   -4.01    3.60
   0   1  28   -2.03    5.94
   0  -1  28   -0.60    3.90
   0  -1  29   -0.80    2.42
   0   1  29   -0.08    2.11
   0  -1  30    4.68    4.61
   0   1  30    0.28    3.84
   0  -1  31    3.03    2.68
   0   1  31   -1.40    3.34
   0   1  32    4.29    5.89
   0  -1  32    0.76    3.96
   0  -2   0    2.13    1.55
   0   2   1 8344.37   65.87
   0  -2   1 8411.83   64.20
   0   2   2 4309.33   48.84
   0  -2   2 4217.15   46.10
   0  -2   3 9588.76   75.35
   0   2   3 9999.00   78.60
   0   2   4 8137.87   77.00
   0  -2   4 8097.96   74.76
   0  -2   5 8250.09   81.02
   0   2   5 8336.26   83.43
   0   2   6 8118.06   88.69
   0  -2   6 7907.47   84.67
   0   2   7   61.28    8.18
   0  -2   7   61.99    7.82
   0  -2   8  555.61   25.61
   0   2   8  541.51   25.54
   0   2   9 1750.77   48.09
   0  -2   9 1756.06   46.99
   0   2  10  859.28   35.17
   0  -2  10  879.86   35.15
   0   2  11 1292.05   44.99
   0  -2  11 1242.17   43.44
   0   2  12  536.85   29.96
   0  -2  12  581.07   31.11
   0  -2  13  135.63   15.26
   0   2  13  136.21   15.52
   0  -2  14  585.92   33.91
   0   2  14  645.31   35.18
   0   2  15   16.25    6.16
   0  -2  15   18.37    6.51
   0  -2  16   52.13   10.28
   0   2  16   97.20   14.73
   0  -2  17  487.44   33.31
   0   2  17  488.30   33.15
   0  -2  18  212.10   23.03
   0   2  18  227.76   23.82
   0   2  19  604.83   38.92
   0  -2  19  662.49   40.54
   0   2  20   68.80   14.02
   0  -2  20   57.16   12.30
   0   2  21   70.35   14.49
   0  -2  21   73.01   13.07
   0  -2  22    8.13    7.92
   0   2  22   -0.54    3.27
   0  -2  23  363.42   32.83
   0   2  23  363.48   33.54
   0  -2  24    0.25    2.99
   0   2  24    4.90    7.10
   0  -2  25   10.97    4.47
   0   2  25   18.28   10.06
   0   2  26   82.69   16.40
   0  -2  26   84.99   17.43
   0  -2  27   10.42    6.67
   0   2  27    5.96    6.87
   0   2  28   13.63    5.28
   0  -2  28    5.58    1.53
   0   2  29   48.61   14.83
   0  -2  29   45.98   13.07
   0   2  30    9.77    8.21
   0  -2  30    2.98    3.20
   0   2  31   -2.82    3.07
   0  -2  31    6.08    1.41
   0   2  32   22.98    9.20
   0  -2  32   19.06    9.58
   0  -3   0   -1.13    1.00
   0  -3   1   -0.32    1.17
   0  -3   2   -0.93    0.69
   0   3   2   -0.63    1.77
   0   3   3   -1.82    0.78
   0  -3   3   -0.48    0.92
   0  -3   4   -0.60    1.48
   0   3   4    2.04    2.51
   0   3   5    0.41    2.58
   0  -3   5   -1.95    2.05
   0   3   6    0.89    2.71
   0  -3   6   -0.26    0.80
   0  -3   7    1.84    1.52
   0   3   7   -0.89    1.07
   0   3   8    0.32    2.29
   0  -3   8    1.29    2.00
   0  -3   9    0.37    2.58
   0   3   9   -1.43    2.29
   0  -3  10    0.47    2.24
   0   3  10    1.53    2.25
   0   3  11   -1.30    3.01
   0  -3  11   -0.38    2.27
   0  -3  12    4.74    4.94
   0   3  12   -1.34    1.70
   0   3  13    1.51    3.51
   0  -3  13    0.81    1.04
   0  -3  14   -2.23    3.92
   0   3  14   -2.44    3.81
   0   3  15   -1.05    2.73
   0  -3  15    3.43    3.00
   0  -3  16    0.03    3.86
   0   3  16    1.39    4.74
   0  -3  17    3.08    1.36
   0   3  17    3.81    5.42
   0  -3  18    0.56    3.84
   0   3  18    1.56    1.95
   0  -3  19    3.31    4.83
   0   3  19    1.19    4.85
   0   3  20    1.24    2.82
   0  -3  20   -2.97    3.94
   0   3  21   -2.52    0.71
   0  -3  21    0.75    4.88
   0   3  22    0.19    2.09
   0  -3  22   -0.84    4.54
   0   3  23    1.80    4.29
   0  -3  23    1.41    5.47
   0   3  24   -0.30    2.17
   0  -3  24    6.83    6.80
   0  -3  25    4.23    6.85
   0   3  25   -4.52    6.54
   0   3  26    0.57    4.65
   0  -3  26   -2.61    3.80
   0   3  27    1.27    5.85
   0  -3  27    2.06    4.47
   0   3  28   -0.05    4.19
   0  -3  28   -1.81    3.37
   0  -3  29    3.49    3.53
   0   3  29   -3.63    7.01
   0  -3  30    1.00    3.88
   0   3  30    2.90    4.09
   0  -3  31    4.40    4.97
   0   3  31   -3.54    4.96
   0  -3  32    7.21    5.59
   0   3  32    0.91    5.08
   0  -4   0 4229.43   64.97
   0  -4  -1 1442.54   37.22
   0  -4   1 1417.76   37.23
   0  -4   2 1650.91   39.98
   0   4   3   87.74    9.53
   0  -4   3   93.85    9.51
   0  -4   4  220.65   15.08
   0   4   4  197.51   14.88
   0   4   5  258.34   17.69
   0  -4   5  239.50   16.29
   0   4   6  717.71   30.06
   0  -4   6  703.30   28.59
   0  -4   7  338.83   20.65
   0   4   7  331.21   20.59
   0  -4   8  234.45   17.90
   0   4   8  206.06   16.90
   0  -4   9    7.11    2.88
   0   4   9    3.82    1.71
   0  -4  10   -1.37    3.38
   0   4  10   -0.68    3.00
   0   4  11   77.22   12.00
   0  -4  11   90.76   12.46
   0   4  12   -0.56    3.24
   0  -4  12    3.78    3.10
   0  -4  13    5.27    3.82
   0   4  13    5.26    2.93
   0  -4  14  179.03   19.37
   0   4  14  175.32   19.09
   0  -4  15   92.45   14.87
   0   4  15   74.59   12.78
   0  -4  16  154.19   19.61
   0   4  16  139.14   17.39
   0  -4  17  564.70   37.17
   0   4  17  543.78   36.22
   0  -4  18 1224.60   55.72
   0   4  18 1222.25   56.26
   0  -4  19  337.14   30.14
   0   4  19  328.39   29.67
   0   4  20    3.04    1.95
   0  -4  20    6.02    5.17
   0   4  21   51.51   12.02
   0  -4  21   60.35   13.84
   0   4  22    0.48    3.95
   0  -4  22    3.60    2.06
   0   4  23   78.31   15.53
   0  -4  23   80.61   15.92
   0  -4  24  215.08   26.86
   0   4  24  225.87   26.59
   0  -4  25   78.28   16.45
   0   4  25  103.39   17.58
   0  -4  26   13.71    7.31
   0   4  26    1.45    2.10
   0  -4  27    0.68    6.47
   0   4  27    8.08    3.09
   0   4  28   23.67    8.57
   0  -4  28   13.35    5.18
   0  -4  29   13.35    5.04
   0   4  29   13.41    7.72
   0   4  30   -0.11    2.70
   0  -4  30   -1.80    4.20
   0  -4  31    3.36    5.00
   0   4  31    3.15    2.93
   0  -5   0   -0.47    2.54
   0  -5   1    2.45    2.62
   0  -5  -1    3.93    1.46
   0  -5   2    3.13    3.77
   0  -5  -2   -0.06    1.29
   0  -5   3   -0.42    0.91
   0  -5   4   -0.71    2.25
   0   5   4    3.07    3.47
   0   5   5   -1.96    0.49
   0  -5   5    0.45    1.41
   0   5   6    0.86    2.13
   0  -5   6    3.20    2.76
   0   5   7    0.83    1.93
   0  -5   7   -0.84    0.96
   0  -5   8    0.30    1.59
   0   5   8    0.05    2.96
   0   5   9    2.33    3.13
   0  -5   9    0.62    2.64
   0  -5  10    0.97    1.33
   0   5  10    0.98    4.25
   0   5  11    2.61    3.53
   0  -5  11    2.20    3.48
   0  -5  12    1.55    3.09
   0   5  12    2.20    3.62
   0   5  13   -2.64    4.70
   0  -5  13   -2.34    0.17
   0   5  14   -0.02    2.92
   0  -5  14    2.10    1.45
   0   5  15    1.45    1.80
   0  -5  15    3.62    3.13
   0  -5  16   -1.08    1.57
   0   5  16   -2.00    3.23
   0   5  17   -1.62    2.00
   0  -5  17    1.33    4.35
   0  -5  18    0.14    1.48
   0   5  18   -0.51    2.54
   0   5  19   -1.42    2.79
   0  -5  19    3.29    4.09
   0  -5  20    1.76    2.92
   0   5  20   -1.91    2.22
   0   5  21   -0.28    2.88
   0  -5  21    2.38    4.13
   0   5  22    1.47    2.95
   0  -5  22   -2.67    5.20
   0   5  23    3.24    2.70
   0  -5  23    4.87    6.44
   0   5  24    0.09    2.42
   0  -5  24   -2.59    3.27
   0  -5  25   -2.94    4.10
   0   5  25    0.07    1.25
   0   5  26    4.09    5.89
   0  -5  26   -3.48    5.22
   0   5  27    9.64    6.81
   0  -5  27    2.70    6.56
   0  -5  28    5.06    7.60
   0   5  28    0.23    3.88
   0   5  29    3.23    3.60
   0  -5  29   -2.10    4.55
   0  -5  30   -0.41    2.76
   0   5  30   -1.34    2.21
   0   5  31   -3.01    4.71
   0  -5  31    2.91    3.40
   0  -6   0   19.99    5.71
   0  -6  -1 4060.32   77.34
   0  -6   1 3877.75   75.96
   0  -6   2 1173.89   41.49
   0  -6  -2 1173.92   41.25
   0  -6   3  206.11   17.52
   0  -6   4  620.51   30.00
   0  -6   5   24.10    5.87
   0   6   5   26.17    6.61
   0   6   6   10.04    3.78
   0  -6   6    5.26    3.03
   0  -6   7  288.67   21.86
   0  -6   8   54.31   10.02
   0   6   8   46.74    9.16
   0   6   9   47.85    9.90
   0  -6   9   48.07    9.36
   0  -6  10   69.74   11.41
   0   6  10   69.59   11.59
   0   6  11    2.42    3.60
   0  -6  11   -0.71    0.40
   0   6  12 2885.81   79.05
   0  -6  12 2933.19   77.36
   0  -6  13   -2.33    3.45
   0   6  13    1.46    3.02
   0  -6  14  286.41   25.25
   0   6  14  234.79   23.35
   0   6  15  501.98   34.27
   0  -6  15  503.01   34.27
   0  -6  16   65.29   13.14
   0   6  16   68.44   13.00
   0   6  17   83.18   15.03
   0  -6  17   65.05   12.88
   0  -6  18  445.55   34.94
   0   6  18  444.82   35.80
   0  -6  19  258.24   26.95
   0   6  19  271.08   27.76
   0   6  20   55.59   12.24
   0  -6  20   68.26   14.86
   0  -6  21  303.05   30.87
   0   6  21  297.71   29.75
   0  -6  22  195.92   24.94
   0   6  22  179.38   24.07
   0  -6  23   14.25    7.28
   0   6  23    2.85    1.99
   0   6  24   48.51   12.66
   0  -6  24   41.82   11.29
   0  -6  25   88.06   16.78
   0   6  25   94.64   17.64
   0  -6  26  129.30   20.73
   0   6  26  104.11   19.06
   0  -6  27   15.53   10.92
   0   6  27    4.12    5.71
   0   6  28   66.68   15.10
   0  -6  28   89.22   18.66
   0  -6  29   12.11    6.37
   0   6  29   24.35   10.35
   0   6  30   -0.06    2.86
   0  -6  30    6.26    5.21
   0  -7   0    2.48    3.64
   0  -7  -1   -1.36    3.03
   0  -7   1   -0.71    3.94
   0  -7   2    0.42    3.51
   0  -7  -2    1.78    1.87
   0  -7   3    2.75    1.34
   0  -7  -3   -0.55    1.11
   0  -7   4    1.12    0.93
   0  -7   5    0.93    2.37
   0  -7   6   -0.11    1.92
   0   7   6    3.51    3.51
   0   7   7   -0.64    3.61
   0  -7   7    6.40    5.94
   0   7   8   -1.55    3.53
   0  -7   8    2.07    3.30
   0   7   9   -5.02    4.49
   0  -7   9    6.14    4.38
   0   7  10    3.73    3.74
   0  -7  10    0.51    2.78
   0   7  11   -0.21    3.38
   0  -7  11    1.28    3.52
   0  -7  12   -0.05    4.56
   0   7  12    0.67    2.04
   0  -7  13    0.65    6.67
   0   7  13   -4.42    5.58
   0   7  14    3.23    3.63
   0  -7  14   -3.38    4.66
   0   7  15   -3.23    4.53
   0  -7  15    2.29    3.77
   0  -7  16    0.66    2.34
   0   7  16    1.44    5.64
   0   7  17   -1.72    3.23
   0  -7  17    4.09    4.06
   0   7  18   -1.49    2.35
   0  -7  18   -1.32    4.50
   0  -7  19   -3.11    4.94
   0   7  19   -3.42    4.53
   0  -7  20    1.78    2.02
   0   7  20   -3.08    6.39
   0  -7  21    0.48    1.73
   0   7  21    3.94    5.22
   0   7  22    1.09    5.24
   0  -7  22    0.37    2.49
   0  -7  23   -2.87    3.86
   0   7  23   -2.26    3.24
   0  -7  24   -1.18    2.22
   0   7  24    2.06    4.23
   0   7  25   -1.30    2.69
   0  -7  25    3.64    6.51
   0   7  26   -2.69    1.27
   0  -7  26    3.31    3.00
   0   7  27    1.18    3.60
   0  -7  27    1.08    5.03
   0  -7  28   11.85    8.96
   0   7  28   -4.20    5.95
   0  -7  29    3.31    5.62
   0   7  29    1.58    1.92
   0  -8   0  407.03   28.39
   0  -8   1   20.80    6.08
   0  -8  -1   14.92    5.71
   0  -8   2   32.11    6.90
   0  -8  -2   27.55    7.15
   0  -8   3   15.38    5.20
   0  -8  -3    9.30    4.78
   0  -8  -4  193.02   18.96
   0  -8   4  175.78   18.38
   0  -8   5   70.93   11.80
   0  -8  -5   81.64   13.06
   0  -8   6  217.15   20.93
   0  -8   7 1037.76   47.41
   0   8   8  369.64   29.13
   0  -8   8  412.19   29.12
   0   8   9  211.36   22.69
   0  -8   9  184.34   19.76
   0  -8  10  102.86   15.46
   0   8  10  128.86   16.97
   0   8  11 1193.64   54.76
   0  -8  11 1284.31   54.88
   0   8  12   35.01   10.08
   0  -8  12   46.68   10.91
   0   8  13  150.71   20.07
   0  -8  13  147.85   19.38
   0   8  14  149.64   19.51
   0  -8  14  160.64   20.66
   0  -8  15  698.34   43.19
   0   8  15  658.04   42.46
   0   8  16    1.70    3.43
   0  -8  16    3.76    2.63
   0   8  17  491.64   37.36
   0  -8  17  572.09   41.81
   0  -8  18   55.08   13.65
   0   8  18   84.96   16.16
   0   8  19  145.69   21.71
   0   8  20   -3.71    3.50
   0  -8  20    2.01    3.75
   0  -8  21  159.15   22.81
   0   8  21  125.24   20.65
   0  -8  22    6.52    8.68
   0   8  22    1.36    3.51
   0  -8  23   57.52   14.72
   0   8  23   74.06   15.24
   0  -8  24   23.55    9.37
   0   8  24   20.59    6.70
   0   8  25  170.33   24.46
   0  -8  25  192.80   26.90
   0   8  26    6.72    5.02
   0  -8  26    2.03    6.07
   0   8  27   15.73    9.97
   0  -8  27   31.72   12.08
   0   8  28    1.37    4.28
   0  -8  28   15.84    7.98
   0  -9   0   -0.07    3.58
   0  -9   1    0.39    3.71
   0  -9  -1   -0.41    2.88
   0  -9   2   -3.79    2.44
   0  -9  -2    3.82    4.44
   0  -9   3   -0.50    3.17
   0  -9  -3    1.50    4.56
   0  -9  -4   -2.78    4.75
   0  -9   4    1.72    3.97
   0  -9   5    3.87    3.97
   0  -9  -5    0.07    3.77
   0  -9  -6   -0.98    3.22
   0  -9   6   -2.98    1.92
   0  -9   7   -1.06    2.84
   0  -9   8   -0.03    1.59
   0  -9   9    2.32    4.66
   0  -9  10    5.19    4.71
   0   9  10   -0.61    4.10
   0   9  11   -4.44    2.41
   0  -9  11    3.65    4.94
   0  -9  12    1.93    5.70
   0   9  12    1.59    1.52
   0   9  13   -3.91    3.34
   0  -9  13    1.78    5.05
   0   9  14    3.89    5.83
   0  -9  14    7.15    4.03
   0  -9  15   -1.21    2.36
   0   9  15   -1.77    6.09
   0   9  16   -1.33    4.24
   0  -9  16   -1.05    2.11
   0  -9  17    3.40    4.23
   0   9  17   -1.26    5.13
   0  -9  18   -3.03    1.71
   0   9  18    1.07    7.67
   0   9  19    0.73    5.30
   0  -9  19    6.04    6.14
   0  -9  20   -2.87    1.45
   0   9  20    2.06    1.24
   0   9  21    0.32    4.75
   0  -9  21    5.99    7.74
   0   9  22   -1.16    1.31
   0  -9  22    2.11    3.72
   0   9  23   -1.37    3.61
   0  -9  23    1.88    6.18
   0   9  24   -0.71    1.49
   0  -9  24    1.20    2.19
   0   9  25    1.94    4.63
   0  -9  25   -2.25    0.98
   0  -9  26   -5.16    6.15
   0   9  26    0.08    5.17
   0  -9  27   -1.48    4.52
   0   9  27    0.72    4.04
   0 -10   0   30.66    8.64
   0 -10   1    8.58    4.60
   0 -10  -1    8.47    3.24
   0 -10   2    3.04    3.00
   0 -10  -2    8.39    4.64
   0 -10  -3   -2.26    5.22
   0 -10   3   -0.75    3.65
   0 -10  -4  243.79   24.85
   0 -10   4  239.01   23.86
   0 -10   5  201.97   22.15
   0 -10  -5  237.94   24.52
   0 -10  -6  220.78   23.79
   0 -10   6  199.16   22.08
   0 -10   7   98.20   14.71
   0 -10  -7   92.29   15.91
   0 -10   8  559.45   37.94
   0 -10  -8  637.80   40.85
   0 -10   9   46.69    9.59
   0 -10  10    1.21    1.88
   0 -10  11  281.47   27.74
   0  10  12   62.10   12.56
   0 -10  12   57.26   12.97
   0 -10  13   64.60   14.00
   0  10  13   44.32   11.64
   0 -10  14  221.00   25.87
   0  10  14  266.98   28.33
   0 -10  15   11.88    5.74
   0  10  15    8.36    6.47
   0 -10  16    1.76    6.03
   0  10  16    1.80    2.97
   0 -10  17    1.97    2.34
   0  10  17   -0.02    1.45
   0 -10  18  120.35   20.28
   0  10  18  111.05   19.00
   0  10  19    6.96    7.68
   0 -10  19    2.81    2.26
   0  10  20    9.62    7.69
   0 -10  20   15.42    8.22
   0 -10  21   38.08   10.50
   0  10  21   33.39   10.04
   0 -10  22  279.29   32.22
   0 -10  23    6.79    7.85
   0  10  23   -2.96    4.85
   0  10  24    4.98    6.63
   0 -10  24    6.47    4.57
   0  10  25   36.28   14.19
   0 -10  25   72.52   18.26
   0  10  26   47.99   14.07
   0 -10  26   35.64   13.26
   0 -11   0   -1.99    2.22
   0 -11  -1    0.40    3.16
   0 -11   1   -0.25    3.71
   0 -11   2    0.45    1.13
   0 -11  -2    1.58    5.83
   0 -11   3    2.66    5.46
   0 -11  -3    0.56    2.26
   0 -11  -4    0.02    3.68
   0 -11   4    3.10    3.25
   0 -11   5   -1.88    4.69
   0 -11  -5    2.41    5.56
   0 -11   6   -4.09    4.54
   0 -11  -6   -1.07    4.93
   0 -11  -7   -3.00    3.81
   0 -11   7   -4.44    4.27
   0 -11  -8    3.43    4.05
   0 -11   8    0.06    3.22
   0 -11   9   -2.32    3.80
   0 -11  -9    0.28    2.62
   0 -11  10    4.26    5.79
   0 -11  11   -1.42    5.15
   0 -11  12    0.82    2.58
   0 -11  13    0.09    2.89
   0 -11  14   -2.20    5.42
   0  11  14   -2.64    5.02
   0 -11  15    4.21    3.65
   0  11  15   -3.22    4.63
   0 -11  16   -0.27    4.92
   0  11  16   -1.61    4.83
   0 -11  17   -4.92    7.09
   0  11  17   -0.20    1.90
   0 -11  18   -3.82    4.49
   0  11  18   -0.57    1.02
   0 -11  19   -5.46    6.61
   0  11  19    0.66    4.32
   0 -11  20   -4.58    5.51
   0  11  20    1.89    5.91
   0 -11  21    6.12    4.72
   0  11  21    3.16    4.20
   0  11  22   -1.73    0.92
   0 -11  22    0.41    2.99
   0 -11  23    2.29    2.97
   0  11  23    9.85    9.19
   0  11  24   -0.06    0.45
   0 -11  24    1.79    2.73
   0 -12   0  133.41   19.47
   0 -12  -1    1.29    2.09
   0 -12   1    3.68    3.05
   0 -12  -2   -1.66    4.28
   0 -12   2   -1.15    3.24
   0 -12  -3  118.71   18.92
   0 -12   3  122.67   19.45
   0 -12  -4   -0.16    5.26
   0 -12   4    1.70    2.07
   0 -12  -5   54.07   13.19
   0 -12   5   89.99   15.74
   0 -12   6   12.66    4.67
   0 -12  -6   27.15    9.54
   0 -12   7   21.52    8.26
   0 -12  -7   30.56   10.68
   0 -12   8   21.50    8.07
   0 -12  -8   13.22    6.06
   0 -12   9   15.71    5.72
   0 -12  -9   26.70   10.58
   0 -12 -10  245.05   27.13
   0 -12  10  251.80   27.70
   0 -12  11   99.40   17.37
   0 -12 -11  102.91   18.54
   0 -12  12   42.63   12.30
   0 -12 -12   27.89    9.55
   0 -12  13   -1.08    3.80
   0 -12  14   16.73    9.53
   0 -12  15    5.60    5.30
   0 -12  16   -0.21    3.24
   0 -12  17   13.33    9.33
   0  12  18    9.90    8.27
   0 -12  18   12.67    8.21
   0 -12  19    3.74    3.68
   0  12  19   -4.93    7.38
   0 -12  20   16.59   11.23
   0  12  20   -0.11    5.15
   0  12  21   23.59    9.41
   0 -12  21   38.96   13.06
   0 -12  22   -1.50    4.82
   0  12  22   14.37    7.25
   0 -13   0   -3.68    5.08
   0 -13   1    1.55    2.44
   0 -13  -1   -2.03    3.12
   0 -13   2    3.90    6.32
   0 -13  -2    6.40    7.26
   0 -13   3   -4.19    4.75
   0 -13  -3    4.71    3.92
   0 -13  -4   -1.12    4.65
   0 -13   4    2.07    3.03
   0 -13   5   -0.49    4.22
   0 -13  -5   -4.42    5.65
   0 -13   6    0.33    3.75
   0 -13  -6   -1.44    1.93
   0 -13   7   -0.79    0.68
   0 -13  -7   -8.23    6.73
   0 -13  -8   -0.45    4.91
   0 -13   8   10.86    8.37
   0 -13   9    1.35    2.06
   0 -13  -9    1.49    2.39
   0 -13 -10    0.07    3.51
   0 -13  10   -0.94    1.50
   0 -13 -11    2.33    5.50
   0 -13  11   -2.76    3.89
   0 -13 -12    6.70    7.78
   0 -13  12    4.82    5.98
   0 -13 -13    5.40    4.73
   0 -13  13    4.90    8.51
   0 -13 -14   -2.66    5.09
   0 -13  14   -1.31    5.56
   0 -13  15   -0.96    3.59
   0 -13 -15   -0.54    4.77
   0 -13  16   -1.03    1.75
   0 -13  17    9.74    7.65
   0 -13  18   -6.32    5.24
   0 -13  19   -0.09    1.30
   0 -13  20   -5.26    4.23
   0 -14   0   32.46   11.40
   0 -14  -1   61.96   14.57
   0 -14   1   56.15   13.84
   0 -14   2    0.32    3.48
   0 -14  -2    1.78    2.03
   0 -14  -3    5.91    8.39
   0 -14   3   14.76    8.49
   0 -14   4   23.29    9.33
   0 -14  -4   27.06   10.57
   0 -14   5    3.46    7.56
   0 -14  -5   -0.41    1.97
   0 -14  -6   19.41    9.36
   0 -14   6   38.13   12.78
   0 -14  -7   63.05   14.86
   0 -14   7   99.16   17.60
   0 -14  -8   94.80   19.05
   0 -14   8   47.59   13.32
   0 -14  -9    9.50    6.29
   0 -14   9   -8.22    6.62
   0 -14  10   63.40   14.60
   0 -14 -10   62.46   14.06
   0 -14 -11   13.45    8.43
   0 -14  11   10.86    9.21
   0 -14  12   11.48    5.83
   0 -14 -12   31.52   11.14
   0 -14 -13   52.71   14.75
   0 -14  13   58.41   15.67
   0 -14 -14   38.58   11.70
   0 -14  14   40.20   12.28
   0 -14 -15   -4.52    6.35
   0 -14  15    4.47    5.68
   0 -14  16   14.06    7.94
   0 -14 -16    0.17    2.17
   0 -14  17    6.23    6.63
   0 -14 -17   -2.32    6.37
   0 -15   0    7.12    3.03
   0 -15   1    1.73    3.75
   0 -15  -1   -4.29    5.83
   0 -15   2    0.82    3.29
   0 -15  -2   -5.75    4.70
   0 -15  -3    3.21    3.98
   0 -15   3   15.60    9.30
   0 -15   4   -2.14    2.03
   0 -15  -4   -1.65    3.20
   0 -15  -5    0.30    1.13
   0 -15   5    1.76    4.97
   0 -15   6    0.28    0.44
   0 -15  -6    8.34    7.11
   0 -15   7   -1.86    5.42
   0 -15  -7    4.05    4.96
   0 -15   8   -1.64    1.30
   0 -15  -8   -0.54    4.46
   0 -15   9  -10.44    9.19
   0 -15  -9    0.40    2.65
   0 -15 -10   -1.52    6.61
   0 -15  10   -3.69    6.69
   0 -15  11   -1.93    4.18
   0 -15 -11   -1.85    4.41
   0 -15  12    2.69    0.57
   0 -15 -12    0.97    5.05
   0 -15  13    2.03    4.05
   0 -15 -13    4.88    6.69
   0 -15 -14   -5.32    5.58
   0 -15  14    1.20    1.71
   0 -16   0  108.89   20.28
   0 -16   1   -1.93    4.28
   0 -16  -1   -2.16    6.31
   0 -16  -2    4.27    6.06
   0 -16   2   12.42    8.45
   0 -16  -3   19.21    6.00
   0 -16   3   10.24    5.63
   0 -16  -4  156.84   25.30
   0 -16   4  193.22   27.44
   0 -16   5    1.78    5.01
   0 -16  -5   15.50    8.80
   0 -16   6    0.21    4.04
   0 -16  -6    7.05    6.36
   0 -16  -7    1.54    3.56
   0 -16   7    9.39    7.85
   0 -16   8   20.00    8.92
   0 -16  -8   10.70    6.06
   0 -16  -9   29.86   11.41
   0 -16   9   25.42   11.11
   1   0   1   -0.50    0.53
  -1   0   2 2559.40   25.56
   1   0   2 2600.53   30.42
   1   0   3    1.08    1.12
  -1   0   3   -0.03    0.39
   1   0   4 1673.06   32.34
  -1   0   4 1700.15   29.34
  -1   0   5   -0.93    1.69
   1   0   5    2.54    2.00
   1   0   6 3425.63   54.61
  -1   0   6 3316.73   50.29
  -1   0   7    5.06    1.99
   1   0   7   -1.77    0.44
  -1   0   8 3255.34   57.76
   1   0   8 3084.35   59.50
   1   0   9    0.21    1.20
  -1   0   9   -0.65    2.25
   1   0  10   10.17    4.75
  -1   0  10    3.35    1.80
  -1   0  11    2.28    1.98
   1   0  11    1.52    3.32
   1   0  12 1576.82   51.04
  -1   0  12 1594.83   50.48
  -1   0  13   -0.06    1.59
   1   0  13    0.64    3.16
  -1   0  14  652.07   34.90
   1   0  14  604.17   34.02
  -1   0  15    0.32    3.01
   1   0  15   -0.74    3.96
  -1   0  16 2001.54   65.53
   1   0  16 2049.28   66.56
  -1   0  17   -1.57    3.86
   1   0  17    3.86    5.12
   1   0  18    0.67    4.10
  -1   0  18    0.17    3.10
   1   0  19    2.05    3.82
  -1   0  19   -2.16    1.67
  -1   0  20   93.91   15.39
   1   0  20  104.05   16.35
   1   0  21    2.89    4.28
  -1   0  21   -1.04    5.29
  -1   0  22   58.59   13.36
   1   0  22   48.16   12.50
   1   0  23    1.15    4.35
  -1   0  23    3.80    3.99
  -1   0  24  240.38   26.91
   1   0  24  306.81   30.62
  -1   0  25    2.99    4.47
   1   0  25   -1.78    5.25
   1   0  26  300.06   30.82
  -1   0  26  330.95   33.09
   1   0  27    3.58    5.69
  -1   0  27   -0.35    4.03
  -1   0  28   -2.62    4.39
   1   0  28    1.99    3.07
  -1   0  29   -3.45    3.16
   1   0  29    2.36    1.70
  -1   0  30   32.46   10.69
   1   0  30   21.96    8.02
   1   0  31   -0.84    3.79
  -1   0  31    4.69    7.07
   1   0  32   12.37    7.91
  -1   0  32    7.27    4.40
   1  -1   0   -0.36    1.05
   1  -1   1 1024.78   20.21
   1   1   1 1042.16   15.77
   1  -1   2 2934.69   37.62
   1   1   2 2752.94   31.47
   1   1   3  535.37   16.16
   1  -1   3  494.79   17.04
  -1  -1   3  517.25   13.35
  -1   1   4  158.09    9.97
   1  -1   4  146.12    9.86
   1   1   4  154.76    9.79
  -1  -1   4  159.97    8.76
  -1  -1   5  635.05   19.72
  -1   1   5  620.47   21.28
   1   1   5  677.97   22.69
   1  -1   5  594.68   21.84
   1   1   6  113.00    9.76
  -1   1   6  134.58   10.69
   1  -1   6  127.16   10.90
  -1  -1   6  119.64    9.56
  -1   1   7  355.03   18.96
   1   1   7  353.47   19.01
   1  -1   7  336.10   19.00
  -1  -1   7  352.32   17.51
  -1  -1   8  374.94   19.45
   1   1   8  366.98   20.43
  -1   1   8  358.50   20.04
   1  -1   8  360.45   20.88
   1  -1   9  109.79   12.01
  -1   1   9   96.92   10.63
   1   1   9   91.37   10.80
  -1  -1   9   89.64    9.92
  -1   1  10   27.40    5.79
   1   1  10   24.49    6.23
   1  -1  10   22.42    6.29
  -1  -1  10   23.50    5.29
  -1   1  11  269.20   20.09
   1  -1  11  257.85   20.51
   1   1  11  260.79   19.70
  -1  -1  11  271.89   19.64
  -1   1  12   37.75    7.33
   1  -1  12   31.49    7.01
  -1  -1  12   36.74    7.65
   1   1  12   44.03    9.26
   1   1  13  705.88   35.57
   1  -1  13  625.49   33.78
  -1  -1  13  635.75   32.47
  -1   1  13  613.65   32.52
   1   1  14   75.61   12.64
  -1  -1  14   86.74   12.23
   1  -1  14   88.23   12.23
  -1   1  14   82.97   12.40
   1  -1  15   68.84   11.67
  -1   1  15   77.45   11.79
   1   1  15   86.98   13.45
  -1  -1  15   63.96   10.21
   1  -1  16  140.64   17.68
   1   1  16  117.20   16.19
  -1   1  16  143.25   17.83
  -1  -1  16  161.56   18.00
  -1  -1  17  705.58   39.21
   1   1  17  758.14   42.22
   1  -1  17  717.96   40.75
  -1   1  17  746.19   41.27
   1   1  18    2.33    5.29
   1  -1  18    1.77    2.76
  -1  -1  18   -2.82    4.19
  -1   1  18    5.27    5.33
  -1  -1  19   15.20    6.27
   1   1  19    6.59    4.59
   1  -1  19   16.58    5.67
  -1   1  19    6.31    3.19
   1   1  20  437.77   34.26
  -1  -1  20  512.38   36.32
  -1   1  20  469.44   35.39
  -1  -1  21   -0.96    2.54
   1  -1  21    0.45    1.96
   1   1  21    3.35    6.51
  -1   1  21    2.99    2.27
  -1  -1  22   86.64   15.71
   1  -1  22   89.98   15.87
   1   1  22   92.45   16.35
  -1   1  22   69.50   14.66
   1  -1  23   81.67   15.46
   1   1  23   56.39   12.99
  -1   1  23  104.02   18.61
  -1  -1  23  101.82   17.89
   1  -1  24   -3.33    4.83
  -1  -1  24    5.47    6.21
  -1   1  24   -2.32    5.45
   1   1  24   -1.47    3.76
  -1  -1  25   84.84   17.26
   1   1  25   55.40   13.13
   1  -1  25  108.19   18.69
  -1   1  25   64.28   15.26
  -1  -1  26   67.01   15.19
   1  -1  26   52.74   14.11
  -1   1  26   76.44   16.38
   1   1  26   44.92   12.78
   1   1  27   -2.41    2.31
  -1   1  27    3.46    3.25
   1  -1  27    0.41    2.79
  -1  -1  27   -4.05    4.57
   1   1  28   -0.05    6.09
   1  -1  28    1.28    2.44
  -1  -1  28    1.34    2.12
  -1   1  28    8.36    7.25
  -1   1  29    3.35    3.03
   1   1  29    4.19    3.07
  -1  -1  29    7.38    6.75
   1  -1  29    7.62    7.71
  -1  -1  30    8.34    4.48
   1  -1  30    3.11    5.99
  -1   1  30   -1.67    4.15
   1   1  30   -1.75    4.79
   1  -1  31   14.50    8.54
  -1  -1  31    9.17    7.35
   1   1  31    7.54    1.07
  -1   1  31    4.83    1.33
   1  -1  32    2.22    4.58
  -1  -1  32   35.05   12.45
   1   1  32   20.82    9.85
  -1   1  32   22.79    8.53
   1  -2   0    0.70    0.68
  -1  -2   1  120.76    6.43
   1   2   1  100.29    6.31
   1  -2  -1   98.08    7.81
   1  -2   1  108.39    8.22
   1   2   2  468.38   15.09
   1  -2   2  443.39   17.02
  -1   2   2  462.86   17.58
  -1  -2   2  446.27   12.96
  -1   2   3 8237.40   76.29
   1   2   3 8232.19   70.61
  -1  -2   3 8239.83   60.17
  -1  -2   4  298.19   12.88
  -1   2   4  329.23   16.11
   1  -2   4  322.77   16.11
   1   2   4  299.27   14.69
  -1   2   5 6974.40   78.13
  -1  -2   5 7092.57   69.10
   1   2   5 6929.06   77.46
   1  -2   5 7114.67   79.85
   1   2   6  977.62   30.83
  -1   2   6  920.37   30.39
   1  -2   6  975.73   31.36
   1   2   7  337.30   19.19
   1  -2   7  372.99   20.67
  -1  -2   7  363.64   18.28
  -1   2   7  341.47   19.50
  -1   2   8   80.71    9.55
   1   2   8   91.04   10.73
   1  -2   8   69.65    8.95
  -1  -2   8   92.39    9.89
  -1  -2   9  543.40   25.49
   1  -2   9  508.96   26.06
  -1   2   9  515.94   26.06
   1   2   9  519.58   26.20
   1   2  10 2506.94   60.47
  -1   2  10 2553.44   61.41
  -1  -2  10 2508.26   57.94
   1  -2  11  186.64   17.55
  -1  -2  11  170.29   15.89
   1   2  11  169.17   16.40
  -1   2  11  177.81   16.64
  -1   2  12   46.59    8.79
   1   2  12   35.80    7.05
  -1  -2  12   34.07    7.44
   1  -2  12   47.63    8.62
   1  -2  13  640.62   35.07
  -1   2  13  598.22   32.81
  -1  -2  13  665.35   33.62
  -1   2  14   55.35   10.32
  -1  -2  14   68.26   11.09
   1  -2  14   67.48   11.49
   1   2  14   65.01   11.16
   1  -2  15  511.78   33.04
  -1  -2  15  487.84   31.26
  -1   2  15  515.84   32.27
   1   2  15  501.59   32.50
  -1  -2  16  140.94   17.12
  -1   2  16  115.47   16.25
   1  -2  16  135.42   17.33
   1   2  16  125.26   16.05
  -1  -2  17   68.33   12.25
  -1   2  17   63.45   12.34
   1  -2  17   84.28   14.17
   1   2  17   91.24   15.27
  -1   2  18   12.27    6.11
  -1  -2  18   12.41    6.26
   1   2  18    9.24    6.06
   1  -2  18    7.50    4.80
   1   2  19   95.38   15.80
  -1  -2  19   82.85   14.50
   1  -2  19   54.82   11.97
  -1   2  19   87.69   14.98
   1   2  20  888.62   49.19
  -1   2  20  948.79   50.05
   1  -2  20  848.48   48.31
  -1  -2  20  906.95   48.59
  -1   2  21   60.43   13.44
   1  -2  21   67.33   14.25
   1   2  21   89.29   15.42
  -1  -2  21   74.68   14.67
  -1   2  22   28.38    8.99
   1   2  22   27.41    8.85
   1  -2  22   33.72   10.19
  -1  -2  22   39.85   10.31
   1  -2  23   44.16   12.47
  -1   2  23   79.36   16.08
  -1  -2  23   66.80   14.59
   1   2  23   83.22   15.57
  -1   2  24   19.24    7.78
   1   2  24   19.42    7.04
   1  -2  24   11.97    6.83
  -1  -2  24   16.72    6.28
   1  -2  25    7.42    3.09
   1   2  25   17.13    7.34
  -1  -2  25   18.11   10.37
  -1   2  25   16.30    7.56
   1  -2  26   39.07   10.34
  -1   2  26   48.73   13.89
   1   2  26   24.25    9.23
  -1  -2  26   30.40    9.56
   1  -2  27  125.42   21.47
  -1   2  27   95.99   18.59
   1   2  27  126.69   20.06
  -1  -2  27  118.40   20.80
   1  -2  28    8.81    7.63
  -1  -2  28   15.28    9.04
   1   2  28    4.35    4.84
  -1   2  28    2.20    3.31
   1   2  29   11.06    6.67
  -1   2  29   16.33    7.77
   1  -2  29    7.94    4.88
  -1  -2  29   13.22    7.56
  -1   2  30   47.29   13.64
  -1  -2  30   40.76   13.82
   1   2  30   77.30   16.10
   1  -2  30   36.12   12.17
   1  -2  31   24.89   10.73
  -1  -2  31   23.35    9.10
   1   2  31   26.32   10.30
  -1   2  31   19.39   10.56
  -1  -2  32   -4.58    6.06
   1   2  32   -2.48    3.35
  -1   2  32    3.12    4.22
   1  -2  32    9.59    7.20
  -1  -3   0   -0.07    0.33
   1  -3   0    0.86    1.44
  -1  -3   1 1930.90   33.63
   1  -3   1 1897.57   40.44
   1  -3  -1 1840.01   39.67
   1   3   2  439.51   17.31
   1  -3   2  381.72   18.19
  -1  -3   2  416.27   15.57
   1   3   3 2450.44   43.56
   1  -3   3 2492.45   47.33
  -1   3   3 2585.62   48.87
  -1  -3   3 2558.49   40.20
  -1   3   4  250.06   15.92
   1  -3   4  290.08   17.03
  -1  -3   4  261.23   13.63
   1   3   4  277.44   15.26
   1  -3   5  760.91   28.27
   1   3   5  802.40   27.38
  -1  -3   5  722.17   25.28
  -1   3   5  827.87   30.20
  -1   3   6  480.72   23.92
   1  -3   6  494.67   23.46
   1   3   6  471.34   22.57
  -1  -3   6  472.82   20.77
  -1   3   7   80.82    9.74
   1  -3   7   84.32   10.13
   1   3   7   73.70    9.47
  -1  -3   7   87.58    9.31
   1  -3   8 2557.62   58.61
  -1  -3   8 2598.03   53.71
   1   3   8 2667.54   59.59
  -1   3   8 2483.74   57.28
   1   3   9  295.93   20.36
  -1   3   9  280.19   20.23
  -1  -3   9  262.95   18.15
   1  -3   9  246.84   18.78
  -1   3  10  641.86   31.17
   1  -3  10  557.66   29.49
  -1  -3  10  598.07   29.08
   1   3  10  605.60   31.06
  -1   3  11   60.51    9.56
   1   3  11   58.68   10.01
  -1  -3  11   73.86   10.84
   1  -3  11   74.83   11.15
  -1  -3  12  130.22   15.00
   1  -3  12  133.74   15.16
  -1   3  12  118.29   14.45
   1   3  12  107.84   13.36
  -1   3  13   -0.66    2.08
  -1  -3  13    4.13    3.32
   1  -3  13    4.21    1.99
   1   3  14   96.10   14.32
  -1  -3  14   81.56   12.33
   1  -3  14  113.92   15.14
  -1   3  14  106.60   14.52
  -1  -3  15    1.87    1.74
   1   3  15   -2.59    4.96
  -1   3  15    0.79    2.50
   1  -3  15    1.01    2.04
   1   3  16   -1.12    3.99
  -1   3  16    2.26    4.39
  -1  -3  16    0.09    5.17
   1  -3  16   -2.11    0.54
  -1  -3  17   52.24   12.09
   1   3  17   34.91    9.36
   1  -3  17   43.60   10.53
  -1   3  17   42.89   10.56
   1   3  18   32.97    7.91
  -1  -3  18   36.33    9.89
  -1   3  18   50.90   11.54
   1  -3  18   51.63   10.55
  -1   3  19  606.04   39.53
   1  -3  19  596.09   39.98
  -1  -3  19  576.72   38.99
   1   3  19  527.27   37.96
   1   3  20  150.03   20.26
  -1   3  20  110.42   17.00
  -1  -3  20   96.37   16.57
   1  -3  20   92.59   15.89
   1   3  21  139.38   20.73
  -1  -3  21  157.57   21.12
  -1   3  21  124.42   19.61
   1  -3  21  144.38   20.96
  -1  -3  22   25.77    8.92
   1  -3  22   17.74    6.75
   1   3  22   31.48   10.76
  -1   3  22    8.63    6.51
  -1   3  23   39.11   11.46
   1   3  23   53.62   12.47
  -1  -3  23   27.05    8.75
   1   3  24    7.39    3.81
   1  -3  24   -2.09    1.89
  -1   3  24    3.49    4.04
  -1  -3  24   -4.92    4.81
  -1  -3  25   31.02    9.67
   1  -3  25   49.91   12.96
  -1   3  25   32.33   10.35
   1   3  25   42.18   11.55
   1   3  26    9.58    6.41
  -1  -3  26    0.48    3.48
   1  -3  26   12.71    7.93
  -1   3  26   11.06    6.11
   1  -3  27    0.41    2.43
  -1  -3  27    6.99    6.14
  -1   3  27    2.67    2.80
   1   3  27    1.25    4.76
   1  -3  28    9.08    7.51
  -1  -3  28    5.25    5.63
  -1   3  28    7.06    5.84
   1   3  28    2.53    3.78
   1  -3  29   -0.50    1.88
   1   3  29    0.54    3.00
  -1  -3  29    2.48    0.71
  -1   3  29   -5.60    7.20
  -1   3  30    4.81    2.55
   1  -3  30    7.73    9.70
   1   3  30   -0.03    5.61
  -1  -3  30    0.80    5.42
  -1   3  31   19.01    7.82
   1   3  31   25.95   10.34
   1  -3  31   18.53    8.27
  -1  -3  31   15.94   10.87
   1  -3  32    1.46    1.82
   1   3  32   10.69    7.77
  -1  -3  32    5.20    0.76
  -1   3  32   12.27    9.66
   1  -4   0    1.05    3.38
  -1  -4   0   -0.35    1.27
  -1  -4   1   12.62    3.43
   1  -4  -1   13.01    3.63
   1  -4   1   10.93    2.65
   1  -4   2 1923.76   46.02
   1   4   2 1788.41   40.52
   1  -4  -2 1944.47   46.86
  -1  -4   2 1899.62   40.11
   1  -4   3   25.23    5.04
  -1  -4   3   27.16    4.81
   1   4   3   34.15    5.92
  -1  -4   4  695.90   25.41
  -1   4   4  694.57   28.60
   1   4   4  663.64   26.15
   1  -4   4  660.76   27.62
  -1   4   5  916.76   34.02
   1  -4   5  912.72   34.13
  -1  -4   5  916.04   30.18
   1   4   5  932.68   32.08
   1   4   6  491.62   24.06
  -1   4   6  469.20   24.91
   1  -4   6  448.01   24.58
  -1  -4   6  456.75   21.86
   1   4   7  988.89   36.03
   1  -4   7 1034.17   37.75
  -1   4   7  989.17   37.51
  -1  -4   7 1062.75   35.86
  -1   4   8 1806.50   52.55
   1   4   8 1870.05   51.12
  -1  -4   8 1873.81   48.69
   1  -4   8 1897.84   52.73
  -1  -4   9 1617.70   47.30
   1   4   9 1511.17   48.01
  -1   4   9 1542.36   49.22
   1  -4   9 1689.09   51.51
   1   4  10  455.11   27.27
  -1  -4  10  486.27   26.83
  -1   4  10  440.20   27.01
   1  -4  10  481.80   28.42
  -1   4  11    9.18    4.50
   1   4  11    3.54    1.29
   1  -4  11    0.71    1.71
  -1  -4  11    8.88    4.46
   1   4  12   94.45   13.20
   1  -4  12   82.28   12.52
  -1  -4  12   64.85   10.28
  -1   4  12   95.94   13.14
  -1   4  13   96.38   13.10
   1  -4  13   81.36   12.75
  -1  -4  13   76.62   12.11
   1   4  13   76.72   12.03
  -1   4  14  387.04   28.48
   1   4  14  372.86   27.85
   1  -4  14  428.63   30.32
  -1  -4  14  374.53   27.61
  -1  -4  15   17.91    5.86
  -1   4  15   31.94    8.64
   1  -4  15   28.73    8.20
   1   4  15   33.46    8.68
   1   4  16   30.84    8.12
  -1  -4  16   18.65    6.70
  -1   4  16   34.47    7.75
   1  -4  16   39.18    9.94
   1  -4  17  293.74   27.07
  -1   4  17  271.58   25.88
  -1  -4  17  236.88   25.07
   1   4  17  235.86   24.11
  -1  -4  18  195.19   23.12
   1  -4  18  204.48   22.75
   1   4  18  197.15   22.35
  -1   4  18  167.89   19.95
   1  -4  19  118.35   18.62
  -1   4  19  116.18   17.89
  -1  -4  19  108.05   17.18
   1   4  19  123.06   18.09
   1   4  20    0.83    5.51
  -1   4  20    4.12    4.80
  -1  -4  20    0.42    1.35
   1  -4  20    3.80    4.83
  -1  -4  21   85.73   16.55
  -1   4  21   73.40   14.77
   1  -4  21   56.51   12.76
   1   4  21   71.21   15.60
  -1  -4  22   43.84   11.62
   1  -4  22   13.67    3.58
   1   4  22   36.57    9.49
  -1   4  22   31.40    8.78
  -1  -4  23  220.84   26.53
   1  -4  23  216.39   25.05
  -1   4  23  229.56   26.40
   1   4  23  203.68   25.17
   1   4  24   -1.56    2.99
   1  -4  24    0.86    4.72
  -1  -4  24    4.43    4.36
  -1   4  24    0.62    6.15
   1   4  25   -0.56    5.16
   1  -4  25    0.17    2.82
  -1  -4  25    0.76    3.73
  -1   4  25    3.27    1.83
   1  -4  26   24.57    9.89
  -1  -4  26   24.35   10.71
   1   4  26   36.03   12.83
  -1   4  26   14.76    8.87
  -1   4  27   27.76   10.33
   1  -4  27   21.03    7.26
   1   4  27   22.15    9.92
  -1  -4  27   20.42    3.97
   1   4  28    6.98    5.39
  -1  -4  28    4.27    3.25
  -1   4  28   -5.97    7.24
   1  -4  28    1.43    4.64
   1   4  29   -0.03    5.62
  -1  -4  29   -2.71    6.21
  -1   4  29   -0.80    5.67
   1  -4  29   11.17    5.09
  -1  -4  30   24.15    9.32
  -1   4  30   19.40    7.16
   1  -4  30   10.79    6.56
   1   4  30   30.62   10.88
  -1   4  31   15.88    4.84
  -1  -4  31   19.97    9.43
   1   4  31   11.42    4.11
   1  -4  31   10.39    5.38
   1  -5   0   -2.06    2.27
  -1  -5   0    0.44    1.93
   1  -5  -1  678.84   30.33
  -1  -5  -1  704.42   27.52
   1  -5   1  727.54   31.02
  -1  -5   1  694.50   27.31
  -1  -5   2    9.07    2.60
   1  -5  -2    9.17    3.62
   1  -5   2    2.23    1.18
  -1  -5   3   36.42    6.46
   1  -5   3   38.23    7.04
   1   5   3   30.86    6.45
   1  -5   4   78.29   10.40
   1   5   4   70.86    9.58
  -1  -5   4   67.97    8.59
  -1  -5   5   76.89    9.56
  -1   5   5   62.31    9.95
   1  -5   5   79.88   10.67
   1   5   5   79.33   10.56
   1   5   6   79.80   10.93
  -1   5   6   66.00   10.18
  -1  -5   6   68.85    9.38
   1  -5   6   77.60   11.24
  -1   5   7   -2.33    2.45
   1  -5   7   -1.64    2.19
  -1  -5   7   -0.90    1.90
   1   5   7    0.28    1.67
   1   5   8  683.90   32.44
   1  -5   8  651.35   32.69
  -1  -5   8  685.02   31.37
  -1   5   8  598.52   31.79
   1   5   9 1094.75   42.50
  -1  -5   9 1068.62   40.41
  -1   5   9 1039.93   42.91
   1  -5   9 1022.52   41.92
   1   5  10    2.11    2.61
   1  -5  10    1.15    2.93
  -1   5  10   -1.20    1.62
  -1  -5  10   -0.19    1.85
   1   5  11  133.00   15.81
  -1  -5  11  137.03   15.69
  -1   5  11  156.17   16.71
   1   5  12    1.22    3.37
   1  -5  12    5.26    2.41
  -1   5  12   12.27    5.08
  -1  -5  12    2.92    2.70
   1   5  13   33.83    8.03
  -1  -5  13   38.36   10.10
   1  -5  13   54.09   10.65
  -1   5  13   51.31   10.28
  -1  -5  14  173.85   18.94
   1   5  14  194.21   20.50
   1  -5  14  160.29   18.89
  -1   5  14  178.59   19.84
  -1  -5  15  104.98   15.80
   1  -5  15   93.41   15.15
   1   5  15   94.04   15.06
  -1   5  15   90.49   14.53
  -1  -5  16   72.27   13.20
  -1   5  16   86.55   14.74
   1   5  16   50.90   10.38
   1  -5  16   78.06   14.36
   1  -5  17   42.84   10.91
   1   5  17   45.15   10.39
  -1  -5  17   47.32   10.40
  -1   5  17   51.03   12.10
   1   5  18    2.38    1.77
   1  -5  18    2.00    3.28
  -1   5  18    5.56    4.06
  -1  -5  18   -0.70    2.05
   1  -5  19   25.83    9.60
   1   5  19   43.08   11.17
  -1  -5  19   41.93   11.35
  -1   5  19   33.15    9.91
  -1  -5  20   94.75   15.89
   1   5  20   44.74   12.02
   1  -5  20   75.52   14.53
  -1   5  20   78.47   15.59
   1   5  21   52.16   12.73
   1  -5  21   63.87   13.88
  -1  -5  21   47.41   11.95
  -1   5  21   51.92   11.82
  -1   5  22   14.99    6.78
   1  -5  22   24.71    9.83
   1   5  22   21.75    4.40
  -1  -5  22   15.45    8.08
  -1  -5  23   12.55    8.28
  -1   5  23    5.40    4.75
   1   5  23   14.26    6.36
   1  -5  23   14.83    9.17
   1   5  24   -0.97    5.38
  -1  -5  24    1.55    5.58
   1  -5  24    3.57    3.14
  -1   5  24    4.13    4.36
  -1   5  25    5.01    3.68
   1  -5  25    2.86    4.16
   1   5  25   13.56    8.86
  -1  -5  25    6.39    1.90
  -1  -5  26   10.29    5.77
   1  -5  26   25.60   10.52
   1   5  26   27.96   10.75
  -1  -5  27    7.71    9.39
   1   5  27    1.46    3.91
  -1   5  27    5.86    5.87
   1  -5  27    6.48    2.65
   1  -5  28   -1.02    2.74
  -1  -5  28    7.35    6.08
  -1   5  28    1.08    3.43
   1   5  28    0.79    2.66
   1  -5  29   11.61    7.93
   1   5  29   13.69    6.32
  -1  -5  29   13.62    5.77
  -1   5  29   25.03   10.10
   1   5  30    3.23    3.19
   1  -5  30    9.17    7.51
  -1   5  30   24.30   11.75
  -1  -5  30   20.71   11.16
  -1   5  31   19.12    9.59
   1   5  31   29.22   12.86
   1  -5  31   10.92    6.31
  -1  -5  31   15.13    4.06
   1  -6   0    0.69    1.89
  -1  -6   0    2.83    1.80
  -1  -6   1 2092.33   52.78
   1  -6   1 1923.61   55.69
  -1  -6  -1 2047.95   52.70
   1  -6  -1 1994.09   57.16
   1  -6   2   30.61    7.30
  -1  -6   2   34.11    6.90
   1  -6  -2   33.66    7.01
  -1  -6  -2   27.20    6.44
  -1  -6   3  457.60   24.63
   1  -6  -3  493.62   27.90
   1  -6   3  466.86   26.79
   1  -6   4   39.70    7.86
   1   6   4   35.06    6.87
  -1  -6   4   28.33    6.48
   1  -6   5 1211.50   44.17
  -1  -6   5 1248.38   42.44
   1   6   5 1246.97   43.76
  -1   6   6   23.95    6.96
   1  -6   6   34.76    7.21
   1   6   6   33.32    7.03
  -1  -6   6   25.31    6.61
  -1   6   7  215.58   19.88
   1   6   7  211.80   19.16
  -1  -6   7  241.06   19.23
   1  -6   7  268.21   21.50
   1  -6   8  136.22   14.98
  -1   6   8  136.09   16.33
   1   6   8  131.43   14.88
  -1  -6   8  154.23   15.70
   1  -6   9  605.18   33.64
  -1  -6   9  634.12   32.76
  -1   6   9  624.34   34.92
   1   6   9  626.26   33.99
  -1   6  10  157.12   17.32
  -1  -6  10  123.57   14.94
   1   6  10  137.60   15.95
   1  -6  10  137.21   16.44
   1   6  11  385.94   27.70
   1  -6  11  451.11   30.54
  -1  -6  11  420.95   28.29
  -1   6  11  336.71   26.56
  -1  -6  12  435.83   29.49
   1   6  12  373.46   28.51
  -1   6  12  446.31   31.25
   1  -6  12  386.05   28.99
   1   6  13  197.78   20.58
   1  -6  13  217.40   22.53
  -1  -6  13  197.16   20.27
  -1   6  13  213.21   22.04
  -1   6  14   28.47    8.88
   1   6  14   22.01    5.96
  -1  -6  14   28.90    8.29
   1  -6  14   35.41    8.98
  -1   6  15  174.70   20.64
   1   6  15  166.16   19.84
  -1  -6  15  161.84   20.09
   1  -6  15  187.32   21.70
  -1  -6  16    7.32    1.38
   1  -6  16    2.76    2.35
   1   6  16    0.06    2.68
  -1   6  16    3.94    4.45
   1  -6  17   -1.80    4.14
  -1  -6  17    0.40    1.81
  -1   6  17   -0.80    0.94
   1   6  17   -2.17    3.44
   1   6  18   27.64    7.73
   1  -6  18   30.15    9.41
  -1   6  18   10.62    8.32
  -1  -6  18   30.20    8.68
  -1   6  19    7.17    6.55
   1   6  19    0.29    2.69
   1  -6  19   -2.49    1.19
  -1  -6  19   -0.53    4.39
  -1  -6  20  140.90   19.84
   1   6  20  151.21   21.64
   1  -6  20  157.37   22.54
  -1   6  20  180.04   22.29
   1   6  21    1.96    3.62
  -1  -6  21    2.16    1.00
  -1   6  21    6.11    6.29
   1  -6  21    0.76    3.95
  -1  -6  22  120.03   19.27
  -1   6  22  119.26   19.03
   1   6  22  113.54   17.65
   1  -6  22   71.03   14.52
  -1  -6  23   15.44    6.94
   1  -6  23   11.85    6.36
  -1   6  23   23.03    8.09
   1   6  23   15.64    6.96
  -1   6  24   15.53    7.58
   1  -6  24   31.56   10.18
  -1  -6  24   18.96    6.55
   1   6  24   21.18    7.98
   1  -6  25    0.26    4.90
  -1   6  25    6.88    5.38
   1   6  25    2.38    6.22
  -1  -6  25    0.84    1.49
   1   6  26    8.19    6.53
  -1   6  26   -0.10    2.19
  -1  -6  26    9.91    6.00
   1  -6  26   12.22    8.46
  -1   6  27    3.05    4.20
  -1  -6  27    7.95    6.64
   1   6  27    4.07    4.60
   1  -6  27    3.44    2.18
  -1   6  28   75.04   17.35
  -1  -6  28   52.84   14.53
   1  -6  28   69.90   17.48
   1   6  28   75.56   17.57
  -1   6  29   -6.54    7.34
   1  -6  29    4.58    2.46
  -1  -6  29    4.19    3.88
   1   6  29    4.18    3.79
   1   6  30   11.08    8.77
  -1  -6  30    4.81    3.38
  -1   6  30   42.60   12.44
   1  -6  30   28.60   10.88
  -1  -7   0   -0.18    0.99
   1  -7   0   -1.32    2.21
   1  -7   1  175.40   18.24
   1  -7  -1  187.99   19.15
  -1  -7  -1  165.60   16.37
  -1  -7   1  171.84   16.53
   1  -7  -2   14.48    5.10
   1  -7   2   10.15    4.59
  -1  -7   2   13.28    4.39
  -1  -7  -2   13.97    5.33
   1  -7   3    8.23    2.82
  -1  -7  -3   15.77    4.81
  -1  -7   3   15.99    5.08
   1  -7  -3   21.83    5.38
  -1  -7   4  153.92   15.35
   1  -7   4  174.83   17.49
   1  -7  -4  185.71   17.99
   1  -7   5  557.13   32.01
   1   7   5  629.70   33.83
  -1  -7   5  592.95   31.37
  -1  -7   6  142.26   15.73
   1   7   6  166.54   17.84
   1  -7   6  178.97   18.26
   1   7   7    5.46    2.68
  -1   7   7    5.32    3.99
  -1  -7   7    0.58    1.81
   1  -7   7    6.19    3.82
  -1   7   8  115.99   15.33
  -1  -7   8  169.55   17.69
   1   7   8  140.50   16.54
   1  -7   8  172.11   18.52
  -1  -7   9   57.51    9.88
   1   7   9   41.27    8.74
  -1   7   9   27.83    6.31
   1  -7   9   51.98   10.21
   1  -7  10   86.25   13.65
   1   7  10   79.66   13.20
  -1  -7  10  115.71   15.28
  -1   7  10   82.07   14.46
  -1   7  11    6.90    3.83
   1  -7  11    9.62    6.52
  -1  -7  11    7.93    5.00
   1   7  11    7.96    5.06
   1   7  12    4.26    2.55
  -1   7  12    3.42    1.29
   1  -7  12   -0.23    2.85
  -1   7  13  349.75   29.57
   1  -7  13  304.20   27.41
   1   7  13  362.09   29.64
  -1  -7  14  494.57   33.76
   1   7  14  523.54   35.63
   1  -7  14  457.13   33.69
  -1   7  14  500.53   35.89
  -1   7  15    7.02    5.97
   1  -7  15    9.37    4.66
   1   7  15    4.81    5.35
  -1  -7  15    2.63    2.38
  -1  -7  16    3.44    2.91
   1   7  16   -0.61    2.91
   1  -7  16    0.73    0.45
  -1   7  16    6.02    3.95
  -1   7  17  169.90   21.57
   1   7  17  127.19   19.10
  -1  -7  17  220.05   24.51
   1  -7  17  195.84   23.26
  -1   7  18   81.00   15.63
  -1  -7  18   71.77   15.02
   1  -7  18   41.98   13.23
   1   7  18   76.67   14.49
   1  -7  19  111.60   19.19
  -1   7  19  120.35   18.41
   1   7  19  102.62   16.81
  -1  -7  19   70.30   15.03
  -1   7  20    5.38    3.92
   1   7  20   -0.02    3.08
   1  -7  20    6.14    5.03
  -1  -7  20    3.64    7.70
  -1  -7  21    2.54    3.34
   1  -7  21   -0.93    4.72
   1   7  21    3.16    7.38
  -1   7  21   13.71    8.90
   1  -7  22    1.01    3.02
   1   7  22   -2.69    4.37
  -1  -7  22    9.72    6.34
  -1   7  22   -0.49    2.47
   1   7  23   50.97   11.80
   1  -7  23   91.10   18.54
  -1  -7  23   83.02   17.49
  -1   7  23   75.84   16.39
  -1   7  24    3.28    4.96
   1   7  24    2.39    3.18
   1  -7  24    0.36    3.94
  -1  -7  24    0.34    3.81
  -1  -7  25    7.07    8.43
  -1   7  25   -4.94    6.00
   1  -7  25   -1.59    0.75
   1   7  25   -2.13    4.69
  -1   7  26   -4.02    3.21
   1   7  26   -0.44    4.68
   1  -7  26    0.25    4.16
  -1  -7  26   10.11    7.85
  -1   7  27   18.68    8.55
   1   7  27   19.87    8.39
   1  -7  27   40.48   12.98
  -1  -7  27   19.62    9.61
  -1  -7  28   35.15   13.77
   1   7  28   21.48    7.66
   1  -7  28   35.90   10.90
  -1   7  28   23.58    6.26
  -1  -7  29    5.30    4.19
   1   7  29    2.33    1.98
   1  -7  29   10.35    8.08
  -1   7  29   10.59    6.94
  -1  -8   0   -0.94    3.91
   1  -8   0    3.17    2.69
  -1  -8  -1  989.58   44.03
   1  -8  -1  965.34   45.51
  -1  -8   1  989.16   43.13
   1  -8   1 1002.39   45.29
  -1  -8  -2  138.68   16.19
  -1  -8   2  121.00   14.38
   1  -8   2  164.78   18.33
   1  -8  -2  143.98   16.95
  -1  -8   3   33.71    7.43
  -1  -8  -3   20.15    6.79
   1  -8  -3   28.12    8.39
   1  -8   3   24.13    6.74
  -1  -8   4    9.72    4.21
   1  -8   4   17.58    6.35
   1  -8  -4    9.85    2.68
  -1  -8  -4    7.42    4.47
  -1  -8   5  867.46   40.22
   1  -8   5  876.49   42.94
   1  -8  -5  920.63   43.90
  -1  -8   6   39.50    8.81
   1  -8   6   32.93    8.13
  -1  -8   7  258.82   22.44
   1   8   7  253.58   23.39
   1  -8   7  266.02   24.23
   1   8   8   16.56    7.26
  -1  -8   8   11.83    4.27
   1  -8   8   16.35    5.84
   1  -8   9 1722.38   62.32
   1   8   9 1626.37   60.35
  -1   8   9 1631.96   62.32
  -1  -8   9 1726.17   59.84
   1   8  10   30.11    8.26
  -1  -8  10   27.36    7.72
  -1   8  10   47.41   10.55
   1  -8  10   48.61   10.49
  -1  -8  11   19.59    6.75
  -1   8  11   15.01    5.34
   1   8  11   21.34    7.81
   1  -8  11   27.60    8.50
   1  -8  12  246.49   24.74
   1   8  12  250.26   24.71
  -1  -8  12  237.34   23.42
  -1   8  13  111.50   16.97
   1   8  13  112.78   16.34
  -1  -8  13  106.66   15.95
   1  -8  13  108.65   16.79
   1  -8  14    4.04    3.72
  -1   8  14    9.95    7.55
   1   8  14   12.28    5.98
  -1  -8  14    6.52    2.48
   1   8  15   68.43   13.97
  -1  -8  15   94.34   15.74
   1  -8  15   97.10   15.63
  -1   8  15   76.96   14.38
  -1  -8  16    3.72    4.71
   1   8  16    3.46    1.14
   1  -8  16    8.97    5.21
  -1   8  16   -1.99    2.64
   1   8  17  151.57   21.28
  -1   8  17  115.15   18.05
   1  -8  17  140.50   21.09
  -1   8  18    4.40    1.44
   1   8  18    2.90    1.33
  -1  -8  18    2.49    1.71
   1  -8  18    1.74    4.08
   1  -8  19  274.13   29.70
   1   8  19  237.10   27.53
  -1   8  19  258.46   28.33
  -1  -8  19  254.26   27.46
  -1   8  20    5.25    5.28
  -1  -8  20   -7.74    6.29
   1   8  20   -0.62    0.52
   1  -8  20    1.28    3.79
   1  -8  21   96.18   17.34
  -1   8  21   52.72   13.48
  -1  -8  21   63.78   13.14
   1   8  21   81.02   15.68
   1  -8  22    5.36    0.91
  -1   8  22    2.34    1.20
   1  -8  23  108.79   20.08
   1   8  23   76.13   16.91
  -1   8  23   99.34   17.75
  -1  -8  23   85.60   16.97
   1   8  24   -3.25    7.12
  -1  -8  24   -0.47    3.54
  -1   8  24    0.97    4.81
   1  -8  24    4.29    3.30
   1  -8  25   22.98    7.90
  -1  -8  25   17.47   10.23
  -1   8  25   16.96    8.36
   1   8  25   11.88    8.47
   1  -8  26   -1.66    6.64
  -1   8  26    7.61    7.09
  -1  -8  26    1.39    4.50
   1   8  26   -0.64    4.20
   1   8  27   52.31   14.40
  -1   8  27   73.49   16.03
  -1  -8  27   89.86   19.19
   1  -8  27   81.14   18.64
  -1  -8  28   -0.96    3.06
   1  -8  28   12.50    8.39
   1   8  28    7.42    4.91
   1  -9   0   -1.66    1.20
  -1  -9   0    0.21    1.82
  -1  -9   1   30.63    8.57
   1  -9   1   20.84    6.51
   1  -9  -1   40.67    9.60
  -1  -9  -1   43.96    9.52
  -1  -9   2  113.13   16.17
   1  -9  -2  108.72   16.20
   1  -9   2  120.43   15.89
  -1  -9  -2  127.81   17.24
  -1  -9  -3  132.88   17.01
   1  -9   3  181.23   19.91
   1  -9  -3  132.71   18.20
  -1  -9   3  138.10   17.32
   1  -9   4   58.67   10.98
   1  -9  -4   39.25    8.45
  -1  -9   4   61.61   11.91
  -1  -9  -4   55.47   10.86
   1  -9  -5   10.99    5.04
  -1  -9   5    6.62    3.44
  -1  -9  -5   20.28    7.48
   1  -9   5   11.26    5.29
   1  -9  -6   87.40   14.39
  -1  -9   6  102.32   14.98
   1  -9   6   94.73   14.67
  -1  -9   7    2.86    3.46
   1  -9  -7    3.81    3.38
   1  -9   7    0.19    2.41
  -1  -9   8   12.41    5.21
   1  -9   8   33.39    9.33
  -1  -9   9 1355.73   56.02
   1   9   9 1327.35   58.24
   1  -9   9 1366.60   57.84
   1  -9  10   41.09   10.88
  -1  -9  10   46.61   10.26
   1   9  10   43.38   10.33
   1  -9  11   53.23   11.94
  -1   9  11   56.50   12.21
  -1  -9  11   40.02   10.55
   1   9  11   21.21    7.65
   1  -9  12    3.86    3.14
  -1  -9  12   10.50    4.76
  -1   9  12   20.33    6.03
   1   9  12    9.80    4.48
  -1  -9  13    3.87    1.51
   1   9  13   12.59    7.07
  -1   9  13   15.47    7.50
   1  -9  13    7.14    5.92
   1  -9  14   10.85    5.27
  -1   9  14   14.79    2.44
   1   9  14   17.67    7.43
  -1  -9  14    2.44    3.39
   1   9  15   43.16   12.46
  -1  -9  15   46.89   11.54
  -1   9  15   40.46   12.66
   1  -9  15   65.10   14.22
   1  -9  16   88.76   16.60
  -1   9  16   93.10   17.09
   1   9  16  107.38   17.68
  -1  -9  16   98.16   17.14
   1   9  17    5.82    5.70
  -1   9  17   10.89    5.91
   1  -9  17    8.39    6.65
  -1  -9  17    5.82    3.84
   1   9  18   55.41   12.73
   1  -9  18   51.06   14.08
  -1  -9  18   47.99   12.52
  -1   9  18   43.77   12.76
  -1  -9  19   51.83   12.04
   1   9  19   58.77   14.31
   1  -9  19   48.13   11.95
  -1   9  19   29.11   12.31
  -1   9  20   21.13    8.52
   1  -9  20   39.62   13.50
  -1  -9  20   32.40    9.94
   1   9  20   32.08    8.57
   1   9  21   58.93   13.44
  -1  -9  21   55.68   13.06
  -1   9  21   34.07   11.02
   1  -9  21   39.58   11.95
   1   9  22    9.05    4.62
  -1   9  22    7.99    8.01
  -1  -9  22    7.49    6.31
   1  -9  22   10.78    4.84
  -1  -9  23    1.81    2.76
   1  -9  23    0.71    3.56
   1   9  23   -0.52    4.28
  -1   9  23   -2.34    6.38
  -1  -9  24   28.27   10.26
  -1   9  24   19.13    7.73
   1  -9  24   15.73    5.76
   1   9  24   24.95   10.53
   1   9  25   -4.44    6.44
  -1  -9  25   -0.27    4.56
   1  -9  25   -3.25    3.40
  -1   9  25   -3.86    3.00
  -1   9  26    1.34    0.62
   1  -9  26   -4.33    5.10
   1   9  26   -0.77    2.67
  -1  -9  26    7.17    6.56
  -1   9  27   22.10    8.11
  -1  -9  27   22.14    9.57
   1  -9  27   37.73   12.29
   1   9  27   39.99   13.22
   1 -10   0   -0.97    3.02
  -1 -10   0   -0.07    3.09
   1 -10  -1   94.40   15.52
  -1 -10  -1   95.93   14.77
   1 -10   1  110.09   16.45
  -1 -10   1   95.17   14.65
   1 -10  -2   61.04   12.24
  -1 -10  -2   52.38   11.36
   1 -10   2   51.46   11.31
  -1 -10   2   66.87   12.87
  -1 -10  -3  218.44   23.59
   1 -10   3  231.96   23.81
  -1 -10   3  254.78   24.27
   1 -10  -3  281.80   27.26
   1 -10  -4   18.81    6.26
  -1 -10  -4    7.02    4.63
  -1 -10   4    9.23    4.97
   1 -10   4    8.81    4.68
   1 -10  -5  246.37   25.21
  -1 -10   5  222.44   23.17
  -1 -10  -5  260.84   25.20
   1 -10   5  218.23   23.03
   1 -10  -6  226.17   24.16
  -1 -10  -6  152.30   19.38
  -1 -10   6  199.74   21.91
   1 -10   6  161.34   20.38
  -1 -10   7  114.66   17.13
   1 -10   7  114.54   17.95
  -1 -10  -7  128.43   18.02
   1 -10  -7  104.10   16.60
   1 -10   8   88.16   15.80
   1 -10  -8   67.42   12.70
  -1 -10   8   85.55   14.48
   1 -10   9   62.99   13.27
  -1 -10   9   77.84   14.11
   1 -10  10  409.89   33.81
  -1 -10  10  428.02   33.17
   1 -10  11   31.70    8.55
   1  10  11   25.04    7.59
  -1 -10  11   19.15    7.22
   1  10  12   63.99   12.84
  -1 -10  12   86.35   15.99
  -1 -10  13  100.70   16.58
   1 -10  13   66.89   13.64
  -1  10  13   92.42   16.09
   1  10  13   75.72   14.76
   1 -10  14   11.96    6.10
  -1  10  14   -3.04    5.32
   1  10  14    6.89    5.50
  -1 -10  14    2.53    3.75
  -1  10  15   -2.90    2.80
   1 -10  15    2.73    4.19
  -1 -10  15    1.93    3.15
   1  10  15   -2.54    5.96
  -1  10  16  103.69   18.12
   1 -10  16  136.54   20.83
   1  10  16  135.66   21.48
  -1 -10  16   91.55   16.23
   1  10  17   13.68    5.02
  -1 -10  17   19.75    6.08
   1 -10  17   19.13    7.56
  -1  10  17   25.76    9.65
  -1 -10  18   11.75    7.09
  -1  10  18   10.85    3.46
   1  10  18    8.17    3.72
   1 -10  19   -0.20    6.01
   1  10  19    5.53    7.32
  -1 -10  19    1.42    2.53
  -1  10  19    0.05    4.60
  -1  10  20  126.07   21.47
  -1 -10  20  138.82   23.73
   1  10  20  117.50   20.12
   1 -10  20  168.10   24.81
   1  10  21    6.04    6.80
   1 -10  21    3.89    3.89
  -1  10  21   -0.77    2.55
  -1 -10  21    0.66    2.46
   1 -10  22   15.92    8.60
   1  10  22   27.97   11.16
  -1 -10  22   11.56    7.95
  -1  10  22   10.90    6.77
  -1  10  23    2.56    3.55
  -1 -10  23    3.13    7.96
   1 -10  23   14.78    9.49
   1  10  23   -2.89    6.60
  -1  10  24   37.39   12.58
  -1 -10  24   16.02    7.63
   1 -10  24   18.46    9.54
   1  10  24   43.16   12.99
   1 -10  25    1.14    2.87
   1  10  25    1.47    5.83
  -1  10  25   -5.78    1.93
   1 -10  26   -2.43    5.50
   1  10  26    9.07    7.27
  -1  10  26    0.51    2.70
   1 -11   0   -0.77    2.48
  -1 -11   0   -1.45    3.25
   1 -11   1    5.06    4.71
   1 -11  -1    2.35    2.06
  -1 -11   1   10.96    5.31
  -1 -11  -1    7.41    3.25
  -1 -11   2    0.54    3.03
  -1 -11  -2    7.87    6.25
   1 -11  -2    3.02    2.73
   1 -11   2   12.41    7.56
  -1 -11  -3   71.92   13.79
   1 -11   3   61.85   12.62
  -1 -11   3   57.42   12.41
   1 -11  -3   61.33   13.21
   1 -11   4   37.88   10.20
   1 -11  -4   47.75   11.53
  -1 -11  -4   50.13   12.32
  -1 -11   4   37.56    8.55
  -1 -11   5   -1.47    2.41
   1 -11   5    4.79    2.66
  -1 -11  -5    1.92    2.29
   1 -11  -5   -3.18    4.84
   1 -11   6   10.57    5.25
  -1 -11  -6   10.31    5.47
  -1 -11   6    2.03    2.76
   1 -11  -6   -1.05    4.50
   1 -11   7   18.39    6.21
  -1 -11   7   28.38    9.20
   1 -11  -7   34.35    9.93
  -1 -11  -7   20.20    8.16
   1 -11   8  157.55   21.69
   1 -11  -8  166.09   22.23
  -1 -11  -8  184.39   22.31
  -1 -11   8  127.22   18.57
  -1 -11   9    0.83    2.23
   1 -11  -9    0.68    3.30
  -1 -11  10  191.96   22.88
   1 -11 -10  180.04   23.75
   1 -11  10  236.40   25.40
  -1 -11  11    4.83    2.72
   1 -11  11   13.06    4.99
   1 -11  12   47.16   12.40
  -1 -11  12   51.11   13.55
   1 -11  13    6.98    4.77
   1  11  13    3.86    1.40
  -1 -11  13    8.56    5.53
   1  11  14    1.86    4.03
   1 -11  14   -4.97    4.15
  -1 -11  14    8.56    7.22
  -1 -11  15    1.46    4.10
   1 -11  15    5.25    5.21
   1  11  15   -2.43    4.02
  -1  11  16    1.29    0.79
  -1 -11  16    6.38    6.04
   1  11  16    6.36    2.05
   1 -11  16    5.57    8.27
  -1 -11  17    4.10    4.48
   1  11  17    9.33    6.70
  -1  11  17   14.15    4.81
   1 -11  17   19.90   10.16
   1 -11  18   -4.54    6.30
  -1 -11  18   -7.49    6.04
  -1  11  18    5.51    2.59
   1  11  18   -6.26    7.32
   1 -11  19   21.37    9.74
   1  11  19   22.61    8.28
  -1 -11  19   22.55    7.91
  -1  11  19   16.70    7.59
   1  11  20   20.63    9.23
  -1 -11  20   13.01    7.23
  -1  11  20   35.85   12.11
   1 -11  20   27.60    8.49
   1 -11  21    9.65    5.51
  -1  11  21    9.83    3.89
  -1 -11  21   16.61   11.08
   1  11  21    6.54    5.80
  -1  11  22   -6.42    8.58
   1  11  22    1.73    2.99
   1 -11  22   -3.62    2.07
   1  11  23    0.64    0.95
  -1  11  23    0.84    4.77
   1 -11  23    7.06    5.61
   1  11  24   -1.36    7.23
  -1  11  24    9.05    7.03
   1 -11  24   -2.73    5.55
   1 -12   0   -0.11    2.21
  -1 -12   0    1.02    3.24
   1 -12  -1    0.38    4.65
   1 -12   1   -3.19    3.92
  -1 -12  -1   10.26    7.43
  -1 -12   1    1.60    3.21
   1 -12   2   47.55   12.22
  -1 -12  -2   68.06   14.35
   1 -12  -2   62.10   14.36
  -1 -12   2   55.42   11.58
   1 -12  -3   12.99    7.25
   1 -12   3   11.14    7.36
  -1 -12  -3    9.42    6.18
  -1 -12   3    8.99    4.38
  -1 -12  -4   13.66    8.31
   1 -12   4    1.47    5.10
   1 -12  -4    5.04    7.26
  -1 -12   4   -0.64    5.45
  -1 -12   5    6.76    3.96
   1 -12   5    6.83    6.08
  -1 -12  -5    9.23    6.03
   1 -12  -5    4.71    4.81
   1 -12  -6    2.83    3.86
  -1 -12  -6    7.14    2.45
   1 -12   6    6.92    4.68
   1 -12  -7   29.61   10.02
  -1 -12  -7   18.39    7.23
   1 -12   7    9.76    6.75
  -1 -12   7    8.46    3.90
  -1 -12   8   35.09    9.54
   1 -12  -8   35.50    9.47
   1 -12   8   35.36   11.12
  -1 -12  -8   24.90    7.00
   1 -12  -9   58.57   13.85
  -1 -12  -9   92.60   16.37
   1 -12   9   87.53   16.09
  -1 -12   9   79.32   15.10
  -1 -12 -10   10.70    6.46
   1 -12 -10   19.70    8.28
  -1 -12  10   23.51    7.87
   1 -12  10   12.77    6.49
  -1 -12 -11    0.05    3.63
  -1 -12  11   -0.49    3.62
   1 -12  11    0.66    2.69
   1 -12 -11    0.89    2.93
  -1 -12  12   12.42    7.44
   1 -12  12   20.11    8.68
   1 -12 -12   16.47    7.59
   1 -12 -13  116.22   18.43
   1 -12  13  122.80   20.76
  -1 -12  13  109.28   19.31
  -1 -12  14    8.22    9.03
   1 -12  14   -0.41    2.81
  -1 -12  15    5.91    7.97
   1 -12  15   -3.61    3.46
  -1 -12  16   75.33   15.70
   1  12  16   56.31   15.18
   1 -12  16   41.38   12.04
   1 -12  17   10.72    5.64
  -1 -12  17   13.23    5.28
   1  12  17   24.70    8.64
  -1 -12  18   13.65    8.21
   1 -12  18    3.02    7.94
   1  12  18    3.19    4.54
   1  12  19   59.59   16.16
  -1 -12  19   17.88   11.86
  -1  12  19   42.67   13.83
   1 -12  19   48.42   14.43
  -1  12  20   -2.02    5.76
   1 -12  20   -0.94    3.62
   1  12  20    0.05    1.66
   1 -12  21   -0.50    6.10
   1  12  21    4.32    3.49
  -1  12  21   -1.12    4.04
   1  12  22    6.16    3.00
  -1  12  22    2.91    1.91
   1 -13   0   -2.79    2.45
  -1 -13   0    4.10    6.13
   1 -13   1   44.81   12.47
  -1 -13   1   32.48   10.04
   1 -13  -1   27.92    9.70
  -1 -13  -1   37.50    9.76
   1 -13  -2    6.05    4.75
  -1 -13  -2   22.49    8.81
   1 -13   2   11.67    7.24
  -1 -13   2   14.78    6.47
   1 -13   3   18.20    7.33
  -1 -13   3   23.75    7.26
   1 -13  -3   16.80    5.16
  -1 -13  -3   13.92    6.17
  -1 -13  -4   40.16   12.49
   1 -13  -4   25.32    9.82
  -1 -13   4   26.38    9.70
   1 -13   4   26.05    7.78
  -1 -13  -5    2.11    1.11
   1 -13  -5   -1.43    5.03
   1 -13   5   -0.78    1.64
  -1 -13   5    2.26    2.65
   1 -13   6   -1.69    1.66
   1 -13  -6   -2.85    1.34
  -1 -13  -6   -1.76    4.40
  -1 -13  -7   11.70    8.17
   1 -13  -7    9.87    4.68
   1 -13   7   11.84    5.29
  -1 -13   7    6.27    7.41
   1 -13  -8   -2.63    6.03
  -1 -13   8    5.47    4.74
  -1 -13  -8    7.31    4.05
   1 -13   8    1.35    3.56
   1 -13  -9   56.99   13.82
   1 -13   9   72.33   15.08
  -1 -13  -9   38.86   10.76
  -1 -13   9   69.10   15.50
  -1 -13 -10   -0.60    3.39
   1 -13 -10    4.55    7.17
  -1 -13  10    5.84    6.48
   1 -13  10   -0.99    1.31
  -1 -13 -11    1.47    2.44
   1 -13 -11    0.91    2.15
  -1 -13  11    3.61    3.94
   1 -13  11   -1.74    1.27
   1 -13 -12   33.37   10.54
   1 -13  12   29.65   10.73
  -1 -13  12   23.96    9.54
  -1 -13 -12   23.93   10.00
  -1 -13  13   -0.27    4.38
   1 -13 -13   -0.56    2.87
   1 -13  13    1.07    0.89
  -1 -13 -13    4.43    3.37
  -1 -13  14    3.60    3.75
  -1 -13 -14    5.48    5.72
   1 -13  14    9.82    4.99
   1 -13 -14   14.69    9.61
   1 -13  15   54.71   14.93
   1 -13 -15   51.42   11.59
  -1 -13  15   83.52   18.90
   1 -13  16    7.91    8.30
   1 -13 -16   -0.32    3.07
   1 -13  17    3.75    1.07
   1 -13  18   -4.34    0.66
   1 -13  19   -1.56    0.94
   1 -13  20    7.52    6.90
   1  13  20   -4.02    5.69
   1 -14   0   -1.54    1.09
  -1 -14   0   -1.35    2.18
   1 -14   1   18.57    8.20
  -1 -14  -1   29.00   10.49
   1 -14  -1    9.00    6.61
  -1 -14   1   12.77    4.90
   1 -14  -2   14.65    6.76
  -1 -14   2   38.29   11.57
   1 -14   2   11.97    6.42
  -1 -14  -2   18.71    8.70
  -1 -14  -3    5.84    7.07
  -1 -14   3    2.97    3.81
   1 -14   3   18.37    7.29
   1 -14  -3    1.71    5.36
  -1 -14  -4    6.86    6.96
   1 -14   4   -1.70    4.63
  -1 -14   4   -4.79    7.58
   1 -14  -4   -0.33    4.11
   1 -14  -5   46.77   13.06
  -1 -14  -5   53.76   13.44
  -1 -14   5   32.00    9.55
   1 -14   5   31.85    8.88
   1 -14   6  102.90   18.35
   1 -14  -6   77.52   15.62
  -1 -14  -6   83.39   16.84
  -1 -14   6   83.54   17.92
   1 -14   7   -1.14    4.16
  -1 -14   7   -5.49    2.78
  -1 -14  -7   -0.08    2.27
   1 -14  -8    3.20    4.67
   1 -14   8   -4.81    5.21
  -1 -14   8   -1.39    5.75
  -1 -14  -8   -2.32    3.89
  -1 -14  -9   -2.41    5.40
   1 -14  -9   11.38    4.87
  -1 -14   9   15.37    7.22
   1 -14   9    4.60    5.34
   1 -14  10   61.63   14.55
   1 -14 -10   46.64   14.39
  -1 -14  10   34.38   10.70
  -1 -14 -10   21.77    7.97
   1 -14  11    5.05    3.62
  -1 -14 -11   -0.33    0.87
   1 -14 -11    9.62    5.24
   1 -14 -12    9.23    5.97
   1 -14  12    5.78    4.78
  -1 -14 -13   20.76   10.27
   1 -14  13   28.13   11.35
   1 -14 -13   24.93   11.53
   1 -14  14   14.15    6.07
   1 -14 -14   16.82    8.86
  -1 -14 -14   11.24    6.75
  -1 -14 -15   33.49   10.22
   1 -14 -15   22.67    9.25
  -1 -14 -16   31.16   11.70
   1 -14  16   38.38   11.73
   1 -14 -16   16.80    8.57
   1 -14  17   25.57    9.51
  -1 -14 -17   24.51   11.83
   1 -14 -17   24.13    9.90
   1 -15   0    2.86    3.91
  -1 -15   0    1.38    5.41
   1 -15   1   -0.95    1.12
  -1 -15   1   -2.83    5.94
   1 -15  -1    3.24    5.77
   1 -15   2   49.51   12.94
  -1 -15   2   30.58    9.17
  -1 -15  -2   43.25   13.34
   1 -15  -2   46.93   11.78
  -1 -15   3    7.54    4.72
   1 -15   3   21.46    7.62
  -1 -15  -3   21.89   11.62
   1 -15  -3   10.85    7.96
  -1 -15   4   23.78    9.50
   1 -15   4    5.93    4.87
  -1 -15  -4   -3.31    4.28
   1 -15  -4   17.02    9.33
   1 -15   5    7.91    6.01
  -1 -15  -5    5.24    6.42
  -1 -15   5    8.25    8.69
   1 -15  -5   -0.33    3.16
  -1 -15  -6   16.93    9.04
   1 -15  -6   16.39    7.57
   1 -15   6   21.88    9.46
  -1 -15   7  -11.09    6.32
   1 -15  -7   19.35    9.45
  -1 -15  -7   11.18    8.52
   1 -15   7   20.10    8.63
   1 -15  -8   38.72   13.31
  -1 -15  -8   23.01    7.16
   1 -15   8   26.13    8.51
  -1 -15  -9   13.60    5.87
   1 -15  -9    5.69    3.51
   1 -15   9   15.81    5.28
  -1 -15 -10   29.20   11.80
   1 -15  10   31.63   10.85
   1 -15 -10   26.28    8.67
  -1 -15 -11    2.75    2.08
   1 -15  11    7.56    6.61
   1 -15 -11   -0.03    5.62
   1 -15 -12    7.33    8.33
  -1 -15 -12   10.31    6.73
   1 -15  12    8.19    6.30
   1 -15  13   -0.87    5.49
  -1 -15 -13    1.21    3.50
   1 -15 -13    1.41    4.74
   1 -16   0   -1.06    2.67
  -1 -16   0   14.11   12.97
   1 -16   1    4.49    7.58
  -1 -16  -1    6.14    5.84
   1 -16  -1   -1.12    4.28
  -1 -16   1   -5.54    5.14
   1 -16   2  103.93   19.63
   1 -16  -2   86.60   18.72
  -1 -16  -2   56.33   15.41
   1 -16   3   -4.58    5.24
   1 -16  -3    0.37    3.26
  -1 -16  -3   -4.00    6.59
  -1 -16  -4    9.77    6.23
   1 -16  -4   10.33    7.57
   1 -16   4    4.29    7.44
  -1 -16  -5   27.02   10.11
   1 -16   5   14.43    5.87
   1 -16  -5   12.91    8.11
  -1 -16  -6   22.63    9.87
   1 -16   6   14.59    7.04
   1 -16  -6    5.69    2.82
   1 -16   7    2.40    3.34
   1 -16  -7    4.68    5.59
  -1 -16  -7    1.02    5.79
   1 -16  -8   11.24    8.76
  -1 -16  -8   15.06    6.75
   1 -16   8    2.07    2.71
   2   0   0  653.93   14.07
   2   0   1   -0.35    0.47
   2   0  -1    1.25    0.75
  -2   0   2 5909.71   44.18
   2   0   2 5985.82   53.14
   2   0   3    4.66    2.18
  -2   0   3    0.64    0.45
   2   0   4 2978.09   46.72
  -2   0   4 2991.89   38.87
  -2   0   5    0.51    0.26
   2   0   5    0.15    1.54
   2   0   6  465.76   21.01
  -2   0   6  479.72   19.33
  -2   0   7   -0.55    0.88
   2   0   7   -0.46    0.30
   2   0   8 1996.38   49.81
  -2   0   8 2147.53   46.58
  -2   0   9    0.45    1.23
   2   0   9    4.34    3.28
   2   0  10 5024.50   86.43
  -2   0  10 5062.06   80.06
   2   0  11    0.88    0.19
  -2   0  11   -0.80    1.85
  -2   0  12 1022.58   39.70
   2   0  12  975.36   41.71
  -2   0  13    0.69    3.32
   2   0  13    0.75    3.41
   2   0  14 1401.29   53.93
  -2   0  14 1383.25   50.17
  -2   0  15    3.00    4.67
   2   0  15   -1.73    1.87
  -2   0  16   55.56   10.63
   2   0  16   42.77    9.25
  -2   0  17   -0.52    1.75
   2   0  17    2.79    3.51
  -2   0  18  167.50   20.06
  -2   0  19    0.11    2.93
   2   0  19    1.64    5.39
  -2   0  20   48.59   11.14
   2   0  20   53.59   11.99
   2   0  21   -2.49    3.65
  -2   0  21    5.75    7.27
   2   0  22    4.90    4.32
  -2   0  22    3.57    2.07
  -2   0  23    0.16    4.27
   2   0  23   -4.28    1.46
   2   0  24   11.42    6.45
  -2   0  24   15.64    8.63
  -2   0  25   -3.57    3.17
   2   0  25   -2.08    3.54
   2   0  26   40.60   12.06
  -2   0  26   38.38   13.26
  -2   0  27    2.50    3.94
   2   0  27   -3.36    4.84
   2   0  28    4.51    6.13
  -2   0  28   -2.96    1.01
  -2   0  29    2.70    6.62
   2   0  29    2.16    6.78
   2   0  30   13.59    4.53
  -2   0  30    9.47    5.96
  -2   0  31   -3.97    6.14
   2   0  31   -0.53    5.00
  -2   0  32   37.86   10.30
   2   0  32   53.74   13.88
   2  -1   0 8767.17   68.83
   2  -1  -1 6496.78   60.43
   2  -1   1 6834.54   61.44
   2   1   2   48.36    4.63
   2  -1   2   41.04    5.05
  -2   1   3 2578.12   39.96
  -2  -1   3 2630.65   26.03
  -2  -1   4 2692.79   33.04
  -2   1   4 2641.07   42.64
  -2   1   5    8.21    2.63
   2  -1   5    7.09    2.58
   2   1   5   10.86    2.84
  -2  -1   5    9.87    2.52
  -2   1   6   14.57    3.34
  -2  -1   6    8.53    2.08
   2   1   6   10.93    3.09
   2  -1   6   10.33    3.11
   2   1   7  103.81   10.76
  -2   1   7  106.42   10.12
  -2  -1   7  125.64   10.35
   2  -1   7  112.80   11.80
  -2   1   8 1191.61   36.11
   2  -1   8 1133.05   38.58
  -2  -1   8 1159.73   33.64
   2   1   8 1234.22   38.73
  -2  -1   9    6.12    2.97
   2  -1   9    4.11    1.98
   2   1   9    7.97    4.28
  -2   1   9    2.94    1.82
  -2  -1  10  606.96   27.59
   2  -1  10  622.05   30.83
  -2   1  10  689.94   30.57
   2   1  10  693.93   31.19
   2  -1  11   -1.37    1.79
  -2   1  11    0.42    1.76
   2   1  11    0.87    1.69
  -2  -1  11    1.36    3.34
  -2   1  12 1902.71   55.44
  -2  -1  12 1733.26   52.10
   2  -1  12 1711.47   54.48
   2   1  12 1721.17   54.46
  -2  -1  13    4.32    3.65
   2  -1  13    0.94    3.00
   2   1  13    4.32    1.08
  -2   1  13    4.84    2.69
   2  -1  14  964.32   44.17
  -2  -1  14  848.88   39.40
   2   1  14  928.75   42.76
  -2   1  14  878.37   41.04
   2  -1  15  437.53   30.59
   2   1  15  472.38   31.45
  -2  -1  15  417.03   28.67
  -2   1  15  406.14   29.33
  -2  -1  16   99.81   14.32
   2  -1  16   71.72   13.08
   2   1  16   83.22   13.22
  -2   1  16   63.44   11.57
  -2  -1  17   50.38   10.96
  -2   1  17   31.50    8.70
   2  -1  17   32.61    8.68
   2   1  17   32.41    8.43
   2   1  18 1080.01   51.60
   2  -1  18 1048.68   50.77
  -2   1  18 1063.74   50.83
  -2  -1  18 1122.44   51.15
  -2   1  19   12.43    6.22
  -2  -1  19    4.31    5.80
   2   1  19    1.30    2.39
   2  -1  19    4.68    2.34
   2   1  20   82.81   15.87
   2  -1  20   80.33   15.25
  -2   1  20   77.90   14.70
  -2  -1  20   89.00   15.26
  -2   1  21   79.69   15.62
   2  -1  21   50.60   12.01
  -2  -1  21   60.56   13.01
   2   1  21   59.36   11.90
  -2  -1  22  206.26   23.70
  -2   1  22  210.73   24.39
   2   1  22  185.16   23.11
   2  -1  22  170.32   22.23
   2   1  23   48.71   11.17
   2  -1  23   31.63   10.33
  -2   1  23   31.51   10.28
  -2  -1  23   45.49   11.48
   2  -1  24   37.38   10.95
   2   1  24   19.36    7.49
  -2  -1  24   26.66    9.02
  -2   1  24   24.78    9.51
   2  -1  25   98.57   17.83
   2   1  25   88.12   17.58
  -2   1  25  111.49   19.93
  -2  -1  25  108.10   18.64
  -2  -1  26  247.52   29.15
   2  -1  26  289.74   31.08
   2   1  26  276.87   29.69
  -2   1  26  280.25   30.58
  -2  -1  27   15.21    5.82
   2  -1  27    9.28    7.37
   2   1  27   20.91    7.52
   2  -1  28  234.60   29.06
   2   1  28  268.12   30.08
  -2  -1  28  256.91   30.14
  -2   1  28  251.34   30.17
  -2   1  29  113.16   20.87
   2  -1  29  144.67   23.10
  -2  -1  29  133.00   22.56
   2   1  29  124.49   20.81
  -2   1  30   -0.39    5.57
  -2  -1  30    7.26    7.28
   2   1  30    9.95    3.12
   2  -1  30   15.23    7.47
   2  -1  31    4.13    6.20
  -2   1  31    7.42    5.11
  -2  -1  31   10.84    9.99
   2   1  31    2.42    6.16
   2  -1  32   65.31   15.41
  -2  -1  32   55.70   14.45
  -2   1  32   52.63   12.20
   2   1  32   48.42   12.23
   2   2   0 1356.12   18.31
   2  -2   0 1310.94   32.07
   2  -2   1  198.55   12.57
   2   2   1  219.28    8.84
   2   2   2    0.69    1.06
   2  -2   2   -0.26    2.07
   2  -2  -2   -0.81    1.28
   2   2   3 3553.36   46.58
  -2  -2   3 3601.29   33.37
  -2   2   3 3565.62   54.91
   2  -2   3 3653.13   57.81
  -2  -2   4 2449.91   32.40
   2  -2   4 2526.95   48.62
  -2   2   4 2426.11   47.36
   2   2   4 2509.82   42.91
   2   2   5 1690.82   37.67
  -2  -2   5 1640.78   30.66
  -2   2   5 1578.57   39.62
   2  -2   5 1719.88   41.91
  -2   2   6  479.78   22.66
  -2  -2   6  458.23   18.08
   2  -2   6  494.48   23.90
   2   2   6  466.71   21.52
   2  -2   7  643.84   28.26
   2   2   7  638.52   26.61
  -2  -2   7  614.37   22.99
  -2   2   7  600.66   25.54
   2  -2   8    0.35    1.28
   2   2   8    4.26    2.90
  -2  -2   8    1.07    2.36
  -2   2   8   -1.54    2.42
  -2   2   9   24.73    6.01
   2   2   9   29.27    6.26
   2  -2   9   29.96    6.61
  -2  -2   9   26.64    5.73
   2  -2  10   16.26    4.24
  -2  -2  10   12.65    4.37
   2   2  10   15.35    4.56
   2  -2  11  517.82   29.46
  -2  -2  11  483.14   25.79
   2   2  11  506.51   28.89
  -2   2  11  524.81   28.34
   2   2  12    8.87    4.59
   2  -2  12    4.82    4.01
  -2  -2  12    0.41    1.11
  -2   2  12    6.84    3.52
   2  -2  13 1570.44   55.64
  -2  -2  13 1664.93   52.51
  -2   2  13 1694.17   55.60
  -2   2  14    6.30    1.24
  -2  -2  14    9.65    4.11
   2   2  14   14.01    5.64
   2  -2  14    6.67    4.03
  -2   2  15   23.79    6.99
   2   2  15   39.89    9.40
  -2  -2  15   13.72    5.47
   2  -2  15   26.72    7.66
  -2  -2  16  100.13   13.97
   2  -2  16   84.02   14.58
  -2   2  16   77.91   13.17
   2   2  16   90.33   13.71
  -2   2  17   -2.82    3.16
  -2  -2  17    1.45    2.17
   2  -2  17    0.44    4.35
   2   2  17    3.78    5.01
  -2  -2  18   47.21   11.51
  -2   2  18   36.76    8.79
   2   2  18   27.69    7.91
   2  -2  18   47.71   10.77
  -2   2  19   53.25   11.57
   2   2  19   60.01   12.27
  -2  -2  19   44.48   10.68
   2  -2  19   61.00   12.17
  -2   2  20    0.36    3.65
   2   2  20   -0.92    3.95
  -2  -2  20    1.57    4.84
   2  -2  20   -2.07    3.83
   2  -2  21  115.71   18.24
  -2   2  21  108.87   17.64
   2   2  21   94.53   15.17
  -2  -2  21   86.38   14.74
  -2   2  22   47.26   11.25
   2   2  22   32.51   11.24
  -2  -2  22   42.65   11.17
   2  -2  22   64.59   14.11
  -2  -2  23    2.73    4.74
   2  -2  23    0.34    3.13
   2   2  23   -0.04    5.45
  -2   2  23    5.53    3.78
  -2   2  24    3.53    0.98
   2   2  24   10.86    7.09
  -2  -2  24   -5.53    3.99
   2  -2  24    4.38    5.71
  -2  -2  25    7.85    5.45
   2  -2  25    3.14    6.41
   2   2  25   -1.98    4.40
  -2   2  25   -1.23    3.34
  -2   2  26   13.76    5.89
   2  -2  26    5.01    2.76
  -2  -2  26   22.13    7.83
   2   2  26   24.24    9.21
   2   2  27   12.63    6.71
  -2  -2  27   22.19    9.46
   2  -2  27   32.16    9.57
  -2   2  27   38.98   12.96
  -2  -2  28    3.23    5.44
   2   2  28   -0.29    1.90
  -2   2  28   -1.27    5.40
   2  -2  28    7.74    5.24
   2   2  29   24.20    9.71
  -2  -2  29   41.69   10.94
   2  -2  29   23.83   10.93
  -2   2  29   28.80   11.01
  -2   2  30    9.54    7.02
   2   2  30   -3.23    3.77
  -2  -2  30   -0.98    4.76
   2  -2  30   10.77    6.52
   2   2  31   11.39    5.93
  -2  -2  31   14.44    9.08
   2  -2  31   17.00    8.79
  -2   2  31   -0.51    3.69
   2   2  32   -4.11    4.70
  -2  -2  32    0.81    5.47
  -2   2  32    2.58    3.52
   2  -2  32   -1.58    1.10
   2  -3   0 1036.93   32.23
  -2  -3   1  493.62   14.82
   2  -3  -1  541.17   23.64
   2   3   1  494.85   16.26
   2  -3   1  495.91   22.55
  -2  -3   2   16.67    2.68
   2  -3  -2   23.17    5.18
   2   3   2   19.16    3.52
   2  -3   2   27.30    5.36
   2  -3   3  110.52   10.76
  -2  -3   3  104.14    7.19
   2   3   3  108.11    8.68
   2  -3   4   32.89    6.32
  -2   3   4   21.43    4.63
  -2  -3   4   20.30    3.68
   2   3   4   20.83    4.27
  -2   3   5  196.08   14.89
  -2  -3   5  192.99   11.31
   2   3   5  166.22   12.74
   2  -3   5  173.63   14.63
  -2   3   6  305.64   19.80
  -2  -3   6  304.78   15.33
   2   3   6  285.35   17.61
   2  -3   6  307.40   19.71
   2  -3   7   28.40    6.19
  -2   3   7   20.65    4.72
  -2  -3   7   18.00    3.86
   2   3   7   29.48    5.81
   2   3   8  706.40   30.79
  -2  -3   8  681.91   26.52
  -2   3   8  587.20   28.85
   2  -3   8  626.37   30.62
   2  -3   9  370.44   23.99
  -2  -3   9  339.49   20.16
  -2   3   9  339.57   22.35
   2   3   9  305.21   21.06
  -2  -3  10  106.64   11.78
  -2   3  10  122.36   13.84
   2   3  10  117.58   13.64
   2  -3  10  109.61   13.70
  -2  -3  11  385.92   23.49
  -2   3  11  377.82   25.17
   2  -3  11  410.26   26.89
   2   3  11  383.58   25.62
   2  -3  12    3.01    2.49
   2   3  12   -0.72    2.47
  -2   3  12   -1.06    2.81
  -2  -3  12    0.85    2.68
  -2  -3  13   82.32   11.88
   2   3  13   82.19   12.61
  -2   3  13   85.86   12.74
  -2   3  14    1.71    2.48
  -2  -3  14    1.92    2.62
   2  -3  14    3.41    2.77
   2   3  14    4.48    3.59
   2  -3  15   77.76   13.23
  -2  -3  15   88.97   13.62
   2   3  15   72.46   13.54
  -2   3  15   84.93   13.76
   2  -3  16   -0.37    2.47
   2   3  16    1.59    4.16
  -2  -3  16    2.30    4.05
  -2   3  16    2.75    2.98
  -2  -3  17  289.62   25.96
   2  -3  17  300.31   27.36
   2   3  17  291.86   26.14
  -2   3  17  296.52   26.50
   2  -3  18  115.22   17.17
  -2  -3  18   91.51   14.99
  -2   3  18   87.43   14.79
   2   3  18   87.31   14.25
  -2  -3  19  195.28   22.15
   2  -3  19  226.78   24.71
  -2   3  19  184.40   21.92
   2   3  19  218.65   24.01
  -2   3  20   46.36   11.27
   2   3  20   41.84   10.25
  -2  -3  20   39.47   10.38
   2  -3  20   21.94    7.67
  -2   3  21   11.04    6.39
  -2  -3  21   10.66    6.82
   2  -3  21    2.24    2.97
   2   3  21    6.34    4.37
  -2  -3  22   50.75   12.67
   2   3  22   69.29   13.75
   2  -3  22   65.42   15.82
  -2   3  22   82.78   15.05
  -2   3  23    5.80    7.03
   2   3  23    5.84    4.66
   2  -3  23   -2.82    5.40
  -2  -3  23    4.57    4.15
  -2   3  24   25.77    8.78
   2   3  24   23.34   11.55
  -2  -3  24    8.82    1.33
   2  -3  24    2.17    2.12
   2  -3  25  153.83   22.46
  -2  -3  25  163.66   23.71
  -2   3  25  137.30   21.80
   2   3  25  201.23   26.31
  -2   3  26    6.06    3.94
  -2  -3  26   -2.48    1.23
   2   3  26    6.33    5.89
   2  -3  26   -0.53    5.53
   2   3  27    3.54    2.62
   2  -3  27    9.42    6.59
  -2   3  27   13.82    6.35
  -2  -3  27   23.66    8.36
  -2   3  28   26.08   10.33
   2   3  28   36.48   12.80
  -2  -3  28   30.34   11.13
   2  -3  28   13.34    8.47
  -2  -3  29   93.09   19.19
   2   3  29  113.67   20.59
   2  -3  29  124.14   20.37
  -2   3  29  113.91   19.60
  -2   3  30    8.09    5.99
   2   3  30    0.45    5.82
  -2  -3  30   18.63    9.66
   2  -3  30   10.91    6.61
   2   3  31   82.89   18.11
  -2  -3  31   53.13   14.63
   2  -3  31   85.52   18.66
  -2   3  31   81.43   17.61
   2  -4   0    3.77    3.62
  -2  -4   0    5.34    3.01
  -2  -4   1    4.65    2.39
   2  -4  -1    1.82    1.04
   2  -4   1    3.42    1.09
   2  -4  -2   87.89   10.40
   2  -4   2   73.07    9.70
  -2  -4   2   83.84    7.79
   2   4   2   73.56    7.95
   2   4   3   97.19    9.68
   2  -4   3  112.63   11.70
  -2  -4   3  104.54    8.74
   2  -4  -3   95.72   11.09
  -2  -4   4  340.81   16.56
   2  -4   4  346.55   21.36
   2   4   4  375.25   19.50
   2   4   5   31.49    5.42
  -2  -4   5   33.02    4.98
   2  -4   5   32.71    6.86
  -2   4   5   28.92    6.34
   2   4   6  608.34   27.25
  -2  -4   6  562.54   22.94
  -2   4   6  613.60   29.50
  -2   4   7  329.43   22.39
  -2  -4   7  332.79   18.44
   2   4   7  305.54   19.85
   2  -4   7  327.58   22.47
   2   4   8  795.93   33.72
  -2  -4   8  870.80   31.59
  -2   4   8  837.14   36.24
   2   4   9  172.11   16.67
  -2   4   9  153.78   15.93
  -2  -4   9  185.73   15.18
   2  -4   9  178.74   17.46
   2   4  10  303.92   22.56
  -2   4  10  290.33   22.71
   2  -4  10  303.32   23.24
  -2  -4  10  316.70   21.40
   2   4  11    3.58    2.63
   2  -4  11    0.03    4.05
  -2   4  11    3.36    2.81
  -2  -4  11    2.96    3.89
   2  -4  12   14.94    5.67
  -2   4  12   19.40    7.02
  -2  -4  12   23.57    5.73
   2   4  12   10.43    4.12
  -2   4  13    8.83    4.82
   2  -4  13   12.30    4.47
   2   4  13    7.64    3.83
  -2  -4  13    1.76    1.78
   2   4  14   86.09   13.54
  -2  -4  14   95.12   13.38
  -2   4  14  100.00   14.47
   2  -4  14  107.78   15.67
  -2  -4  15  278.17   24.30
   2   4  15  281.48   25.22
  -2   4  15  274.89   24.59
   2   4  16   46.07    9.80
  -2  -4  16   68.95   12.01
  -2   4  16   57.04   10.85
   2  -4  16   49.93   10.95
   2  -4  17   -0.92    4.69
   2   4  17    6.75    4.83
  -2  -4  17    2.17    2.47
  -2   4  17    1.10    1.29
  -2  -4  18   10.53    6.89
   2  -4  18   15.33    5.51
   2   4  18    8.63    5.29
  -2   4  18    2.46    3.78
   2   4  19   -0.52    3.67
  -2  -4  19    3.82    1.83
   2  -4  19    0.90    4.81
  -2   4  19    1.19    3.42
  -2   4  20  134.68   20.18
   2  -4  20  101.52   16.87
   2   4  20  116.63   17.68
  -2  -4  20  115.20   17.98
   2   4  21    6.80    5.32
  -2  -4  21    7.51    6.32
   2  -4  21    7.06    7.37
  -2   4  21    2.62    4.76
   2   4  22   37.09   10.65
  -2   4  22   38.27   10.34
   2  -4  22   66.99   14.35
  -2  -4  22   29.86   10.04
  -2   4  23   10.27    4.88
   2   4  23    3.06    3.88
   2  -4  23    3.22    2.41
  -2  -4  23   11.18    8.77
   2   4  24    7.45    4.69
  -2  -4  24   17.68    9.92
   2  -4  24    7.11    6.02
  -2   4  24   14.92    8.16
  -2   4  25   29.97    9.57
  -2  -4  25   68.49   16.40
   2  -4  25   47.40   13.03
   2   4  25   46.61   13.43
  -2   4  26   -0.92    4.56
  -2  -4  26    5.40    5.97
   2   4  26   -4.70    1.56
   2  -4  26    4.46    5.59
  -2  -4  27   19.21    8.95
   2   4  27   25.93   10.52
   2  -4  27   23.02    8.86
  -2   4  27   10.97    5.73
  -2   4  28   21.13    7.63
  -2  -4  28   39.33   11.14
   2  -4  28   38.31   11.86
   2   4  28   19.91    8.04
  -2  -4  29   -0.32    2.30
   2  -4  29    4.97    6.40
  -2   4  29    9.77    6.80
   2   4  29    2.16    5.52
  -2   4  30    2.62    3.55
   2   4  30   -3.00    3.23
   2  -4  30   -1.62    5.07
  -2  -4  30    5.44    6.78
  -2   4  31    3.10    4.35
   2  -4  31   -8.47    8.14
  -2  -4  31    4.06    4.30
  -2  -5   0 3435.18   59.36
   2  -5   0 3542.48   71.84
   2  -5   1   17.71    5.11
   2  -5  -1   20.37    4.70
  -2  -5   1   19.74    4.56
  -2  -5  -1   21.33    4.45
   2  -5  -2  102.48   12.24
   2  -5   2  108.21   12.72
  -2  -5   2   87.63    9.23
   2   5   3   86.78    9.66
  -2  -5   3   72.18    8.12
   2  -5  -3   70.13   10.66
   2  -5   3   75.32   10.73
   2  -5   4   70.84   10.63
   2   5   4   89.09   10.24
  -2  -5   4   87.21    9.19
   2  -5   5  347.06   23.36
  -2  -5   5  365.42   19.47
   2   5   5  341.24   20.64
   2  -5   6   48.21    9.39
   2   5   6   67.17   10.26
  -2   5   6   70.93   10.49
  -2  -5   6   80.69    9.20
   2  -5   7  451.30   27.53
  -2  -5   7  430.91   22.96
  -2   5   7  407.21   26.00
   2   5   7  432.26   24.80
   2  -5   8 1345.34   48.43
   2   5   8 1421.83   46.89
  -2  -5   8 1391.76   42.28
  -2   5   8 1351.09   49.05
   2  -5   9    1.78    1.61
  -2  -5   9    6.09    4.18
  -2   5   9    0.40    1.68
   2   5   9    5.96    3.87
  -2  -5  10  254.87   19.81
  -2   5  10  240.98   21.49
   2   5  10  249.23   20.82
   2  -5  10  254.31   22.03
  -2   5  11   74.69   12.75
  -2  -5  11   86.03   11.88
   2  -5  11   73.02   12.59
   2   5  11   54.10   10.07
   2  -5  12   13.16    4.73
   2   5  12   17.30    5.31
  -2   5  12   21.13    6.79
  -2  -5  12   13.34    3.51
  -2  -5  13   62.83   11.18
   2   5  13   67.77   11.26
   2  -5  13   54.76   11.03
  -2   5  13   77.34   12.99
   2  -5  14  541.77   35.11
  -2  -5  14  555.41   34.15
  -2   5  14  557.09   35.05
   2   5  14  499.69   32.76
   2   5  15  140.25   18.76
  -2  -5  15  156.33   18.56
  -2   5  15  139.33   18.74
   2  -5  15  118.33   17.10
   2   5  16   13.71    5.60
  -2  -5  16   13.74    6.84
  -2   5  16   11.84    5.97
   2  -5  16   15.50    5.61
  -2   5  17   23.43    8.61
   2   5  17   18.20    6.73
  -2  -5  17   11.03    6.23
   2  -5  17   14.77    6.62
  -2  -5  18   87.41   15.48
   2  -5  18  101.70   16.38
  -2   5  18   80.05   15.03
   2   5  18   90.12   17.00
  -2  -5  19  118.46   18.10
   2  -5  19  135.71   19.22
  -2   5  19  106.17   16.56
   2   5  19  110.88   17.77
   2   5  20   47.46   10.67
  -2  -5  20   24.49    7.89
   2  -5  20   44.17   11.75
  -2   5  20   52.37   12.19
  -2  -5  21   10.31    6.40
   2  -5  21   10.07    6.31
  -2   5  21    3.57    4.45
   2   5  21    2.44    5.33
  -2  -5  22  103.67   17.59
   2  -5  22  155.10   22.06
  -2   5  22  149.80   21.44
   2   5  22  146.53   21.54
   2   5  23    4.08    4.78
  -2  -5  23    5.61    1.73
   2  -5  23    3.93    3.54
  -2   5  23    2.89    5.74
  -2  -5  24   38.36   11.45
  -2   5  24   36.55   10.58
   2   5  24   27.09    9.69
   2  -5  24   28.30   10.54
   2   5  25   -0.74    1.34
  -2   5  25   -1.77    4.53
  -2  -5  25   -1.59    2.15
   2  -5  25   -0.03    2.92
  -2   5  26   27.69    9.83
   2   5  26   44.47   12.57
  -2  -5  26   22.60    8.74
   2  -5  26   37.63   10.50
  -2   5  27    3.81    1.90
   2   5  27   12.67    6.67
  -2  -5  27    6.32    1.38
   2  -5  27    7.69    7.79
  -2  -5  28   41.68   11.88
   2  -5  28   53.91   13.31
  -2   5  28   44.10   12.16
   2   5  28   32.69   10.23
   2   5  29    3.81    3.32
  -2   5  29    4.48    5.23
  -2  -5  29   -3.21    7.91
   2  -5  29   -0.03    4.00
   2   5  30   16.39    8.44
  -2  -5  30   13.07    9.14
   2  -5  30    4.68    4.09
  -2   5  30   21.39    8.28
   2  -6   0  581.78   31.44
  -2  -6   0  576.35   27.39
  -2  -6  -1   52.54    7.72
   2  -6   1   37.49    8.62
   2  -6  -1   40.00    8.33
  -2  -6   1   47.72    7.60
   2  -6   2   30.05    6.69
  -2  -6   2   19.53    4.92
   2  -6  -2   19.24    6.97
   2  -6  -3   39.68    8.80
  -2  -6   3   30.24    6.67
   2  -6   3   33.60    7.44
   2   6   4  215.83   17.32
   2  -6   4  216.40   19.09
  -2  -6   4  228.58   16.77
   2  -6  -4  203.79   18.67
   2  -6   5  147.44   15.97
  -2  -6   5  145.78   13.72
   2   6   5  122.73   13.84
   2  -6   6   11.82    5.41
   2   6   6   10.85    4.18
  -2  -6   6   10.91    4.47
   2  -6   7  186.14   18.55
  -2   6   7  200.03   19.45
  -2  -6   7  196.27   16.64
   2   6   7  163.01   16.11
  -2  -6   8    5.67    2.39
  -2   6   8   10.28    5.02
   2  -6   8    4.62    3.70
   2   6   8    3.44    3.36
   2  -6   9   14.31    5.26
  -2   6   9   23.39    7.08
   2   6   9   17.28    6.59
  -2  -6   9   14.80    4.18
   2   6  10   27.31    7.00
  -2   6  10   61.49   11.80
   2  -6  10   45.60   10.11
  -2  -6  10   45.09    8.59
  -2   6  11  531.51   34.04
  -2  -6  11  473.30   29.36
   2  -6  11  472.79   32.43
   2   6  11  485.78   31.61
   2   6  12  126.70   16.10
   2  -6  12  122.95   16.37
  -2   6  12  132.33   17.08
  -2  -6  12  143.30   16.58
  -2  -6  13  102.62   14.81
   2  -6  13   92.59   14.81
   2   6  13   87.04   13.79
  -2  -6  14  256.24   23.32
   2  -6  14  280.95   26.39
   2   6  14  252.36   24.58
  -2   6  14  274.51   25.78
  -2  -6  15  111.13   15.63
   2  -6  15   96.28   15.96
  -2   6  15  118.47   17.20
   2   6  15  112.12   16.55
   2   6  16  150.32   19.39
  -2   6  16  135.33   18.50
  -2  -6  16  139.60   18.10
   2  -6  16  130.30   18.88
  -2  -6  17    2.21    1.16
   2   6  17    3.95    2.78
  -2   6  17    4.76    5.58
   2  -6  17    2.42    0.56
  -2  -6  18   81.00   14.38
  -2   6  18   73.86   15.62
   2   6  18   61.67   13.26
   2  -6  18   25.56   11.32
   2   6  19    8.18    2.82
   2  -6  19   14.12    6.74
  -2  -6  19   24.62    9.08
  -2   6  19   19.79    8.09
   2   6  20   -1.98    3.71
  -2   6  20    6.01    5.69
   2  -6  20    5.50    3.87
  -2  -6  20    5.71    4.03
   2   6  21   15.71    7.99
  -2  -6  21    8.89    5.90
   2  -6  21    1.92    4.92
  -2   6  21    3.57    5.83
   2   6  22   45.35   10.27
   2  -6  22   59.73   14.20
  -2  -6  22   64.74   15.37
  -2   6  22   52.22   12.69
   2   6  23   12.31    7.45
  -2   6  23   24.05    9.85
   2  -6  23   22.73    8.56
  -2  -6  23   24.53    9.30
  -2  -6  24   91.07   17.47
   2  -6  24  111.53   18.87
   2   6  24  133.38   20.31
   2   6  25   -2.87    5.61
  -2   6  25    1.21    3.56
  -2  -6  25    4.25    1.27
   2  -6  25    1.60    2.87
  -2  -6  26   31.44   11.00
  -2   6  26   35.36   11.61
   2   6  26   27.50    9.63
   2  -6  26   17.99    9.38
  -2   6  27   -2.94    6.45
   2   6  27   -0.68    1.54
  -2  -6  27    4.20    0.79
   2  -6  27    6.09    8.30
   2   6  28    6.94    7.84
  -2  -6  28    6.17    5.46
   2  -6  28    5.41    0.78
  -2   6  28    6.99    6.11
   2   6  29   12.93    7.15
  -2  -6  29    4.92    3.39
   2  -6  29   13.85    5.82
  -2   6  29   24.46    9.72
  -2  -6  30   38.40   15.89
   2  -6  30   16.36    8.72
  -2   6  30   20.71    6.92
   2   6  30   18.86    8.89
   2  -7   0    3.11    3.91
  -2  -7   0    1.48    0.57
  -2  -7   1  785.14   34.45
  -2  -7  -1  757.91   34.87
   2  -7  -1  827.17   40.40
   2  -7   1  732.13   37.38
   2  -7  -2  238.57   22.04
  -2  -7  -2  264.81   20.29
   2  -7   2  237.46   21.32
  -2  -7   2  221.39   18.00
   2  -7  -3  691.43   36.99
  -2  -7   3  657.81   30.87
   2  -7   3  642.72   34.85
   2  -7  -4  101.45   14.44
  -2  -7   4  111.65   12.84
   2  -7   4  127.45   15.77
   2  -7   5  210.74   20.48
   2   7   5  231.77   20.08
   2  -7  -5  175.90   18.30
  -2  -7   5  181.77   16.74
   2  -7   6  242.20   21.43
   2   7   6  282.45   22.45
  -2  -7   6  240.56   19.82
   2  -7   7  701.05   38.57
  -2  -7   7  724.90   34.70
   2   7   8  126.68   15.73
  -2  -7   8   94.49   12.65
   2  -7   8  116.31   15.87
  -2   7   9   83.43   13.03
   2   7   9  108.88   14.56
  -2  -7   9   91.27   12.19
   2  -7   9   80.01   13.71
   2  -7  10   54.64   10.66
  -2  -7  10   76.62   11.71
  -2   7  10   67.42   12.70
   2   7  10   56.56   10.86
  -2   7  11 1970.10   67.69
  -2  -7  11 1872.93   61.57
   2  -7  11 1941.04   67.25
   2   7  11 2028.11   66.62
  -2  -7  12  350.87   26.94
   2   7  12  342.21   27.82
   2  -7  12  302.76   27.19
   2   7  13  130.31   17.88
  -2  -7  13  127.46   16.46
   2  -7  13  137.33   18.63
  -2   7  13  137.03   18.75
  -2  -7  14   72.46   14.16
   2  -7  14  101.21   15.82
   2   7  14   76.07   13.90
   2  -7  15   -0.12    1.84
  -2   7  15    5.61    5.10
   2   7  15    8.61    3.82
  -2  -7  15   -1.02    2.44
  -2  -7  16  127.84   18.30
  -2   7  16  134.61   19.80
   2  -7  16  177.47   22.85
   2   7  16  121.96   18.37
   2  -7  17  148.62   20.15
  -2  -7  17  173.04   22.21
  -2   7  17  149.54   20.85
   2   7  17  156.24   20.09
   2   7  18   38.10   10.85
  -2  -7  18   45.90   12.51
  -2   7  18   65.31   14.31
   2  -7  18   48.33   11.99
   2   7  19   53.36   12.87
  -2  -7  19   51.93   12.75
   2  -7  19   44.36   12.05
  -2   7  19   49.42   12.81
   2  -7  20    5.48    5.27
   2   7  20    7.94    6.44
  -2   7  20    0.18    5.67
  -2  -7  20    1.73    1.75
   2  -7  21  104.34   18.07
  -2   7  21  118.40   18.77
   2   7  21   80.41   16.18
  -2  -7  21   90.72   18.03
   2   7  22    4.98    5.80
   2  -7  22    0.10    4.97
  -2  -7  22   -5.36    3.11
  -2   7  22    6.08    5.35
  -2   7  23    0.51    3.94
   2   7  23    4.90    1.28
  -2  -7  23    2.59    5.83
   2  -7  23   -2.05    3.58
   2   7  24    2.20    4.71
  -2   7  24    0.08    2.90
  -2  -7  24    3.76    4.46
   2  -7  24    1.80    5.78
  -2   7  25   77.89   18.14
   2   7  25   79.10   16.21
  -2  -7  25   78.10   16.37
   2  -7  25   64.36   15.88
  -2  -7  26    1.53    4.74
   2  -7  26    8.75    6.72
  -2   7  26   -0.98    5.72
   2   7  26    7.19    4.02
   2   7  27   17.23    6.81
  -2  -7  27    3.98    3.52
   2  -7  27   -2.28    4.25
  -2   7  27   10.16    8.16
   2   7  28    0.75    4.74
   2  -7  28    3.60    4.70
  -2   7  28    3.12    5.02
   2   7  29   21.41    9.62
  -2   7  29   44.12   13.94
   2  -7  29   23.97   11.19
   2  -8   0   13.96    4.38
  -2  -8   0   11.59    4.56
  -2  -8  -1   13.09    4.38
  -2  -8   1   10.93    4.26
   2  -8  -1    9.27    6.65
   2  -8   1   18.33    6.40
  -2  -8  -2   31.19    7.02
  -2  -8   2   33.13    7.24
   2  -8   2   33.21    8.64
   2  -8  -2   22.84    6.98
   2  -8  -3  142.19   17.64
  -2  -8  -3  145.55   16.20
  -2  -8   3  138.25   14.99
   2  -8   3  129.53   16.01
   2  -8  -4  252.97   23.57
  -2  -8   4  221.07   19.01
   2  -8   4  200.62   20.95
  -2  -8  -4  223.50   20.72
  -2  -8   5  235.16   20.26
   2  -8  -5  211.71   21.81
   2  -8   5  186.95   20.05
   2  -8  -6    3.02    4.55
   2   8   6   -0.05    1.35
  -2  -8   6    1.22    2.01
   2  -8   6    1.93    3.92
   2  -8   7   73.20   13.38
   2  -8  -7   55.73   10.20
  -2  -8   7   67.75   11.07
   2   8   7   64.40   11.37
   2  -8   8   -0.72    1.28
   2   8   8   -0.09    2.21
  -2  -8   8    0.01    1.71
   2  -8   9  104.28   15.49
   2   8   9  102.50   15.81
  -2  -8   9   92.51   13.27
  -2   8  10   81.47   14.21
  -2  -8  10   71.82   12.59
   2   8  10   75.62   12.51
   2  -8  10   60.67   12.13
  -2  -8  11   -0.50    2.75
  -2   8  11   -5.34    1.63
   2  -8  11    0.92    0.59
   2   8  11    5.69    3.98
   2  -8  12   26.18    8.54
  -2   8  12   22.69    7.19
  -2  -8  12   31.10    8.96
   2   8  12   26.96    7.40
   2  -8  13    1.55    2.73
  -2  -8  13    3.05    4.69
  -2   8  13   -0.95    5.25
   2   8  13    2.96    2.36
   2  -8  14   25.28    7.92
   2   8  14   25.56    8.53
  -2   8  14   30.15    7.90
  -2  -8  14   39.07   10.12
  -2  -8  15  253.04   25.26
   2  -8  15  219.81   25.15
  -2   8  15  243.51   26.85
   2   8  15  248.18   26.00
   2  -8  16    6.86    5.06
   2   8  16    7.92    6.06
  -2   8  16   -0.21    5.22
  -2  -8  16    3.60    6.56
  -2  -8  17   88.42   15.74
   2  -8  17   79.60   14.88
  -2   8  17   82.54   15.60
   2   8  17  105.24   16.91
   2  -8  18   26.53    8.80
  -2   8  18   18.12    7.86
  -2  -8  18   32.87    8.97
   2   8  18   19.32    7.94
  -2   8  19   53.29   15.66
  -2  -8  19   84.94   16.54
   2   8  19   75.81   15.53
   2  -8  19   83.48   15.94
   2   8  20    3.51    4.11
  -2   8  20    1.66    4.36
   2  -8  20    0.29    3.10
  -2  -8  20    3.14    7.27
  -2  -8  21  124.04   20.88
   2   8  21  119.01   20.04
   2  -8  21  123.39   19.68
  -2   8  21   89.77   17.47
   2   8  22    5.82    5.43
  -2   8  22   -1.23    3.04
  -2  -8  22   -4.92    6.70
   2  -8  22    0.26    3.11
   2   8  23   18.29    7.40
  -2   8  23   14.70    6.34
  -2  -8  23    3.23    5.48
   2  -8  23   20.54   10.72
   2   8  24    1.55    3.37
   2  -8  24   10.89    2.89
  -2  -8  24   14.62   10.18
  -2   8  24    3.12    4.54
   2  -8  25  169.53   25.30
  -2   8  25  143.03   22.12
   2   8  25  153.59   23.95
   2  -8  26   35.34   12.59
   2   8  26   34.09   12.54
  -2   8  26   19.04    8.61
   2   8  27    0.94    4.69
   2  -8  27    5.28    6.79
  -2   8  27    9.56    8.65
   2   8  28   -1.61    1.27
  -2   8  28   -1.72    4.98
   2  -8  28    1.56    3.53
  -2  -9   0   27.97    7.85
   2  -9   0   26.25    8.30
  -2  -9  -1  177.47   19.48
   2  -9   1  159.38   19.20
  -2  -9   1  166.47   18.18
   2  -9  -1  166.97   20.27
  -2  -9  -2   14.23    4.34
  -2  -9   2   28.78    7.40
   2  -9  -2   12.78    3.55
   2  -9   2   28.21    7.94
  -2  -9  -3  387.54   28.23
   2  -9  -3  340.55   29.45
  -2  -9   3  381.02   27.54
   2  -9   3  338.97   28.33
   2  -9  -4  114.42   16.50
  -2  -9   4  107.57   14.77
  -2  -9  -4  124.36   16.60
   2  -9   4  107.37   15.95
  -2  -9  -5   11.16    5.10
   2  -9   5    9.08    7.53
   2  -9  -5   12.23    7.10
  -2  -9   5    2.88    3.60
  -2  -9   6  247.57   23.04
   2  -9   6  253.94   24.66
   2  -9  -6  275.88   26.53
   2  -9   7 1111.58   52.32
  -2  -9   7 1065.94   47.64
   2  -9  -7 1122.94   52.32
   2  -9   8  467.99   35.18
   2   9   8  483.78   33.53
   2  -9  -8  476.28   34.76
  -2  -9   8  456.99   31.52
   2   9   9   16.60    6.03
   2  -9   9   28.11    8.81
  -2  -9   9   38.41    9.86
   2   9  10  370.16   30.29
   2  -9  10  365.96   31.23
  -2  -9  10  362.60   29.14
   2  -9  11   71.86   13.30
   2   9  11   81.92   14.74
  -2  -9  11   88.67   14.94
   2  -9  12    0.46    2.93
  -2   9  12   -3.68    4.92
   2   9  12   -2.75    5.13
  -2  -9  12   -1.68    2.94
  -2  -9  13  187.18   22.15
  -2   9  13  165.10   21.58
   2  -9  13  152.70   20.91
   2   9  13  134.87   19.51
   2  -9  14   22.92    8.16
  -2  -9  14   36.54    9.51
  -2   9  14   13.58    5.63
   2   9  14   34.75   11.05
  -2  -9  15  111.96   18.59
   2  -9  15  111.84   17.10
  -2   9  15  126.22   19.20
   2   9  15  104.50   17.65
   2  -9  16   90.20   16.06
  -2   9  16   70.34   14.17
   2   9  16   54.25   12.89
  -2  -9  16   47.04   12.27
  -2   9  17  260.46   28.89
  -2  -9  17  152.59   21.88
   2  -9  17  217.27   26.17
   2   9  17  197.31   24.35
   2  -9  18   16.86    6.69
  -2   9  18   10.37    5.82
  -2  -9  18   11.25    4.69
   2   9  18   18.05    7.55
  -2   9  19   31.52   10.21
   2   9  19   24.97    9.37
  -2  -9  19   30.44   10.55
   2  -9  19   29.09   10.20
  -2  -9  20   -0.79    2.83
   2   9  20   -1.36    3.49
  -2   9  20    0.24    5.11
   2  -9  20    4.31    5.39
   2   9  21   28.33    8.74
  -2  -9  21   58.17   15.57
  -2   9  21   61.96   15.07
   2  -9  21   45.04   13.15
   2   9  22   58.11   13.49
   2  -9  22   25.85    9.53
  -2   9  22   50.07   13.67
  -2   9  23    8.76    7.90
   2  -9  23   27.05   10.86
   2   9  23    8.42    5.23
  -2   9  24    1.14    5.24
   2  -9  24    5.45    3.57
   2   9  24   10.82    7.35
   2   9  25   14.71    8.01
  -2   9  25    4.42    6.42
   2  -9  25   17.51    5.68
   2  -9  26    5.91    1.50
   2   9  26   -3.97    6.49
  -2   9  26    4.62    5.41
   2   9  27    4.19    4.39
  -2   9  27    5.04    7.29
   2  -9  27    1.31    2.56
   2 -10   0   83.11   14.62
  -2 -10   0   58.52   11.56
   2 -10  -1    2.47    1.71
  -2 -10  -1    7.28    5.32
   2 -10   1    5.30    2.64
   2 -10  -2   -0.19    2.13
  -2 -10   2   -0.49    3.48
   2 -10   2    3.65    5.69
  -2 -10  -2    5.10    5.47
  -2 -10   3    2.42    1.87
   2 -10   3    6.28    4.67
   2 -10  -3   13.51    7.82
  -2 -10  -3    2.41    4.22
  -2 -10   4   59.91   12.24
   2 -10   4   62.47   12.35
  -2 -10  -4   64.87   11.79
   2 -10  -4   71.32   14.31
  -2 -10   5   13.08    5.89
   2 -10  -5   13.24    6.28
  -2 -10  -5    7.30    2.38
   2 -10  -6  105.84   17.15
  -2 -10   6  121.02   16.92
  -2 -10  -6  105.56   15.50
   2 -10   6  113.94   17.07
   2 -10  -7    1.06    3.50
  -2 -10   7   -1.18    2.93
   2 -10   7    0.97    4.36
   2 -10  -8   19.20    8.58
  -2 -10   8   18.68    7.64
   2 -10   8   17.94    6.78
   2 -10  -9    5.29    4.23
  -2 -10   9    0.33    2.04
   2 -10   9   -1.44    5.50
   2 -10 -10    5.09    1.13
  -2 -10  10    1.27    0.89
   2 -10  10   10.55    5.09
   2  10  10    7.95    3.34
   2 -10  11   96.45   16.30
  -2 -10  11  106.96   16.81
   2  10  11   64.05   13.61
  -2 -10  12   50.01   11.91
   2 -10  12   58.17   13.52
   2  10  12   67.58   13.96
  -2 -10  13    9.08    4.98
   2 -10  13    6.67    1.19
   2  10  13   16.68    5.65
   2 -10  14   26.43    9.61
  -2 -10  14   17.38    8.64
   2  10  14   12.43    6.62
  -2 -10  15   32.74    9.55
   2 -10  15   41.71   11.89
  -2  10  15   38.61   11.51
   2  10  15   30.50    8.44
  -2 -10  16   12.43    6.01
   2 -10  16   15.37    8.17
  -2  10  16   21.55    6.23
   2  10  16   19.34    8.45
  -2 -10  17   -1.58    1.99
  -2  10  17    8.79    6.72
   2  10  17   -0.48    6.65
   2 -10  17   -1.05    3.94
   2  10  18   13.19    4.34
   2 -10  18   44.98   12.61
  -2  10  18   39.71   12.42
  -2 -10  18   52.06   14.92
   2 -10  19   30.07   10.56
  -2  10  19   31.85   12.50
   2  10  19   21.63    6.82
   2 -10  20    3.91    1.77
   2  10  20   -0.56    3.36
  -2  10  21   24.47    8.59
   2 -10  21   11.34    6.75
   2  10  21   17.22    8.95
   2  10  22   65.68   14.68
  -2  10  22   46.82   12.83
   2 -10  22   66.80   16.63
   2  10  23   22.33    9.01
   2 -10  23   11.86    7.57
  -2  10  23    4.40    6.13
   2 -10  24    2.27    3.81
   2  10  24    9.00    4.05
  -2  10  24    6.10    1.69
   2 -10  25   -4.32    5.62
   2  10  25    1.53    5.79
  -2  10  25    1.81    0.83
   2 -11   0  259.52   26.22
  -2 -11   0  253.49   25.21
   2 -11  -1   12.03    6.43
   2 -11   1   20.16    7.89
  -2 -11   1   16.86    7.14
  -2 -11  -1    6.80    2.44
   2 -11  -2   -0.84    5.02
  -2 -11  -2    3.41    2.15
  -2 -11   2    0.66    2.27
   2 -11   2    5.75    5.69
  -2 -11   3    1.66    1.72
   2 -11  -3    6.41    6.73
   2 -11   3    2.99    4.94
  -2 -11  -3   -0.83    3.79
  -2 -11  -4  520.81   38.67
   2 -11   4  568.11   39.58
  -2 -11   4  507.05   35.23
   2 -11  -4  502.08   37.81
  -2 -11   5    6.71    2.07
   2 -11   5   11.29    6.42
   2 -11  -5   12.59    5.50
  -2 -11  -5   20.65    8.17
   2 -11  -6  160.71   22.02
  -2 -11   6  120.43   18.01
   2 -11   6  108.22   17.96
  -2 -11  -6  109.15   16.94
  -2 -11   7  196.02   22.91
   2 -11   7  158.31   21.21
  -2 -11  -7  159.62   21.70
   2 -11  -7  203.04   24.15
   2 -11  -8    1.57    4.27
  -2 -11  -8    5.94    3.14
  -2 -11   8   18.04    6.49
   2 -11   8   14.20    7.11
   2 -11   9   42.54   11.03
  -2 -11   9   40.88   11.49
   2 -11  -9   47.60   11.80
   2 -11  10  230.63   26.58
   2 -11 -10  203.51   25.65
  -2 -11  10  230.05   25.64
  -2 -11  11   -0.90    1.50
   2 -11  11   -0.76    4.60
   2 -11  12   44.51   12.05
   2 -11 -12   41.97   10.45
   2  11  12   33.54   10.49
  -2 -11  13   25.37    7.25
   2 -11  13   30.28   10.91
   2  11  13   33.89   11.25
   2  11  14   87.96   16.61
  -2 -11  14   92.34   18.27
   2 -11  14   81.05   16.85
   2 -11  15   20.13    8.98
   2  11  15    8.72    8.18
   2  11  16   29.55   10.92
   2 -11  16   45.25   12.98
   2 -11  17    0.41    1.23
   2  11  17    1.00    4.74
   2 -11  18   16.04    7.23
  -2  11  18   12.53    2.20
  -2  11  19    0.95    4.17
   2 -11  19   -0.80    1.32
   2  11  19    4.31    3.95
   2 -11  20    1.30    4.53
  -2  11  20    1.53    5.38
   2  11  20    9.49    1.74
   2  11  21    4.72    3.57
  -2  11  21   13.30    7.33
   2 -11  21    9.86    7.50
  -2  11  22   -6.06    6.22
   2  11  22   -0.33    4.28
   2 -11  22    6.50    5.30
   2 -11  23    8.24    4.62
   2  11  23   15.10    6.07
  -2  11  23   12.68    8.47
  -2  11  24   15.36   10.50
   2 -11  24   14.44    9.53
   2  11  24   13.27    6.76
  -2 -12   0   45.78   10.72
   2 -12   0   31.97   10.21
  -2 -12   1   29.02    9.59
   2 -12   1   13.45    5.17
   2 -12  -1   27.79   10.07
  -2 -12  -1   21.27    9.86
  -2 -12  -2   11.96    5.48
   2 -12  -2   29.92   10.80
  -2 -12   2    9.68    7.19
   2 -12   2    9.87    5.32
   2 -12  -3   21.87    7.52
  -2 -12   3   18.77    7.49
   2 -12   3   12.52    7.61
  -2 -12  -3   20.11    7.38
  -2 -12   4   15.82    7.61
   2 -12   4    1.12    1.99
   2 -12  -4   13.42    6.97
  -2 -12  -4   19.26    8.94
   2 -12   5   17.24    6.52
  -2 -12   5    3.66    4.26
   2 -12  -5    9.45    7.50
  -2 -12  -5   -1.95    3.51
   2 -12   6    2.99    1.70
  -2 -12  -6   -0.59    4.45
  -2 -12   6   -1.62    4.67
   2 -12  -6    6.18    6.37
  -2 -12   7    3.20    4.89
   2 -12   7    4.03    4.11
   2 -12  -7   10.54    5.15
  -2 -12  -7    0.89    0.89
  -2 -12  -8    4.27    4.27
   2 -12   8   -4.50    5.61
  -2 -12   8    2.53    3.09
   2 -12  -9   33.15   10.94
  -2 -12   9   24.17    8.82
   2 -12   9   30.16    9.75
  -2 -12  -9   16.03    6.53
   2 -12 -10    4.26    5.05
  -2 -12  10   15.04    8.07
   2 -12  10    2.21    3.83
  -2 -12 -10    1.18    6.49
   2 -12 -11   28.63    8.93
   2 -12  11   17.58    7.76
   2 -12  12   12.62    6.64
   2 -12 -12    4.73    5.28
   2 -12 -13    4.96    6.44
   2 -12  13   -3.65    3.83
   2 -12 -14    5.43    8.52
   2 -12  14   10.59    6.86
   2 -12 -15    5.20    1.16
   2  12  15    0.76    5.68
   2 -12  16   -2.85    3.44
   2  12  16   -2.29    3.43
   2 -12  17   -1.20    3.31
   2  12  17   -6.56    5.75
   2  12  18   -1.01    3.39
   2 -12  18    8.25    6.72
   2 -12  19   15.71    9.23
   2  12  19   24.51   11.95
   2 -12  20   -4.90    8.08
   2  12  20   -1.94    4.78
   2 -12  21    7.73    6.56
   2  12  21    4.58    7.47
  -2  12  22    3.50    3.03
   2  12  22   -2.91    6.81
   2 -12  22   -5.20    0.76
   2 -13   0  182.99   23.75
  -2 -13   0  170.70   23.30
  -2 -13   1   43.47   11.14
   2 -13   1   21.13    6.69
   2 -13  -1   37.60   10.46
  -2 -13  -1   48.95   13.03
  -2 -13   2    5.83    2.50
   2 -13   2    7.24    2.16
  -2 -13  -2   11.09    6.79
   2 -13  -2    1.41    2.06
  -2 -13  -3   11.86    7.55
   2 -13   3    7.73    6.34
   2 -13  -3    7.88    7.18
  -2 -13   3    3.67    4.19
   2 -13  -4   16.67    8.58
  -2 -13  -4   34.18   10.77
  -2 -13   4   31.77    9.75
   2 -13   4   36.60   10.03
   2 -13   5    1.02    3.08
   2 -13  -5    7.51    5.72
  -2 -13  -5    1.54    0.74
  -2 -13   5    6.11    5.57
   2 -13   6   27.81    8.61
   2 -13  -6   23.67   10.68
  -2 -13   6   -4.01    2.68
  -2 -13  -6   22.80    9.55
  -2 -13  -7   75.33   16.40
   2 -13   7   80.77   16.70
   2 -13  -7   72.79   16.50
   2 -13   8   -0.54    1.37
  -2 -13  -8    4.27    5.52
   2 -13  -8    2.20    4.63
   2 -13  -9   35.93   11.95
   2 -13   9   32.39   10.42
  -2 -13  -9   23.94    7.97
  -2 -13 -10    5.75    2.56
   2 -13 -10   17.34    8.87
   2 -13  10   21.24    7.83
   2 -13  11   43.55   11.61
   2 -13 -11   43.33   12.77
  -2 -13 -11   31.16    9.96
   2 -13  12   25.68    9.22
   2 -13 -12   21.20   10.01
  -2 -13 -12   12.85    5.58
  -2 -13 -13    0.74    2.59
   2 -13  13   -2.87    2.00
   2 -13  14   -3.80    2.40
   2 -13 -14    8.17    3.80
   2 -13  15   18.01    7.08
   2 -13 -15   15.56    7.49
   2 -13  16   -5.90    0.44
   2 -13 -16    4.93    4.09
   2 -13  17   17.95    5.84
   2 -13 -17   21.66   10.95
   2 -13  18    3.05    3.55
   2 -13 -18    8.98    8.38
   2 -13  19   -0.91    3.01
   2  13  19   -8.72    6.62
  -2 -14   0   32.79   11.40
   2 -14   0   30.76    9.80
  -2 -14  -1   12.39    6.71
  -2 -14   1   -3.26    5.70
   2 -14   1   -2.87    2.35
   2 -14  -1   -4.23    6.67
  -2 -14  -2    1.05    1.12
   2 -14   2   -4.03    5.03
   2 -14  -2   -4.76    4.50
  -2 -14  -3   27.69   10.75
   2 -14   3   27.05    9.23
   2 -14  -3   24.19    7.42
   2 -14  -4    2.50    7.05
   2 -14   4    3.49    5.01
   2 -14   5    1.37    3.12
   2 -14  -5   -5.13    3.76
  -2 -14  -5    2.32    4.70
   2 -14  -6    5.07    7.94
  -2 -14  -6    3.92    4.98
   2 -14   6    3.14    4.65
  -2 -14  -7    8.88    4.84
   2 -14  -7   20.96    8.67
   2 -14   7   13.09    7.30
   2 -14   8    6.11    0.42
   2 -14  -8    9.93    4.82
  -2 -14  -9    2.23    3.84
   2 -14   9   -6.29    3.23
   2 -14  -9    4.52    3.46
  -2 -14 -10    0.30    5.12
   2 -14 -10    2.03    4.82
   2 -14  10   -0.16    2.04
   2 -14 -11   -1.97    4.03
  -2 -14 -11   -0.80    7.26
   2 -14  11   -6.20    3.63
  -2 -14 -12   -2.51    5.82
   2 -14 -12    6.89    8.27
   2 -14  12   -3.20    5.77
   2 -14  13    3.57    6.58
  -2 -14 -13    5.36    7.80
   2 -14 -13    8.92    2.71
   2 -14  14    2.39    2.78
   2 -14 -14   24.45   10.71
  -2 -14 -14   17.20    8.47
   2 -14  15    0.84    0.87
  -2 -14 -15   -1.18    2.20
  -2 -14 -16    1.05    2.70
   2 -14 -16   -6.91    8.75
   2 -14  16    1.28    5.05
   2 -15   0   27.83   10.59
   2 -15   1    1.53    5.48
   2 -15  -1    3.16    3.79
   2 -15   2    7.11    6.44
   2 -15  -2    3.85    7.40
   2 -15   3   41.07   12.08
   2 -15  -3   49.36   14.52
   2 -15   4   38.25   10.93
   2 -15  -4   45.91   12.93
   2 -15  -5   -1.20    3.95
   2 -15   5    3.04    2.06
  -2 -15  -5    0.94    6.46
   2 -15  -6    9.54    6.58
   2 -15   6   13.38    7.94
   2 -15  -7   17.87    7.46
   2 -15   7   22.24   10.94
  -2 -15  -7    9.52    5.74
   2 -15  -8   73.48   16.94
  -2 -15  -8   46.89   12.39
   2 -15   8   71.08   16.00
   2 -15  -9    9.70    5.38
   2 -15   9    7.53    7.20
  -2 -15  -9    2.64    4.53
   2 -15  10   32.28   12.66
   2 -15 -10   15.20    7.26
  -2 -15 -10   12.34    7.10
  -2 -15 -11    3.52    4.71
   2 -15  11    3.94    8.37
   2 -15 -11    2.29    3.25
  -2 -15 -12    9.35    4.53
   2 -15  12    5.64    5.09
   2 -15 -12    0.33    3.76
   2 -15  13   -1.25    2.98
   2 -15 -13   -0.54    2.30
  -2 -15 -13    5.34    6.23
   2 -16   0   19.82    9.27
   2 -16   1    4.41    5.76
   2 -16  -1    2.97    3.63
   2 -16   2    3.63    4.13
   2 -16  -2    1.51    3.24
   2 -16   3    4.07    6.34
   2 -16  -3    8.59    8.36
   2 -16   4    3.22    4.77
   2 -16  -4    9.94    5.19
   2 -16  -5    8.25   10.09
   2 -16   5    4.78    2.00
   2 -16   6    5.89    6.48
   2 -16  -6   16.28   10.29
   2 -16  -7    3.86    3.93
   2 -16   7   -5.80    8.00
   3   0   0    0.20    0.04
   3   0   1   -0.38    1.13
   3   0  -1    1.51    1.22
   3   0   2  918.84   23.81
   3   0  -2  863.10   19.78
   3   0   3    0.30    1.39
  -3   0   4   44.32    5.05
   3   0   4   43.70    6.03
  -3   0   5    0.33    0.68
   3   0   5   -1.61    2.49
   3   0   6   63.66    8.30
  -3   0   6   41.35    5.51
  -3   0   7    0.52    0.38
   3   0   7   -0.46    1.74
  -3   0   8    5.64    3.27
   3   0   8    7.65    3.32
  -3   0   9    1.10    1.82
   3   0   9   -1.71    1.65
   3   0  10  122.78   13.94
  -3   0  10  142.25   13.42
  -3   0  11    1.79    2.71
   3   0  11   -0.21    2.17
  -3   0  12    9.11    4.01
   3   0  12   13.89    5.78
   3   0  13    2.13    3.87
  -3   0  13   -0.01    2.37
  -3   0  14    2.67    1.07
   3   0  14    3.69    1.69
  -3   0  15    5.87    3.24
   3   0  15    3.72    3.51
  -3   0  16    0.36    2.38
   3   0  16    1.22    1.23
  -3   0  17   -0.70    2.97
   3   0  17   -0.59    1.65
  -3   0  18  585.46   37.13
  -3   0  19    1.91    5.32
   3   0  19    2.26    4.72
  -3   0  20    6.14    4.55
   3   0  20   -2.07    0.97
  -3   0  21   -0.92    2.51
   3   0  21    0.44    0.24
  -3   0  22    6.69    5.83
   3   0  22   16.70    8.97
  -3   0  23    7.09    4.28
   3   0  23   -2.04    6.29
  -3   0  24    6.13    6.17
   3   0  24    8.25    6.21
   3   0  25    9.09    6.29
  -3   0  25    0.20    1.99
  -3   0  26   16.50    9.11
   3   0  26   22.07    8.65
  -3   0  27   -3.34    5.66
   3   0  27    3.01    6.23
  -3   0  28    0.16    2.60
   3   0  28   -1.75    5.32
  -3   0  29    2.14    5.80
   3   0  29   -3.35    5.92
   3   0  30    8.44    3.50
  -3   0  30   16.08    5.69
   3   0  31    5.57    8.47
  -3   0  31   -8.78    6.76
   3   1   0   -0.11    0.18
   3  -1   0   -0.65    0.24
   3  -1  -1  852.63   24.03
   3   1   1  886.07   18.34
   3  -1  -2 1552.56   32.77
   3   1   2 1445.54   27.71
   3   1   3 3777.69   49.54
   3  -1  -3 3571.27   52.15
   3  -1   4   14.35    4.02
  -3   1   4    7.96    2.47
   3   1   4    7.86    2.71
  -3  -1   4   11.19    2.01
   3   1   5  410.59   20.13
   3  -1   5  465.76   22.06
  -3  -1   5  456.87   15.25
   3  -1   6 1988.63   48.67
  -3   1   6 2016.18   43.92
   3   1   7  285.28   18.15
  -3  -1   7  306.03   15.66
   3  -1   7  275.66   18.70
  -3   1   7  298.22   17.47
   3  -1   8  785.38   32.83
   3   1   8  810.61   33.37
  -3  -1   8  823.44   27.98
  -3   1   8  837.59   30.55
   3   1   9  358.53   22.68
   3  -1   9  355.25   23.42
  -3   1   9  327.33   20.32
  -3  -1   9  333.08   19.13
   3  -1  10  854.68   37.66
  -3  -1  10  888.56   32.78
   3   1  10  839.69   36.68
  -3   1  10  816.03   33.28
  -3   1  11    7.85    3.29
   3   1  11    4.16    4.73
  -3  -1  11    6.01    2.97
   3  -1  11    4.85    3.13
   3   1  12 1407.02   50.34
   3  -1  12 1511.56   53.22
  -3   1  12 1536.23   49.61
  -3  -1  12 1497.29   48.07
   3   1  13  411.29   28.02
   3  -1  13  352.28   26.79
  -3  -1  13  352.99   24.19
  -3   1  13  355.46   24.72
  -3   1  14   17.36    5.59
  -3  -1  14   19.58    5.98
   3  -1  14   10.34    2.80
   3   1  14   20.02    6.46
  -3  -1  15  123.35   15.69
   3  -1  15  118.49   16.32
  -3   1  15  135.16   16.82
   3   1  15  121.39   16.04
  -3  -1  16  842.20   41.69
   3  -1  16  900.98   46.22
   3   1  16  943.47   46.77
  -3   1  16  900.20   44.38
  -3   1  17  170.60   19.45
   3  -1  17  133.86   18.90
   3   1  17  134.78   17.93
  -3  -1  17  133.87   17.32
  -3   1  18    5.09    4.81
  -3  -1  18    2.29    2.73
   3   1  18    3.61    1.63
   3  -1  18    4.88    4.33
  -3   1  19   24.07    8.34
  -3  -1  19   27.36    7.53
   3   1  19   27.56    8.76
   3  -1  19   21.66    7.29
   3  -1  20  316.41   29.38
   3   1  20  326.43   29.95
  -3   1  20  342.76   30.45
  -3  -1  20  371.60   31.05
  -3   1  21   32.31    9.51
  -3  -1  21   14.21    5.28
   3   1  21   15.25    7.74
   3  -1  21   11.62    6.77
   3   1  22  108.05   18.38
   3  -1  22  136.88   20.21
  -3   1  22  112.73   18.13
  -3  -1  22  130.52   18.60
   3   1  23  219.47   26.19
   3  -1  23  236.86   27.91
  -3   1  23  232.77   26.84
  -3  -1  23  229.06   25.97
  -3   1  24   34.23    8.59
  -3  -1  24   40.25   11.34
   3   1  24   56.40   12.98
   3  -1  24   60.17   14.23
  -3   1  25    0.24    1.91
  -3  -1  25    3.01    3.66
   3   1  25   -1.12    2.72
   3  -1  25    4.85    5.13
   3  -1  26  132.30   20.08
  -3  -1  26   77.72   15.92
  -3   1  26   89.29   17.29
   3   1  26  128.76   21.22
  -3   1  27   44.38   12.91
  -3  -1  27   51.47   13.11
   3   1  27   28.67   11.52
   3  -1  27   44.94   11.44
  -3  -1  28    9.08    1.42
   3   1  28   18.20    7.76
   3  -1  28    9.80    6.48
  -3   1  29    7.99    1.79
  -3  -1  29   14.24    7.75
   3   1  29   16.85   10.17
   3  -1  29   -4.01    6.43
  -3  -1  30   26.09    8.81
   3   1  30   45.45   13.24
   3  -1  30   54.27   15.12
  -3   1  30   29.55   12.74
  -3  -1  31   46.67   14.27
   3   1  31   31.58   11.65
   3  -1  31   39.32   12.54
  -3   1  31   20.76    7.91
   3  -2   0   -0.57    0.70
   3   2   1    0.26    0.77
   3  -2  -1    2.13    1.87
   3  -2   1    0.60    2.44
   3  -2   2  187.18   13.56
   3   2   2  170.78    9.19
   3   2   3  494.34   18.08
   3  -2   3  482.67   22.86
   3  -2  -3  482.64   21.22
   3   2   4  584.50   21.37
  -3  -2   4  611.75   13.40
   3  -2   5  327.98   19.70
  -3   2   5  328.67   18.46
  -3  -2   5  322.44   12.13
   3   2   5  299.76   16.75
   3  -2   6    1.02    2.24
  -3  -2   6    0.55    0.25
   3   2   6   -0.89    2.25
  -3   2   6   -1.53    1.85
  -3  -2   7  230.01   13.17
  -3   2   7  249.89   17.25
   3  -2   7  207.52   16.90
  -3   2   8  366.53   21.82
   3   2   8  318.41   20.47
  -3  -2   8  337.98   17.77
   3  -2   8  363.46   23.11
   3  -2   9    1.53    2.51
  -3  -2   9    5.20    3.27
   3   2   9    9.37    3.73
  -3   2   9    3.46    1.64
  -3   2  10    2.73    2.06
   3  -2  10    3.64    3.27
  -3  -2  10    1.10    1.12
   3   2  10    1.06    1.27
  -3   2  11   30.16    7.66
   3   2  11   35.43    8.11
  -3  -2  11   31.16    6.60
   3  -2  11   21.64    6.86
  -3  -2  12   85.82   11.54
   3   2  12   85.24   12.52
  -3   2  12   82.24   11.36
   3  -2  12   77.93   11.84
  -3  -2  13   43.03    8.20
  -3   2  13   36.62    8.74
   3   2  13   25.10    6.15
   3  -2  13   42.43    9.06
  -3  -2  14   82.53   12.01
   3   2  14   91.26   13.59
   3  -2  14   79.19   13.02
  -3   2  14   86.02   13.27
  -3   2  15   65.77   11.60
  -3  -2  15   68.27   11.89
   3   2  15   71.22   12.86
   3  -2  15   72.09   12.65
  -3  -2  16  110.19   14.80
   3   2  16  136.17   17.86
   3  -2  16  133.34   18.51
  -3   2  16  122.70   16.38
  -3  -2  17   49.03   10.64
   3   2  17   61.51   12.81
  -3   2  17   78.15   13.38
   3  -2  17   81.02   14.29
  -3  -2  18   92.16   14.76
   3   2  18  118.60   17.49
   3  -2  18   92.24   15.93
  -3   2  18   88.92   14.71
  -3  -2  19    1.87    4.81
  -3   2  19    2.95    4.12
   3  -2  19   -0.58    2.50
   3   2  19    2.23    5.26
  -3   2  20   32.23    8.69
  -3  -2  20   37.07   10.29
   3   2  20   30.32    7.67
   3  -2  20   29.45    8.02
  -3   2  21   47.80   12.39
   3   2  21   43.65   11.70
  -3  -2  21   56.15   12.71
   3  -2  21   39.86   10.02
  -3  -2  22   23.48    8.50
   3   2  22    1.43    3.82
  -3   2  22   15.35    6.78
   3  -2  22   17.70    8.86
  -3   2  23    9.98    6.91
  -3  -2  23    6.47    8.38
   3   2  23   -3.58    7.33
   3  -2  23    1.22    4.27
  -3  -2  24    2.61    4.17
   3   2  24    3.74    3.67
  -3   2  24    2.74    4.38
   3  -2  24   -1.14    3.70
  -3  -2  25    9.97    9.15
   3   2  25   10.13    5.16
   3  -2  25    7.54    4.29
  -3   2  25    4.47    5.51
  -3   2  26   -4.23    7.77
  -3  -2  26    3.31    2.93
   3   2  26    2.11    2.03
   3  -2  26   -3.46    4.00
  -3  -2  27    8.15    4.15
   3   2  27   19.43    9.41
   3  -2  27   14.92    7.14
  -3   2  27   13.64    9.23
  -3   2  28    1.61    3.78
  -3  -2  28   12.55    8.04
   3   2  28    2.95    6.22
   3  -2  28   19.48   10.57
  -3   2  29    1.28    2.45
  -3  -2  29    5.43    6.01
   3   2  29    2.65    2.58
   3  -2  29   -0.47    3.41
  -3   2  30    1.74    3.32
  -3  -2  30    1.08    6.00
   3   2  30   -1.05    4.35
   3  -2  30    4.05    5.83
  -3  -2  31   -1.16    4.77
   3   2  31    1.16    0.57
   3  -2  31   -2.80    0.87
  -3   2  31   -7.00    4.26
   3  -3   0    1.61    2.73
   3  -3   1   89.49   10.25
  -3  -3   1   76.60    4.69
   3  -3  -1   75.92    9.79
   3   3   1   97.68    6.89
   3  -3  -2  800.35   30.89
   3  -3   2  795.86   30.88
   3   3   2  780.17   21.44
   3  -3  -3  146.46   12.93
   3  -3   3  138.71   13.38
  -3  -3   3  132.45    6.08
   3   3   3  134.19    9.69
   3  -3   4  458.69   24.56
  -3  -3   4  452.98   13.38
   3   3   4  424.18   18.91
  -3  -3   5 3562.70   43.38
  -3   3   5 3420.22   66.28
   3   3   5 3475.01   59.12
   3  -3   5 3506.00   68.63
  -3  -3   6  729.90   21.80
  -3   3   6  710.84   30.81
   3  -3   6  755.18   32.43
   3   3   6  747.13   29.04
  -3   3   7   90.92   11.19
  -3  -3   7   94.80    8.74
   3  -3   7  101.09   12.05
   3   3   7   92.64   10.43
  -3  -3   8  341.14   17.82
  -3   3   8  321.51   21.83
   3  -3   8  342.14   23.49
   3   3   8  341.25   21.18
   3  -3   9 1213.76   44.96
  -3   3   9 1197.80   43.32
  -3  -3   9 1208.10   36.00
   3   3   9 1184.12   41.76
  -3  -3  10  185.42   15.21
   3   3  10  192.46   17.73
   3  -3  10  185.19   18.45
  -3   3  10  193.20   17.55
  -3  -3  11   43.66    7.62
  -3   3  11   48.79    8.94
   3  -3  11   50.74    9.16
   3   3  11   51.13    9.37
  -3   3  12    0.07    1.32
   3  -3  12   -1.88    1.25
   3   3  12    0.66    2.51
  -3  -3  12   -0.86    2.48
  -3  -3  13  401.81   25.95
   3  -3  13  356.21   27.92
  -3   3  13  372.78   27.19
   3   3  13  461.21   30.35
  -3   3  14   -1.71    3.16
   3   3  14    3.83    3.54
  -3  -3  14   -0.09    2.19
   3  -3  14    2.39    4.82
   3   3  15  314.10   26.68
  -3  -3  15  337.15   25.66
   3  -3  15  260.28   24.88
  -3   3  15  299.14   25.44
  -3   3  16    3.82    4.63
   3   3  16    5.24    3.10
  -3  -3  16    0.77    1.75
   3  -3  16    0.52    1.53
   3   3  17  323.54   28.37
   3  -3  17  397.69   31.74
  -3  -3  17  355.91   28.28
  -3   3  17  355.85   29.01
   3   3  18  102.57   16.68
   3  -3  18  138.14   19.63
  -3  -3  18  105.25   15.98
  -3   3  18  126.44   17.62
   3   3  19  138.47   19.29
  -3  -3  19  133.53   18.91
   3  -3  19  145.62   20.53
  -3   3  19  139.82   19.58
  -3   3  20    3.11    5.20
   3   3  20    7.92    5.57
  -3  -3  20    9.15    3.47
   3  -3  20    5.06    6.62
  -3   3  21   30.66    9.83
   3   3  21   42.28   11.30
  -3  -3  21   53.03   12.48
   3  -3  21   43.89   11.06
  -3   3  22   10.47    5.51
  -3  -3  22   14.87    6.34
   3  -3  22   10.70    3.73
   3   3  22   17.23    7.41
  -3  -3  23  122.25   19.21
   3  -3  23  125.28   19.76
   3   3  23  122.77   20.41
  -3   3  23  100.02   16.59
  -3   3  24    4.16    0.96
   3   3  24    5.55    5.10
   3  -3  24    1.95    3.29
  -3  -3  24   -1.39    2.15
   3   3  25   11.18    3.40
  -3  -3  25    6.47    5.47
   3  -3  25   13.30    7.18
  -3   3  25   15.64    6.69
  -3  -3  26   22.73    7.49
  -3   3  26   26.25    9.03
   3  -3  26   29.54   10.48
   3   3  26   19.73    7.60
  -3   3  27   43.41   11.65
   3   3  27   41.15   13.90
  -3  -3  27   65.87   14.40
   3  -3  27   47.44   12.37
  -3   3  28    8.02    5.05
  -3  -3  28   22.75   10.75
   3  -3  28   26.68   10.36
   3   3  28    6.85    4.18
   3   3  29   11.59    2.50
  -3  -3  29   30.49   11.77
   3  -3  29   16.28    8.91
  -3   3  29   10.40    7.23
  -3  -3  30   33.85   12.50
   3  -3  30   26.64    8.37
  -3   3  30   18.28    7.68
   3   3  30   22.86   10.54
  -3   3  31   37.61   11.88
   3   3  31   36.24   11.53
  -3  -3  31   44.37   15.79
   3  -3  31   40.41   14.35
   3  -4   0    1.09    1.82
  -3  -4   0   -0.07    0.41
   3   4   1  340.18   14.89
  -3  -4   1  302.46   12.90
   3  -4   1  312.10   20.38
   3  -4  -1  292.92   20.45
   3  -4  -2    2.34    3.28
  -3  -4   2    0.83    0.54
   3  -4   2   -0.13    0.89
   3   4   2   -0.13    0.42
  -3  -4   3   62.02    5.73
   3  -4  -3   75.69   10.30
   3  -4   3   55.32    8.80
   3   4   3   71.47    7.90
   3  -4   4 1031.14   39.29
   3  -4  -4 1070.56   39.17
  -3  -4   4 1090.41   25.50
   3   4   4 1125.41   32.72
  -3  -4   5   33.92    4.76
   3   4   5   39.42    6.78
   3  -4   5   38.74    7.62
  -3   4   6  162.82   15.79
   3  -4   6  167.45   16.27
   3   4   6  185.21   14.93
  -3  -4   6  146.81   10.82
  -3  -4   7  132.96   11.17
  -3   4   7  109.16   13.28
   3   4   7  122.74   12.65
   3  -4   7  126.31   14.39
  -3   4   8   44.31    8.33
  -3  -4   8   55.38    7.44
   3   4   8   43.45    7.48
   3  -4   8   51.75    9.30
  -3  -4   9  744.51   29.42
  -3   4   9  659.61   34.14
   3  -4   9  733.40   36.94
   3   4   9  743.89   34.73
   3   4  10    5.03    2.27
   3  -4  10    2.71    1.19
  -3  -4  10    1.78    2.33
  -3   4  10    1.89    0.55
   3  -4  11    2.76    4.70
   3   4  11   -2.97    3.34
  -3   4  11    1.32    1.83
  -3  -4  11   -0.01    0.51
   3  -4  12   23.94    6.75
   3   4  12   15.75    4.85
  -3  -4  12   15.56    4.90
  -3   4  12   15.98    5.21
   3  -4  13    8.02    4.02
   3   4  13    5.04    1.08
  -3  -4  13    9.90    4.30
  -3   4  13    8.26    3.44
   3   4  14    5.39    2.11
  -3  -4  14    3.64    3.28
   3  -4  14    5.16    1.47
  -3   4  14   -0.79    2.74
   3   4  15   -0.05    0.44
  -3  -4  15    0.70    2.23
  -3   4  15    1.21    1.80
  -3   4  16   26.11    8.95
  -3  -4  16   10.49    5.19
   3   4  16   26.73    8.70
   3  -4  16   25.19    9.95
   3   4  17    9.31    4.62
  -3  -4  17    3.82    1.51
  -3   4  17    8.60    3.12
  -3   4  18   -0.21    2.28
   3   4  18   -2.94    4.69
  -3  -4  18   -0.40    0.98
   3  -4  18   -0.63    1.63
  -3   4  19   -1.05    2.84
  -3  -4  19    0.38    0.75
   3  -4  19    2.61    4.79
  -3   4  20   59.76   12.58
   3   4  20   62.80   12.79
  -3  -4  20   48.49   11.59
   3  -4  20   61.09   13.83
  -3   4  21   10.31    8.04
   3   4  21    7.95    5.64
   3  -4  21   14.26    7.16
  -3  -4  21    4.45    1.87
  -3   4  22    2.14    6.04
   3   4  22    0.44    0.26
  -3  -4  22    1.22    5.75
   3  -4  22   -6.37    5.85
   3   4  23   -1.61    6.14
  -3  -4  23    4.76    1.52
   3  -4  23    8.30    5.58
  -3   4  23   -3.13    5.78
  -3   4  24   -7.36    6.03
   3   4  24    1.51    1.41
  -3  -4  24    7.96    7.14
   3  -4  24    1.74    4.86
  -3   4  25    2.29    4.36
   3   4  25    5.78    7.05
  -3  -4  25   -0.67    2.61
   3  -4  25   -0.76    3.27
  -3   4  26   23.28   10.11
   3   4  26    2.79    2.13
  -3  -4  26   16.13    8.64
   3  -4  26    9.98    7.51
  -3   4  27    6.87    4.67
   3   4  27   -3.11    5.67
  -3  -4  27   -1.27    5.65
   3  -4  27    1.90    4.04
  -3   4  28   -4.38    3.87
   3   4  28    6.62    6.49
  -3  -4  28   11.51   10.75
   3  -4  28    7.95    5.65
   3   4  29   -2.83    7.26
  -3  -4  29    1.42    7.55
   3  -4  29    3.37    6.04
  -3   4  29   -0.99    3.56
  -3   4  30    1.93    3.50
   3   4  30    7.31    1.07
   3  -5   0    0.69    3.14
  -3  -5   0   -0.41    1.24
   3  -5  -1  342.57   23.84
  -3  -5  -1  317.35   16.83
   3  -5   1  319.24   22.33
  -3  -5   1  335.66   16.63
   3   5   2  612.57   25.29
  -3  -5   2  565.54   21.46
   3  -5   2  630.60   32.41
   3  -5  -2  577.66   31.36
  -3  -5   3   22.15    4.10
   3  -5   3   33.71    7.76
   3  -5  -3   25.18    6.53
   3   5   3   19.70    4.61
   3  -5   4   13.17    4.22
   3  -5  -4   17.66    5.79
  -3  -5   4   12.89    3.41
   3   5   4   18.73    4.56
   3  -5   5  319.76   23.25
   3  -5  -5  332.97   23.56
   3   5   5  331.83   20.34
  -3  -5   5  308.30   17.08
   3  -5   6  312.66   23.39
   3   5   6  283.86   19.38
  -3  -5   6  280.24   16.60
   3  -5   7  126.23   16.33
  -3  -5   7  133.54   11.93
  -3   5   7  125.90   15.33
   3   5   7  132.95   14.06
  -3  -5   8  314.16   19.58
   3   5   8  367.35   24.07
  -3   5   8  331.89   24.82
   3  -5   8  314.88   24.30
   3   5   9    3.82    4.05
  -3  -5   9    0.26    1.44
   3  -5   9   -1.50    2.46
  -3   5   9    0.49    5.81
  -3   5  10   21.25    7.65
   3  -5  10   35.68    8.96
  -3  -5  10   14.39    4.70
   3   5  10   18.33    5.95
   3  -5  11  528.23   33.41
  -3  -5  11  481.86   27.75
  -3   5  11  475.20   31.82
   3   5  11  450.28   29.26
   3   5  12   37.62    8.94
   3  -5  12   31.93    8.67
  -3   5  12   42.44    9.58
  -3  -5  12   31.76    7.32
   3   5  13   32.22    7.22
   3  -5  13   42.62    9.80
  -3  -5  13   30.36    8.12
  -3   5  13   26.67    8.29
   3  -5  14    8.33    6.43
   3   5  14    8.68    5.16
  -3  -5  14   13.19    5.31
  -3   5  14    9.95    6.50
   3  -5  15   49.12   10.54
   3   5  15   51.38   10.73
  -3  -5  15   46.05    9.94
  -3   5  15   48.97    9.78
  -3  -5  16  273.07   25.06
  -3   5  16  354.92   30.11
   3  -5  16  297.56   28.76
   3   5  16  309.68   28.45
  -3  -5  17   83.28   14.60
   3  -5  17  136.73   19.69
  -3   5  17  136.33   18.64
   3   5  17  133.75   18.86
   3   5  18   20.92    8.19
  -3  -5  18   20.78    8.87
  -3   5  18   19.68    8.24
   3  -5  18   14.96    6.33
   3   5  19   22.57    8.73
  -3   5  19   14.23    5.84
  -3  -5  19   21.51    7.41
   3  -5  19   28.62    9.85
  -3  -5  20   82.68   15.83
   3   5  20   80.09   15.71
   3  -5  20   66.79   14.14
  -3   5  20   50.53   13.28
  -3  -5  21   83.99   16.19
   3  -5  21   58.03   14.06
  -3   5  21   74.89   16.85
   3   5  21   81.46   15.85
  -3  -5  22   72.23   15.70
   3   5  22   79.36   15.11
   3  -5  22   94.96   18.05
  -3   5  22   78.35   14.71
   3  -5  23    0.22    2.83
   3   5  23   -2.05    7.08
  -3  -5  23   -3.03    1.19
  -3   5  23   -1.26    5.32
   3  -5  24  254.83   29.16
  -3  -5  24  170.01   23.66
   3   5  24  212.32   26.58
  -3   5  24  163.64   23.29
  -3   5  25    9.14    7.29
   3   5  25    4.08    4.85
  -3  -5  25    9.15    7.79
   3  -5  25    2.01    3.20
  -3   5  26   40.48   12.64
   3   5  26   61.62   15.20
  -3  -5  26   45.97   15.51
   3  -5  26   24.33   11.77
  -3   5  27   22.89    8.95
   3   5  27   23.59   11.21
   3  -5  27   29.18   10.41
  -3   5  28    9.23    3.53
   3   5  28   14.23    6.47
   3  -5  28   26.18   10.84
  -3   5  29    6.93    8.17
   3   5  29    3.38    3.63
   3  -5  29   -0.20    4.39
   3   5  30   29.82   12.87
   3  -5  30   14.28    9.40
  -3   5  30   42.77   13.00
   3  -6   0    1.02    2.64
  -3  -6   0   -1.45    2.58
  -3  -6   1   10.71    3.73
   3  -6  -1   18.94    5.84
  -3  -6  -1   17.43    4.78
   3  -6   1    6.94    3.19
   3  -6  -2  414.02   28.17
  -3  -6   2  358.68   19.72
   3   6   3   28.44    6.50
  -3  -6   3   33.17    5.86
   3  -6   3   33.01    8.04
   3  -6  -3   37.51    9.30
  -3  -6   4   38.46    6.95
   3  -6  -4   48.22    9.85
   3  -6   4   29.60    6.87
   3   6   4   40.55    7.45
   3  -6   5   59.56   10.45
   3   6   5   43.98    8.11
   3  -6  -5   34.99    7.80
  -3  -6   5   42.27    6.83
   3   6   6  134.44   14.52
   3  -6   6  108.21   14.39
   3  -6  -6  109.30   14.27
  -3  -6   6  132.42   12.57
  -3  -6   7    1.83    2.01
   3  -6   7   -0.25    2.71
   3   6   7   -0.22    1.84
  -3  -6   8   62.61    9.42
   3   6   8   59.42   10.43
   3  -6   8   59.40   10.82
   3   6   9    8.85    3.17
  -3  -6   9   16.95    4.88
  -3   6   9   13.08    5.15
   3  -6   9   19.64    6.09
  -3  -6  10    2.02    0.66
   3   6  10    4.78    4.36
   3  -6  10   11.23    4.81
  -3   6  10    7.32    5.93
   3   6  11   16.97    6.35
  -3   6  11    7.72    5.38
   3  -6  11    5.71    0.57
  -3  -6  11   12.32    4.99
   3   6  12    0.17    3.39
   3  -6  12   -1.47    4.76
  -3   6  12   -2.31    4.09
  -3  -6  12   -1.10    2.18
   3   6  13   33.48    7.61
  -3   6  13   47.20   11.19
   3  -6  13   34.66    9.93
  -3  -6  13   42.11    9.09
   3   6  14   47.86    9.88
  -3  -6  14   65.29   12.12
   3  -6  14   66.30   13.58
  -3   6  14   49.70   11.49
   3   6  15    9.84    5.93
   3  -6  15    6.01    5.38
  -3  -6  15    5.91    5.06
  -3   6  15    4.27    5.64
   3  -6  16    1.65    4.08
   3   6  16   -1.00    2.98
  -3  -6  16    0.78    1.36
  -3   6  16    9.40    6.36
   3   6  17    9.35    6.18
   3  -6  17   23.15    7.04
  -3  -6  17   13.86    4.46
  -3   6  17    8.61    6.97
   3   6  18    2.29    3.67
   3  -6  18    4.11    6.24
  -3  -6  18    5.54    3.30
  -3   6  18   11.35    5.54
  -3   6  19    3.98    4.82
  -3  -6  19    3.52    1.15
   3  -6  19    6.04    8.20
   3   6  19    7.94    5.49
   3   6  20    4.65    2.13
   3  -6  20    3.99    4.05
  -3   6  20    4.63    1.83
   3   6  21    0.77    3.32
   3  -6  21    2.99    1.45
  -3  -6  21    0.89    3.69
  -3   6  21    0.64    1.58
   3   6  22    1.95    4.45
  -3  -6  22    6.40    4.95
   3  -6  22   -1.08    1.44
  -3   6  22   -2.13    4.08
   3   6  23    8.94    3.92
  -3   6  23    1.14    2.13
   3  -6  23   -3.76    8.32
   3   6  24    7.46    8.20
  -3   6  24    5.91    6.01
   3  -6  24   10.13    7.70
   3   6  25    0.64    3.44
  -3   6  25    0.90    2.95
   3  -6  25    0.16    1.71
  -3   6  26    7.20    8.28
   3   6  26   -2.58    7.34
   3  -6  26    1.67    2.86
   3   6  27   -1.15    3.30
   3  -6  27   -5.41    6.71
  -3   6  27   -1.06    4.15
   3   6  28    1.97    5.69
   3  -6  28    0.45    1.06
  -3   6  28    0.91    3.14
   3   6  29   22.20   10.85
   3  -6  29   23.83   11.62
  -3   6  29   15.41    4.72
   3  -7   0    2.03    3.26
  -3  -7   0   -0.05    1.63
  -3  -7  -1  504.76   27.61
   3  -7   1  505.75   31.64
  -3  -7   1  496.98   26.29
   3  -7  -1  487.89   31.90
  -3  -7  -2   10.91    3.84
   3  -7  -2   10.18    3.60
   3  -7   2   11.70    5.94
  -3  -7   2   18.75    5.76
   3  -7  -3  631.24   36.97
  -3  -7   3  607.63   28.34
   3  -7   3  648.65   36.43
   3  -7  -4  885.82   43.61
  -3  -7   4  939.98   36.31
   3  -7   4  925.99   43.03
  -3  -7   5  863.58   35.72
   3  -7   5  961.31   44.89
   3   7   5  945.80   39.88
   3   7   6  152.61   16.39
   3  -7   6  145.80   17.57
   3  -7  -6  148.79   17.37
  -3  -7   6  133.42   13.87
  -3  -7   7   -1.36    2.04
   3  -7   7    5.99    4.90
   3  -7  -7   -1.14    4.31
   3   7   7    4.32    3.18
   3  -7   8  270.74   24.48
   3   7   8  309.56   24.84
  -3  -7   8  270.59   21.23
  -3  -7   9  569.03   30.70
   3   7   9  507.52   32.46
   3  -7   9  579.96   36.50
  -3   7  10   54.52   11.29
  -3  -7  10   64.16   10.50
   3   7  10   57.06   10.48
   3  -7  10   52.28   11.17
  -3  -7  11    3.28    2.77
  -3   7  11    0.11    1.77
   3   7  11    4.64    5.02
   3  -7  11    2.91    5.48
  -3  -7  12   82.96   12.78
   3   7  12   66.24   11.91
  -3   7  12   66.36   13.76
   3  -7  12   80.96   13.93
  -3  -7  13  722.57   39.85
  -3   7  13  714.72   42.32
   3  -7  13  750.90   44.38
   3   7  13  670.17   39.41
   3   7  14   18.64    6.74
   3  -7  14   14.70    6.49
  -3   7  14    9.45    7.34
  -3  -7  14   19.24    5.94
   3   7  15    3.12    4.16
   3  -7  15    4.69    4.66
  -3   7  15   -0.34    3.72
  -3  -7  15    6.38    4.54
  -3  -7  16   19.03    7.45
   3   7  16    9.44    2.11
   3  -7  16   21.94    8.02
  -3   7  16   33.08   10.46
   3   7  17  264.10   27.08
  -3  -7  17  289.73   27.69
   3  -7  17  306.14   29.66
  -3   7  17  249.94   27.22
   3  -7  18    9.01    6.38
   3   7  18   10.35    4.10
  -3  -7  18   14.56    8.22
  -3   7  18    2.50    3.16
  -3  -7  19  199.26   24.59
  -3   7  19  191.48   23.96
   3  -7  19  182.64   24.70
   3   7  19  204.46   24.29
   3   7  20   21.59    7.24
  -3  -7  20    4.24    5.75
   3  -7  20   39.36   12.01
  -3   7  20   38.64   11.78
   3   7  21   62.15   14.88
   3  -7  21   30.15    9.33
  -3   7  21   65.84   14.85
   3   7  22   24.01    8.32
  -3   7  22   24.43   10.10
   3  -7  22   25.69   10.22
   3  -7  23  149.92   23.44
   3   7  23  207.18   25.75
  -3   7  23  211.48   26.38
   3  -7  24   -0.59    3.49
  -3   7  24    8.73    6.97
   3   7  24    1.20    4.73
   3   7  25   30.37   10.25
  -3   7  25   35.07   10.69
   3  -7  25   20.53    8.72
   3   7  26   -2.68    2.58
   3  -7  26    0.17    1.66
   3  -7  27  182.51   26.57
  -3   7  27  190.44   26.85
   3   7  27  155.19   23.74
   3   7  28    3.00    1.05
   3  -7  28    3.43    7.18
  -3   7  28    2.60    3.55
   3  -8   0   -3.68    4.63
  -3  -8   0    2.11    3.02
   3  -8  -1    8.39    4.96
   3  -8   1   10.38    4.94
  -3  -8  -1   15.45    6.00
  -3  -8   1   12.28    3.63
  -3  -8  -2    2.41    4.12
   3  -8  -2    0.57    1.94
  -3  -8   2    2.08    2.96
   3  -8   2    0.25    2.14
  -3  -8  -3  113.19   14.53
   3  -8   3  118.31   16.55
   3  -8  -3  109.24   15.87
   3  -8  -4   52.21   10.89
  -3  -8   4   43.14    8.66
   3  -8   4   41.81   10.07
   3  -8   5   32.43    8.82
   3  -8  -5   41.20   10.06
  -3  -8   5   40.68    8.47
  -3  -8   6   57.76   10.08
   3  -8  -6   30.05    8.47
   3  -8   6   57.77   12.11
   3   8   6   41.85    8.91
   3  -8   7   15.92    6.40
   3  -8  -7   15.47    4.02
  -3  -8   7    9.67    4.37
   3   8   7   14.62    5.00
   3  -8   8   93.32   15.20
   3   8   8   75.10   12.61
   3  -8  -8   96.88   15.43
  -3  -8   8   62.95   10.20
   3   8   9  114.32   15.28
  -3  -8   9  152.65   16.70
   3  -8   9  169.59   19.88
   3   8  10   40.47   10.80
   3  -8  10   35.10    9.68
  -3  -8  10   15.47    5.11
  -3  -8  11    8.42    4.49
   3   8  11   10.40    4.56
   3  -8  11    5.44    5.91
  -3  -8  12   19.23    6.46
   3  -8  12   35.38    9.81
  -3   8  12   14.50    6.10
   3   8  12   17.62    6.98
   3   8  13    7.86    4.91
   3  -8  13   -1.17    5.08
  -3   8  13    1.31    4.35
  -3  -8  13    0.07    2.28
   3  -8  14   -1.88    1.93
  -3   8  14    0.10    3.68
  -3  -8  14    2.63    5.27
   3   8  14    4.04    5.02
  -3  -8  15   37.10   10.62
   3  -8  15   64.02   13.76
  -3   8  15   59.69   13.71
   3   8  15   75.06   14.54
   3  -8  16   10.06    6.83
  -3  -8  16    2.00    6.78
  -3   8  16   -3.20    2.28
   3   8  16    1.73    4.78
   3  -8  17   61.04   13.81
  -3   8  17   57.30   14.10
   3   8  17   78.32   15.89
   3   8  18    1.94    3.45
   3  -8  18    4.06    2.85
  -3   8  18    5.43    5.29
   3   8  19    4.11    2.35
  -3   8  19   -0.73    3.02
   3  -8  19    4.87    6.13
   3   8  20   23.57    8.18
   3  -8  20   28.10    9.95
  -3   8  20   14.84    7.45
   3   8  21    9.77    6.96
  -3   8  21   -1.62    3.67
   3  -8  21    4.39    5.34
   3   8  22    1.51    4.58
  -3   8  22   10.87    7.65
   3  -8  22   10.54    5.64
   3  -8  23   -2.70    5.51
   3   8  23   -1.55    4.58
  -3   8  23   -0.03    2.73
   3   8  24   23.05   10.04
   3  -8  24   -3.62    5.44
  -3   8  24   16.40    7.37
  -3   8  25   -3.62    5.31
   3   8  25    4.24    5.57
   3  -8  25   -0.17    1.90
   3   8  26   -3.49    6.98
   3  -8  26    4.11    5.28
  -3   8  26    7.65    6.72
   3  -8  27   -5.51    0.66
  -3   8  27   -2.24    4.33
  -3  -9   0   -1.47    1.02
   3  -9   0   -0.86    3.00
   3  -9   1  602.52   38.36
  -3  -9   1  581.02   33.46
   3  -9  -1  640.90   39.59
  -3  -9  -1  585.91   34.59
  -3  -9  -2   68.63   11.93
   3  -9  -2   58.85   12.28
  -3  -9   2   70.42   11.41
   3  -9   2   83.05   14.72
  -3  -9   3   -1.79    2.68
   3  -9   3    0.43    2.03
  -3  -9  -3   -1.11    1.92
   3  -9  -3    3.25    2.11
  -3  -9   4  201.29   19.72
  -3  -9  -4  204.46   20.40
   3  -9   4  193.90   21.92
   3  -9  -4  178.75   21.40
   3  -9  -5  904.66   48.42
  -3  -9   5  800.92   39.82
   3  -9   5  820.05   45.27
  -3  -9  -5  846.10   43.26
  -3  -9   6  195.53   19.13
   3  -9  -6  189.80   21.98
   3  -9   6  207.62   22.88
   3  -9   7  135.10   18.94
   3  -9  -7  130.48   19.26
  -3  -9   7  149.96   17.49
   3  -9   8  151.53   20.01
   3  -9  -8  123.59   17.00
  -3  -9   8  117.88   15.53
   3   9   8  125.76   17.53
   3  -9   9  372.89   31.57
   3  -9  -9  339.72   30.21
   3   9   9  361.67   29.45
  -3  -9   9  358.88   27.85
   3  -9 -10  117.78   17.66
   3   9  10  155.76   20.01
  -3  -9  10  123.40   17.01
   3   9  11   48.04   11.97
   3  -9  11   53.94   12.62
  -3  -9  11   83.29   14.93
  -3  -9  12   -0.99    1.55
   3  -9  12    4.86    4.79
   3   9  12    3.50    1.65
   3   9  13  113.49   16.49
   3  -9  13  112.54   17.62
   3   9  14   54.41   11.39
   3  -9  14   60.66   13.34
  -3   9  14   66.40   13.45
   3  -9  15   -2.26    6.57
  -3   9  15    2.27    2.71
   3   9  15    6.33    5.28
   3  -9  16  185.98   23.74
  -3   9  16  213.21   25.25
   3   9  16  227.93   26.25
   3  -9  17  136.85   20.33
  -3   9  17  162.07   22.25
   3   9  17  165.11   22.91
   3  -9  18    1.50    3.25
  -3   9  18    3.04    5.00
   3   9  18    1.25    2.97
   3   9  19  119.69   19.32
   3  -9  19  133.03   20.81
  -3   9  19  116.66   19.27
   3  -9  20   77.64   16.17
   3   9  20   93.80   18.19
  -3   9  20   50.25   13.13
  -3   9  21   51.47   13.54
   3  -9  21   28.75   10.62
   3   9  21   38.89   10.78
  -3   9  22    5.55    5.45
   3  -9  22    1.32    4.74
   3   9  22   -3.40    3.50
   3  -9  23  149.58   22.74
   3   9  23  180.32   25.63
  -3   9  23  183.63   26.12
   3  -9  24   47.23   12.41
  -3   9  24   22.94    9.36
   3   9  24   17.56    9.15
   3  -9  25   13.55    6.04
  -3   9  25   10.23    7.06
   3   9  25   25.44   11.25
   3  -9  26   19.50    9.52
  -3   9  26   16.76    8.47
   3   9  26    7.85    6.65
   3 -10   0   -3.43    3.93
  -3 -10   0   -2.04    1.15
   3 -10  -1    5.66    5.52
  -3 -10  -1   11.92    5.37
   3 -10   1    4.14    1.34
  -3 -10   1   10.61    4.89
   3 -10  -2   -0.82    2.67
  -3 -10   2    2.77    5.02
   3 -10   2   -3.86    5.26
  -3 -10  -2    7.04    5.95
  -3 -10   3   20.65    7.38
   3 -10  -3    9.86    6.70
   3 -10   3   13.97    7.88
  -3 -10  -3   15.12    4.92
  -3 -10   4   10.41    5.68
   3 -10   4   11.79    4.10
  -3 -10  -4   11.71    4.00
   3 -10  -4   13.98    8.52
   3 -10   5    4.55    5.02
  -3 -10  -5    1.14    1.24
   3 -10  -5    5.60    3.70
  -3 -10   5   -1.37    1.18
   3 -10   6    5.98    5.51
   3 -10  -6    4.26    2.11
  -3 -10  -6    7.90    6.89
  -3 -10   6    3.31    2.47
   3 -10  -7   30.58   10.76
   3 -10   7   21.68    8.00
  -3 -10   7   46.50   11.93
   3 -10   8  126.41   19.28
   3 -10  -8  108.14   17.10
   3 -10  -9   68.12   14.54
   3 -10   9   66.17   13.22
   3  10  10   44.08   10.92
   3 -10 -10   64.08   13.27
   3 -10  10   53.41   11.77
   3  10  11    1.38    1.38
   3 -10 -11    3.16    5.15
   3 -10  11    2.22    4.91
   3  10  12    4.06    6.38
   3 -10  12    3.26    5.20
   3 -10  13   11.64    7.50
   3  10  13    4.71    2.51
   3 -10  14   34.81   11.93
   3  10  14   26.33    9.50
   3 -10  15   -1.82    3.31
   3  10  15    6.16    6.21
   3  10  16   24.18    8.68
   3 -10  16   33.88   10.18
   3  10  17   13.86    7.88
   3 -10  17   18.90   10.27
  -3  10  17   15.18    8.78
   3 -10  18   59.07   14.60
  -3  10  18   51.60   12.99
   3  10  18   52.99   12.92
   3 -10  19   12.82    8.09
  -3  10  19    8.65    5.60
   3  10  19   10.75    5.67
   3 -10  20   18.20    8.19
   3  10  20   18.07    7.36
  -3  10  20    4.81    4.84
   3 -10  21    5.69    5.97
   3  10  21    0.75    2.97
  -3  10  21   12.01    7.96
  -3  10  22   10.86    5.45
   3  10  22    7.18    3.09
  -3  10  23    2.33    3.62
   3 -10  23   -3.70    3.03
   3  10  23    6.77    6.10
  -3  10  24   -0.88    1.03
   3 -10  24    3.63    4.39
   3  10  24    3.64    7.22
   3  10  25   10.04    2.52
   3 -10  25   22.39    9.56
  -3  10  25   23.89   11.43
  -3 -11   0    6.14    6.43
   3 -11   0    3.70    4.14
  -3 -11  -1   30.08    9.16
   3 -11  -1   44.39   10.56
  -3 -11   1   42.14   10.33
   3 -11   1   28.45    9.54
  -3 -11   2  150.50   19.75
   3 -11   2  199.93   23.85
   3 -11  -2  138.85   20.25
  -3 -11  -2  174.06   21.81
   3 -11  -3   48.84   12.74
  -3 -11   3   45.79   11.81
   3 -11   3   22.17    7.47
  -3 -11  -3   36.49    9.45
   3 -11   4   31.45    8.53
   3 -11  -4   26.31    9.19
  -3 -11  -4   43.97   12.99
  -3 -11  -5   35.10    9.37
   3 -11  -5   26.08    8.98
   3 -11   5   25.32    9.14
  -3 -11  -6   88.57   16.03
   3 -11   6   68.14   14.17
   3 -11  -6   77.84   14.68
   3 -11  -7    6.08    4.50
  -3 -11  -7    0.82    1.23
   3 -11   7   -2.14    3.85
  -3 -11  -8    8.56    7.18
   3 -11   8   -1.86    3.10
   3 -11  -8    8.15    5.58
   3 -11  -9    4.02    5.13
   3 -11   9    2.61    1.58
   3 -11 -10    8.22    1.26
   3 -11  10    2.66    3.89
   3 -11 -11    2.64    6.14
   3 -11  11    9.21    5.33
   3 -11 -12  232.17   26.65
   3  11  12  280.89   29.51
   3 -11  12  269.34   28.96
   3 -11  13    0.48    1.35
   3  11  13    1.56    3.13
   3 -11  14   37.22    9.99
   3 -11 -14   28.13   10.41
   3  11  14   46.24   12.60
   3 -11  15   20.77    9.14
   3  11  15    9.22    1.07
   3 -11  16   11.90    5.16
   3  11  16   11.84    6.62
   3 -11  17   -2.23    6.22
   3  11  17   -2.90    3.91
   3 -11  18    4.97    3.88
   3  11  18    8.06    8.88
   3 -11  19   27.48   11.11
   3  11  19   35.47   10.99
   3 -11  20   90.24   18.90
   3  11  20   76.97   17.07
   3 -11  21    6.64    4.00
   3  11  21    2.01    2.23
  -3  11  22  108.53   20.79
   3  11  22  122.31   21.35
   3 -11  22   68.17   16.27
   3  11  23    3.15    4.41
   3 -11  23    4.15    1.29
   3 -12   0   -1.77    1.56
   3 -12   1   15.92    4.26
   3 -12  -1   14.15    8.11
  -3 -12  -2   13.50    6.29
   3 -12   2    7.16    2.93
   3 -12  -2   20.49    8.77
   3 -12  -3   -2.91    4.76
   3 -12   3   -0.09    3.93
  -3 -12  -3    0.31    3.48
   3 -12   4    1.50    5.27
   3 -12  -4    4.36    6.16
  -3 -12  -4    4.44    6.05
   3 -12   5    0.34    1.69
   3 -12  -5   -3.56    4.18
  -3 -12  -5   -2.04    2.10
  -3 -12  -6    6.07    3.65
   3 -12  -6    1.41    1.21
  -3 -12  -7    7.74    7.23
   3 -12  -7    5.43    3.68
   3 -12   7    7.24    2.93
   3 -12  -8   -3.92    5.72
  -3 -12  -8   -0.05    2.99
   3 -12   8    2.82    1.95
  -3 -12  -9   25.98   10.28
   3 -12  -9   12.38    5.72
   3 -12   9   17.35    7.97
  -3 -12 -10   17.30    7.16
   3 -12 -10    2.78    5.30
   3 -12  10    8.39    7.73
   3 -12  11    4.86    6.08
   3 -12 -11   -0.83    4.11
   3 -12  12   23.75    9.71
   3 -12 -12   21.28    7.28
   3 -12 -13    5.32    4.65
   3 -12  13    1.22    0.69
   3 -12  14   11.06    4.48
   3 -12 -14    5.18    4.70
   3 -12  15   -3.01    3.00
   3 -12 -15    4.49    4.95
   3  12  15    9.20    8.91
   3 -12  16    5.74    5.41
   3 -12 -16   -1.22    3.08
   3  12  16   -1.09    4.01
   3 -12  17   54.47   14.06
   3 -12 -17   33.66    9.65
   3  12  17   36.38   11.66
   3 -12  18   -1.41    0.44
   3  12  18   -3.68    4.32
   3  12  19   -1.03    3.99
   3 -12  19   -1.01    5.55
   3 -12  20   -1.30    4.54
   3  12  20    5.13    5.50
   3 -12  21   -5.28    5.90
   3  12  21   -2.56    1.84
   3 -13   0   -1.89    3.71
   3 -13   1   95.01   18.03
   3 -13  -1  156.59   22.16
   3 -13   2   97.05   16.67
   3 -13  -2  144.56   21.46
   3 -13   3   -0.44    5.53
   3 -13  -3    4.42    4.28
   3 -13   4   45.85   11.94
   3 -13  -4   64.20   14.09
   3 -13   5   51.01   13.88
   3 -13  -5   59.36   13.73
   3 -13  -6   -4.62    6.16
   3 -13   6    7.16    7.29
  -3 -13  -7   16.45    9.28
   3 -13  -7   14.84    8.17
   3 -13   7   13.88    6.55
  -3 -13  -8   17.00    6.65
   3 -13  -8   11.60    1.90
   3 -13   8   21.77    9.17
  -3 -13  -9   52.07   12.79
   3 -13   9   54.75   13.48
   3 -13 -10   -0.80    4.39
  -3 -13 -10    1.90    0.78
   3 -13  10    0.35    3.30
   3 -13 -11   64.75   14.51
   3 -13  11   46.05   12.96
  -3 -13 -11   45.55   12.45
   3 -13 -12    7.36    5.91
   3 -13  12   10.03    2.95
   3 -13 -13   86.32   17.73
   3 -13  13  118.78   20.64
  -3 -13 -13  127.55   20.75
   3 -13  14   21.97   12.12
   3 -13 -14   -0.66    7.48
   3 -13 -15   -5.36    6.75
   3 -13  15    9.65    7.78
   3 -13  16    8.81    5.26
   3 -13 -16   -2.03    1.45
   3 -13  17   20.92    8.05
   3 -13 -17   16.50    7.84
   3 -13  18   -5.92    6.44
   3 -13 -18   -6.25    0.62
   3 -14   0   -3.03    3.73
   3 -14   1   -0.25    1.71
   3 -14  -1   17.54    9.38
   3 -14   2   -2.34    5.37
   3 -14  -2   12.33    6.65
   3 -14   3    1.15    1.14
   3 -14  -3   -5.03    4.95
   3 -14   4    4.43    3.80
   3 -14  -4    6.27    3.84
   3 -14   5    4.74    6.51
   3 -14  -5    0.68    2.35
   3 -14  -6   31.38   10.50
   3 -14   6   29.46    9.64
   3 -14   7   13.94    8.71
   3 -14  -7   -1.50    2.00
   3 -14  -8   -1.92    1.65
   3 -14   8    7.43    4.13
   3 -14  -9    1.17    3.67
   3 -14   9    1.01    1.24
   3 -14 -10    9.44    7.53
   3 -14  10    0.90    3.65
   3 -14  11    4.32    6.67
   3 -14 -11   -0.34    2.48
   3 -14 -12    0.94    6.37
   3 -14  12   -1.58    4.15
   3 -14 -13   -3.31    6.81
  -3 -14 -13  -10.67    6.29
   3 -14  14    9.12    7.35
   3 -14 -14    5.18    7.02
  -3 -14 -14   28.44   13.61
   3 -14  15   -2.95    5.56
   3 -14 -15    5.57    2.74
  -3 -14 -16   -1.41    4.78
   3 -14  16    0.99    4.12
   3 -14 -16    6.62    6.17
   3 -15   0    3.52    3.92
   3 -15   1    5.32    8.34
   3 -15  -1    5.67    4.96
   3 -15   2   98.14   19.55
   3 -15  -2  110.03   21.20
   3 -15   3   26.89   10.49
   3 -15  -3   18.82    8.62
   3 -15   4   94.23   18.40
   3 -15  -4   84.23   17.89
   3 -15   5    2.29    5.35
   3 -15  -5    4.27    6.14
   3 -15   6   79.84   17.00
   3 -15  -6  109.48   19.48
   3 -15   7   16.87    8.28
   3 -15  -7    9.75    6.26
   3 -15  -8   17.34    9.98
   3 -15   8   31.18   11.10
   3 -15  -9   -4.64    5.97
   3 -15   9   -0.81    3.39
   3 -15 -10    1.94    3.01
   3 -15  10   13.53    6.54
   3 -15  11    0.98    4.94
   3 -15 -11   -2.72    3.19
   3 -15 -12   49.18   15.06
   3 -15  12   79.67   16.30
   3 -16   0   -0.36    2.27
   3 -16   1   -3.44    5.61
   3 -16  -1   14.10    8.63
   3 -16   2    9.94    8.22
   3 -16  -2   -3.59    5.08
   3 -16   3   -1.05    3.32
   3 -16  -3    1.40    2.68
   3 -16   4    3.64    2.73
   3 -16  -4    6.24    5.68
   3 -16  -5   -8.48    8.85
   3 -16   5    3.57    6.11
   4   0   0 5876.97   60.34
   4   0  -1    0.60    0.67
   4   0   1    0.09    1.28
   4   0  -2  477.66   16.29
   4   0   2  468.47   18.91
   4   0   3   -0.15    1.22
   4   0  -3   -0.74    1.06
   4   0  -4  490.77   17.72
   4   0   4  407.10   19.78
  -4   0   5   -0.37    1.04
   4   0   5    0.44    1.64
   4   0   6   69.69    9.71
  -4   0   6   61.43    7.22
   4   0   7    0.08    0.66
  -4   0   7    1.89    1.71
   4   0   8  389.67   23.73
  -4   0   8  352.64   19.20
  -4   0   9    0.24    1.96
   4   0   9   -0.19    0.63
   4   0  10  256.33   21.17
  -4   0  10  247.14   17.81
  -4   0  11    0.38    1.53
   4   0  11   -0.20    2.60
   4   0  12  166.86   17.99
  -4   0  12  189.00   17.41
  -4   0  13    0.46    1.18
   4   0  13   -2.98    3.43
   4   0  14 1777.37   62.01
  -4   0  14 1826.45   57.43
  -4   0  15    0.12    3.50
   4   0  15   -0.72    2.00
   4   0  16  370.16   29.80
  -4   0  16  305.69   25.90
  -4   0  17    1.48    2.42
   4   0  17    0.19    6.20
  -4   0  18   47.68   10.71
   4   0  18   64.14   12.72
  -4   0  19    3.24    5.18
   4   0  19   -0.30    2.03
  -4   0  20   45.72   11.28
   4   0  20   43.12   10.87
   4   0  21   -0.89    2.43
  -4   0  21   -1.15    1.11
  -4   0  22   53.85   12.86
   4   0  22   53.20   12.49
  -4   0  23   -5.06    4.87
   4   0  23   -7.72    6.52
  -4   0  24    4.48    3.59
   4   0  24   -1.05    4.15
  -4   0  25    0.94    5.48
   4   0  25   -3.09    2.73
  -4   0  26    3.20    5.32
   4   0  26   -0.54    4.43
  -4   0  27   -3.80    5.79
   4   0  27   -2.91    4.03
  -4   0  28   36.16   11.31
   4   0  28   51.33   13.66
  -4   0  29   -3.84    3.50
   4   0  29   -1.94    5.85
  -4   0  30   34.65   11.80
   4   0  30   21.72    8.96
  -4   0  31   -3.13    5.68
   4   0  31   -6.04    5.60
   4  -1   0  183.39   12.51
   4   1   0  200.58    8.74
   4  -1   1  460.88   20.61
   4   1   1  469.22   15.84
   4  -1  -1  458.20   19.19
   4   1  -1  415.43   11.27
   4   1  -2  260.34    8.41
   4  -1  -2  255.28   14.62
   4   1   2  244.90   12.42
   4  -1   2  231.56   14.60
   4   1   3   64.20    6.91
   4   1  -3   85.10    5.07
   4  -1   3   93.01    9.83
   4  -1  -3   83.64    8.60
   4   1  -4 2122.00   28.20
   4   1   4 2130.41   43.72
   4  -1  -4 2199.90   43.72
  -4  -1   5  261.14   11.40
   4   1   5  254.15   15.93
   4  -1   5  220.73   16.25
   4  -1   6   27.65    6.18
   4   1   6   19.78    5.09
  -4   1   6   24.63    4.65
  -4  -1   6   17.35    3.05
  -4   1   7  126.92   11.85
  -4  -1   7  115.23    9.29
   4   1   7  124.40   12.62
   4  -1   7  123.86   13.29
  -4   1   8  753.59   30.48
   4   1   8  732.37   32.02
   4  -1   8  782.21   34.10
  -4  -1   8  829.24   27.32
  -4  -1   9    9.30    2.87
   4   1   9    6.84    3.29
  -4   1   9   11.43    3.45
   4  -1   9   16.78    5.79
   4   1  10  203.77   18.37
   4  -1  10  195.49   18.67
  -4  -1  10  229.55   16.13
  -4   1  10  196.45   17.16
   4   1  11  121.35   15.02
   4  -1  11  137.08   16.15
  -4   1  11  134.17   13.95
  -4  -1  11  143.71   13.86
   4   1  12  146.36   16.30
   4  -1  12  174.43   18.60
  -4  -1  12  146.93   15.10
  -4   1  12  170.28   16.37
   4   1  13   84.80   13.17
   4  -1  13   76.08   11.73
  -4   1  13   91.83   12.97
  -4  -1  13   78.44   11.47
   4   1  14  436.33   30.91
   4  -1  14  492.11   33.17
  -4   1  14  459.66   29.69
  -4  -1  14  463.21   29.02
   4   1  15 1325.33   55.08
   4  -1  15 1192.10   53.06
  -4   1  15 1197.26   49.85
  -4  -1  15 1208.12   48.64
   4  -1  16  242.03   24.19
  -4   1  16  250.14   23.38
  -4  -1  16  222.49   21.24
  -4   1  17   24.73    8.93
  -4  -1  17   32.85    9.11
   4   1  17   17.09    7.32
   4  -1  17   37.90    9.32
   4   1  18  286.74   27.85
   4  -1  18  323.48   29.21
  -4   1  18  327.94   27.84
  -4  -1  18  308.57   27.56
  -4   1  19   -1.63    1.22
  -4  -1  19    1.08    4.28
   4   1  19    2.90    3.69
   4  -1  19    0.35    3.22
  -4   1  20   28.45    9.31
  -4  -1  20   25.00    8.19
   4   1  20   28.39    9.25
   4  -1  20   21.59    7.38
  -4   1  21   40.89   11.43
  -4  -1  21   61.31   13.31
   4   1  21   64.96   13.65
   4  -1  21   53.63   13.72
   4   1  22  292.35   30.28
   4  -1  22  308.81   30.34
  -4   1  22  231.89   25.97
  -4  -1  22  269.39   28.30
  -4   1  23   -0.88    1.05
  -4  -1  23    3.92    7.09
   4   1  23    2.47    1.61
   4  -1  23    8.19    6.42
  -4   1  24   14.02    3.98
  -4  -1  24    7.96    5.01
   4   1  24    9.73    2.03
   4  -1  24   13.01    5.49
   4   1  25  102.45   17.82
   4  -1  25   75.05   15.05
  -4   1  25   74.65   17.13
  -4  -1  25   99.23   17.52
   4   1  26  154.50   21.13
   4  -1  26  155.68   22.73
  -4   1  26  142.06   21.03
  -4  -1  26  159.32   24.83
  -4   1  27    6.97    5.87
  -4  -1  27    4.30    7.71
   4   1  27    0.97    5.30
   4  -1  27    6.18    7.42
  -4   1  28   60.17   14.87
  -4  -1  28   64.14   16.17
   4   1  28   61.46   14.85
   4  -1  28   31.10   10.39
  -4   1  29   17.75    8.36
  -4  -1  29   24.21   11.88
   4   1  29    9.28    5.30
   4  -1  29   13.10    7.76
  -4   1  30   16.08    9.97
  -4  -1  30  -11.54    6.60
   4   1  30    7.18    5.04
   4  -1  30   -1.81    7.58
  -4   1  31   19.91    7.80
   4   1  31   32.33   10.91
   4  -1  31   38.10   11.83
   4  -2   0  441.37   21.65
   4  -2   1    2.43    0.94
   4   2   1    7.07    1.73
   4  -2  -1    6.35    3.14
   4   2   2  398.29   14.89
   4  -2   2  430.28   22.31
   4  -2  -2  418.02   21.45
   4  -2  -3 1036.05   34.89
   4  -2   3  955.44   33.99
   4   2   4 1705.64   38.06
   4  -2  -4 1688.65   43.88
   4  -2   4 1696.78   46.27
   4   2   5   87.72    9.28
   4  -2   5  117.49   12.63
   4  -2   6  197.39   16.77
  -4  -2   6  198.16    9.85
  -4   2   6  219.80   16.67
   4   2   7  735.23   30.29
   4  -2   7  736.89   33.35
  -4   2   7  744.54   30.93
  -4  -2   7  694.85   21.30
   4  -2   8  130.74   14.50
  -4   2   8  172.80   15.32
  -4  -2   8  145.29   11.02
   4  -2   9    5.11    4.01
  -4  -2   9    6.19    2.88
   4   2   9    5.84    2.77
  -4   2   9    5.15    2.74
   4  -2  10   14.05    4.19
  -4  -2  10   13.96    4.09
   4   2  10   13.64    5.15
  -4   2  10   18.20    5.92
   4   2  11   48.30    9.08
   4  -2  11   50.75   10.25
  -4   2  11   57.93   10.05
  -4  -2  11   59.00    9.08
   4   2  12  115.31   14.57
   4  -2  12  126.91   16.27
  -4   2  12  125.26   14.39
  -4  -2  12   99.02   12.17
   4   2  13  105.02   14.81
   4  -2  13   77.61   13.30
  -4   2  13   98.29   13.96
  -4  -2  13   78.76   11.18
   4   2  14   54.72   10.90
   4  -2  14   55.11   11.17
  -4   2  14   48.29    9.83
  -4  -2  14   52.67    9.03
   4   2  15  137.71   18.28
  -4   2  15  146.49   17.29
   4  -2  15  145.62   18.81
  -4  -2  15  141.56   16.28
   4   2  16   82.20   14.32
  -4  -2  16   56.44   10.16
   4  -2  16   71.18   13.41
  -4   2  16   75.18   12.92
   4   2  17   54.94   12.87
   4  -2  17   55.46   12.90
  -4   2  17   61.33   11.72
  -4  -2  17   53.38   11.43
   4   2  18  178.59   21.64
   4  -2  18  197.69   23.66
  -4   2  18  147.38   19.90
  -4  -2  18  138.15   18.08
  -4   2  19   10.38    4.40
  -4  -2  19    9.74    6.20
   4   2  19    8.97    4.51
   4  -2  19   14.66    6.77
  -4   2  20    3.40    5.05
  -4  -2  20    0.48    1.85
   4   2  20   -0.34    2.79
   4  -2  20   10.16    7.74
  -4   2  21   28.15    9.72
  -4  -2  21   19.29    8.67
   4   2  21   18.89    6.78
   4  -2  21   29.05   10.38
  -4   2  22    5.21    4.53
  -4  -2  22   17.14    8.02
   4   2  22    8.53    6.91
   4  -2  22   11.09    6.85
  -4   2  23   18.51    7.90
  -4  -2  23    3.16    1.25
   4   2  23    8.40    5.86
   4  -2  23   10.69    8.93
  -4   2  24   -0.53    3.30
  -4  -2  24   -1.79    2.41
   4   2  24    5.32    5.83
   4  -2  24   -3.28    6.09
  -4   2  25    4.73    6.90
  -4  -2  25   -0.74    3.60
   4   2  25    1.07    3.30
   4  -2  25   -0.88    2.90
  -4   2  26   31.37    7.47
  -4  -2  26   20.85    8.20
   4   2  26   37.67   11.09
   4  -2  26   33.90   10.91
   4   2  27    5.60    3.14
   4  -2  27    4.87    5.00
  -4   2  28   -3.84    6.71
   4   2  28    4.50    5.74
   4  -2  28    1.43    4.49
  -4   2  29    4.33    4.67
   4   2  29   12.73    7.88
   4  -2  29   10.58    7.19
  -4   2  30    0.94    3.47
   4   2  30    2.76    3.09
   4  -2  30    1.90    6.17
   4  -3   0 1322.45   41.41
   4  -3  -1   19.82    5.35
   4  -3   1   18.06    4.68
   4   3   1   19.19    2.67
   4  -3   2   52.12    8.35
   4   3   2   45.72    5.00
   4  -3  -2   44.47    7.31
   4  -3  -3  460.43   25.04
   4  -3   3  467.00   25.48
   4   3   3  387.41   18.06
   4   3   4    4.92    2.73
   4  -3   4   -0.04    0.58
   4  -3  -4    3.46    1.15
   4  -3  -5  235.60   17.69
   4   3   5  247.23   16.26
   4  -3   5  256.23   19.13
   4  -3   6  864.72   36.82
  -4  -3   6  868.70   19.59
   4   3   7   94.16   11.17
  -4   3   7  122.95   13.78
   4  -3   7   97.43   12.56
  -4  -3   7  103.45    7.92
  -4  -3   8  132.38   10.29
  -4   3   8  118.94   13.70
   4  -3   8  115.98   14.01
   4   3   8  126.26   13.10
   4   3   9  154.21   15.47
  -4  -3   9  115.98   10.97
   4  -3   9  127.47   14.78
  -4   3   9  126.95   14.44
   4   3  10   45.19    8.53
  -4  -3  10   44.79    7.16
   4  -3  10   49.59    9.97
  -4   3  10   39.56    7.73
   4   3  11  238.98   20.93
  -4  -3  11  221.95   17.04
   4  -3  11  253.07   22.36
  -4   3  11  235.08   20.76
   4   3  12   40.62    9.51
   4  -3  12   17.95    6.75
  -4  -3  12   32.25    7.26
  -4   3  12   46.98    9.92
   4   3  13   11.30    4.67
  -4  -3  13    9.64    4.23
  -4   3  13   16.51    7.06
   4  -3  13   12.75    4.70
   4   3  14   -2.11    3.57
  -4  -3  14    2.93    2.65
   4  -3  14    0.52    2.44
   4   3  15   71.59   12.48
  -4  -3  15   96.82   13.98
   4  -3  15   88.10   14.74
  -4   3  15  102.52   14.93
   4   3  16    1.60    2.77
  -4  -3  16    3.99    2.30
   4  -3  16   -1.52    2.44
  -4   3  16    0.85    5.25
   4   3  17  147.65   19.35
  -4  -3  17  140.03   18.10
   4  -3  17  156.90   20.19
  -4   3  17  168.60   20.45
   4   3  18   73.27   13.73
  -4  -3  18   78.65   13.05
   4  -3  18   68.59   14.08
  -4   3  18   53.19   12.62
  -4  -3  19   88.84   14.97
   4  -3  19   87.90   15.34
  -4   3  19   90.27   15.35
  -4   3  20   47.21   11.84
  -4  -3  20   38.64    9.21
   4   3  20   38.50   11.11
   4  -3  20   44.12   12.23
  -4  -3  21  433.51   35.58
   4   3  21  488.16   38.57
   4  -3  21  428.95   36.15
  -4   3  21  486.52   37.74
  -4   3  22    0.09    2.91
  -4  -3  22    0.73    1.90
   4  -3  22    0.26    0.88
  -4   3  23   25.19    8.71
  -4  -3  23   37.06   10.78
   4   3  23   40.13   11.54
   4  -3  23   51.48   13.76
  -4   3  24   -2.05    2.78
  -4  -3  24    7.57    7.70
   4   3  24    1.30    6.04
   4  -3  24    3.16    5.48
  -4   3  25   58.62   14.96
   4   3  25   69.70   16.12
   4  -3  25   49.82   13.12
  -4   3  26   12.84    3.82
   4   3  26   12.72    6.93
  -4   3  27    7.59    4.35
   4   3  27    8.53    4.34
   4  -3  27    1.42    5.82
  -4   3  28   17.37    9.23
   4   3  28    0.56    3.96
   4  -3  28   12.18    6.71
   4   3  29   72.77   16.38
   4  -3  29   70.60   16.88
  -4   3  29   80.89   17.62
  -4   3  30   -0.78    1.79
   4   3  30    6.46    6.67
   4  -3  30    0.11    5.49
  -4  -4   0   19.44    3.00
   4  -4   0   22.87    5.94
   4  -4  -1   18.49    5.51
  -4  -4   1   20.31    2.54
   4  -4   1   26.73    6.15
   4   4   1   27.00    3.89
   4  -4   2  147.54   14.98
   4   4   2  129.18    9.86
   4  -4  -2  127.07   14.07
   4  -4  -3   65.96   10.24
   4  -4   3   66.34    9.94
   4   4   3   46.98    5.89
   4  -4  -4  147.62   15.39
   4  -4   4  158.12   15.92
  -4  -4   4  141.80    6.54
   4   4   4  140.88   11.70
   4  -4   5  903.80   39.13
  -4  -4   5  836.58   19.03
   4  -4  -5  796.78   35.59
   4   4   5  932.18   32.08
  -4  -4   6  122.68    8.36
   4   4   6  109.91   11.79
   4  -4   6  146.32   15.97
  -4  -4   7  210.95   12.54
   4   4   7  246.31   18.30
   4  -4   7  276.27   22.23
   4   4   8    4.64    3.52
   4  -4   8    2.13    2.15
  -4  -4   8    1.42    0.50
   4   4   9    1.28    1.97
   4  -4   9    1.92    0.86
  -4  -4   9    0.50    1.33
  -4   4   9   -0.01    2.65
   4  -4  10   44.67   10.07
  -4  -4  10   45.40    7.16
  -4   4  10   46.27    9.83
   4   4  10   37.97    8.57
   4  -4  11   11.90    5.55
   4   4  11    9.65    4.02
  -4  -4  11   13.52    4.76
  -4   4  11   10.67    4.70
  -4   4  12    2.11    4.29
   4  -4  12    0.43    3.01
   4   4  12    1.21    2.24
  -4  -4  12   -0.15    1.30
   4  -4  13    5.03    2.82
   4   4  13   12.16    4.11
  -4  -4  13    4.33    1.05
  -4   4  13   12.94    4.54
  -4  -4  14  107.88   13.75
   4  -4  14  102.48   15.88
  -4   4  14   87.62   14.74
   4   4  14  104.35   15.89
   4   4  15   48.67   10.94
  -4  -4  15   32.82    8.13
  -4   4  15   25.01    7.47
   4  -4  15   28.67    8.97
   4   4  16   28.80    9.30
   4  -4  16   18.40    8.38
  -4   4  16   16.53    7.09
  -4  -4  16   24.75    7.58
   4   4  17   24.09    8.84
  -4  -4  17   14.25    5.52
   4  -4  17   34.21   11.11
  -4   4  17   17.66    7.20
   4   4  18   46.80   11.86
  -4  -4  18   58.06   11.79
   4  -4  18   65.24   14.18
  -4   4  18   62.12   13.07
  -4  -4  19  126.19   18.30
   4  -4  19  125.46   19.66
  -4   4  19  124.19   18.86
   4   4  19  143.83   20.10
   4   4  20    3.29    2.79
  -4  -4  20    2.29    4.11
  -4   4  20    1.85    3.76
   4  -4  20    2.02    4.26
  -4  -4  21   18.77   10.19
   4  -4  21   13.84    7.12
  -4   4  21   11.64    6.18
   4   4  22   21.00    7.73
   4  -4  22   33.68   12.80
  -4   4  22   30.46    9.83
   4   4  23    3.39    8.30
   4  -4  23   -7.00    5.33
  -4   4  23   -4.62    3.39
   4   4  24    4.28    5.26
   4  -4  24   -4.91    4.25
  -4   4  24    0.91    3.99
   4   4  25    4.41    3.10
   4  -4  25    3.52    4.42
  -4   4  25   -2.52    3.78
  -4   4  26    7.73    6.49
   4   4  26    0.03    3.17
   4  -4  26    0.74    1.08
   4   4  27    1.88    0.97
   4  -4  27    3.83    7.25
  -4   4  27    2.42    1.20
   4   4  28    3.51    0.63
   4  -4  28   10.68    2.72
  -4   4  28    6.80    3.68
   4   4  29    9.29    3.82
   4  -4  29    7.65    5.23
   4   4  30    6.80    7.45
   4  -4  30    1.95    4.46
  -4   4  30    4.61    1.36
  -4  -5   0  344.29   16.64
   4  -5   0  335.11   24.50
   4  -5  -1   -1.23    0.66
   4  -5   1   -0.52    1.80
  -4  -5   1   -0.63    0.96
  -4  -5  -1   -0.04    0.27
  -4  -5   2  169.58    9.73
   4  -5   2  137.77   15.58
   4   5   2  155.30   11.99
   4  -5  -2  163.60   17.16
   4  -5   3  277.54   21.64
   4   5   3  285.62   17.17
  -4  -5   3  232.79   11.45
   4  -5  -3  260.66   21.82
   4  -5  -4  119.66   15.05
   4  -5   4  115.13   14.05
  -4  -5   4   87.06    7.32
   4   5   4  100.19   10.37
   4  -5   5  112.84   14.39
   4  -5  -5  110.37   14.28
  -4  -5   5   93.26    7.89
   4   5   5   86.31   10.21
   4   5   6   11.42    4.15
   4  -5  -6   20.34    6.35
   4  -5   6   15.21    6.34
  -4  -5   6   17.98    3.68
   4   5   7    7.02    3.49
   4  -5   7    8.68    4.53
  -4  -5   7    5.03    2.37
  -4  -5   8  206.47   14.42
   4   5   8  227.48   18.71
   4  -5   8  226.69   21.43
  -4  -5   9  141.36   13.03
   4  -5   9  182.78   19.91
  -4   5   9  131.90   16.62
   4   5   9  130.81   14.62
  -4  -5  10  317.93   20.37
  -4   5  10  316.06   26.27
   4  -5  10  332.93   26.33
   4   5  10  365.73   25.83
  -4   5  11   51.26   10.54
   4   5  11   39.38    8.59
   4  -5  11   44.21    9.20
  -4  -5  11   24.40    5.92
  -4  -5  12   74.99   10.97
   4  -5  12  104.97   15.55
  -4   5  12  105.30   15.80
   4   5  12   93.91   13.99
   4   5  13   23.66    7.19
   4  -5  13   31.10    9.74
  -4  -5  13   25.76    7.32
  -4   5  13   25.40    7.84
  -4  -5  14  482.67   30.55
   4  -5  14  575.58   37.84
  -4   5  14  489.45   35.81
   4   5  14  512.23   35.25
   4  -5  15    8.46    4.44
   4   5  15    9.47    5.46
  -4  -5  15    1.03    2.70
  -4   5  15    8.99    4.51
  -4  -5  16  195.71   21.34
   4  -5  16  181.40   22.62
   4   5  16  155.94   20.80
   4   5  17   70.13   13.39
  -4   5  17   57.60   11.90
   4  -5  18  102.23   18.37
  -4   5  18  105.18   17.18
   4   5  18  100.57   16.37
   4   5  19    0.09    3.12
   4  -5  19   -0.40    3.60
  -4   5  19   -0.75    9.00
   4   5  20   46.22   12.39
   4  -5  20   69.07   13.67
  -4   5  20   80.97   16.03
   4   5  21   -0.19    3.88
   4  -5  21   11.79    4.55
  -4   5  21    4.70    5.74
   4  -5  22  162.25   22.97
  -4   5  22  158.73   22.26
   4   5  22  141.95   21.24
   4   5  23   16.37    6.76
   4  -5  23   37.09   10.54
  -4   5  23   26.67    9.82
   4   5  24   60.96   14.30
   4  -5  24   63.53   13.33
  -4   5  24   41.51   11.84
   4   5  25   17.33    7.70
   4  -5  25   20.57   10.15
  -4   5  25   20.25    8.80
   4   5  26   -0.30    4.31
   4  -5  26   11.26    7.97
  -4   5  26    3.81    6.04
   4   5  27   -3.58    3.88
  -4   5  27    0.99    3.10
   4  -5  27    3.10    2.69
   4  -5  28   16.32    6.71
  -4   5  28   15.50    8.72
   4   5  29    8.26    6.91
   4  -5  29   22.29   10.41
  -4   5  29   16.27    8.57
   4  -6   0  251.24   21.80
  -4  -6   0  258.50   16.34
  -4  -6  -1   32.07    6.10
   4  -6  -1   39.75    9.22
  -4  -6   1   38.09    5.63
   4  -6   1   45.40    8.79
  -4  -6   2  150.99   11.49
   4  -6   2  146.72   16.77
   4  -6  -2  148.79   16.91
   4  -6   3    4.08    1.69
   4   6   3    4.73    2.75
   4  -6  -3    2.11    2.19
  -4  -6   3    7.62    2.63
   4  -6  -4  217.23   21.16
   4  -6   4  227.97   21.15
   4   6   4  199.60   16.27
  -4  -6   4  220.60   13.89
   4  -6  -5   23.38    7.66
  -4  -6   5   27.40    5.33
   4   6   5   34.49    7.02
   4  -6   5   32.02    7.14
   4  -6   6  248.77   23.26
   4  -6  -6  235.40   22.20
  -4  -6   6  207.84   14.41
   4   6   6  238.06   19.04
  -4  -6   7   33.91    6.26
   4  -6  -7   25.93    7.04
   4  -6   7   35.48    8.32
   4   6   7   28.13    6.55
   4  -6   8    2.06    3.06
  -4  -6   8    0.67    1.27
   4   6   8   -3.58    3.97
   4   6   9   17.43    6.21
   4  -6   9   11.14    5.76
  -4  -6   9    5.04    3.15
   4   6  10   37.98    9.29
  -4  -6  10   31.22    7.61
   4  -6  10   32.65    8.11
   4   6  11   43.62    9.63
  -4  -6  11   41.63    9.46
   4  -6  11   29.54    8.21
  -4   6  11   32.75    8.87
  -4   6  12  203.33   21.70
   4  -6  12  181.57   21.86
   4   6  12  188.90   19.68
   4   6  13    3.80    3.07
   4  -6  13   -2.14    3.02
  -4   6  13    5.00    3.54
   4  -6  14    8.69    1.55
  -4   6  14   11.90    4.86
   4  -6  15  307.43   28.83
   4   6  15  355.28   29.80
   4   6  16    5.82    4.39
   4  -6  16   -1.18    2.73
  -4   6  16    3.57    2.99
   4  -6  17   23.45    8.84
   4   6  17   27.19    7.72
  -4   6  17   18.18    8.51
  -4   6  18   28.21   10.28
   4  -6  18   49.34   12.30
   4   6  18   45.42   10.78
   4   6  19   14.68    5.20
  -4   6  19   22.11    7.55
   4  -6  19   15.14    7.92
   4   6  20   15.37    7.48
   4  -6  20    5.08    5.79
  -4   6  20   18.04    9.12
  -4   6  21   77.49   15.31
   4   6  21   69.42   15.76
   4  -6  21   46.93   11.65
   4   6  22    6.42    2.59
   4  -6  22   20.31    7.36
  -4   6  22   17.61    8.16
   4   6  23   10.00    6.84
  -4   6  23   13.50    6.06
   4  -6  23    9.08    7.06
   4   6  24   13.46    5.66
   4  -6  24    9.84    9.47
  -4   6  24    8.84    5.26
   4   6  25   12.14    9.71
   4  -6  25   -1.63    4.62
  -4   6  25   -1.27    7.54
   4   6  26   74.58   17.13
   4  -6  26   67.20   16.20
  -4   6  26   61.97   14.85
   4  -6  27    4.54    2.25
  -4   6  27    7.38    6.77
   4  -6  28    2.71    3.55
  -4   6  28    3.09    1.92
  -4  -7   0   64.64    9.21
   4  -7   0   44.34    9.61
   4  -7  -1  102.14   14.32
   4  -7   1  143.93   17.58
  -4  -7   1  126.92   12.62
  -4  -7  -1  141.21   14.30
  -4  -7  -2   15.92    5.19
   4  -7  -2   21.07    5.86
  -4  -7   2   24.77    5.70
   4  -7   2   23.52    7.70
  -4  -7   3 1456.88   40.95
   4  -7   3 1471.03   56.33
   4  -7  -3 1519.42   59.01
  -4  -7   4  406.95   22.70
   4  -7   4  422.98   30.22
   4  -7  -4  399.90   30.55
   4  -7  -5   69.06   11.87
   4  -7   5   57.20   11.31
   4   7   5   56.30    9.62
  -4  -7   5   46.35    7.89
   4  -7   6   88.76   14.24
   4  -7  -6   85.13   14.65
   4   7   6   92.05   12.47
  -4  -7   6   96.62   11.41
   4  -7   7  267.86   25.10
   4  -7  -7  265.03   24.60
   4   7   7  281.74   22.93
   4  -7  -8    1.46    4.60
   4  -7   8    2.34    2.94
   4   7   8    1.64    2.52
   4  -7   9    7.48    5.55
   4   7   9    3.82    3.99
   4  -7  10   13.33    4.02
   4   7  10   17.11    5.70
   4  -7  11  425.36   32.65
   4   7  11  299.11   25.72
   4   7  12    9.55    5.06
   4  -7  12    2.55    1.13
  -4   7  12    2.91    4.61
   4  -7  13  246.40   25.52
  -4   7  13  225.38   24.06
   4   7  13  210.58   22.76
   4   7  14   30.08    8.74
   4  -7  14   31.32    9.84
  -4   7  14   38.98   11.05
   4  -7  15  298.16   29.74
  -4   7  15  271.55   27.74
   4   7  15  255.59   26.66
   4   7  16   27.50    9.42
   4  -7  16   23.31    7.42
  -4   7  16   23.18    8.73
   4   7  17    6.53    3.30
   4  -7  17   13.73    5.21
   4   7  18   34.24   10.35
   4  -7  18   41.37   12.87
  -4   7  18   44.34   12.11
   4   7  19   55.96   13.80
  -4   7  19   30.78   10.32
   4  -7  19   33.54   10.24
   4   7  20    5.50    3.96
   4  -7  20    5.87    9.31
  -4   7  20    0.81    4.05
   4  -7  21  144.29   22.82
   4   7  21  158.54   23.90
   4   7  22   37.91   12.26
  -4   7  22   22.25    7.69
   4  -7  22   23.73   10.06
   4  -7  23    4.97    6.14
  -4   7  23   13.49    6.28
   4   7  24   32.73   11.24
   4  -7  24   29.77    9.97
  -4   7  24   49.94   12.18
   4   7  25   67.19   16.31
   4  -7  25   85.88   18.16
  -4   7  25   54.47   14.18
   4   7  26   11.63    7.49
   4  -7  26    1.93    5.09
  -4   7  26    7.28    6.27
   4   7  27    7.07    6.06
   4  -7  27   16.66    6.30
  -4   7  27    2.31    3.80
   4  -8   0  171.40   19.83
  -4  -8   0  204.69   18.03
   4  -8  -1    9.88    5.29
  -4  -8  -1   12.39    4.41
   4  -8   1   10.91    5.90
  -4  -8   1    3.90    1.94
  -4  -8  -2   -1.51    3.75
   4  -8  -2   -0.80    1.87
  -4  -8   2    2.44    3.50
   4  -8   2   -4.00    5.48
  -4  -8  -3  267.54   21.85
   4  -8  -3  286.26   26.38
   4  -8   3  269.71   24.70
   4  -8   4   78.97   13.75
   4  -8  -4   74.36   12.70
   4  -8  -5    0.38    4.44
   4  -8   5    3.19    2.05
   4  -8  -6   75.30   13.77
   4  -8   6   86.69   14.93
   4   8   6   40.62    8.90
   4  -8   7  173.60   20.58
   4  -8  -7  198.60   21.69
   4   8   7  162.32   17.83
   4  -8   8  124.30   17.67
   4  -8  -8  154.24   19.64
   4   8   8  126.69   16.67
   4  -8  -9   28.80    8.49
   4  -8   9   37.54   10.51
   4   8   9   13.88    5.85
   4  -8 -10    7.27    5.69
   4  -8  10    6.58    6.80
   4   8  10   11.78    5.19
   4  -8  11   31.03    9.47
   4   8  11   36.90    9.25
   4  -8  12   16.18    5.89
   4   8  12    9.66    2.32
   4  -8  13   10.21    2.00
   4   8  13   14.00    6.91
   4  -8  14    6.54    3.90
   4   8  14    2.20    3.34
  -4   8  15   28.81    8.98
   4   8  15   17.16    6.30
   4  -8  16    9.73    6.69
  -4   8  16    7.62    3.46
   4   8  16   11.10    6.14
   4  -8  17   81.13   16.56
  -4   8  17   78.24   14.92
   4   8  17   87.15   16.55
   4  -8  18    5.35    3.97
  -4   8  18    2.17    1.32
   4   8  19   23.49    8.27
   4  -8  19   21.87    9.28
  -4   8  19   22.43    7.81
   4   8  20    7.91    5.61
  -4   8  20   -2.52    4.17
   4  -8  20   16.24    6.20
   4  -8  21   68.67   19.48
  -4   8  21   96.34   18.90
   4   8  21   84.60   16.54
   4   8  22    2.71    7.28
  -4   8  22   12.04    9.00
   4  -8  22    2.75    2.55
   4   8  23    5.55    4.27
  -4   8  23   14.30    7.05
   4  -8  23   -1.55    7.35
   4   8  24    4.35    2.46
  -4   8  24    7.50    4.35
   4  -8  24    6.51    4.60
   4   8  25   41.36   13.85
  -4   8  25   51.84   14.56
   4  -8  25   67.71   15.18
   4   8  26   -0.93    4.28
   4  -8  26   -2.85    2.30
  -4   8  26   -5.83    5.03
   4  -9   0  587.07   38.45
  -4  -9   0   -4.50    2.84
  -4  -9  -1  229.11   21.24
   4  -9   1  212.20   23.35
   4  -9  -1  232.07   23.86
   4  -9   2  172.12   20.98
  -4  -9  -2  194.85   20.17
  -4  -9  -3  369.29   27.88
   4  -9   3  336.88   29.36
   4  -9  -3  348.34   29.89
  -4  -9  -4  450.50   30.29
   4  -9   4  430.90   32.79
   4  -9  -4  450.78   34.25
   4  -9   5   -1.98    1.32
  -4  -9  -5    5.04    4.84
   4  -9  -5    5.71    6.19
   4  -9  -6  172.38   22.66
   4  -9   6  163.88   21.41
   4  -9  -7  489.95   36.76
   4  -9   7  612.91   41.72
   4  -9   8   47.30   11.51
   4  -9  -8   53.81   11.20
   4   9   8   55.70   12.15
   4  -9  -9  100.22   17.11
   4   9   9   78.42   14.92
   4  -9 -10    7.58    4.73
   4   9  10   12.28    6.96
   4  -9  10    4.54    5.41
   4   9  11   61.74   13.55
   4  -9 -11   51.96   12.03
   4  -9  11   72.09   13.96
   4  -9 -12   -0.90    5.32
   4  -9  12    7.90    3.99
   4   9  12    4.67    4.84
   4  -9  13   13.91    6.73
   4   9  13   13.95    7.42
   4  -9  14   64.17   13.95
   4   9  14   56.75   12.36
   4  -9  15  108.00   18.06
   4   9  15   86.74   15.14
   4  -9  16   10.20    7.53
   4   9  16   10.95    7.78
   4  -9  17  135.71   20.69
  -4   9  17  126.66   21.26
   4   9  17  107.22   17.14
   4  -9  18   50.58   12.63
  -4   9  18   40.02   12.28
   4   9  18   49.84   13.20
  -4   9  19    4.30    5.09
   4   9  19    0.87    0.40
  -4   9  20    3.50    3.82
   4  -9  20    5.36    4.76
   4   9  20   11.66    8.53
  -4   9  21   80.01   16.64
   4  -9  21   72.29   17.34
   4   9  21   73.34   16.21
  -4   9  22   35.14   10.48
   4  -9  22   53.74   13.67
   4   9  22   75.31   15.02
  -4   9  23    1.97    4.76
   4  -9  23   10.09    6.46
   4   9  23   10.25    3.91
   4  -9  24   13.50    5.13
  -4   9  24    5.32    7.55
   4   9  24   16.74    6.86
   4  -9  25    7.13    7.78
  -4   9  25    3.13    4.21
   4   9  25   15.37   11.39
   4 -10   0   27.49   10.30
   4 -10   1    5.61    3.53
   4 -10  -1   14.20    7.77
   4 -10  -2   13.72    5.01
   4 -10   2   14.34    7.37
   4 -10  -3   -0.25    0.78
   4 -10   3    0.02    2.72
   4 -10   4   -0.73    4.38
   4 -10  -4   -0.29    4.73
   4 -10   5   -5.91    5.36
   4 -10  -5   -3.38    4.82
  -4 -10  -5   -2.28    2.11
   4 -10   6  133.26   19.91
  -4 -10  -6  111.51   16.63
   4 -10  -6  133.17   19.74
   4 -10  -7    1.78    1.14
   4 -10   7    5.67    2.51
   4 -10   8  128.36   18.97
   4 -10  -8  130.96   19.96
   4 -10  -9   -1.73    4.98
   4 -10   9   -2.15    1.01
   4 -10 -10    3.94    6.98
   4 -10  10   -3.58    3.97
   4  10  10    8.39    5.66
   4 -10 -11   92.07   16.40
   4  10  11  100.50   16.92
   4 -10  11   75.61   14.80
   4 -10 -12   15.50    6.39
   4 -10  12   18.00    6.83
   4  10  12   13.27    5.26
   4 -10 -13   14.23    7.65
   4 -10  13    2.70    5.04
   4  10  13    6.96    5.62
   4 -10  14    6.46    3.06
   4  10  14    7.43    1.46
   4 -10  15   -6.51    7.25
   4  10  15   -7.39    6.93
   4 -10  16   12.30    6.78
   4  10  16   29.43    9.69
   4 -10  17    9.65    5.45
   4  10  17    1.62    1.44
   4 -10  18   39.88   12.77
   4  10  18   42.20   10.13
   4 -10  19   15.37    8.67
   4  10  19    5.42    6.04
   4 -10  20    4.73    1.47
   4  10  20   23.86   11.86
   4 -10  21   -7.65    7.65
  -4  10  21    0.11    1.70
   4  10  22   38.00   11.23
   4 -10  22   16.85   10.91
  -4  10  23    6.87    5.83
   4 -10  23    3.01    3.92
   4  10  23    8.84    5.45
  -4  10  24   14.12    5.92
   4 -10  24    7.86    2.57
   4  10  24    3.76    3.57
   4 -11   0  284.89   28.66
   4 -11   1   29.04   10.84
   4 -11  -1   38.26   11.01
   4 -11   2    8.60    4.04
   4 -11  -2    0.22    5.89
   4 -11  -3   31.79    9.57
   4 -11   3   24.63    7.54
   4 -11   4  345.52   31.19
   4 -11  -4  309.61   30.39
   4 -11   5   64.94   12.99
   4 -11  -5   65.64   14.07
   4 -11   6  258.76   27.57
   4 -11  -6  245.54   28.28
   4 -11  -7   21.61    6.93
   4 -11   7   14.04    4.88
   4 -11  -8    5.34    2.73
   4 -11   8    9.37    5.95
  -4 -11  -8   -4.04    3.65
   4 -11  -9   11.60    7.51
   4 -11   9   13.09    5.65
   4 -11 -10  148.81   21.61
   4 -11  10  207.70   25.70
   4 -11  11    1.64    3.91
   4 -11 -11   -2.69    1.35
   4 -11 -12   33.85   11.13
   4 -11  12   20.48    8.07
   4  11  12   18.65    8.02
   4 -11  13   23.51    9.08
   4 -11 -13   28.24    9.99
   4  11  13   28.64   10.17
   4 -11  14   90.47   18.26
   4  11  14   96.01   17.69
   4 -11 -14   73.36   16.04
   4 -11  15    1.39    1.84
   4 -11 -15    0.65    2.52
   4  11  15    0.05    2.52
   4 -11  16    9.36    6.00
   4  11  16   -4.95    4.92
   4 -11 -16   -0.05    3.54
   4 -11  17   -1.90    3.43
   4  11  17    5.19    4.63
   4 -11  18   27.94   10.35
   4  11  18   39.26   13.07
   4 -11  19    1.12    3.63
   4  11  19   -4.24    6.35
   4 -11  20   10.66    5.32
   4  11  20    2.62    3.11
   4 -11  21    1.74    6.70
   4  11  21    9.69    9.13
   4 -11  22    3.73    1.70
   4  11  22    2.73    5.73
   4 -12   0   28.86    9.60
   4 -12   1    4.45    4.88
   4 -12  -1   -2.65    3.06
   4 -12   2   11.58    5.91
   4 -12  -2    1.06    1.99
   4 -12   3   45.82   11.78
   4 -12  -3   71.38   14.82
   4 -12  -4    1.76    3.46
   4 -12   4   -0.09    3.52
   4 -12   5    4.76    6.38
   4 -12  -5    3.11    4.02
   4 -12  -6   20.49    8.31
   4 -12   6   14.53    8.36
   4 -12  -7    7.82    4.06
   4 -12   7   11.24    8.14
   4 -12  -8   11.54    5.84
   4 -12   8   10.73    2.62
   4 -12   9   28.21   10.73
   4 -12  -9   16.14    7.37
   4 -12 -10   17.38    9.23
   4 -12  10   17.26    8.27
   4 -12 -11   37.12   12.59
   4 -12  11   29.78   11.45
   4 -12  12    0.60    0.28
   4 -12 -12    9.81    7.67
   4 -12  13    7.36    7.12
   4 -12 -13    9.80    7.14
   4 -12 -14   18.80    8.56
   4 -12  14   18.54    9.12
   4 -12  15    5.99    2.86
   4 -12 -15    0.83    1.82
   4  12  15   -0.44    6.45
   4 -12  16    5.73    7.44
   4 -12 -16    2.25    4.17
   4  12  16   -0.76    2.71
   4 -12 -17    7.53    8.41
   4 -12  17    6.28    3.45
   4  12  17   -0.79    5.13
   4 -12  18   23.03    8.81
   4 -12 -18   12.82    7.15
   4  12  18    9.26    8.19
   4 -12  19   -6.40    6.97
   4 -12 -19   12.29    8.05
   4  12  19    7.16    6.36
   4 -12  20    2.48    3.15
   4  12  20    6.91    4.41
   4 -12 -20    2.68    2.48
   4 -13   0   31.52   12.16
   4 -13   1   51.08   13.99
   4 -13  -1   42.57   13.54
   4 -13   2   13.85    8.14
   4 -13  -2   -3.14    3.52
   4 -13   3  137.10   20.50
   4 -13  -3  142.59   20.98
   4 -13   4    5.44    6.42
   4 -13  -4    8.05    6.90
   4 -13   5   20.37    8.22
   4 -13  -5   -0.03    5.04
   4 -13  -6    9.51    7.40
   4 -13   6    5.46    2.76
   4 -13  -7   42.82   11.82
   4 -13   7   47.92   14.59
   4 -13  -8   42.11   12.62
   4 -13   8   33.15   10.97
   4 -13  -9    5.68    5.41
   4 -13   9   13.89    3.49
   4 -13  10    0.20    6.14
   4 -13 -10   -2.08    4.11
   4 -13  11   -3.16    4.90
   4 -13 -11   -1.37    1.67
   4 -13 -12   48.70   12.73
   4 -13  12   58.34   13.85
   4 -13 -13   23.50   11.26
   4 -13  13   13.21   10.02
   4 -13  14   -4.10    7.27
   4 -13 -14   -4.38    2.76
   4 -13  15   45.08   12.76
   4 -13 -15   21.29    8.62
   4 -13  16    9.41    8.58
   4 -13 -16    9.50    2.61
   4 -13 -17    6.82    5.38
   4 -13  17   18.03    7.84
   4 -14   0   53.34   14.44
   4 -14   1   15.57    7.19
   4 -14  -1   15.01    6.37
   4 -14   2    2.64    1.48
   4 -14  -2    3.62    3.70
   4 -14   3   -2.85    4.86
   4 -14  -3    3.27    3.67
   4 -14   4    6.39    6.17
   4 -14  -4   -0.83    4.98
   4 -14  -5   -6.31    7.51
   4 -14   5   -1.77    0.29
   4 -14  -6   27.57   10.95
   4 -14   6   18.12    8.76
   4 -14  -7   16.65    9.08
   4 -14   7   20.71    9.23
   4 -14  -8    1.38    0.53
   4 -14   8   14.23    8.89
   4 -14  -9    4.12    5.63
   4 -14   9    2.28    1.74
   4 -14 -10   10.26    8.43
   4 -14  10    7.20    6.37
   4 -14  11    1.76    5.29
   4 -14 -11    0.71    0.64
   4 -14  12   13.89    6.76
   4 -14 -12    9.54    8.23
   4 -14  13   36.01   12.13
   4 -14 -13   34.34   10.85
   4 -14 -14   -1.89    5.94
   4 -14  14   -2.38    4.97
   4 -15   0   20.53    8.50
   4 -15   1    6.26    5.24
   4 -15  -1    5.20    6.65
   4 -15   2    8.83    4.67
   4 -15  -2   -1.72    2.36
   4 -15   3   -2.78    4.61
   4 -15  -3   -2.61    6.81
   4 -15   4   42.33   12.19
   4 -15  -4   36.16    9.99
   4 -15  -5   -1.93    2.87
   4 -15   5    3.54    5.63
   4 -15   6   32.73   10.86
   4 -15  -6   26.51    9.88
   4 -15  -7    2.30    4.77
   4 -15   7    1.67    4.36
   4 -15  -8   41.51   12.31
   4 -15   8   35.20   10.90
   4 -15  -9    0.77    4.16
   4 -15   9    2.98    1.64
   4 -15 -10    3.44    7.34
   4 -15  10    2.37    3.87
   5   0   0    0.61    1.47
   5   0   1    1.34    1.19
   5   0  -1   -1.35    1.36
   5   0  -2  921.63   25.15
   5   0   2  996.07   30.11
   5   0   3   -0.09    0.80
   5   0  -3    0.27    0.37
   5   0   4 1533.25   41.84
   5   0  -4 1606.78   34.56
   5   0  -5    0.19    0.95
   5   0   5   -0.79    1.25
   5   0  -6 1370.73   34.29
   5   0   6 1283.77   41.83
  -5   0   7    0.89    1.91
   5   0   7    0.62    1.13
   5   0   8  295.64   21.57
  -5   0   8  295.07   18.10
   5   0   9   -0.66    0.32
  -5   0   9    3.57    3.18
   5   0  10  108.10   13.97
  -5   0  10  117.38   12.23
   5   0  11    4.39    4.76
  -5   0  11   -0.24    1.72
   5   0  12  461.56   31.39
  -5   0  12  479.03   27.51
  -5   0  13    1.12    2.61
   5   0  13   -2.16    4.64
   5   0  14  151.37   18.78
  -5   0  14  126.68   15.43
  -5   0  15    0.82    3.25
   5   0  15    1.95    4.58
   5   0  16  638.80   40.28
  -5   0  16  633.68   37.40
  -5   0  17    3.33    2.69
   5   0  17   -0.49    3.37
  -5   0  18   29.00    8.68
   5   0  18   34.70   10.42
  -5   0  19    2.25    4.22
   5   0  19    4.47    6.09
   5   0  20  129.69   19.49
  -5   0  20  118.19   18.18
  -5   0  21    1.87    2.17
   5   0  21    0.52    1.69
  -5   0  22   26.59   10.33
   5   0  22   22.22    9.85
  -5   0  23    3.01    3.26
   5   0  23   -1.47    5.38
   5   0  24  270.77   30.50
  -5   0  24  259.64   28.48
  -5   0  25   16.93   11.56
   5   0  25    3.53    2.27
   5   0  26  133.85   21.82
   5   0  27    2.51    3.64
   5   0  28   51.62   13.00
   5   0  29    0.60    4.51
   5   0  30   45.89   13.91
   5   1   0   -0.90    0.72
   5  -1   0    0.78    0.61
   5  -1   1  126.52   11.44
   5  -1  -1  138.90   11.58
   5   1   1  121.17    9.46
   5   1  -1  117.56    7.16
   5   1  -2    5.78    1.52
   5  -1   2    2.97    1.20
   5  -1  -2    3.14    0.57
   5   1   2    6.25    2.51
   5  -1  -3   13.59    3.93
   5   1  -3   14.18    2.63
   5  -1   3   19.90    5.12
   5   1   3   15.88    4.25
   5  -1   4   11.12    3.78
   5  -1  -4   12.77    3.03
   5   1  -4   10.45    2.03
   5   1   4   12.14    3.27
   5  -1   5    8.20    3.25
   5  -1  -5   11.89    3.16
   5   1  -5    9.81    2.39
   5   1   5    2.37    1.49
   5   1   6  339.53   20.94
   5  -1  -6  345.09   19.66
   5  -1   6  389.96   23.97
   5   1   7   42.34    7.62
  -5  -1   7   35.33    5.01
   5   1   8   13.63    3.86
  -5  -1   8   14.80    4.40
  -5   1   8   23.68    5.40
   5   1   9   75.45   11.43
   5  -1   9   62.17   10.93
  -5  -1   9   65.62    8.09
  -5   1   9   71.72   10.10
   5  -1  10  524.67   32.80
  -5   1  10  512.91   27.82
  -5  -1  10  495.80   24.20
  -5  -1  11   30.37    5.74
   5   1  11   39.52    8.61
   5  -1  11   43.56    9.18
  -5   1  11   26.00    6.64
   5   1  12  251.85   23.10
   5  -1  12  229.04   21.94
  -5   1  12  194.69   18.50
  -5  -1  12  206.99   17.78
   5   1  13  399.80   28.98
   5  -1  13  385.77   29.36
  -5   1  13  337.73   24.98
  -5  -1  13  303.97   23.06
   5   1  14  124.86   17.06
   5  -1  14  144.52   18.77
  -5   1  14  144.71   17.27
  -5  -1  14  134.75   15.71
  -5  -1  15   14.34    5.15
   5   1  15   11.57    6.42
   5  -1  15    8.96    6.02
  -5   1  15    9.22    4.09
   5   1  16  163.17   20.84
   5  -1  16  155.36   20.04
  -5   1  16  149.95   18.13
  -5  -1  16  195.76   20.08
  -5   1  17   12.62    6.27
  -5  -1  17   26.42    7.55
   5   1  17   36.45    9.96
   5  -1  17   32.91    9.71
  -5   1  18   18.43    6.67
  -5  -1  18   22.34    8.00
   5   1  18   13.39    3.79
   5  -1  18   26.22   10.68
  -5   1  19    8.52    4.10
  -5  -1  19    7.20    3.56
   5   1  19    7.07    2.61
   5  -1  19   13.16    2.99
   5   1  20   92.96   17.14
   5  -1  20   90.82   16.43
  -5   1  20   72.02   14.15
  -5  -1  20   76.50   13.78
  -5   1  21   53.30   12.35
  -5  -1  21   62.22   12.52
   5   1  21   36.48    9.81
   5  -1  21   55.44   14.06
  -5   1  22   -2.49    3.67
  -5  -1  22   10.73    8.73
   5   1  22    7.19    6.44
   5  -1  22    4.84    2.56
   5   1  23   74.75   16.35
   5  -1  23   83.84   18.53
  -5   1  23   84.48   16.16
   5   1  24  105.68   18.65
   5  -1  24   78.36   16.01
  -5   1  24  113.64   19.36
  -5   1  25   10.44    7.84
   5   1  25    1.71    3.01
   5  -1  25    8.04    4.48
  -5   1  26   23.83   11.25
   5   1  26   30.38   10.21
   5  -1  26   12.07    3.68
  -5   1  27   21.91   11.23
   5   1  27   24.43   10.57
   5  -1  27   24.36    8.57
   5   1  28    2.44    2.04
   5  -1  28   -0.20    0.45
   5   1  29   -4.19    4.97
   5  -1  29   26.87   12.92
   5   1  30   42.39   13.93
   5  -1  30   35.39   12.51
   5  -2   0   -0.19    1.37
   5   2   1   79.86    5.97
   5  -2   1   79.03   10.42
   5  -2  -1   80.47    9.84
   5  -2   2   84.49   10.58
   5   2   2   68.97    6.45
   5  -2  -2   86.65   10.30
   5   2   3  976.58   27.47
   5  -2  -3  989.95   35.35
   5  -2   3  936.87   35.91
   5   2   4  647.84   24.79
   5  -2   4  646.35   30.27
   5  -2  -4  671.23   29.89
   5  -2  -5  769.11   31.65
   5  -2   5  694.97   32.94
   5   2  -6  589.07   14.02
   5  -2  -6  636.87   28.98
   5  -2   6  578.95   30.35
   5   2   7   68.08    9.91
   5  -2   7   66.08   10.84
  -5  -2   7   74.54    6.30
   5  -2   8    3.10    1.74
   5   2   8    0.63    1.54
  -5  -2   8    1.62    1.08
   5   2   9  498.98   28.67
   5  -2   9  470.98   29.98
  -5   2   9  459.24   27.21
  -5  -2   9  429.75   20.01
   5   2  10  188.10   18.30
   5  -2  10  146.42   16.85
  -5   2  10  151.65   15.90
  -5  -2  10  133.19   11.81
   5   2  11   38.54    8.40
   5  -2  11   63.04   11.48
  -5   2  11   46.74    9.59
  -5  -2  11   56.06    8.37
   5   2  12  109.42   14.94
   5  -2  12  142.38   18.47
  -5  -2  12  154.52   14.32
   5   2  13  574.00   35.36
   5  -2  13  582.77   37.30
  -5   2  13  567.43   34.56
  -5  -2  13  555.81   29.23
   5   2  14   42.75   10.47
  -5  -2  14   41.35    8.59
   5  -2  14   43.09   11.03
  -5   2  14   36.59    8.89
   5   2  15  173.99   20.29
   5  -2  15  175.03   21.38
  -5   2  15  153.63   18.37
  -5  -2  15  157.74   16.89
   5   2  16   73.55   14.59
   5  -2  16   99.17   16.95
  -5   2  16   80.19   14.06
  -5  -2  16  104.72   14.84
   5   2  17  162.98   20.65
   5  -2  17  162.33   20.97
  -5   2  17  172.99   20.20
  -5  -2  17  195.48   20.96
   5   2  18  137.98   19.02
   5  -2  18  137.53   19.04
  -5   2  18   96.05   15.82
   5   2  19   43.28   12.16
   5  -2  19   37.36    9.79
  -5   2  19   29.55    9.70
   5   2  20  145.75   20.66
   5  -2  20  156.68   21.49
  -5   2  20  158.98   20.86
  -5   2  21   12.33    8.64
   5   2  21   27.09    9.67
   5  -2  21    6.90    3.50
  -5   2  22   16.20    8.44
   5   2  22   31.87   10.03
   5  -2  22   17.92    6.66
  -5   2  23   24.99    8.88
   5   2  23   19.16    7.38
   5  -2  23   16.22    8.63
  -5   2  24    3.05    2.07
   5   2  24   26.74    9.28
   5  -2  24   21.37    8.44
  -5   2  25   -8.84    5.12
   5   2  25   -3.22    5.73
   5  -2  25    8.07    7.27
  -5   2  26    1.01    1.89
   5   2  26    8.46    6.54
   5  -2  26    4.30    1.20
   5   2  27  104.98   19.19
  -5   2  27   59.79   15.30
   5  -2  27   53.06   17.88
  -5   2  28    2.40    7.46
   5   2  28   -0.42    4.87
   5  -2  28    0.97    3.48
  -5   2  29    3.11    2.58
   5   2  29    8.41    7.01
   5  -2  29    3.71    5.74
   5  -3   0    2.76    3.73
   5  -3   1    3.01    1.91
   5  -3  -1    8.42    3.61
   5   3   1    5.70    1.62
   5  -3   2  204.49   17.66
   5  -3  -2  207.91   17.80
   5   3   2  262.21   12.02
   5   3   3   -0.66    0.40
   5  -3  -3    0.27    2.18
   5  -3   3   -0.52    2.88
   5   3   4    0.27    0.74
   5  -3   4   -0.33    2.05
   5  -3  -4   -1.20    1.85
   5  -3  -5  278.44   21.13
   5  -3   5  276.60   21.15
   5   3   5  270.33   17.16
   5   3   6   37.35    6.90
   5  -3   6   26.38    6.83
   5   3   7  218.58   17.36
   5  -3  -7  234.38   19.47
   5  -3   7  195.04   19.08
   5  -3   8    9.94    3.12
   5   3   8   13.89    5.32
  -5  -3   8   13.39    3.36
   5  -3   9   25.56    6.53
   5   3   9   29.71    7.59
  -5   3   9   27.98    7.80
  -5  -3   9   30.60    5.66
   5  -3  10   22.08    7.20
   5   3  10   16.48    5.29
  -5   3  10   11.40    4.26
  -5  -3  10   25.96    6.14
   5  -3  11    4.80    4.92
   5   3  11    1.35    1.04
  -5   3  11    0.56    3.78
   5  -3  12    1.60    1.42
  -5  -3  12    0.51    0.84
   5   3  12    3.62    3.28
  -5   3  12   -1.57    2.48
   5   3  13  153.41   18.29
  -5   3  13  169.60   19.62
   5  -3  13  146.37   18.61
   5   3  14    2.32    4.84
  -5   3  14    1.29    2.82
   5  -3  14    1.47    3.17
   5   3  15  176.11   20.56
  -5   3  15  159.67   19.20
   5   3  16   30.04    9.46
   5  -3  16   27.66    8.99
  -5   3  16   39.42   11.24
   5   3  17   10.06    4.93
   5  -3  17    5.44    5.88
  -5   3  17    0.13    2.88
   5   3  18    0.90    2.08
   5  -3  18   -1.50    5.29
  -5   3  18   -2.33    2.63
   5   3  19   19.66    7.31
   5  -3  19   35.17   10.54
  -5   3  19   42.38   11.23
  -5   3  20   15.08    5.79
   5   3  20   27.47    7.93
   5  -3  20   17.60    6.60
   5   3  21    8.19    5.22
   5  -3  21   11.52    4.35
  -5   3  21    5.03    5.06
   5   3  22   -0.40    4.39
  -5   3  22    2.81    2.74
   5   3  23   21.30   10.28
   5  -3  23   21.63    8.18
  -5   3  23   19.76    8.34
   5  -3  24   55.14   13.63
  -5   3  24   85.74   17.16
   5   3  24   99.01   18.94
   5   3  25   14.82    6.86
   5  -3  25   26.48    8.32
  -5   3  25   13.71    7.32
   5   3  26   -1.00    4.59
   5  -3  26   -1.72    1.43
  -5   3  26   -2.78    2.11
   5   3  27   47.07   13.38
   5  -3  27   33.87   11.52
  -5   3  27   39.69   13.40
   5   3  28   -6.11    8.94
   5  -3  28   -3.29    3.86
  -5   3  28    1.95    4.80
   5   3  29   15.76    8.91
   5  -3  29   17.34    7.12
  -5   3  29   32.66   11.57
   5  -4   0    1.82    3.29
   5  -4   1  278.61   21.40
   5  -4  -1  318.70   22.77
   5  -4  -2    5.72    4.66
   5  -4   2    9.91    5.21
   5   4   2    3.12    1.49
   5  -4   3   -1.98    2.42
   5  -4  -3   -0.16    2.21
   5   4   3    0.38    0.49
   5  -4   4   94.83   12.99
   5  -4  -4   87.38   12.98
   5   4   4   70.66    8.28
   5  -4   5   41.57    8.76
   5   4   5   30.18    5.33
   5  -4  -5   31.46    7.07
   5  -4  -6  500.81   30.22
   5  -4   6  493.57   30.88
   5  -4  -7  386.72   26.67
   5  -4   7  352.07   26.57
   5  -4   8  114.59   15.08
   5   4   8  105.82   12.81
   5  -4   9   42.92    9.02
   5   4   9   57.54   10.06
   5   4  10   -1.63    1.57
   5  -4  10    1.63    3.82
  -5   4  10    0.44    1.03
  -5   4  11   16.53    7.33
   5  -4  11   12.69    5.34
   5   4  11    1.17    1.74
  -5   4  12  159.83   19.29
   5  -4  12  164.93   19.26
   5   4  12  142.43   17.37
   5  -4  13   11.18    5.19
   5   4  13   10.25    5.33
  -5   4  13   13.95    6.95
   5  -4  14   46.78   11.57
   5   4  14   43.57    9.57
  -5   4  14   45.92   10.90
   5   4  15   15.17    5.63
  -5   4  15    7.58    5.76
   5  -4  15    9.93    5.65
   5  -4  16  194.30   24.37
  -5   4  16  207.01   23.53
   5   4  16  217.50   23.80
   5  -4  17   96.80   17.07
  -5   4  17   83.69   14.15
   5   4  17  115.51   17.92
   5   4  18    5.67    6.30
   5  -4  18   -4.87    4.53
  -5   4  18   11.86    8.17
   5   4  19   54.38   11.64
   5  -4  19   50.35   11.65
  -5   4  19   41.76   11.90
   5   4  20   18.94    4.49
   5  -4  20   13.27    7.57
  -5   4  20    0.85    4.16
   5   4  21    8.69    1.91
   5  -4  21    0.58    5.50
  -5   4  21    9.33    6.10
   5   4  22   -0.07    3.50
   5  -4  22    6.34    5.58
  -5   4  22    5.74    3.61
   5  -4  23  313.48   32.48
  -5   4  23  301.13   31.43
   5   4  23  288.80   31.47
   5   4  24    1.11    3.06
   5  -4  24   -0.94    3.53
  -5   4  24   -0.49    6.17
   5   4  25    3.64    4.53
   5  -4  25    8.82    7.23
  -5   4  25    8.01    5.75
  -5   4  26    2.18    3.30
   5   4  26   25.33    9.98
   5  -4  26   23.32    8.01
   5   4  27    2.11    6.54
   5  -4  27    1.70    3.42
  -5   4  27    5.34    8.48
   5   4  28    6.92    5.67
   5  -4  28    4.09    3.91
  -5   4  28   -3.87    5.00
   5   4  29   -1.12    3.27
   5  -4  29    6.09    7.07
  -5   4  29    2.23    6.81
   5  -5   0    3.31    2.83
   5  -5   1  381.02   26.57
   5  -5  -1  438.93   28.84
   5  -5   2  183.86   18.82
   5  -5  -2  184.38   18.34
   5  -5   3    9.59    4.86
   5  -5  -3    7.98    3.94
   5   5   3    4.14    2.59
   5  -5  -4   25.36    7.05
   5   5   4   28.85    5.44
   5  -5   4   22.14    5.85
   5  -5  -5   72.33   12.12
   5  -5   5   78.42   12.92
   5   5   5   59.52    8.50
   5  -5   6  218.91   21.04
   5  -5  -6  226.71   21.41
   5   5   6  192.06   16.49
   5  -5  -7  189.25   19.86
   5   5   7  155.97   15.67
   5  -5   7  186.29   20.70
   5  -5  -8  111.17   15.40
   5   5   8   73.26   11.15
   5  -5   8  100.44   14.74
   5   5   9   12.28    4.92
   5  -5   9   12.24    6.76
   5   5  10    8.26    3.80
   5  -5  10    6.86    3.22
   5  -5  11   65.30   11.99
   5   5  11   65.60   12.14
   5  -5  12  193.84   22.36
  -5   5  12  248.36   24.23
   5   5  12  231.06   22.46
   5  -5  13    2.48    2.27
   5   5  13   -2.57    2.46
  -5   5  13    0.73    1.85
   5  -5  14   11.87    8.71
   5   5  14    1.87    4.14
  -5   5  14    9.03    3.03
   5  -5  15   18.07    8.08
   5   5  15    8.06    4.82
  -5   5  15   11.72    6.70
   5  -5  16   29.32   10.92
   5   5  16   40.38    9.79
  -5   5  16   23.68    5.77
   5   5  17   -2.55    4.40
  -5   5  17   -2.35    2.88
   5   5  18   17.59    7.30
  -5   5  18   24.74   10.60
   5  -5  18    9.05    7.02
   5   5  19    4.79    4.99
   5  -5  19    0.74    2.35
  -5   5  19    0.31    5.36
   5   5  20   -0.89    1.24
   5  -5  20   -4.47    7.95
  -5   5  20   -1.68    3.19
   5   5  21   64.43   14.38
   5  -5  21   90.17   18.55
  -5   5  21   64.43   15.43
   5   5  22    8.57    5.86
   5  -5  22   13.44   10.54
  -5   5  22    5.95    4.80
   5   5  23   26.83   10.14
   5  -5  23   44.54   13.11
  -5   5  23   26.90    9.87
   5   5  24   50.91   13.60
   5  -5  24   62.87   15.45
  -5   5  24   55.87   14.46
   5   5  25    9.33    6.28
   5  -5  25    2.46    5.38
  -5   5  25   -1.41    4.21
   5   5  26    8.98    4.56
  -5   5  26   20.22    7.65
   5   5  27    4.98    4.19
   5  -5  27    0.08    4.13
  -5   5  27    6.45    8.12
   5   5  28   22.68    9.55
   5  -5  28    7.18    8.85
  -5   5  28   26.38   10.50
   5  -6   0   -2.77    4.77
   5  -6   1  494.93   31.78
   5  -6  -1  514.67   32.81
   5  -6   2  239.04   22.73
   5  -6  -2  237.18   22.80
   5  -6   3  283.99   24.49
   5  -6  -3  289.77   24.44
   5  -6   4   78.92   12.51
   5   6   4   80.95   10.29
   5  -6  -4  101.28   15.32
   5  -6   5  163.98   19.04
   5   6   5  151.44   14.34
   5  -6  -5  153.79   18.73
   5  -6  -6   12.32    6.41
   5  -6   6    6.30    5.06
   5   6   6   16.90    5.66
   5  -6   7   32.10    9.38
   5  -6  -7   25.47    7.57
   5   6   7   16.57    6.31
   5  -6  -8   50.67   11.43
   5   6   8   44.21    8.91
   5  -6   8   53.08   11.86
   5  -6   9  290.61   25.74
   5  -6  -9  293.20   26.83
   5   6   9  251.82   21.74
   5   6  10    2.17    1.46
   5  -6  10    0.24    1.89
   5   6  11   42.87    8.59
   5  -6  11   58.81   13.36
   5  -6  12  211.98   23.68
   5   6  12  151.62   18.45
   5   6  13   44.45    9.56
   5  -6  13   56.13   13.09
  -5   6  13   59.20   12.82
   5   6  14    9.86    5.90
   5  -6  14    8.09    5.35
  -5   6  14   18.77    7.42
   5  -6  15  175.40   23.02
  -5   6  15  131.88   19.77
   5   6  15  150.04   20.73
   5  -6  16    1.49    3.87
   5   6  16   -5.44    4.63
  -5   6  16   -3.58    6.47
   5  -6  17    3.96    4.43
   5   6  17    0.17    2.20
  -5   6  17    8.65    1.75
   5   6  18   -3.00    6.55
  -5   6  18   -2.17    4.68
   5  -6  18    2.59    4.14
   5   6  19    1.30    3.30
  -5   6  19   15.72    8.30
   5  -6  19    8.64    6.30
   5  -6  20  192.90   25.24
  -5   6  20  186.89   25.43
   5   6  20  173.67   22.88
   5   6  21   -1.42    3.80
   5  -6  21    1.81    4.08
  -5   6  21   -2.57    4.30
   5  -6  22  184.47   25.58
  -5   6  22  122.80   20.57
   5   6  22  153.68   22.79
   5   6  23   19.41    8.06
  -5   6  23    8.02    3.06
   5   6  24   34.49   10.22
   5  -6  24   35.82   11.90
  -5   6  24   19.78   10.75
   5   6  25   15.20    7.30
   5  -6  25   19.42   10.17
  -5   6  25   12.21    7.08
   5   6  26   11.66    6.00
   5  -6  26    6.05    6.95
  -5   6  26    8.44    7.36
   5   6  27   27.00   10.02
   5  -6  27   12.78    6.12
  -5   6  27   31.26   11.97
   5  -7   0   -1.80    1.28
   5  -7   1   58.55   11.02
   5  -7  -1   54.33   11.56
   5  -7   2  502.14   33.40
   5  -7  -2  523.73   35.56
   5  -7   3  176.36   19.53
   5  -7  -3  184.26   21.45
   5  -7   4  141.45   18.33
   5  -7  -4  138.68   18.74
   5  -7  -5   43.54   10.24
   5   7   5   35.51    7.28
   5  -7   5   54.88   11.57
   5  -7  -6    5.09    2.77
   5   7   6    9.04    4.46
   5  -7   6    5.45    4.59
   5  -7  -7   -0.91    3.84
   5  -7   7    6.66    5.58
   5   7   7   -0.64    1.52
   5  -7  -8   66.55   12.59
   5  -7   8   47.96   10.71
   5   7   8   43.89    8.93
   5  -7  -9  197.01   22.11
   5   7   9  192.99   20.42
   5  -7   9  175.53   21.05
   5  -7 -10    6.16    5.27
   5  -7  10    7.68    6.00
   5   7  10   -1.23    2.11
   5  -7 -11   73.66   13.26
   5   7  11   75.97   12.23
   5  -7  11   77.81   14.39
   5   7  12   23.82    8.58
   5  -7  12   39.28   10.07
   5   7  13   77.04   12.88
   5  -7  13   90.67   16.40
   5   7  14   69.38   12.80
   5  -7  14   72.67   15.40
   5   7  15   15.52    8.10
   5  -7  15    7.03    5.59
  -5   7  15    2.21    4.67
   5  -7  16   11.85    1.02
  -5   7  16   16.11    6.35
   5   7  17    0.77    2.98
   5  -7  17    2.83    4.14
  -5   7  17    1.62    2.25
   5  -7  18    1.22    3.24
   5   7  18   -3.77    6.50
  -5   7  18   -1.63    2.65
   5   7  19    6.08    7.68
  -5   7  19    3.77    3.97
   5  -7  19   -3.39    3.72
   5   7  20    5.54    3.71
  -5   7  20    4.58    6.10
   5  -7  20    4.81    5.20
   5   7  21   11.39    6.60
  -5   7  21   14.32    6.32
   5  -7  21   11.98    8.04
   5   7  22   -1.44    6.08
  -5   7  22    3.25    6.30
   5  -7  22    8.82    5.44
   5   7  23   -2.14    7.70
   5  -7  23    8.57    5.24
  -5   7  23    0.08    4.28
   5   7  24    8.66    3.87
   5  -7  24   16.80    8.51
  -5   7  24   10.35    5.00
   5   7  25   19.39    9.93
   5  -7  25   19.29    9.38
  -5   7  25   14.96   10.40
   5   7  26   10.12    6.91
   5  -7  26   19.13    9.42
  -5   7  26    4.78    5.60
   5  -8   0    4.82    2.37
   5  -8   1  622.17   38.95
   5  -8  -1  679.47   40.58
   5  -8   2  133.57   18.22
   5  -8  -2   98.91   15.75
   5  -8  -3   -1.87    3.87
   5  -8   3   -0.27    4.00
   5  -8   4   35.84    8.96
   5  -8  -4   26.41    7.78
   5  -8   5 1262.30   56.35
   5  -8  -5 1173.74   55.84
   5   8   6   19.51    5.86
   5  -8  -6   37.29   10.56
   5  -8   6   26.38    9.11
   5  -8  -7   -0.28    2.96
   5  -8   7    0.80    3.76
   5   8   7    5.03    3.16
   5  -8  -8   22.08    8.86
   5  -8   8   15.46    4.72
   5   8   8   33.16    8.61
   5  -8  -9  523.07   37.61
   5   8   9  553.14   35.66
   5  -8   9  564.13   38.37
   5  -8 -10   87.54   15.68
   5   8  10   96.43   15.87
   5  -8  10   84.12   14.27
   5  -8  11   36.57    9.63
   5   8  11   24.66    7.45
   5  -8  12   32.05    9.49
   5  -8 -12   45.34   11.07
   5   8  12   49.53   11.73
   5   8  13  178.84   22.52
   5  -8  13  185.47   23.90
   5  -8  14    2.22    4.46
   5   8  14   -0.95    5.73
   5  -8  15    1.16    1.21
   5   8  15    4.83    1.81
   5  -8  16    6.26    5.86
   5   8  16   -4.26    6.43
   5  -8  17  118.63   19.80
   5   8  17  140.21   21.48
   5   8  18   -2.99    1.14
   5  -8  18    4.17    2.93
  -5   8  18    1.15    2.60
   5  -8  19  107.62   19.62
  -5   8  19  117.90   19.83
   5   8  19  129.30   21.03
   5   8  20    1.91    5.01
  -5   8  20    1.03    3.51
   5  -8  20    3.41    1.52
  -5   8  21   27.88    9.82
   5  -8  21   17.97   12.37
  -5   8  22    1.57    4.55
   5  -8  22    2.89    1.91
   5   8  23   96.20   19.18
  -5   8  23   86.09   18.08
   5  -8  23   79.44   16.02
   5   8  24    5.91    4.67
  -5   8  24    0.03    1.17
   5  -8  24    4.72    7.51
   5   8  25    0.29    0.79
   5  -8  25   -0.81    5.38
  -5   8  25    0.56    5.55
   5  -9   0    1.94    4.67
   5  -9   1  276.88   27.17
   5  -9  -1  261.55   26.17
   5  -9   2    9.14    6.27
   5  -9  -2    8.62    5.40
   5  -9  -3    5.91    4.85
   5  -9   3    2.52    0.73
   5  -9   4   25.75    9.00
   5  -9  -4   38.97    9.79
   5  -9   5   55.13   11.92
   5  -9  -5   56.56   12.41
   5  -9   6  162.47   22.54
   5  -9  -6  134.95   19.78
   5  -9   7   -5.17    4.90
   5  -9  -7    4.84    6.63
   5  -9  -8   18.84    7.09
   5   9   8   14.34    6.48
   5  -9   8   14.63    4.75
   5  -9  -9   24.00    8.05
   5  -9   9   13.55    2.31
   5  -9  10   20.99    8.22
   5  -9 -10    3.65    6.12
   5   9  10   14.24    4.71
   5  -9 -11   34.93   10.42
   5  -9  11   40.67   11.08
   5   9  11   31.09    8.68
   5  -9  12   90.48   16.62
   5  -9 -12   71.11   14.55
   5   9  12   62.54   13.10
   5  -9  13   -0.32    4.46
   5  -9 -13   -0.73    1.87
   5   9  13   -1.05    6.48
   5  -9  14    1.80    0.70
   5  -9 -14    2.63    2.14
   5   9  14    4.77    5.80
   5  -9  15   31.20   11.09
   5   9  15   34.51   10.97
   5  -9  16   28.42    7.27
   5   9  16   19.32    7.10
   5  -9  17   12.43    9.94
   5   9  17    9.83    3.56
   5  -9  18    6.43    6.41
   5   9  18   -2.73    7.19
   5  -9  19    0.88    5.10
   5   9  19    5.45    6.75
   5  -9  20   27.17   10.37
   5   9  20   30.38   11.37
  -5   9  21    0.39    2.74
   5   9  21    3.17    6.30
   5  -9  21   -3.10    3.86
  -5   9  22   -0.17    4.32
   5  -9  22    0.42    3.16
   5   9  22    2.26    4.92
  -5   9  23   -7.22    6.26
   5  -9  23    4.43    4.26
   5   9  23    5.77    6.78
  -5   9  24   -4.83    6.15
   5  -9  24   18.41    8.93
   5   9  24    9.68    7.23
   5 -10   0   -2.45    5.23
   5 -10   1   58.67   12.94
   5 -10  -1   54.74   13.06
   5 -10   2  186.41   22.60
   5 -10  -2  140.56   20.15
   5 -10   3  141.98   20.12
   5 -10  -3  152.37   21.50
   5 -10   4  292.71   28.82
   5 -10  -4  282.67   28.45
   5 -10   5  244.53   26.65
   5 -10  -5  216.28   24.88
   5 -10   6  177.76   22.31
   5 -10  -6  180.42   23.10
   5 -10  -7   -0.62    3.68
   5 -10   7    1.70    6.40
   5 -10   8   10.50    7.26
   5 -10  -8    0.80    6.14
   5 -10  -9   -2.23    1.78
   5 -10   9    0.11    4.94
   5 -10 -10   12.62    6.51
   5 -10  10    5.87    3.70
   5  10  10    5.51    3.83
   5 -10  11   61.56   13.41
   5 -10 -11   55.15   14.28
   5  10  11   63.91   13.60
   5 -10 -12   16.28    7.35
   5 -10  12    7.05    6.61
   5  10  12   19.96    7.65
   5 -10 -13   54.85   13.29
   5 -10  13   92.69   17.65
   5  10  13   69.21   15.47
   5 -10  14    1.93    5.39
   5 -10 -14   -1.18    2.11
   5  10  14   -1.97    3.14
   5  10  15    1.41    1.81
   5 -10  15   -1.94    1.26
   5 -10 -16   54.84   13.34
   5 -10  16   73.37   16.41
   5  10  16   59.12   14.39
   5 -10 -17    0.76    2.74
   5  10  17    5.21    1.63
   5 -10  18   -5.22    7.38
   5  10  18    7.88    6.31
   5 -10  19    5.91    4.58
   5  10  19    9.13    6.30
   5 -10  20   29.34   10.81
   5  10  20   28.55   10.64
   5 -10  21    9.03    6.73
   5  10  21   -1.40    3.51
   5  10  22   27.22    8.60
   5 -10  22    1.31    9.04
   5 -11   0   -1.70    4.87
   5 -11   1    2.11    0.57
   5 -11  -1   -1.69    1.17
   5 -11   2   94.68   16.93
   5 -11  -2   94.67   16.95
   5 -11   3   22.21    6.66
   5 -11  -3   15.02    7.84
   5 -11  -4    1.65    7.23
   5 -11   4   10.11    4.74
   5 -11   5    6.58    6.67
   5 -11  -5   -4.87    5.23
   5 -11  -6   -1.29    0.46
   5 -11   6    9.21    7.05
   5 -11  -7   57.05   14.07
   5 -11   7   43.44   12.48
   5 -11  -8    9.26    3.16
   5 -11   8   30.54    8.93
   5 -11   9   69.51   15.40
   5 -11  -9   73.22   15.87
   5 -11 -10   18.47    8.34
   5 -11  10   56.35   13.27
   5 -11 -11   71.23   15.11
   5 -11  11   27.39    8.51
   5 -11  12   34.36   10.94
   5 -11 -12   33.64   11.08
   5 -11  13    2.14    2.96
   5 -11 -13    7.50    7.53
   5 -11  14    2.24    3.59
   5  11  14   -1.58    1.98
   5 -11  15    7.65    6.73
   5 -11 -15    2.40    3.31
   5  11  15   10.68    6.48
   5 -11  16   29.58   10.94
   5 -11 -16   40.35   12.14
   5  11  16   26.03    9.23
   5 -11 -17    5.11    3.62
   5 -11  17    8.67    0.30
   5  11  17    4.36    1.85
   5 -11  18    1.01    2.09
   5 -11 -18   16.20    9.57
   5  11  18    7.45    6.67
   5 -11  19   -2.24    2.32
   5 -11 -19    2.22    4.85
   5  11  19    5.37    2.53
   5 -11 -20   12.95    6.83
   5 -11  20   16.74    8.85
   5  11  20    8.62    4.35
   5 -11  21   -5.22    5.16
   5  11  21   -2.04    4.37
   5 -12   0    7.51    6.22
   5 -12   1   18.62    8.08
   5 -12  -1   22.83    8.69
   5 -12   2   22.97    7.51
   5 -12  -2   14.79    6.77
   5 -12   3   -1.65    3.28
   5 -12  -3    3.16    1.79
   5 -12   4    9.16    5.85
   5 -12  -4    4.91    4.55
   5 -12   5   51.48   12.56
   5 -12  -5   30.52    9.62
   5 -12  -6   10.49    5.28
   5 -12   6   14.30    8.99
   5 -12  -7    3.12    4.34
   5 -12   7    3.38    7.44
   5 -12  -8   54.31   13.46
   5 -12   8   24.72   10.57
   5 -12  -9    6.27    5.53
   5 -12   9   -3.96    4.97
   5 -12  10   32.39   11.05
   5 -12 -10   14.25    8.81
   5 -12  11   -1.82    2.81
   5 -12 -11    1.08    2.11
   5 -12 -12   34.38    9.36
   5 -12  12   56.03   15.07
   5 -12 -13   30.98   10.83
   5 -12  13   27.79   10.48
   5 -12  14   19.57    9.21
   5 -12 -14   19.01    8.87
   5 -12  15    0.78    3.26
   5 -12 -15   -5.51    7.26
   5 -12  16    5.16    5.16
   5 -12 -16    7.52    2.00
   5 -12 -17    9.91    7.70
   5 -12  17   11.24    4.70
   5 -12  18    3.14    3.90
   5 -12 -18   14.80    9.46
   5 -13   0   -3.85    5.41
   5 -13   1   33.07   10.48
   5 -13  -1   12.44    6.58
   5 -13   2    2.12    4.19
   5 -13  -2    1.44    2.13
   5 -13   3    7.44    4.65
   5 -13  -3    8.83    5.85
   5 -13   4    9.81    8.08
   5 -13  -4    9.82    6.22
   5 -13  -5    3.12    5.99
   5 -13   5   -2.35    1.88
   5 -13  -6   -2.30    6.03
   5 -13   6    9.60    5.53
   5 -13  -7    2.32    5.62
   5 -13   7    7.34    5.22
   5 -13  -8   18.12    9.35
   5 -13   8    4.59    2.95
   5 -13  -9   48.49   12.14
   5 -13   9   32.67   10.23
   5 -13 -10    3.63    4.25
   5 -13  10   12.31    7.74
   5 -13  11    1.98    4.50
   5 -13 -11   -8.14    5.50
   5 -13  12    9.96    3.35
   5 -13 -12   13.16    6.68
   5 -13  13    4.97    4.47
   5 -13 -13    5.57    5.80
   5 -13 -14   20.31    6.90
   5 -13  14   39.69   13.90
   5 -13 -15   12.21    5.78
   5 -13  15    8.18    6.90
   5 -13  16   10.52    8.01
   5 -13 -16   15.13    9.65
   5 -14   0   -3.22    2.08
   5 -14   1    8.87    5.49
   5 -14  -1    9.01    8.30
   5 -14   2   30.56   11.60
   5 -14  -2   24.95   10.40
   5 -14   3    0.29    4.18
   5 -14  -3    1.75    1.61
   5 -14   4    4.88    2.72
   5 -14  -4   -1.98    3.32
   5 -14  -5   53.42   13.39
   5 -14   5   68.82   15.05
   5 -14   6    1.70    2.69
   5 -14  -6   -1.95    6.43
   5 -14  -7    9.25    7.54
   5 -14   7    4.05    4.85
   5 -14  -8   25.30   10.81
   5 -14   8   -2.67    4.91
   5 -14  -9   10.85    8.65
   5 -14   9    8.02    4.38
   5 -14 -10   13.83    9.17
   5 -14  10   13.43    7.72
   5 -14 -11   -5.68    4.77
   5 -14  11    5.08    3.70
   5 -14  12    0.39    2.44
   5 -14 -12    8.83    8.05
   5 -15   0    3.28    3.24
   5 -15   1   14.99    6.36
   5 -15  -1    5.02    1.95
   5 -15   2    6.37    0.88
   5 -15  -2   21.55    9.78
   5 -15   3   -3.56    6.27
   5 -15  -3    4.31    1.35
   5 -15  -4    9.60    5.43
   5 -15   4    7.21    4.61
   5 -15  -5   -1.88    3.62
   5 -15   5   -3.67    4.16
   5 -15  -6   -2.30    4.93
   5 -15   6   12.37    8.01
   6   0   0 5061.97   68.17
   6   0   1   -0.63    1.74
   6   0  -1    2.01    1.17
   6   0  -2  188.02   12.52
   6   0   2  145.64   12.62
   6   0   3   -0.18    1.67
   6   0  -3    1.72    1.38
   6   0  -4  854.53   26.95
   6   0   4  731.03   31.72
   6   0  -5    0.95    1.32
   6   0   5    2.04    1.39
   6   0   6  220.87   18.49
   6   0  -6  236.74   15.67
   6   0  -7   -0.19    1.52
   6   0   7    0.40    2.52
   6   0   8 1820.54   56.84
   6   0  -8 1781.86   44.61
   6   0   9    0.56    0.22
   6   0  10 1729.73   59.48
  -6   0  10 1884.89   51.54
   6   0  11    0.06    4.61
  -6   0  11   -1.83    1.24
   6   0  12   37.26    8.63
  -6   0  12   26.56    8.57
   6   0  13    1.88    2.15
  -6   0  13   -3.80    2.47
  -6   0  14  812.37   40.30
   6   0  15    3.65    5.32
  -6   0  15   -3.19    2.73
   6   0  16   22.66    5.95
   6   0  17   -0.27    1.87
   6   0  18   60.02   12.42
   6   0  19   -2.55    1.99
   6   0  20   12.74    6.31
   6   0  21   -4.10    1.22
   6   0  22   78.11   15.54
   6   0  23    2.24    3.93
   6   0  24   39.14   12.24
   6   0  25   -2.43    3.85
   6   0  26   82.02   17.26
   6   0  27    7.08    7.75
   6   0  28   -5.91    6.97
   6   0  29   -0.62    3.63
   6   1   0   33.18    5.01
   6  -1   0   25.81    5.28
   6  -1  -1   45.37    7.37
   6   1   1   49.91    6.49
   6   1  -1   55.70    5.64
   6  -1   1   55.88    8.47
   6   1  -2    0.41    0.81
   6  -1  -2   -1.04    2.10
   6  -1   2    3.54    2.58
   6   1   2   -0.45    0.71
   6  -1   3    4.16    3.39
   6   1  -3    5.03    1.47
   6  -1  -3    3.74    2.08
   6   1   3   10.70    3.42
   6   1  -4  275.09   11.47
   6   1   4  292.72   19.23
   6  -1  -4  260.42   18.10
   6  -1   4  283.65   20.05
   6  -1   5    1.97    0.81
   6  -1  -5    1.14    1.58
   6   1  -5    0.54    0.72
   6   1   6  212.81   17.17
   6  -1   6  190.57   17.75
   6   1  -6  170.59   10.97
   6  -1  -6  203.32   16.21
   6   1  -7   34.91    5.09
   6  -1  -7   42.74    7.45
   6  -1   7   45.61    8.99
   6   1   7   34.49    6.89
   6   1   8   23.71    6.15
   6   1  -8   12.06    2.98
   6  -1   8   14.88    5.02
   6  -1  -8   14.72    4.97
   6   1   9   17.53    6.36
   6  -1   9   18.91    6.74
   6   1  10   -0.54    2.58
  -6   1  10   -0.53    1.48
   6  -1  10    0.02    3.09
   6   1  11    2.88    2.35
  -6   1  11    5.77    4.31
   6  -1  11    2.24    2.80
   6   1  12   42.79   10.35
  -6   1  12   52.06    9.50
   6  -1  12   40.94   10.86
   6   1  13  420.12   31.20
   6  -1  13  451.75   33.66
  -6   1  13  363.22   27.24
   6   1  14  320.20   28.04
   6  -1  14  349.00   30.16
   6   1  15   84.88   14.33
   6  -1  15   89.09   14.87
  -6   1  15   74.18   12.10
   6   1  16    1.05    0.88
   6  -1  16   -1.01    3.80
  -6   1  16    4.19    4.15
   6   1  17   24.09    8.46
   6  -1  17   37.60    7.82
  -6   1  17   37.30    9.39
   6   1  18    0.17    0.99
   6  -1  18    8.54    5.17
  -6   1  18   12.89    6.46
   6   1  19  149.91   21.62
   6  -1  19  143.81   20.32
  -6   1  19  165.49   21.40
   6   1  20   -0.14    3.13
   6  -1  20    0.46    2.19
   6   1  21  102.36   18.13
   6  -1  21  110.23   18.76
   6   1  22   -3.82    5.57
   6  -1  22    5.36    5.46
   6   1  23    3.54    3.15
   6  -1  23    8.46    5.67
   6   1  24   10.56    7.69
   6  -1  24    2.30    4.22
   6   1  25   12.59    3.38
   6  -1  25   11.08    8.72
   6   1  26    0.94    1.43
   6  -1  26    9.45    4.51
   6   1  27   14.24    9.16
   6  -1  27   -2.80    4.65
   6   1  28   -1.93    3.30
   6  -1  28    3.38    3.00
   6   2   0  233.09    8.53
   6  -2   0  261.07   18.98
   6  -2   1  160.34   15.54
   6  -2  -1  158.22   14.19
   6   2   2   10.17    2.48
   6  -2  -2   19.07    5.19
   6  -2   2   15.78    4.59
   6  -2  -3  510.19   26.68
   6  -2   3  478.52   27.11
   6   2   4  935.40   30.95
   6  -2  -4  856.83   35.19
   6  -2   4  843.41   36.84
   6   2   5   74.08    9.30
   6  -2   5   61.72   10.20
   6  -2  -5   68.35   10.10
   6   2   6  373.94   22.13
   6  -2   6  417.37   27.09
   6  -2  -6  448.51   26.48
   6  -2  -7  647.00   31.88
   6   2   7  684.95   31.67
   6  -2   7  650.27   34.82
   6   2   8   37.80    8.82
   6   2  -8   48.83    5.18
   6  -2  -8   70.41   10.91
   6  -2   8   71.64   11.65
   6  -2   9    2.55    3.80
   6   2   9    6.82    3.48
   6  -2  10  152.40   18.11
   6   2  11  687.21   36.99
   6  -2  11  732.82   40.40
  -6   2  11  767.18   38.47
   6   2  12   74.42   12.09
   6  -2  12   68.10   12.76
  -6   2  12   88.37   13.50
   6   2  13  398.34   30.08
   6  -2  13  466.55   33.74
  -6   2  13  467.51   31.57
   6   2  14   52.36   11.81
   6  -2  14   51.38   12.02
   6   2  15   15.10    6.38
   6  -2  15    8.00    3.24
  -6   2  15    6.82    4.60
   6   2  16   31.43   10.37
   6  -2  16   53.98   13.00
  -6   2  16   50.43   10.98
   6   2  17   48.43   11.97
   6  -2  17   52.09   12.91
  -6   2  17   28.43   13.66
   6  -2  18  110.20   17.95
   6   2  18   53.19   11.81
  -6   2  18   82.19   14.92
   6   2  19   64.44   14.78
   6  -2  19   44.71   12.07
  -6   2  19   35.34   10.15
   6   2  20   -3.22    9.28
   6  -2  20   -2.63    0.80
  -6   2  20   -2.17    5.34
   6   2  21   98.42   17.56
   6  -2  21   44.23   16.09
  -6   2  21   84.78   14.88
   6   2  22   25.78    8.15
   6  -2  22   22.12    8.94
   6   2  23    7.30    3.13
   6  -2  23   -0.20    1.26
   6   2  24   -1.78    3.96
   6  -2  24   -0.89    4.26
   6   2  25   38.87   11.87
   6  -2  25   50.05   13.62
   6   2  26    2.37    1.56
   6  -2  26   -1.78    1.91
   6   2  27    0.99    1.24
   6  -2  27   -6.01    5.54
   6   2  28   19.72    7.31
   6  -2  28   31.30   10.67
   6  -3   0    6.95    3.94
   6  -3   1   42.15    7.82
   6  -3  -1   33.03    7.60
   6   3   2    8.20    1.97
   6  -3  -2   10.83    4.33
   6  -3   2   13.62    5.97
   6   3   3   -0.74    1.03
   6  -3   3    0.66    3.13
   6  -3  -3    0.10    2.47
   6  -3  -4  584.90   31.25
   6  -3   4  507.49   30.13
   6   3   4  535.45   22.70
   6  -3   5   59.78   10.35
   6   3   5   45.92    6.99
   6   3   6    2.20    2.30
   6  -3   6    7.41    4.63
   6  -3  -6    5.19    3.28
   6   3   7  249.84   18.90
   6  -3  -7  221.38   20.58
   6  -3   7  254.34   22.44
   6   3   8   98.64   12.77
   6  -3   8  116.50   15.53
   6  -3   9    0.91    1.15
   6   3   9    0.50    3.32
   6  -3  -9    1.35    2.55
   6   3  10  137.05   16.10
   6  -3  10  127.04   17.03
   6  -3  11    5.45    1.07
   6   3  11    6.76    3.86
   6   3  12  264.88   24.21
   6  -3  12  221.24   22.78
  -6   3  12  217.41   21.88
   6   3  13    9.83    3.60
   6  -3  13    8.08    5.76
   6   3  14   23.46    8.82
  -6   3  14   31.02    8.69
   6  -3  14   27.87   10.46
   6   3  15   25.46    8.78
  -6   3  15   15.24    5.55
   6  -3  15   16.42    6.82
   6   3  16  250.30   25.82
   6  -3  16  246.88   26.24
  -6   3  16  174.66   21.74
   6   3  17   16.41    6.33
   6  -3  17   13.79    6.85
  -6   3  17    2.43    1.29
   6   3  18  130.49   19.53
   6  -3  18  116.37   18.85
   6   3  19  106.28   18.34
   6  -3  19  118.24   19.83
  -6   3  19   61.11   15.18
   6   3  20   10.52    4.15
   6  -3  20    9.13    5.80
   6   3  21    7.40    4.27
   6  -3  21    3.76    2.78
  -6   3  21   11.40    5.06
   6   3  22   42.88   11.37
   6  -3  22   46.61   12.87
  -6   3  22   41.75   12.43
   6   3  23    6.74    7.56
   6  -3  23   11.87    6.67
  -6   3  23   10.15    7.43
   6   3  24    8.77    7.34
   6  -3  24   19.51    7.85
  -6   3  24    2.07    5.17
   6   3  25   -3.05    4.70
   6  -3  25    3.90    4.59
   6   3  26   -1.65    3.91
   6  -3  26   -3.17    3.82
   6   3  27    0.20    3.87
   6  -3  27   -1.87    5.93
   6   3  28   13.76    7.21
   6  -3  28   12.28    9.52
   6  -4   0   95.36   13.07
   6  -4   1  127.80   15.50
   6  -4  -1  145.41   16.02
   6  -4   2    6.14    2.50
   6  -4  -2    4.28    3.65
   6   4   2    2.48    1.41
   6  -4   3   74.79   12.42
   6  -4  -3   71.93   11.73
   6   4   3   72.24    6.95
   6   4   4    4.62    2.31
   6  -4  -4   22.36    7.03
   6  -4   4   16.06    6.38
   6   4   5    9.11    3.27
   6  -4  -5    5.21    3.42
   6  -4   5    6.07    3.15
   6   4   6   -0.56    1.40
   6  -4   6   10.58    4.62
   6  -4  -6    6.18    1.92
   6  -4  -7  264.90   23.54
   6  -4   7  281.53   24.52
   6   4   7  311.99   21.97
   6  -4  -8  602.69   35.35
   6  -4   8  630.82   37.50
   6   4   8  620.17   32.62
   6  -4  -9  126.72   15.92
   6  -4   9  120.93   16.75
   6   4   9  108.79   14.33
   6  -4 -10  259.17   23.60
   6  -4  10  261.15   25.08
   6   4  10  260.51   22.47
   6  -4  11   17.24    5.78
   6   4  11    3.19    1.08
   6  -4  12   29.56   10.27
   6   4  12    8.60    5.20
   6  -4  13   31.23    8.07
   6   4  13   36.94   10.28
  -6   4  13   31.94    9.47
   6  -4  14   16.78    6.55
   6   4  14   27.24    7.10
   6  -4  15  168.02   22.13
  -6   4  15  176.38   21.29
   6   4  15  181.63   20.98
   6   4  16   53.41   12.94
  -6   4  16   41.03   11.19
   6  -4  16   29.62    8.47
   6   4  17   23.77    6.91
  -6   4  17   52.92   12.64
   6  -4  17   47.92   11.85
   6  -4  18  112.13   18.90
  -6   4  18   91.03   16.49
   6   4  18  122.89   19.40
   6   4  19   10.10    5.64
   6  -4  19   27.40   11.11
  -6   4  19   20.87    9.21
   6   4  20    5.27    4.24
   6  -4  20    3.63    1.00
   6   4  21   35.82   11.16
   6  -4  21   49.22   12.09
  -6   4  21   26.58    8.62
   6   4  22   56.68   14.04
   6  -4  22   53.92   13.95
  -6   4  22   30.11    9.51
   6   4  23   39.50   10.32
   6  -4  23   22.33    8.39
  -6   4  23   33.14   11.40
   6   4  24    0.61    3.96
   6  -4  24    2.44    5.14
  -6   4  24    7.48    6.59
   6   4  25   30.06   11.79
   6  -4  25   25.31    9.39
  -6   4  25   21.48   10.74
   6   4  26   11.49    7.55
   6  -4  26    0.14    3.82
  -6   4  26   12.87    6.70
   6   4  27   13.57    8.63
   6  -4  27    6.19    5.02
   6  -5   0   -0.05    0.98
   6  -5   1  223.25   21.25
   6  -5  -1  211.85   21.32
   6  -5   2   22.36    6.66
   6  -5  -2   32.20    7.97
   6  -5  -3   -0.70    3.31
   6   5   3    0.68    0.92
   6  -5   3    2.80    4.71
   6  -5  -4    0.65    3.91
   6  -5   4    2.03    0.91
   6   5   4    3.28    2.26
   6  -5   5  203.40   21.03
   6   5   5  181.37   15.90
   6  -5  -5  215.90   22.00
   6   5   6  101.31   11.82
   6  -5  -6   97.95   14.38
   6  -5   6  122.35   16.35
   6  -5  -7  160.28   19.14
   6   5   7  117.66   13.32
   6  -5   7  155.55   18.68
   6   5   8   10.58    4.59
   6  -5   8   17.68    6.01
   6  -5  -8   10.66    6.90
   6  -5  -9  133.72   17.49
   6  -5   9  142.75   18.03
   6   5   9  160.78   17.24
   6  -5 -10   20.34    7.59
   6   5  10   12.33    6.61
   6  -5  10   16.35    6.13
   6   5  11    3.48    3.03
   6  -5  11    8.04    1.77
   6  -5 -11    9.01    4.11
   6   5  12   26.03    8.56
   6  -5  12   24.94    9.24
   6  -5  13  155.07   21.25
   6   5  13  164.63   19.67
   6  -5  14   52.16   13.11
   6   5  14   27.25    8.51
   6  -5  15   34.38   10.83
   6   5  15   12.67    6.27
  -6   5  15   27.26    8.02
   6  -5  16    6.40    1.46
   6   5  16   11.23    5.31
  -6   5  16    8.84    6.14
   6   5  17   -1.98    2.76
  -6   5  17    4.37    3.40
   6  -5  17   -1.85    1.70
   6  -5  18  112.06   18.50
  -6   5  18  108.19   19.04
   6   5  18  121.35   18.59
   6   5  19   40.23   11.55
  -6   5  19   35.76   11.13
   6  -5  19   34.75    9.84
   6   5  20    2.19    2.85
   6  -5  20    3.82    4.39
  -6   5  20    0.41    4.41
   6   5  21   23.09    9.05
   6  -5  21   13.05    6.53
  -6   5  21   21.54   10.01
   6   5  22   -2.77    6.82
   6  -5  22   -1.05    1.45
  -6   5  22   -2.29    3.84
   6  -5  23    1.84    4.10
  -6   5  23    5.59    3.89
   6   5  24   33.53   11.19
   6  -5  24   35.85   11.65
  -6   5  24   26.37   11.34
   6   5  25   13.96    5.06
   6  -5  25    3.43    3.11
  -6   5  25    9.97    6.78
   6   5  26   -3.19    6.19
   6  -5  26    0.37    0.72
  -6   5  26   -1.54    2.63
   6   5  27   -4.77    5.72
   6  -5  27   -3.97    2.01
  -6   5  27   -3.43    8.62
   6  -6   0    1.66    3.44
   6  -6   1  137.52   17.08
   6  -6  -1  138.87   17.64
   6  -6   2   15.60    6.56
   6  -6  -2   14.83    6.55
   6  -6  -3   13.44    5.64
   6  -6   3   15.13    5.93
   6  -6   4  660.53   39.67
   6  -6  -4  755.09   41.51
   6  -6   5   81.21   14.15
   6   6   5   66.98    9.38
   6  -6  -5   88.69   14.44
   6  -6   6   22.48    7.91
   6  -6  -6   29.12    8.46
   6   6   6   21.37    4.92
   6  -6  -7  209.05   22.86
   6   6   7  204.73   18.84
   6  -6   7  214.58   23.11
   6  -6  -8    9.92    6.54
   6  -6   8    4.23    4.68
   6   6   8    9.32    4.75
   6   6   9    5.24    2.37
   6  -6   9   11.55    5.67
   6  -6  -9   10.42    5.40
   6   6  10   45.87    9.77
   6  -6 -10   51.10   11.83
   6  -6  10   51.30   11.45
   6  -6 -11  203.80   22.92
   6  -6  11  227.42   25.01
   6   6  11  177.00   19.56
   6  -6  12   59.62   12.93
   6  -6 -12   83.09   14.50
   6   6  12   95.85   15.02
   6   6  13   24.26    7.26
   6  -6  13   19.41    4.59
   6  -6  14  290.28   29.26
   6   6  14  294.56   27.34
   6  -6  15  128.42   20.24
   6   6  15   78.71   15.54
   6  -6  16    6.61    3.12
   6   6  16   34.77    9.59
   6  -6  17   22.66    9.31
   6   6  17    4.06    3.51
  -6   6  17   17.98    8.20
   6   6  18   49.75   11.74
  -6   6  18   82.81   16.45
   6  -6  18   74.59   15.46
   6   6  19   17.97    7.30
  -6   6  19   14.02    6.86
   6  -6  19   27.65    9.22
   6   6  20    7.50    6.39
  -6   6  20    4.59    4.85
   6  -6  20   10.71    4.73
   6   6  21   14.52    5.77
  -6   6  21   11.45    6.12
   6  -6  21    8.53    6.51
   6   6  22   45.64   14.35
   6  -6  22   34.69    9.72
  -6   6  22   42.98   11.60
   6   6  23   17.10    6.86
   6  -6  23   20.72    8.60
  -6   6  23   24.77   10.38
   6   6  24   62.15   15.75
   6  -6  24   43.62   12.40
  -6   6  24   11.08    6.60
   6   6  25   45.80   11.89
  -6   6  25   33.40   10.44
   6   6  26   35.63   11.76
   6  -6  26   40.09    9.09
  -6   6  26   10.86   12.74
   6  -7   0  165.78   20.07
   6  -7   1  106.02   16.38
   6  -7  -1   94.11   15.01
   6  -7   2  226.12   22.83
   6  -7  -2  239.78   24.78
   6  -7   3  107.49   16.01
   6  -7  -3   85.30   15.12
   6  -7  -4   -2.03    2.03
   6  -7   4   -0.26    5.38
   6  -7  -5   24.26    6.59
   6  -7   5   23.39    9.58
   6  -7  -6    6.85    4.86
   6  -7   6    3.65    2.27
   6  -7   7    3.02    6.01
   6  -7  -7    0.72    5.78
   6  -7  -8   -0.10    3.18
   6  -7   8   -1.37    2.76
   6   7   8    6.12    4.67
   6  -7  -9    6.70    6.11
   6  -7   9    7.49    3.51
   6   7   9    5.08    3.53
   6  -7  10   40.98   11.10
   6  -7 -10   43.00   10.63
   6   7  10   44.69   11.24
   6  -7 -11    2.10    4.39
   6  -7  11   -0.63    4.29
   6   7  11   -3.07    6.80
   6   7  12   14.10    7.03
   6  -7  12   15.22    6.31
   6  -7 -12   27.49    9.06
   6   7  13   15.03    4.54
   6  -7 -13    7.37    6.62
   6  -7  13   17.77    8.79
   6   7  14   27.61    8.88
   6  -7  14   47.50   10.87
   6   7  15   12.34    5.91
   6  -7  15   -1.83    5.91
   6   7  16    0.90    3.25
   6  -7  16   10.80    6.33
   6   7  17    6.54    7.34
   6  -7  17   18.00    7.86
   6  -7  18   26.97   10.13
   6   7  18   14.02    6.56
   6   7  19    5.98    3.74
  -6   7  19   11.57    5.46
   6  -7  19    5.44    1.63
  -6   7  20   -1.90    1.40
   6  -7  20    1.41    6.68
   6   7  21   -2.49    3.26
  -6   7  21    4.43    2.25
   6  -7  21    2.23    3.24
   6   7  22   17.87    7.78
  -6   7  22   12.23    6.93
   6  -7  22   12.10    6.29
   6   7  23    7.21    4.66
  -6   7  23   12.79    8.83
   6  -7  23    4.07    0.54
   6   7  24    0.17    6.27
   6  -7  24    2.61    5.35
  -6   7  24    0.03    3.59
   6   7  25   13.60    7.76
   6  -7  25   -4.15    4.46
  -6   7  25    6.60    8.19
   6  -8   0    9.96    4.73
   6  -8   1    9.33    6.62
   6  -8  -1   14.20    7.07
   6  -8   2   22.69    8.10
   6  -8  -2   35.92    9.96
   6  -8   3  211.80   23.22
   6  -8  -3  171.35   21.62
   6  -8   4   59.21   11.94
   6  -8  -4   63.32   12.81
   6  -8   5  174.45   22.46
   6  -8  -5  163.73   21.70
   6  -8  -6    5.72    4.80
   6  -8   6    0.56    3.75
   6  -8   7  356.89   32.03
   6  -8  -7  250.34   26.43
   6  -8   8    4.19    2.01
   6  -8  -8    0.24    2.80
   6  -8  -9   20.80    8.84
   6  -8   9    9.66    5.74
   6  -8 -10   23.29   10.46
   6  -8  10   22.01    6.21
   6  -8 -11  169.35   21.55
   6   8  11  152.26   20.17
   6  -8  11  166.42   22.18
   6  -8 -12    1.42    4.58
   6  -8  12    6.24    3.46
   6   8  12    4.36    1.82
   6  -8  13    9.03    6.59
   6  -8 -13    5.24    6.49
   6   8  13    3.84    0.58
   6  -8  14    7.11    3.94
   6  -8 -14   23.63    8.79
   6   8  14   20.05    8.46
   6  -8 -15  294.49   30.77
   6  -8  15  256.54   27.89
   6   8  15  222.30   25.71
   6  -8  16   10.87    8.67
   6   8  16   -2.04    5.71
   6  -8  17  123.40   19.46
   6   8  17  141.83   21.74
   6   8  18   -2.14    4.34
   6  -8  18    2.53    3.20
   6   8  19   61.36   14.73
   6  -8  19   45.87   13.69
   6   8  20   10.05    6.48
   6  -8  20   14.98    7.35
   6  -8  21   80.60   17.55
   6   8  21  104.58   20.24
   6   8  22    8.37    8.43
  -6   8  22    1.98    2.60
   6  -8  22   -4.77    3.52
   6   8  23   46.34   14.29
  -6   8  23   27.86   11.71
   6  -8  23   38.28   13.87
   6   8  24    4.75    4.84
  -6   8  24    2.41    4.10
   6  -8  24    9.20    7.02
   6  -9   0   76.14   14.39
   6  -9   1   18.23    7.01
   6  -9  -1   22.72    8.73
   6  -9   2   -2.88    3.04
   6  -9  -2    4.34    2.59
   6  -9   3   -0.67    3.04
   6  -9  -3   -0.06    2.57
   6  -9   4    6.21    7.85
   6  -9  -4    2.85    1.29
   6  -9   5  135.16   19.78
   6  -9  -5  136.28   20.56
   6  -9  -6   25.37   10.01
   6  -9   6   36.63   10.99
   6  -9  -7   -1.28    4.98
   6  -9   7    4.45    3.25
   6  -9   8   23.61    9.37
   6  -9  -8   20.79    6.89
   6  -9   9    7.10    7.15
   6  -9  -9   -1.04    5.67
   6  -9 -10    3.15    3.63
   6  -9  10    7.04    6.94
   6  -9 -11   19.49    9.32
   6  -9  11    0.66    4.66
   6  -9  12    1.82    1.79
   6  -9 -12    5.19    5.38
   6  -9 -13   11.38    6.72
   6  -9  13   21.17   10.22
   6  -9  14   21.89    8.08
   6  -9 -14   12.66    7.01
   6  -9  15    1.00    0.55
   6  -9 -15   -1.07    4.29
   6  -9  16    5.55    4.89
   6  -9 -16    7.03    2.98
   6  -9  17    5.04    3.89
   6  -9 -17   12.96    3.73
   6   9  17   13.64    5.95
   6  -9  18   -2.07    4.88
   6  -9 -18   -5.79    7.28
   6   9  18   -4.88    6.01
   6  -9  19   -1.78    5.81
   6   9  19   -3.79    7.38
   6  -9  20   18.70    9.44
   6   9  20   17.00    6.85
   6   9  21   17.76    8.59
   6  -9  21   15.32    9.60
   6  -9  22   -0.09    3.82
   6   9  22   27.41   12.85
   6  -9  23   -4.70    6.43
   6   9  23    3.98    7.05
   6 -10   0   92.85   17.63
   6 -10   1   11.98    4.65
   6 -10  -1   27.58    9.52
   6 -10   2   -0.84    2.08
   6 -10  -2   -0.02    4.77
   6 -10   3   50.38   11.85
   6 -10  -3   45.24   13.06
   6 -10   4  110.44   17.61
   6 -10  -4  146.09   20.56
   6 -10  -5   13.94    7.59
   6 -10   5    1.73    2.37
   6 -10  -6   33.84    9.29
   6 -10   6   37.87   11.81
   6 -10  -7   10.16    5.91
   6 -10   7    6.81    6.30
   6 -10   8  130.51   19.89
   6 -10  -8  108.82   17.81
   6 -10   9    7.44    7.20
   6 -10  -9   -1.48    3.35
   6 -10  10   54.52   12.88
   6 -10 -10   42.78   11.52
   6 -10 -11   76.12   15.75
   6 -10  11   81.15   16.33
   6 -10 -12   62.92   15.71
   6 -10  12   52.10   12.94
   6 -10  13    1.42    3.80
   6 -10 -13   -7.04    6.90
   6 -10 -14   84.33   17.38
   6 -10  14   95.30   17.65
   6 -10 -15   54.92   13.25
   6 -10  15   40.68   11.13
   6 -10  16   10.68    6.10
   6 -10 -16   15.12    6.39
   6 -10  17    6.72    5.27
   6 -10 -17   -2.50    5.61
   6 -10 -18   78.36   17.15
   6 -10  18   78.23   17.75
   6 -10  19   21.07   10.34
   6 -10 -19   17.50    8.21
   6 -10  20   -8.15    8.14
   6 -10 -20    2.39    6.21
   6 -10 -21   78.07   15.73
   6 -10  21   99.37   19.35
   6 -11   0   10.38    5.55
   6 -11   1   37.35   12.16
   6 -11  -1   29.14    9.57
   6 -11   2   14.99    5.05
   6 -11  -2   20.30    6.80
   6 -11   3   35.79   11.16
   6 -11  -3   53.70   12.78
   6 -11   4    2.19    3.02
   6 -11  -4    1.81    0.94
   6 -11  -5   -5.00    5.67
   6 -11   5   -1.24    4.32
   6 -11  -6    1.50    2.91
   6 -11   6    3.55    1.67
   6 -11  -7    6.09    2.09
   6 -11   7    2.61    3.80
   6 -11  -8   -4.33    3.72
   6 -11   8    8.79    7.24
   6 -11  -9   13.09    8.02
   6 -11   9   20.73    9.31
   6 -11  10   -4.57    6.43
   6 -11 -10   -4.65    6.57
   6 -11  11   14.67    9.08
   6 -11 -11    2.77    6.74
   6 -11 -12   16.57    5.05
   6 -11  12   16.61   11.12
   6 -11 -13   18.91    7.59
   6 -11  13   21.54    9.54
   6 -11  14   -2.37    3.76
   6 -11 -14    3.20    5.94
   6 -11  15   -0.21    3.95
   6 -11 -15    6.16    6.29
   6 -11  16   17.54    8.35
   6 -11 -16    2.10    6.50
   6 -11 -17   14.64    5.03
   6 -11  17   12.62    8.86
   6 -11  18   13.34    7.12
   6 -11 -18    1.96    2.70
   6 -11  19   16.78    8.84
   6 -11 -19   13.84    9.60
   6 -12   0   36.40   11.45
   6 -12   1   14.07    5.08
   6 -12  -1   15.39    7.44
   6 -12   2   43.22   11.66
   6 -12  -2   22.87    8.08
   6 -12   3   30.84    8.92
   6 -12  -3   35.97   10.04
   6 -12   4   12.90    6.67
   6 -12  -4   17.90    8.79
   6 -12  -5   15.66    8.14
   6 -12   5   15.86    8.17
   6 -12  -6    5.82    6.71
   6 -12   6   13.15    8.24
   6 -12  -7    1.35    3.12
   6 -12   7    8.20    2.61
   6 -12  -8    8.89    5.54
   6 -12   8   12.91    7.10
   6 -12  -9   19.21    9.97
   6 -12   9    7.15    5.52
   6 -12 -10    6.43    8.56
   6 -12  10    4.04    4.06
   6 -12  11   51.70   14.08
   6 -12 -11   76.00   17.29
   6 -12  12    8.61    7.51
   6 -12 -12   18.91   10.02
   6 -12  13   -0.51    6.15
   6 -12 -13   -5.85    4.42
   6 -12 -14   13.63    7.69
   6 -12  14   11.34    7.82
   6 -12 -15   -1.15    3.75
   6 -12  15   10.70    3.46
   6 -12  16   30.53    8.72
   6 -12 -16   39.64   12.15
   6 -13   0   22.03    8.76
   6 -13   1    8.65    6.57
   6 -13  -1   16.33   10.29
   6 -13   2    9.26    8.23
   6 -13  -2    5.25    5.27
   6 -13   3   -0.91    1.02
   6 -13  -3    7.92    5.79
   6 -13  -4   -1.46    3.35
   6 -13   4   -1.30    5.11
   6 -13  -5    9.24    4.75
   6 -13   5    2.88    1.66
   6 -13   6   -2.37    2.82
   6 -13  -6    7.77    7.66
   6 -13  -7    6.90    0.68
   6 -13   7    7.05    4.43
   6 -13  -8    5.89    3.31
   6 -13   8   13.43    8.65
   6 -13  -9    5.39    1.24
   6 -13   9    5.78    6.05
   6 -13 -10   11.62    8.95
   6 -13  10   -3.59    4.90
   6 -13 -11    5.61    1.38
   6 -13  11    5.12    1.44
   6 -13  12   -2.54    1.03
   6 -13 -12   -2.19    3.88
   6 -13  13    0.47    1.87
   6 -13 -13    3.16    3.71
   6 -14   0   70.58   16.50
   6 -14   1    6.32    2.48
   6 -14  -1   -1.90    1.96
   6 -14   2   22.22   10.06
   6 -14  -2   -2.64    5.08
   6 -14   3   38.65   13.61
   6 -14  -3   55.47   13.91
   6 -14  -4   18.42   11.73
   6 -14   4   19.21    9.50
   6 -14  -5    0.54    4.38
   6 -14   5   -1.82    2.86
   6 -14  -6   -4.15    2.86
   6 -14   6   11.57    4.91
   6 -14   7   50.85   13.52
   6 -14  -7   30.54   10.50
   6 -14   8   10.10    3.82
   6 -14  -8   24.64    8.49
   6 -14  -9    8.29    4.35
   6 -14   9    9.78    7.75
   7   0   0    2.26    2.37
   7   0   1    1.10    1.81
   7   0  -1    2.17    2.42
   7   0   2  849.99   35.66
   7   0  -2  828.65   28.23
   7   0   3   -1.85    1.77
   7   0  -3    0.21    0.76
   7   0  -4  420.10   20.40
   7   0   4  375.66   23.93
   7   0  -5    0.53    0.51
   7   0   5    3.30    3.92
   7   0   6   96.99   13.49
   7   0  -6  124.38   11.43
   7   0  -7    1.33    1.51
   7   0   7    1.63    3.00
   7   0   8  371.01   27.16
   7   0  -8  422.43   23.19
   7   0   9    0.41    1.05
   7   0  10   43.29    9.43
   7   0  11   -2.54    5.66
   7   0  12  132.69   17.89
   7   0  13   -1.45    3.18
   7   0  14  606.25   40.60
   7   0  15    1.68    2.81
   7   0  16  517.57   39.06
   7   0  17   -2.93    6.65
   7   0  18   57.83   12.93
   7   0  19   -0.35    1.53
   7   0  20  111.43   18.53
   7   0  21    1.98    3.30
   7   0  22   15.17    9.33
   7   0  23    0.34    3.75
   7   0  24  114.34   20.07
   7   0  25    1.75    5.78
   7   0  26   69.40   15.38
   7   0  27    4.12    5.75
   7  -1   0    0.89    1.54
   7   1   0   -0.20    0.75
   7  -1  -1  241.60   17.85
   7   1   1  182.37   13.48
   7   1  -1  206.85   12.72
   7  -1   1  233.02   18.03
   7  -1  -2  381.37   22.62
   7  -1   2  344.90   22.63
   7  -1  -3  138.12   13.73
   7   1   3  150.90   13.48
   7  -1   3  142.58   14.96
   7   1   4  100.60   11.28
   7  -1  -4   95.41   11.12
   7  -1   4   82.33   11.60
   7  -1   5   -0.15    1.91
   7  -1  -5    0.18    3.71
   7   1   5    0.01    1.27
   7   1   6  308.32   22.31
   7  -1   6  332.74   24.39
   7  -1  -6  315.34   20.90
   7  -1   7    7.34    4.68
   7  -1  -7   12.81    5.38
   7   1   7    9.06    2.99
   7   1   8  299.09   23.79
   7  -1   8  285.19   24.94
   7  -1  -8  232.23   20.77
   7  -1  -9  205.37   17.99
   7   1   9  225.58   21.08
   7  -1   9  218.34   21.62
   7  -1 -10   25.19    6.70
   7   1  10    7.77    2.88
   7  -1  10   22.26    6.42
   7   1  11  247.40   23.33
   7  -1  11  231.69   23.24
   7  -1 -11  242.18   20.68
   7   1  12  514.46   34.94
   7  -1  12  414.25   32.36
   7   1  13    7.70    5.56
   7  -1  13   18.29    8.01
   7   1  14   70.25   13.94
   7  -1  14   85.74   14.96
   7   1  15   -0.88    1.86
   7  -1  15    0.72    2.31
   7   1  16   -3.26    4.68
   7  -1  16    7.53    5.24
   7   1  17    7.13    4.02
   7  -1  17    7.47    5.15
   7   1  18    5.11    6.31
   7  -1  18   -1.19    1.19
   7   1  19    4.01    4.00
   7  -1  19    1.64    2.24
   7   1  20    5.86    5.59
   7  -1  20    4.69    4.17
   7   1  21    1.02    1.70
   7  -1  21   -2.60    4.28
   7   1  22   -2.99    3.74
   7  -1  22  -13.06    9.05
   7   1  23    0.99    1.87
   7  -1  23    5.95    3.12
   7   1  24   -7.14    7.15
   7  -1  24   -6.03    6.69
   7   1  25   -1.53    0.79
   7  -1  25    3.24    4.20
   7   1  26   -0.26    3.54
   7  -1  26   11.77    7.67
   7   1  27    5.84    7.24
   7  -1  27    8.91    7.33
   7  -2   0    2.80    3.48
   7  -2  -1  429.83   26.13
   7  -2   1  366.34   24.72
   7   2   2   80.37    7.83
   7  -2  -2   99.63   12.33
   7  -2   2   78.38   11.46
   7   2   3   74.91    8.31
   7  -2  -3   74.73   10.45
   7  -2   3   61.36   10.71
   7  -2   4    4.46    2.66
   7   2   4    4.93    2.44
   7  -2  -4    6.26    3.74
   7   2   5  890.78   34.22
   7  -2  -5  999.15   40.02
   7  -2   6   40.15    8.37
   7   2   6   29.04    6.79
   7  -2  -6   40.28    8.35
   7   2   7  211.62   18.13
   7  -2   7  198.78   20.47
   7  -2  -7  197.12   18.45
   7  -2   8   30.96    7.90
   7   2   8   42.37    8.56
   7  -2  -8   42.04    9.17
   7  -2   9    5.27    5.28
   7  -2  -9   -1.10    1.47
   7   2   9    0.75    1.39
   7   2  10  315.18   24.90
   7  -2 -10  335.69   25.48
   7  -2  10  269.13   25.14
   7  -2 -11   87.91   14.05
   7  -2  11   91.10   15.70
   7   2  12   30.79    7.81
   7  -2  12   41.07    9.79
   7   2  13  208.14   22.75
   7  -2  13  181.11   22.18
   7   2  14   -0.76    0.76
   7  -2  14    3.10    4.07
   7  -2  15   56.10   14.30
   7   2  15   45.88   10.26
   7   2  16   94.77   16.29
   7  -2  16  121.29   18.60
   7   2  17   29.11   10.47
   7  -2  17   11.23    6.96
   7   2  18   -0.02    3.10
   7  -2  18    4.93    6.23
   7   2  19  231.37   27.11
   7  -2  19  212.02   25.49
   7   2  20  116.76   19.45
   7  -2  20  119.67   19.06
   7   2  21    6.94    6.34
   7  -2  21    3.44    5.89
   7   2  22   -0.05    1.60
   7  -2  22   -5.96    8.20
   7  -2  23   97.05   18.96
   7   2  23  103.82   18.47
   7   2  24   -3.14    4.95
   7  -2  24   -8.57    7.48
   7   2  25   -5.21    5.49
   7  -2  25   -1.26    3.14
   7   2  26    3.74    3.23
   7  -2  26   -3.64    7.46
   7   2  27    4.42    1.45
   7  -2  27    1.66    4.46
   7  -3   0   -1.19    2.18
   7  -3   1   45.83    9.58
   7  -3  -1   51.63    9.85
   7  -3  -2   21.41    6.81
   7  -3   2   18.56    6.04
   7  -3  -3   10.08    3.82
   7  -3   3    8.42    4.99
   7  -3   4   42.26    8.78
   7  -3  -4   49.84    9.81
   7  -3  -5  573.19   33.12
   7  -3   5  559.40   34.41
   7   3   5  602.67   27.71
   7  -3  -6    0.39    3.33
   7   3   6    2.81    1.63
   7  -3   6    3.48    3.93
   7   3   7  109.75   13.79
   7  -3   7   96.27   14.48
   7  -3  -7   90.18   13.37
   7   3   8   51.29    8.96
   7  -3   8   57.48   11.09
   7  -3  -8   64.09   11.79
   7   3   9  100.02   14.03
   7  -3  -9  100.19   14.15
   7  -3   9  110.14   15.45
   7  -3  10    0.43    3.89
   7   3  10    4.35    4.18
   7  -3 -10    0.87    1.98
   7   3  11  178.64   19.89
   7  -3 -11  171.36   19.67
   7  -3  11  181.26   20.31
   7   3  12  103.04   15.60
   7  -3 -12  111.49   15.34
   7  -3  12  111.01   16.95
   7   3  13   34.83    9.55
   7  -3  13   45.07   11.04
   7   3  14    4.40    2.75
   7  -3  14    1.87    0.98
   7   3  15   39.55    9.89
   7  -3  15   29.81    9.68
   7   3  16    2.66    1.88
   7  -3  16   -1.19    5.07
   7   3  17   11.30    8.21
   7  -3  17   16.02    5.48
   7   3  18    0.44    2.54
   7  -3  18    2.08    4.66
   7   3  19    4.84    5.24
   7  -3  19   -1.69    1.64
   7   3  20    0.99    1.45
   7  -3  20    7.85    6.00
   7   3  21   -0.74    2.16
   7  -3  21    1.81    2.23
   7   3  22   -4.92    6.58
   7  -3  22    1.44    5.54
   7   3  23    9.25    5.02
   7  -3  23    7.63    2.51
   7   3  24   12.09    6.47
   7  -3  24   20.69   10.00
   7   3  25   -6.08    5.82
   7  -3  25    3.36    0.85
   7   3  26    0.56    3.90
   7  -3  26   -8.46    9.46
   7  -4   0    0.39    3.84
   7  -4   1  143.78   17.41
   7  -4  -1  124.34   15.64
   7  -4   2  502.66   33.11
   7  -4  -2  475.00   30.84
   7  -4  -3    9.57    4.40
   7  -4   3    9.16    5.80
   7  -4  -4  586.12   34.78
   7  -4   4  574.92   34.90
   7  -4  -5   97.58   14.79
   7  -4   5  138.75   17.38
   7  -4  -6   55.34   11.28
   7  -4   6   80.15   13.27
   7  -4   7   28.65    8.75
   7  -4  -7   15.69    5.78
   7  -4   8  144.95   18.93
   7   4   8  123.12   14.39
   7  -4  -8  122.45   17.54
   7  -4  -9  139.55   18.72
   7  -4   9  182.58   21.10
   7   4   9  152.16   17.06
   7  -4  10    4.87    3.66
   7   4  10   -1.71    3.46
   7  -4 -10    9.56    4.80
   7  -4  11   -0.41    3.77
   7   4  11   -1.46    0.97
   7  -4 -11    3.70    3.91
   7  -4 -12    4.13    2.95
   7  -4  12    3.90    1.27
   7  -4  13  154.72   19.77
   7  -4 -13  161.24   20.52
   7   4  13  145.86   19.22
   7  -4  14    3.94    6.03
   7   4  14    7.44    5.76
   7   4  15   17.59    6.14
   7  -4  15   -0.89    3.59
   7   4  16   68.79   13.11
   7  -4  16   84.24   15.94
   7   4  17   55.30   12.14
  -7   4  17   31.36   10.21
   7  -4  17   61.60   14.63
   7   4  18   58.00   14.46
  -7   4  18   44.80   11.35
   7  -4  18   73.94   15.07
   7   4  19   22.78    9.95
   7  -4  19   45.60   12.40
  -7   4  19   48.94   14.23
   7   4  20   83.06   15.64
   7  -4  20   87.33   18.01
   7   4  21    2.02    5.25
   7  -4  21    6.39    3.70
   7   4  22    1.40    6.16
   7  -4  22    5.46    7.05
   7   4  23   -1.24    4.20
   7  -4  23    2.94    7.91
   7   4  24   19.54    9.02
   7  -4  24   13.28    6.27
   7   4  25    5.58    5.51
   7  -4  25    9.44    6.60
   7   4  26    7.90    6.02
   7  -4  26   19.96    8.76
   7  -5   0    0.13    2.98
   7  -5   1   -2.66    3.25
   7  -5  -1    7.41    5.71
   7  -5  -2    8.35    5.70
   7  -5   2   15.59    6.71
   7  -5  -3   46.68   10.48
   7  -5   3   42.46    9.88
   7  -5   4   28.86    8.63
   7  -5  -4   19.39    6.73
   7  -5  -5   13.71    5.66
   7  -5   5    8.98    6.08
   7  -5  -6  100.55   16.00
   7  -5   6  100.75   15.77
   7  -5   7   95.44   15.97
   7  -5  -7  100.40   16.16
   7  -5   8    4.67    5.35
   7  -5  -8    1.45    2.59
   7  -5  -9    0.55    5.10
   7  -5   9    0.65    5.05
   7  -5  10    8.92    5.57
   7  -5 -10    1.75    2.81
   7   5  11   32.10    9.00
   7  -5  11   26.24    8.77
   7  -5 -11   33.06    9.94
   7   5  12   18.93    5.82
   7  -5  12   22.58    7.86
   7  -5 -12   18.80    6.61
   7  -5  13   -4.00    0.49
   7   5  13    0.02    2.21
   7  -5 -14   16.09    6.73
   7  -5  14   10.36    4.30
   7   5  14    4.88    2.31
   7  -5  15   12.20    7.78
   7   5  15   24.26    8.44
   7   5  16   22.00    8.73
   7  -5  16   28.60   10.46
   7   5  17   -3.46    5.71
   7  -5  17    8.80    6.15
   7   5  18    3.13    2.58
   7  -5  18   10.21    6.78
   7   5  19   11.05    5.93
  -7   5  19    6.20    5.72
   7  -5  19    7.98    4.97
   7   5  20    6.97    4.78
  -7   5  20    1.44    6.06
   7  -5  20   13.04    9.51
   7   5  21    4.05    7.81
   7  -5  21    1.18    1.39
  -7   5  21   11.89    8.33
   7   5  22   10.23    4.10
   7  -5  22   22.67   10.16
   7   5  23    3.17    3.07
   7  -5  23   21.65   11.46
   7   5  24   35.43   11.09
   7  -5  24   35.03   12.14
   7   5  25   14.17    9.21
   7  -5  25   -4.77    5.08
   7  -6   0    3.63    4.51
   7  -6   1  285.72   26.72
   7  -6  -1  298.76   27.57
   7  -6   2  311.20   27.74
   7  -6  -2  289.21   26.27
   7  -6  -3    3.67    3.26
   7  -6   3    2.31    2.36
   7  -6   4   -2.75    3.27
   7  -6  -4    5.36    5.09
   7  -6   5  337.94   28.82
   7  -6  -5  299.04   27.93
   7  -6  -6    3.85    5.54
   7  -6   6    1.04    2.18
   7  -6  -7   66.45   13.92
   7  -6   7   80.88   14.83
   7  -6   8   17.84    8.93
   7  -6  -8    3.27    2.49
   7  -6   9   55.87   12.37
   7  -6  -9   52.90   12.60
   7  -6 -10  118.38   18.41
   7  -6  10  131.70   19.69
   7  -6  11   19.89    8.55
   7  -6 -11   28.94    9.24
   7  -6 -12  266.14   27.51
   7  -6  12  285.83   28.93
   7  -6  13   73.23   14.61
   7  -6 -13   94.02   15.95
   7  -6 -14   -1.27    4.42
   7  -6  14    1.29    4.76
   7  -6  15    7.59    6.15
   7   6  15   -1.11    3.77
   7  -6 -15   13.28    7.72
   7  -6  16   70.56   15.51
   7   6  16   92.49   16.71
   7  -6  17   21.33    9.07
   7   6  17    8.59    3.83
   7   6  18    0.32    1.47
   7  -6  18    6.09    7.21
   7   6  19   21.73    9.09
   7  -6  19   16.66    6.48
   7   6  20   48.38   14.14
   7  -6  20   51.12   14.11
   7   6  21   -2.35    4.51
   7  -6  21   -0.03    2.39
   7   6  22   20.09    6.38
  -7   6  22   17.71   10.23
   7  -6  22   18.33    8.69
   7   6  23   22.68   10.37
  -7   6  23   16.89    7.24
   7  -6  23   22.80    9.39
   7   6  24    2.28    5.89
   7  -6  24   -2.13    4.89
   7  -7   0    0.67    3.66
   7  -7   1   -0.37    1.70
   7  -7  -1    1.69    4.73
   7  -7   2   48.64   11.68
   7  -7  -2   50.36   11.77
   7  -7   3   99.57   15.96
   7  -7  -3   80.46   13.57
   7  -7   4    0.16    2.72
   7  -7  -4    1.71    5.22
   7  -7  -5   29.40    9.83
   7  -7   5   11.03    6.35
   7  -7  -6   -2.26    5.02
   7  -7   6   -1.33    4.00
   7  -7  -7    1.32    9.15
   7  -7   7   11.71    4.37
   7  -7   8    0.02    4.77
   7  -7  -8    3.55    2.76
   7  -7   9   55.46   12.72
   7  -7  -9   82.88   16.64
   7  -7 -10    5.35    3.08
   7  -7  10   10.91    5.30
   7  -7 -11   16.23    8.45
   7  -7  11    6.36    5.41
   7  -7  12    9.73    6.66
   7  -7 -12    8.05    4.67
   7  -7 -13  153.36   22.28
   7  -7  13  194.73   24.35
   7  -7  14   16.07    6.88
   7  -7 -14   20.41    8.29
   7  -7  15   -5.94    2.60
   7  -7 -15    0.26    4.71
   7  -7  16   23.12    9.10
   7  -7 -16   15.23    7.61
   7  -7  17   25.32   10.61
   7  -7 -17    5.75    4.80
   7  -7  18   -5.60    7.88
   7  -7  19   35.26   14.11
   7  -7  20   17.67   14.32
   7  -7  21   33.78   10.68
   7  -7  22   14.88    8.35
   7  -7  23   26.82   10.53
   7  -8   0   -4.27    6.25
   7  -8   1  310.07   29.53
   7  -8  -1  334.82   30.78
   7  -8   2   28.87   10.35
   7  -8  -2   39.40   10.82
   7  -8   3   31.20    8.62
   7  -8  -3   54.69   12.04
   7  -8  -4   17.80    5.74
   7  -8   4   18.23    8.25
   7  -8  -5   38.01   10.21
   7  -8   5   49.27   11.64
   7  -8  -6   -0.13    4.49
   7  -8   6   -2.01    4.48
   7  -8  -7   70.01   14.04
   7  -8   7   40.49   10.45
   7  -8  -8   -0.61    4.89
   7  -8   8   -2.73    3.33
   7  -8   9  217.14   25.54
   7  -8  -9  212.91   25.67
   7  -8  10    1.50    1.98
   7  -8 -10   13.59    8.19
   7  -8 -11    5.17    5.89
   7  -8  11    6.88    1.73
   7  -8 -12    5.82    6.08
   7  -8  12    5.31    5.39
   7  -8  13   34.91   10.90
   7  -8 -13   47.03   12.85
   7  -8  14   -0.24    3.54
   7  -8 -14    2.63    2.89
   7  -8  15   52.71   13.34
   7  -8 -15  113.85   19.23
   7  -8  16   -2.12    7.56
   7  -8 -16   -3.25    4.89
   7  -8 -17   51.67   13.17
   7  -8  17   56.46   12.63
   7  -8  18    3.05    4.42
   7  -8 -18   14.35    6.70
   7  -8  19   47.42   12.57
   7  -8 -19   62.10   15.82
   7  -8 -20   19.12    7.79
   7  -8  20    2.99    4.05
   7  -8  21   -1.19    1.46
   7  -8  22   51.10   12.86
   7  -9   0   -2.76    4.62
   7  -9   1   -3.69    3.60
   7  -9  -1   -0.11    1.12
   7  -9   2    8.58    5.89
   7  -9  -2   -2.15    5.11
   7  -9   3   -0.71    5.22
   7  -9  -3   -0.24    3.32
   7  -9  -4   10.60    4.34
   7  -9   4    2.48    4.20
   7  -9   5   95.94   17.10
   7  -9  -5   60.74   14.13
   7  -9  -6    1.37    3.55
   7  -9   6   16.93    8.72
   7  -9  -7   40.17   12.24
   7  -9   7   50.20   13.53
   7  -9  -8    8.40    3.88
   7  -9   8    9.71    6.45
   7  -9  -9   11.34    7.45
   7  -9   9   12.28    5.21
   7  -9  10   22.87    9.67
   7  -9 -10    9.37    3.93
   7  -9  11   63.91   14.64
   7  -9 -11   26.06    7.71
   7  -9 -12    1.13    2.48
   7  -9  12    0.07    1.72
   7  -9 -13   61.22   14.61
   7  -9  13   55.24   13.12
   7  -9  14   -3.51    4.58
   7  -9 -14    4.80    3.16
   7  -9  15    4.58    6.56
   7  -9 -15    2.36    7.45
   7  -9 -16    4.38    3.02
   7  -9  16    2.91    4.24
   7  -9 -17  136.49   23.16
   7  -9  17  100.55   19.34
   7  -9  18   -0.08    5.72
   7  -9 -18   -6.27    7.00
   7  -9  19   10.08    5.18
   7  -9 -19    9.12    4.69
   7  -9  20    2.34    2.34
   7  -9 -20    4.96    5.32
   7  -9  21    4.75    5.04
   7  -9 -21   20.98   10.45
   7 -10   0   -2.01    5.18
   7 -10   1    6.02    3.23
   7 -10  -1   -2.52    3.50
   7 -10   2   96.40   17.51
   7 -10  -2   64.54   13.49
   7 -10   3   16.42    7.62
   7 -10  -3   21.38    7.52
   7 -10  -4    5.54    4.66
   7 -10   4   -2.99    6.21
   7 -10   5    7.65    4.20
   7 -10  -5    1.80    4.81
   7 -10  -6   46.84   12.92
   7 -10   6   34.90   10.86
   7 -10  -7   52.34   11.77
   7 -10   7   36.61    9.55
   7 -10  -8   44.98   12.68
   7 -10   8   56.76   13.58
   7 -10  -9   31.68   10.34
   7 -10   9   29.88   10.67
   7 -10  10   70.95   15.41
   7 -10 -10   67.86   15.76
   7 -10  11   -2.71    1.36
   7 -10 -11   -5.04    5.70
   7 -10  12   59.25   15.56
   7 -10 -12   82.46   17.88
   7 -10  13    4.73    4.82
   7 -10 -13    3.92    5.77
   7 -10 -14   -2.84    2.35
   7 -10  14    5.44    2.11
   7 -10  15   17.80    8.48
   7 -10 -15   22.79   10.61
   7 -10 -16   62.00   15.41
   7 -10  16   91.13   18.61
   7 -10  17    6.22    7.37
   7 -10 -17   -1.26    3.67
   7 -10  18    4.05    5.23
   7 -10 -18    6.37    5.40
   7 -10  19    6.93    4.62
   7 -10 -19    1.94    7.52
   7 -11   0    2.24    6.04
   7 -11   1    2.23    3.14
   7 -11  -1    7.34    7.05
   7 -11   2    7.18    3.79
   7 -11  -2    1.75    2.67
   7 -11   3   14.19    7.53
   7 -11  -3    7.20    6.31
   7 -11  -4    4.49    4.01
   7 -11   4    4.16    2.18
   7 -11  -5   15.34    3.63
   7 -11   5   21.70    9.14
   7 -11   6    1.54    4.10
   7 -11  -6    5.24    3.57
   7 -11  -7   -1.79    4.32
   7 -11   7    3.00    3.85
   7 -11  -8    5.17    6.39
   7 -11   8    0.15    4.89
   7 -11  -9    2.09    4.08
   7 -11   9   -2.42    6.85
   7 -11 -10   -0.11    2.98
   7 -11  10   -6.06    5.28
   7 -11  11   10.49    7.49
   7 -11 -11   12.32    5.71
   7 -11  12    3.05    6.99
   7 -11 -12   -3.00    5.57
   7 -11  13   13.81    8.01
   7 -11 -13   12.24    7.42
   7 -11  14    2.78    2.02
   7 -11 -14   -3.72    5.77
   7 -11 -15    4.23    3.18
   7 -11  15    5.52    4.67
   7 -11 -16    7.05    6.31
   7 -11  16   14.28    7.99
   7 -11  17   13.68    5.97
   7 -11 -17    6.35    6.27
   7 -12   0    3.25    3.23
   7 -12   1   -3.88    3.85
   7 -12  -1   -0.31    2.78
   7 -12   2   27.51    7.68
   7 -12  -2   29.66    9.73
   7 -12   3   57.82   13.06
   7 -12  -3   23.15    8.27
   7 -12  -4   -2.45    3.40
   7 -12   4   -9.06    6.80
   7 -12  -5   -0.08    7.01
   7 -12   5    6.55    4.29
   7 -12   6   23.44   10.49
   7 -12  -6   17.43    6.52
   7 -12   7   -6.85    6.61
   7 -12  -7    5.75    5.22
   7 -12  -8   42.61   12.54
   7 -12   8   34.32   12.06
   7 -12  -9   65.66   15.73
   7 -12   9   70.92   15.32
   7 -12 -10    4.47    2.94
   7 -12  10   11.77    6.41
   7 -12 -11   13.84    8.35
   7 -12  11   -1.67    4.86
   7 -12  12   20.03    9.61
   7 -12 -12    7.50    3.18
   7 -12  13   68.80   17.27
   7 -12 -13   70.41   16.50
   7 -12  14   -5.45    3.58
   7 -12 -14    1.63    4.45
   7 -13   0   -1.11    6.20
   7 -13   1   29.21   10.31
   7 -13  -1   20.40    8.74
   7 -13   2    1.32    2.91
   7 -13  -2   -1.92    6.62
   7 -13  -3    3.74    6.75
   7 -13   3    2.11    3.18
   7 -13  -4    3.69    2.80
   7 -13   4   -1.96    4.00
   7 -13  -5   -1.25    3.18
   7 -13   5   -0.16    2.62
   7 -13   6    8.63    8.98
   7 -13  -6   -0.08    5.48
   7 -13   7   12.38    7.14
   7 -13  -7    4.23    5.95
   7 -13   8   -0.32    5.11
   7 -13  -8   -0.53    5.03
   7 -13  -9   17.31    8.38
   7 -13   9    8.66    4.03
   7 -13 -10   11.60    4.32
   7 -13  10   -1.55    2.54
   7 -14   0   -1.02    2.57
   7 -14   1   -8.27    5.40
   7 -14  -1   -3.68    3.88
   7 -14   2    4.90    6.77
   7 -14  -2    3.73    4.73
   8   0   3    2.79    3.96
   8   0   4   66.91   10.87
   8   0   5    0.61    1.60
   8   0   6   97.35   14.04
   8   0   7    4.09    4.50
   8   0   8   16.71    5.78
   8   0   9   -0.79    1.01
   8   0  10  450.35   32.55
   8   0  11   -1.01    1.53
   8   0  12    9.40    5.25
   8   0  13    5.56    4.03
   8   0  14  165.80   21.88
   8   0  15   -6.28    6.88
   8   0  16   23.94    9.45
   8   0  17   -4.51    5.64
   8   0  18   28.36   10.04
   8   0  19   -2.51    1.61
   8   0  20   14.49    6.67
   8   0  21   -3.68    4.89
   8   0  22   36.05    9.30
   8   0  23    3.20    4.13
   8   0  24   -7.07    8.32
   8   0  25   -3.75    4.32
   8  -1   0  363.81   24.09
   8  -1   1  308.59   22.53
   8  -1  -1  221.37   18.89
   8  -1   2    2.68    3.04
   8  -1  -2   -1.26    2.25
   8  -1   3   29.17    7.69
   8  -1   4  258.78   22.14
   8  -1   5    3.96    2.47
   8   1   6   94.14   13.18
   8  -1   6  125.00   16.21
   8   1   7   72.37   12.19
   8  -1   7   70.38   13.19
   8   1   8   58.13   11.64
   8  -1   8   85.16   13.92
   8   1   9   47.02   10.45
   8  -1   9   25.10    7.85
   8   1  10   43.83   10.43
   8  -1  10   30.67    8.53
   8   1  11   -0.04    1.33
   8  -1  11    9.02    6.87
   8   1  12  269.36   26.40
   8  -1  12  274.51   27.23
   8   1  13    7.94    5.60
   8  -1  13    2.76    1.11
   8   1  14   71.30   14.92
   8  -1  14   70.06   14.21
   8   1  15   93.74   16.34
   8  -1  15   92.87   16.69
   8   1  16   31.50   10.02
   8  -1  16   59.58   14.96
   8   1  17   45.01   12.65
   8  -1  17   41.75   12.71
   8   1  18  316.86   31.85
   8  -1  18  309.46   32.67
   8   1  19   -0.05    2.64
   8  -1  19    5.37    5.52
   8   1  20   -3.34    4.78
   8  -1  20    1.05    2.29
   8   1  21   66.88   14.55
   8  -1  21   33.13   11.80
   8   1  22   74.55   16.36
   8  -1  22   66.34   15.94
   8   1  23  -11.72    9.99
   8  -1  23   -6.33    7.37
   8   1  24   36.26   11.05
   8  -1  24   41.35   12.89
   8   1  25   40.20   11.33
   8  -1  25   31.31   10.73
   8  -2   0   65.47   10.54
   8  -2  -1   80.35   12.31
   8  -2   1  106.45   13.99
   8  -2   2   19.54    5.86
   8  -2  -2   14.76    5.80
   8  -2  -3  264.63   22.15
   8  -2   3  248.54   22.27
   8  -2  -4   11.36    5.29
   8  -2   4   10.49    4.14
   8  -2   5   19.91    6.89
   8  -2  -5   22.85    6.58
   8  -2  -6   60.78   10.76
   8  -2   6   80.05   12.82
   8  -2   7  422.51   31.10
   8  -2  -7  419.31   27.86
   8  -2   8    1.94    4.78
   8  -2   9    9.34    3.87
   8   2  10    3.94    3.98
   8  -2  10   -2.21    4.20
   8   2  11   96.26   15.08
   8  -2  11   81.48   14.23
   8   2  12   40.94   10.11
   8  -2  12   32.57    9.73
   8   2  13   35.31    9.69
   8  -2  13   20.71    7.92
   8   2  14   20.43    7.31
   8  -2  14   31.03    8.88
   8   2  15    4.35    1.25
   8  -2  15   10.20    2.31
   8   2  16    7.47    6.63
   8  -2  16    7.43    7.72
   8   2  17    7.16    6.26
   8  -2  17    4.83    5.45
   8   2  18    3.17    1.23
   8  -2  18   -7.51    6.96
   8   2  19   44.48   12.33
   8  -2  19   47.83   12.68
   8   2  20   23.05    8.60
   8  -2  20   20.17    8.89
   8   2  21  156.92   23.60
   8  -2  21   80.89   18.13
   8   2  22    3.21    2.72
   8  -2  22   -4.91    5.14
   8   2  23   -3.56    5.03
   8  -2  23   -5.89    6.25
   8   2  24    1.89    3.21
   8  -2  24   -0.40    6.87
   8   2  25    4.14    4.81
   8  -2  25   -2.87    4.24
   8  -3   0   35.49    7.63
   8  -3   1   51.61   10.42
   8  -3  -1   49.75    9.50
   8  -3  -2   20.48    6.58
   8  -3   2   20.14    6.37
   8  -3  -3  137.17   16.66
   8  -3   3  121.53   15.92
   8  -3  -4   77.03   12.71
   8  -3   4   97.80   15.18
   8  -3   5   34.70    9.65
   8  -3  -5   19.93    6.81
   8  -3  -6  251.02   23.15
   8  -3   6  256.16   24.42
   8  -3   7  115.20   16.37
   8  -3  -7  107.61   15.49
   8  -3   8  108.50   16.33
   8  -3  -8  121.00   16.56
   8  -3   9    3.84    5.31
   8  -3  -9   -1.66    1.21
   8  -3  10    7.25    4.45
   8  -3 -10    3.29    2.17
   8  -3 -11  105.63   16.10
   8  -3  11  122.86   17.92
   8  -3 -12   -3.51    4.94
   8  -3  12   -4.16    2.38
   8   3  13   16.47    6.28
   8  -3  13   14.99    8.36
   8   3  14   13.19    7.17
   8  -3  14   12.79    8.48
   8   3  15   37.90   10.11
   8  -3  15   35.08   10.97
   8   3  16   17.57    7.64
   8  -3  16   17.69    6.97
   8   3  17   82.01   15.27
   8  -3  17   69.27   13.67
   8   3  18    6.79    4.60
   8  -3  18   13.15    8.84
   8   3  19   82.43   16.05
   8  -3  19   84.25   16.14
   8   3  20    1.32    6.67
   8  -3  20   -8.65    9.16
   8   3  21   63.52   16.19
   8  -3  21   55.68   13.97
   8   3  22   19.00   10.28
   8  -3  22   14.48    6.03
   8   3  23    2.11    4.34
   8  -3  23   -1.87    5.30
   8   3  24    5.47    2.95
   8  -3  24   -6.03    6.71
   8   3  25   24.09    9.81
   8  -3  25   27.61   11.60
   8  -4   0   24.25    6.84
   8  -4  -1   40.10    8.43
   8  -4   1   43.57   10.38
   8  -4   2  155.40   18.74
   8  -4  -2  146.07   17.70
   8  -4  -3    0.91    3.00
   8  -4   3    5.34    4.44
   8  -4   4   41.35    9.35
   8  -4  -4   27.78    7.34
   8  -4  -5  199.20   21.23
   8  -4   5  171.48   20.72
   8  -4   6   76.54   14.37
   8  -4  -6   42.18   10.20
   8  -4  -7   52.55   11.32
   8  -4   7   65.70   12.82
   8  -4   8   92.97   16.12
   8  -4  -8  113.70   16.56
   8  -4   9   21.07    6.26
   8  -4  -9   25.34    8.51
   8  -4  10   22.04    8.17
   8  -4 -10   24.95    8.44
   8  -4 -11   19.97    7.43
   8  -4  11   15.67    7.09
   8  -4  12   15.86    5.07
   8  -4 -12    5.28    5.61
   8  -4  13    4.18    3.26
   8  -4 -13    1.39    3.37
   8  -4 -14   13.70    6.78
   8  -4  14   -0.63    4.21
   8  -4 -15   12.11    5.01
   8  -4  15   12.20    6.19
   8  -4  16    2.25    0.55
   8  -4  17   33.84   10.99
   8  -4  18   32.91   11.04
   8   4  19   16.75    8.12
   8  -4  19   27.73    9.38
   8   4  20   -1.24    1.79
   8  -4  20   -1.85    6.11
   8   4  21   -0.71    4.80
   8  -4  21    2.80    4.59
   8   4  22    9.98    5.88
   8  -4  22    1.16    3.12
   8   4  23   10.07    9.29
   8  -4  23    1.33    6.68
   8   4  24    7.99    8.22
   8  -4  24    6.93    4.27
   8  -5   0  998.94   49.27
   8  -5  -1   23.74    8.32
   8  -5   1   29.36    7.36
   8  -5  -2   14.17    6.03
   8  -5   2    9.54    0.67
   8  -5   3   91.59   14.94
   8  -5  -3   89.88   15.82
   8  -5  -4   69.72   13.10
   8  -5   4   77.55   14.86
   8  -5   5   47.21   11.64
   8  -5  -5   66.66   12.87
   8  -5  -6   98.45   15.56
   8  -5   6  119.20   17.76
   8  -5  -7   60.00   12.23
   8  -5   7   68.32   13.76
   8  -5  -8   42.89   11.05
   8  -5   8   51.10   12.05
   8  -5   9   32.78   10.33
   8  -5  -9   11.78    4.42
   8  -5  10   59.20   13.81
   8  -5 -10   64.50   13.57
   8  -5  11   19.88    7.63
   8  -5 -11   27.15    8.72
   8  -5  12    7.50    4.47
   8  -5 -12    0.56    2.91
   8  -5  13   17.42    7.37
   8  -5 -13   21.07    8.31
   8  -5  14   53.76   13.40
   8  -5 -14   40.14   11.32
   8  -5 -15    1.94    2.67
   8  -5  15    5.22    7.03
   8  -5 -16   -1.50    2.97
   8  -5  16   -1.53    2.11
   8  -5 -17    4.52    4.87
   8  -5  17   10.92    6.34
   8  -5 -18   63.23   13.71
   8  -5  18   58.44   13.92
   8  -5  19    0.27    6.86
   8  -5  20   23.03   11.29
   8  -5  21    1.43    1.98
   8  -5  22   32.99    9.28
   8  -5  23    6.27    6.92
   8  -6   0   -2.71    1.37
   8  -6  -1    3.37    1.65
   8  -6   1    8.81    6.69
   8  -6   2  366.14   32.44
   8  -6  -2  407.07   32.42
   8  -6   3  129.60   19.37
   8  -6  -3  142.05   19.08
   8  -6  -4    0.52    2.51
   8  -6   4    3.67    5.47
   8  -6   5    4.44    4.12
   8  -6  -5    4.42    4.52
   8  -6   6   -0.04    3.18
   8  -6  -6    3.69    5.28
   8  -6  -7    3.41    4.38
   8  -6   7    9.27    4.13
   8  -6  -8   -1.41    1.83
   8  -6   8    5.14    2.36
   8  -6   9   -2.14    4.52
   8  -6  -9    4.36    3.50
   8  -6  10   15.69    4.64
   8  -6 -10   10.00    5.52
   8  -6  11    8.46    4.47
   8  -6 -11   24.36    9.17
   8  -6 -12   33.79   10.25
   8  -6  12   30.58   11.04
   8  -6  13   -0.46    3.63
   8  -6 -13    0.53    4.12
   8  -6  14   23.17    6.97
   8  -6 -14   25.02    9.99
   8  -6  15    2.45    0.28
   8  -6 -15    1.01    4.40
   8  -6  16   -3.20    4.71
   8  -6 -16   11.50    7.99
   8  -6 -17   12.36    5.06
   8  -6  17   15.71    8.41
   8  -6 -18   29.54    8.90
   8  -6  18   27.72   10.83
   8  -6  19   -5.87    7.00
   8  -6 -19    6.67    7.42
   8  -6 -20   -1.60    5.00
   8  -6  20   -1.90    4.33
   8  -6  21   18.55    6.83
   8  -6  22    5.35    2.46
   8  -7   0    2.24    3.90
   8  -7   1  198.79   23.35
   8  -7  -1  186.20   21.96
   8  -7  -2    3.08    2.57
   8  -7   2    4.45    4.01
   8  -7   3  273.60   27.83
   8  -7  -3  298.04   28.86
   8  -7  -4   19.89    8.40
   8  -7   4   37.27   11.09
   8  -7   5   11.85    5.53
   8  -7  -5    0.56    3.59
   8  -7   6    7.15    7.66
   8  -7  -6    3.28    3.64
   8  -7  -7   68.12   14.26
   8  -7   7  115.48   18.46
   8  -7   8   42.47   10.96
   8  -7  -8   72.40   15.60
   8  -7  -9   11.56    4.99
   8  -7   9   22.82    8.44
   8  -7  10   71.53   14.90
   8  -7 -10   67.76   15.09
   8  -7  11  133.07   20.40
   8  -7 -11  191.91   24.20
   8  -7  12    4.56    5.78
   8  -7 -12   -3.82    4.40
   8  -7 -13   22.31    7.39
   8  -7  13   33.96   10.95
   8  -7  14    6.10    7.11
   8  -7 -14   16.75    8.20
   8  -7  15   23.11    8.95
   8  -7 -15   16.35    9.20
   8  -7  16    3.56    5.22
   8  -7 -16   -2.86    3.58
   8  -7  17   34.80   10.31
   8  -7 -17   31.22   10.10
   8  -7 -18   -2.93    3.25
   8  -7  18    0.82    4.14
   8  -7 -19   29.23    8.84
   8  -7  19   43.24   13.35
   8  -7 -20   11.75    9.23
   8  -7  20    4.85    6.10
   8  -7 -21   22.51    8.29
   8  -7  21   25.97   11.60
   8  -8   0  128.33   19.82
   8  -8   1   37.97   12.05
   8  -8  -1   30.39    7.53
   8  -8  -2    5.46    4.41
   8  -8   2   17.23   10.50
   8  -8  -3   22.84    8.49
   8  -8   3   14.64    6.95
   8  -8  -4   -1.11    5.01
   8  -8   4    4.71    3.48
   8  -8   5   49.15   12.63
   8  -8  -5   26.05    9.20
   8  -8   6   32.69    9.10
   8  -8  -6   32.77   10.95
   8  -8  -7   46.36   11.88
   8  -8   7   48.66   12.70
   8  -8  -8    0.63    2.94
   8  -8   8   -2.99    2.29
   8  -8  -9   -2.23    2.55
   8  -8   9   -1.67    4.15
   8  -8  10    5.14    4.26
   8  -8 -10   -1.49    4.23
   8  -8 -11   51.95   13.42
   8  -8  11   86.35   18.12
   8  -8  12   11.59    6.86
   8  -8 -12   16.72    7.52
   8  -8  13   12.42    6.80
   8  -8 -13    8.16    7.42
   8  -8 -14    4.78    6.10
   8  -8  14    3.96    1.14
   8  -8  15   72.33   16.74
   8  -8 -15   78.56   17.06
   8  -8  16    5.29    6.11
   8  -8 -16    6.22    5.21
   8  -8  17   43.34   13.11
   8  -8 -17   65.29   14.41
   8  -8  18    0.36    1.29
   8  -8 -18   -2.64    1.16
   8  -8 -19   17.97    8.39
   8  -8  19   35.89   11.63
   8  -8 -20   -2.74    9.34
   8  -8  20    9.62    8.36
   8  -9   0   92.94   17.25
   8  -9   1   40.21   12.62
   8  -9  -1   54.87   12.58
   8  -9  -2   21.63    7.45
   8  -9   2    7.76    4.15
   8  -9  -3   42.08   11.41
   8  -9   3   33.01   10.97
   8  -9  -4    5.63    5.15
   8  -9   4    4.64    4.85
   8  -9  -5   23.37    8.65
   8  -9   5   20.37    9.01
   8  -9   6   12.70    6.61
   8  -9  -6    9.26    5.06
   8  -9  -7  187.57   25.26
   8  -9   7  175.13   24.36
   8  -9  -8   57.39   14.47
   8  -9   8   67.43   14.16
   8  -9  -9    3.61    4.04
   8  -9   9   -1.32    5.54
   8  -9 -10   10.20    6.54
   8  -9  10   12.98    5.76
   8  -9  11   31.18    9.92
   8  -9 -11   48.01   12.13
   8  -9  12   25.77   10.32
   8  -9 -12   29.10   11.64
   8  -9  13   22.79    8.58
   8  -9 -13   14.89    7.06
   8  -9  14   26.98   11.11
   8  -9 -14   23.31   10.68
   8  -9 -15   11.24    8.15
   8  -9  15   15.29    9.24
   8  -9  16    0.22    3.64
   8  -9 -16    4.39    5.19
   8  -9  17    6.09    4.50
   8  -9 -17   22.49   11.32
   8  -9  18   51.18   13.74
   8  -9 -18   91.21   18.66
   8 -10   0    4.67    4.66
   8 -10   1    6.31    5.07
   8 -10  -1   19.31    7.36
   8 -10   2   18.28    8.65
   8 -10  -2    3.10    6.37
   8 -10  -3    3.01    1.89
   8 -10   3    1.39    4.02
   8 -10  -4   69.05   15.10
   8 -10   4   47.94   12.64
   8 -10  -5   -2.10    2.79
   8 -10   5   -0.68    5.09
   8 -10   6   -0.63    3.54
   8 -10  -6   -1.95    1.92
   8 -10   7   -2.81    5.13
   8 -10  -7   23.82   10.46
   8 -10   8    4.95    2.68
   8 -10  -8   -3.04    8.61
   8 -10  -9   11.20    9.73
   8 -10   9   34.46   11.67
   8 -10 -10    3.84    1.76
   8 -10  10   -2.11    6.95
   8 -10 -11    4.20    7.25
   8 -10  11   -1.58    1.36
   8 -10  12   14.43    8.48
   8 -10 -12    9.99    2.14
   8 -10  13   10.56   10.32
   8 -10 -13   11.04    7.89
   8 -10  14   42.31   12.27
   8 -10 -14   60.15   16.00
   8 -10  15   -2.80    5.52
   8 -10 -15    0.21    3.70
   8 -10  16    6.69    7.57
   8 -10 -16   -1.68    1.95
   8 -11   0   48.75   14.65
   8 -11   1    2.44    1.88
   8 -11  -1    1.34    5.08
   8 -11   2   13.53    8.38
   8 -11  -2    1.18    2.72
   8 -11  -3    2.68    2.65
   8 -11   3    2.10    2.66
   8 -11   4  104.02   18.81
   8 -11  -4  152.08   23.12
   8 -11  -5   10.42    7.43
   8 -11   5    1.65    1.99
   8 -11   6    0.76    1.52
   8 -11  -6   -1.77    5.99
   8 -11   7    4.59    4.35
   8 -11  -7   17.12    9.59
   8 -11   8    6.61    1.82
   8 -11  -8   12.56    6.77
   8 -11  -9   17.17    6.62
   8 -11   9   16.52   10.19
   8 -11 -10   61.42   15.83
   8 -11  10   71.30   15.76
   8 -11 -11    5.20    6.20
   8 -11  11   -1.66    2.52
   8 -11 -12   10.46    5.46
   8 -11  12   20.39   10.10
   8 -11  13  -10.21   10.57
   8 -11 -13   -2.97    3.28
   8 -11  14   24.08    6.50
   8 -11 -14   21.46    8.89
   8 -12   0   18.47    8.63
   8 -12   1   24.36    7.06
   8 -12  -1   31.65    8.77
   8 -12  -2    3.77    5.84
   8 -12   2    1.13    6.15
   8 -12  -3    1.19    1.86
   8 -12   3    0.19    3.81
   8 -12  -4   15.83    8.51
   8 -12   4    1.65    5.98
   8 -12  -5    4.31    6.41
   8 -12   5    4.27    4.91
   8 -12  -6   16.69   10.60
   8 -12   6    5.56    2.85
   8 -12   7    5.60    1.96
   8 -12  -7    2.13    5.22
   8 -12   8    7.23    7.05
   8 -12  -8   -6.37    7.02
   8 -12   9    1.05    2.44
   8 -12  -9   -1.45    2.13
   8 -12  10    8.78    5.79
   8 -12 -10   10.92    7.02
   8 -13   0    9.92    9.04
   8 -13   1   -4.78    5.79
   8 -13  -1  -10.04    3.01
   8 -13  -2    0.46    4.15
   8 -13   2   -7.97    8.63
   8 -13  -3    3.53    6.70
   8 -13   3    2.18    6.68
   9   0  12   -2.69    3.13
   9   0  13   -0.42    2.76
   9   0  14   22.95    9.50
   9   0  15    8.20    7.83
   9   0  16   10.39    6.53
   9   0  17   -0.67    2.96
   9   0  18   58.49   14.24
   9   0  19    1.24    5.00
   9   0  20   20.97    4.97
   9   0  21  -14.43   10.07
   9   0  22    0.88    5.65
   9   0  23   -0.85    2.30
   9  -1   8  259.95   25.35
   9  -1   9  109.24   17.51
   9  -1  10  146.66   20.05
   9  -1  11    2.68    3.68
   9  -1  12  110.48   19.51
   9  -1  13   42.08   11.40
   9  -1  14    1.16    6.58
   9  -1  15    1.72    3.04
   9  -1  16   67.57   15.15
   9  -1  17   22.40    6.55
   9   1  18    7.63    1.08
   9  -1  18   12.16    8.43
   9   1  19    0.58    2.96
   9  -1  19   -0.14    7.39
   9   1  20   37.93   12.52
   9  -1  20   40.91   11.97
   9   1  21   -0.44    1.04
   9  -1  21   -1.37    4.66
   9   1  22    1.86    1.92
   9  -1  22    7.11    6.99
   9   1  23   19.85    6.39
   9  -1  23    1.32    6.15
   9  -2   4   -0.33    2.81
   9  -2   5   48.90   10.71
   9  -2   6    6.35    5.15
   9  -2   7   45.06   10.88
   9  -2   8    1.42    3.62
   9  -2   9   17.84    9.63
   9  -2  10    7.38    4.24
   9  -2  11    1.36    4.13
   9  -2  12    0.27    2.96
   9  -2  13   -4.54    2.23
   9  -2  14   16.92    6.48
   9  -2  15   66.28   14.31
   9  -2  16    1.19    4.06
   9  -2  17   70.82   16.88
   9  -2  18    6.80    4.93
   9  -2  19   15.59    7.46
   9  -2  20   -4.79    4.93
   9  -2  21   -2.07    5.51
   9  -2  22    2.83    2.43
   9  -2  23    1.53    3.75
   9  -3   0    0.80    0.33
   9  -3   1  181.50   20.35
   9  -3   2   -3.23    5.09
   9  -3   3   60.92   11.92
   9  -3   4    6.06    6.11
   9  -3   5  169.29   20.71
   9  -3   6    4.53    3.37
   9  -3   7    6.95    5.26
   9  -3   8   10.82    3.58
   9  -3   9  246.51   26.71
   9  -3  10   36.44   10.63
   9  -3  11   -1.54    2.98
   9  -3  12    0.35    2.19
   9  -3  13    9.05    1.30
   9  -3  14    2.40    2.27
   9  -3  15   98.56   18.84
   9  -3  16    6.14    6.06
   9  -3  17   -2.06    5.17
   9  -3  18    3.13    4.63
   9  -3  19   97.58   20.11
   9  -3  20   48.76   14.91
   9  -3  21   10.88    7.42
   9  -3  22   26.67   11.07
   9  -4   0    2.37    3.57
   9  -4   1    4.01    4.29
   9  -4  -1    6.61    4.25
   9  -4   2   16.13    7.02
   9  -4  -2   23.57    8.03
   9  -4  -3    1.19    2.35
   9  -4   3    6.81    3.62
   9  -4  -4   -2.75    3.57
   9  -4   4    0.81    0.32
   9  -4   5   17.50    7.48
   9  -4  -5   23.19    7.36
   9  -4   6   18.55    7.34
   9  -4   7    6.31    2.96
   9  -4   8   73.71   15.24
   9  -4   9    6.71    2.74
   9  -4  10    3.31    5.04
   9  -4  11    8.51    6.52
   9  -4  12    3.53    6.73
   9  -4  13   -4.52    6.67
   9  -4  14   10.09    6.97
   9  -4  15   -2.73    3.07
   9  -4  16   -2.81    5.71
   9  -4  17    4.91    4.37
   9  -4  18   -1.86    5.75
   9  -4  19    3.35    3.96
   9  -4  20    5.56    3.58
   9  -4  21   -7.28    7.82
   9  -4  22    8.93    4.60
   9  -5   0    4.48    3.94
   9  -5   1    1.06    2.90
   9  -5  -1   -1.17    3.99
   9  -5  -2  115.11   17.32
   9  -5   2   96.95   15.84
   9  -5  -3   22.96   10.22
   9  -5   3    9.72    3.56
   9  -5  -4   -3.24    4.83
   9  -5   4   -4.05    5.52
   9  -5   5   -0.08    4.73
   9  -5  -5    2.81    5.24
   9  -5   6   51.02   12.82
   9  -5  -6   29.98    8.39
   9  -5   7    7.82    8.83
   9  -5  -7    9.07    4.51
   9  -5  -8  104.54   17.56
   9  -5   8  108.61   18.78
   9  -5   9   10.71    7.69
   9  -5  10   70.93   13.99
   9  -5  11   21.13    8.67
   9  -5  12   75.92   16.20
   9  -5  13   19.49    8.34
   9  -5  14   51.72   13.98
   9  -5  15   19.72    9.27
   9  -5  16  153.39   24.25
   9  -5  17    2.53    5.96
   9  -5  18   -2.05    4.08
   9  -5  19   11.14    7.97
   9  -5  20   19.69    8.88
   9  -5  21   28.61   13.63
   9  -6   0    7.78    6.19
   9  -6  -1    6.42    2.39
   9  -6   1   10.98    6.00
   9  -6  -2    7.09    4.50
   9  -6   2    6.68    5.58
   9  -6  -3   20.16    8.00
   9  -6   3   21.89    8.10
   9  -6  -4    6.17    6.62
   9  -6   4   12.53    7.37
   9  -6  -5    7.28    6.61
   9  -6   5   -5.83    9.08
   9  -6   6    4.62    5.85
   9  -6  -6   -1.82    1.20
   9  -6   7    1.05    5.07
   9  -6  -7    2.17    3.93
   9  -6   8   20.07    9.09
   9  -6  -8   16.11    7.99
   9  -6   9   10.62    5.34
   9  -6  -9    3.20    2.61
   9  -6 -10    7.99    5.83
   9  -6  10    2.65    4.27
   9  -6  11    2.31    6.05
   9  -6 -11   -0.40    4.13
   9  -6  12   -2.01    3.18
   9  -6 -12    3.28    6.90
   9  -6  13    9.65    2.33
   9  -6  14    5.21    5.07
   9  -6  15   -1.41    2.61
   9  -6  16    9.56    7.26
   9  -6  17   31.01   11.35
   9  -6  18   44.08   14.47
   9  -6  19   -0.67    5.08
   9  -6  20   10.74    9.46
   9  -7   0    0.27    4.39
   9  -7  -1   31.78   10.87
   9  -7   1   23.73    9.31
   9  -7  -2   25.07   10.46
   9  -7   2   41.23   12.72
   9  -7   3  118.44   18.33
   9  -7  -3  123.35   19.03
   9  -7  -4    0.81    2.54
   9  -7   4   -6.18    7.09
   9  -7  -5   73.68   14.23
   9  -7   5   91.46   17.38
   9  -7   6   20.30   10.36
   9  -7  -6   30.73   11.04
   9  -7   7    6.42    5.35
   9  -7  -7    1.66    3.56
   9  -7   8    5.83    6.78
   9  -7  -8   14.49    8.58
   9  -7   9  101.45   17.74
   9  -7  -9   82.97   16.76
   9  -7 -10   41.89   11.81
   9  -7  10   20.67   10.54
   9  -7  11    0.51    4.86
   9  -7 -11   -4.14    7.00
   9  -7  12   23.51    9.31
   9  -7 -12   26.98    8.09
   9  -7  13  122.40   21.66
   9  -7 -13  134.38   22.16
   9  -7  14    9.55    8.23
   9  -7 -14    2.02    4.13
   9  -7  15    7.85    3.62
   9  -7  16   69.88   16.55
   9  -7  17   66.08   16.19
   9  -7  18   -1.54    4.05
   9  -7  19   -1.41    2.26
   9  -8   0   -9.26    6.11
   9  -8  -1   10.58    4.35
   9  -8   1    3.82    2.98
   9  -8  -2    3.82    2.28
   9  -8   2    6.63    7.88
   9  -8  -3   18.85    8.41
   9  -8   3   10.38    4.09
   9  -8  -4    4.40    5.62
   9  -8   4    5.34    5.56
   9  -8  -5   20.95    6.80
   9  -8   5   45.00   12.46
   9  -8   6    6.85    5.11
   9  -8  -6   10.99    4.41
   9  -8   7   10.98    7.03
   9  -8  -7    6.41    4.10
   9  -8   8    0.61    4.14
   9  -8  -8    0.05    3.35
   9  -8   9    6.85    5.85
   9  -8  -9   12.74    8.10
   9  -8 -10   -4.67    5.86
   9  -8  10   -2.91    5.57
   9  -8 -11    2.39    5.20
   9  -8  11    4.45    1.56
   9  -8  12    0.56    3.72
   9  -8 -12   -3.59    3.49
   9  -8  13   -4.85    5.96
   9  -8 -13    3.54    4.74
   9  -8  14    9.99    5.05
   9  -8 -14    6.70    4.53
   9  -8  15   13.91    5.59
   9  -8 -15    8.33    9.67
   9  -8  16   12.67    9.13
   9  -8 -16   13.43    8.65
   9  -8  17   13.86    0.32
   9  -9   0   -3.81    4.43
   9  -9  -1   43.22   11.43
   9  -9   1   46.46   12.26
   9  -9  -2   16.33    9.71
   9  -9   2   22.06   10.56
   9  -9  -3    7.46    3.37
   9  -9   3   12.53    3.82
   9  -9  -4    0.36    3.29
   9  -9   4    2.24    4.59
   9  -9  -5   -1.83    2.53
   9  -9   5   -1.71    1.16
   9  -9  -6  127.71   20.99
   9  -9   6   89.64   18.12
   9  -9   7   27.91    9.99
   9  -9  -7   14.36    6.76
   9  -9   8   34.70   11.39
   9  -9  -8   -2.98    6.03
   9  -9   9   71.18   15.62
   9  -9  -9   75.87   16.15
   9  -9  10   -1.36    2.62
   9  -9 -10   -5.24    9.00
   9  -9 -11    3.66    5.32
   9  -9  11   15.37    9.25
   9  -9 -12   17.30    8.43
   9  -9  12   16.60    7.06
   9  -9  13   78.30   17.35
   9  -9 -13   46.59   12.79
   9  -9  14    5.75    9.20
   9  -9 -14    4.34    9.23
   9  -9  15   17.70    9.15
   9  -9 -15   41.84   15.19
   9 -10   0    1.13    4.05
   9 -10  -1    0.66    5.89
   9 -10   1    3.40    4.41
   9 -10  -2    5.07    5.33
   9 -10   2    0.81    6.81
   9 -10  -3    5.30    2.94
   9 -10   3    8.48    5.66
   9 -10  -4   19.06    8.29
   9 -10   4   20.73    9.31
   9 -10  -5   16.68    8.40
   9 -10   5    7.52    6.34
   9 -10  -6    2.84    1.83
   9 -10   6   12.63    7.67
   9 -10   7    3.59    1.84
   9 -10  -7    3.12    2.69
   9 -10   8   10.85    7.80
   9 -10  -8    5.27    3.79
   9 -10   9   28.27   10.03
   9 -10  -9   20.20    8.50
   9 -10  10   -0.17    4.04
   9 -10 -10    4.78   10.21
   9 -10 -11    5.88    7.40
   9 -10  11    1.42    6.52
   9 -10 -12    8.20    9.01
   9 -10  12   11.28    9.33
   9 -10 -13    1.23    0.48
   9 -10  13   -1.42    6.55
   9 -11   0    1.28    3.59
   9 -11  -1    1.34    6.32
   9 -11   1   -1.24    2.61
   9 -11  -2   50.80   14.10
   9 -11   2   47.45   13.97
   9 -11  -3   11.35    5.45
   9 -11   3   18.97    8.33
   9 -11  -4   -2.80    4.30
   9 -11   4   -2.17    5.81
   9 -11  -5   11.19    7.41
   9 -11   5    8.93    8.80
   9 -11  -6    2.92    3.24
   9 -11   6    6.90    5.40
   9 -11   7    0.97    2.15
   9 -11  -7   -1.36    3.18
   9 -11   8    6.18    3.07
   9 -11  -8   20.94    7.58
   9 -11   9    4.70    3.63
   9 -11  -9   14.60    7.13
   9 -12   0    9.95    8.43
   9 -12  -1   -1.17    2.75
   9 -12   1   -3.56    6.46
   9 -12  -2    1.07    3.13
   9 -12   2   -3.47    4.64
  10  -3  13   51.23   10.95
  10  -3  14    1.22    3.51
  10  -3  15   26.61   12.19
  10  -3  16   -5.98    5.22
  10  -3  17   15.68   10.11
  10  -3  18   -0.35    3.68
  10  -3  19   74.15   15.49
  10  -3  20   12.07    4.96
  10  -4   8    1.48    2.03
  10  -4   9    2.43    1.03
  10  -4  10    1.19    4.46
  10  -4  11   -0.87    4.85
  10  -4  12    3.39    3.92
  10  -4  13   39.26   12.45
  10  -4  14   -1.29    1.94
  10  -4  15   -2.53    4.16
  10  -4  16    6.35    5.80
  10  -4  17   22.75   11.74
  10  -4  18    0.60    5.58
  10  -4  19   15.85    9.47
  10  -5   3   20.67    7.86
  10  -5   4   77.62   15.89
  10  -5   5   -1.34    1.95
  10  -5   6   10.33    5.30
  10  -5   7    1.26    2.87
  10  -5   8   36.90    9.94
  10  -5   9   34.88   11.08
  10  -5  10  101.05   18.70
  10  -5  11    6.70    4.28
  10  -5  12    2.47    2.59
  10  -5  13    0.80    1.94
  10  -5  14   -1.26    9.14
  10  -5  15   -0.31    3.16
  10  -5  16    8.85    6.79
  10  -5  17   15.40    6.19
  10  -5  18   13.68    9.89
  10  -6   0   75.43   15.59
  10  -6   1   -8.01    7.02
  10  -6   2    3.06    1.76
  10  -6   3   10.77    5.30
  10  -6   4   63.05   15.25
  10  -6   5    0.12    3.13
  10  -6   6   17.35    8.75
  10  -6   7   -0.66    4.71
  10  -6   8   22.52   10.26
  10  -6   9   10.88    7.52
  10  -6  10   74.73   16.58
  10  -6  11   -2.56    3.67
  10  -6  12   -2.99    1.85
  10  -6  13   -2.02    2.32
  10  -6  14    3.55    3.58
  10  -6  15    3.94    9.85
  10  -6  16   24.82    8.53
  10  -6  17    4.01    2.29
  10  -7   0   22.15    9.00
  10  -7   1   86.50   16.39
  10  -7  -1   86.72   17.74
  10  -7   2   12.47    3.66
  10  -7  -2   26.92    9.99
  10  -7  -3   34.18   10.90
  10  -7   3   33.09   10.31
  10  -7  -4    1.21    2.89
  10  -7   4   10.97    5.41
  10  -7   5    2.90    2.43
  10  -7   6   14.50    8.86
  10  -7   7   17.87    8.74
  10  -7   8   -0.48    0.91
  10  -7   9    6.40    3.60
  10  -7  10    1.93    5.57
  10  -7  11   94.22   17.90
  10  -7  12   -0.34    2.12
  10  -7  13   17.63    9.22
  10  -7  14    1.92    2.77
  10  -7  15   37.63   12.00
  10  -8   0   16.93    5.88
  10  -8   1   -1.55    3.57
  10  -8  -1   -1.16    3.34
  10  -8  -2   -1.42    4.73
  10  -8   2   18.79    8.63
  10  -8  -3   -1.81    4.59
  10  -8   3    1.82    5.26
  10  -8  -4    4.74    5.83
  10  -8   4    5.61    8.34
  10  -8  -5    5.25    2.50
  10  -8   5    2.34    0.95
  10  -8  -6   16.22    9.48
  10  -8   6   11.37    5.85
  10  -8   7   43.23   13.20
  10  -8  -7   61.71   14.53
  10  -8   8   10.98    7.14
  10  -8   9    1.33    4.57
  10  -8  10   -2.48    7.31
  10  -8  11   55.29   17.05
  10  -8  12    3.40    4.33
  10  -8  13   25.23   12.30
  10  -9   0   81.53   18.01
  10  -9   1    8.85    6.11
  10  -9  -1    3.21    4.04
  10  -9  -2   15.82    7.18
  10  -9   2    5.37    2.58
  10  -9  -3   38.27   14.01
  10  -9   3   18.68    8.78
  10  -9  -4   40.66   11.36
  10  -9   4   52.72   12.81
  10  -9  -5   27.86   11.61
  10  -9   5   24.60    8.56
  10  -9  -6   -3.36    5.61
  10  -9   6   -5.35    2.26
  10  -9   7   68.97   15.23
  10  -9  -7   51.15   12.99
  10  -9   8   12.98    6.34
  10  -9  -8    3.88    5.72
  10  -9   9   -0.78    1.85
  10  -9  -9    1.82    6.62
  10  -9  10   11.88    7.38
  10  -9  11   11.60    8.82
  10 -10   0    6.43    5.79
  10 -10   1    1.90    3.41
  10 -10  -1    5.15    4.87
  10 -10  -2    5.80    4.39
  10 -10   2   -1.87    4.20
  10 -10  -3    3.61    1.02
  10 -10   3    0.40    5.11
  10 -10  -4   14.90    9.91
  10 -10   4    6.67    7.22
  10 -10  -5   -0.59    7.58
  10 -10   5   -0.71    5.41
  10 -10  -6   -2.76    4.61
  10 -10   6   -3.74    8.18
  10 -10  -7   11.19    6.18
  10 -10   7    3.27    5.81
  11  -8   7   -4.50    5.90
   0   0   0    0.00    0.00

TITL 035_250K_SulfamerazineF2_ in Pbca
REM Pbca (#61 in standard setting)
CELL 0.68890   9.128025  11.657877  22.875906  90.0000  90.0000  90.0000
ZERR    8.00   0.000313   0.000306   0.000505   0.0000   0.0000   0.0000
LATT  1
SYMM -x+1/2,-y, z+1/2
SYMM -x, y+1/2,-z+1/2
SYMM  x+1/2,-y+1/2,-z
SFAC C H N O S
UNIT 88.00 96.00 32.00 16.00 8.00
TREF
HKLF 4
END
_computing_structure_solution     'SHELXT 2014/5 (Sheldrick, 2014)'
;
_shelx_hkl_checksum              28444
loop_
_space_group_symop_operation_xyz
'x, y, z'
'-x+1/2, -y, z+1/2'
'-x, y+1/2, -z+1/2'
'x+1/2, -y+1/2, -z'
'-x, -y, -z'
'x-1/2, y, -z-1/2'
'x, -y-1/2, z-1/2'
'-x-1/2, y-1/2, z'
loop_
_atom_site_label
_atom_site_type_symbol
_atom_site_fract_x
_atom_site_fract_y
_atom_site_fract_z
_atom_site_U_iso_or_equiv
_atom_site_adp_type
_atom_site_occupancy
_atom_site_site_symmetry_order
_atom_site_calc_flag
_atom_site_refinement_flags_posn
_atom_site_refinement_flags_adp
_atom_site_refinement_flags_occupancy
_atom_site_disorder_assembly
_atom_site_disorder_group
S1 S 0.33257(7) 0.34646(5) 0.38980(2) 0.03388(17) Uani 1 1 d . . . . .
O2 O 0.19797(19) 0.39692(16) 0.40954(7) 0.0417(4) Uani 1 1 d . . . . .
O1 O 0.3423(2) 0.22432(14) 0.38624(8) 0.0453(5) Uani 1 1 d . . . . .
N4 N 0.6668(2) 0.42642(18) 0.48538(9) 0.0374(5) Uani 1 1 d . . . . .
N3 N 0.6556(2) 0.28588(17) 0.40901(9) 0.0382(5) Uani 1 1 d . . . . .
N2 N 0.4513(2) 0.39468(18) 0.43753(9) 0.0367(5) Uani 1 1 d . . . . .
N1 N 0.4560(3) 0.5330(3) 0.15514(11) 0.0531(7) Uani 1 1 d . . . . .
C1 C 0.3762(3) 0.4045(2) 0.32173(10) 0.0345(5) Uani 1 1 d . . . . .
C2 C 0.4486(3) 0.3381(2) 0.28054(11) 0.0454(7) Uani 1 1 d . . . . .
H2 H 0.4775 0.2638 0.2897 0.059 Uiso 1 1 calc R U . . .
C3 C 0.4775(3) 0.3827(2) 0.22586(11) 0.0477(7) Uani 1 1 d . . . . .
H3 H 0.5273 0.3382 0.1986 0.062 Uiso 1 1 calc R U . . .
C4 C 0.4331(3) 0.4934(2) 0.21081(11) 0.0401(6) Uani 1 1 d . . . . .
C5 C 0.3595(3) 0.5586(2) 0.25292(11) 0.0425(6) Uani 1 1 d . . . . .
H5 H 0.3278 0.6322 0.2436 0.055 Uiso 1 1 calc R U . . .
C6 C 0.3334(3) 0.5153(2) 0.30797(11) 0.0382(6) Uani 1 1 d . . . . .
H6 H 0.2871 0.5605 0.3359 0.050 Uiso 1 1 calc R U . . .
C7 C 0.5977(3) 0.36625(19) 0.44344(10) 0.0338(5) Uani 1 1 d . . . . .
C8 C 0.8082(3) 0.4013(2) 0.49279(11) 0.0435(6) Uani 1 1 d . . . . .
H8 H 0.8610 0.4407 0.5212 0.057 Uiso 1 1 calc R U . . .
C9 C 0.8781(3) 0.3199(2) 0.46023(11) 0.0456(6) Uani 1 1 d . . . . .
H9 H 0.9766 0.3035 0.4663 0.059 Uiso 1 1 calc R U . . .
C10 C 0.7988(3) 0.2625(2) 0.41809(11) 0.0412(6) Uani 1 1 d . . . . .
C11 C 0.8663(4) 0.1697(3) 0.38180(14) 0.0581(8) Uani 1 1 d . . . . .
H11A H 0.8211 0.0976 0.3911 0.076 Uiso 1 1 calc R U . . .
H11B H 0.9693 0.1655 0.3899 0.076 Uiso 1 1 calc R U . . .
H11C H 0.8516 0.1865 0.3411 0.076 Uiso 1 1 calc R U . . .
H1N2 H 0.418(3) 0.446(3) 0.4583(13) 0.052(9) Uiso 1 1 d . . . . .
H1N1 H 0.514(3) 0.494(3) 0.1342(14) 0.056(9) Uiso 1 1 d . . . . .
H2N1 H 0.452(4) 0.606(3) 0.1477(15) 0.076(11) Uiso 1 1 d . . . . .
loop_
_atom_site_aniso_label
_atom_site_aniso_U_11
_atom_site_aniso_U_22
_atom_site_aniso_U_33
_atom_site_aniso_U_23
_atom_site_aniso_U_13
_atom_site_aniso_U_12
S1 0.0361(4) 0.0349(3) 0.0307(3) -0.0028(2) -0.0003(2) -0.0038(2)
O2 0.0316(10) 0.0562(11) 0.0374(9) -0.0010(8) -0.0003(7) -0.0023(8)
O1 0.0608(14) 0.0336(9) 0.0414(9) -0.0012(7) -0.0010(8) -0.0095(8)
N4 0.0355(13) 0.0419(11) 0.0349(10) -0.0026(8) -0.0022(8) 0.0038(9)
N3 0.0397(14) 0.0375(11) 0.0375(10) -0.0024(8) 0.0030(9) 0.0055(9)
N2 0.0339(13) 0.0402(11) 0.0359(10) -0.0100(8) -0.0025(9) 0.0056(9)
N1 0.0689(19) 0.0484(14) 0.0420(13) 0.0054(11) 0.0173(12) 0.0031(14)
C1 0.0368(15) 0.0359(11) 0.0310(10) -0.0030(9) 0.0014(10) -0.0019(10)
C2 0.0549(18) 0.0393(13) 0.0421(13) -0.0005(10) 0.0094(12) 0.0106(12)
C3 0.062(2) 0.0414(14) 0.0393(13) -0.0013(10) 0.0123(13) 0.0088(13)
C4 0.0423(16) 0.0408(13) 0.0372(12) -0.0005(10) 0.0066(11) -0.0040(11)
C5 0.0518(17) 0.0313(11) 0.0444(13) 0.0027(10) 0.0071(12) 0.0003(11)
C6 0.0436(16) 0.0326(11) 0.0385(12) -0.0060(9) 0.0077(10) -0.0013(10)
C7 0.0361(15) 0.0336(11) 0.0316(11) 0.0022(9) 0.0020(10) 0.0009(10)
C8 0.0363(16) 0.0534(16) 0.0408(13) 0.0012(11) -0.0042(11) 0.0017(12)
C9 0.0352(16) 0.0575(16) 0.0440(14) 0.0082(12) 0.0002(12) 0.0086(13)
C10 0.0428(17) 0.0390(13) 0.0418(13) 0.0074(10) 0.0071(11) 0.0071(11)
C11 0.052(2) 0.0542(17) 0.068(2) -0.0057(14) 0.0131(15) 0.0157(15)
loop_
_atom_type_symbol
_atom_type_description
_atom_type_scat_dispersion_real
_atom_type_scat_dispersion_imag
_atom_type_scat_source
C C 0.0033 0.0016 'International Tables Vol C Tables 4.2.6.8 and 6.1.1.4'
H H 0.0000 0.0000 'International Tables Vol C Tables 4.2.6.8 and 6.1.1.4'
N N 0.0061 0.0033 'International Tables Vol C Tables 4.2.6.8 and 6.1.1.4'
O O 0.0106 0.0060 'International Tables Vol C Tables 4.2.6.8 and 6.1.1.4'
S S 0.1246 0.1234 'International Tables Vol C Tables 4.2.6.8 and 6.1.1.4'
loop_
_geom_angle_atom_site_label_1
_geom_angle_atom_site_label_2
_geom_angle_atom_site_label_3
_geom_angle
_geom_angle_site_symmetry_1
_geom_angle_site_symmetry_3
O1 S1 O2 118.65(11) . .
O1 S1 N2 109.82(11) . .
O2 S1 N2 102.47(11) . .
O1 S1 C1 108.75(11) . .
O2 S1 C1 108.53(11) . .
N2 S1 C1 108.13(12) . .
C8 N4 C7 115.5(2) . .
C7 N3 C10 115.8(2) . .
C7 N2 S1 128.46(17) . .
C7 N2 H1N2 118(2) . .
S1 N2 H1N2 113(2) . .
C4 N1 H1N1 116(2) . .
C4 N1 H2N1 120(2) . .
H1N1 N1 H2N1 116(3) . .
C6 C1 C2 120.0(2) . .
C6 C1 S1 119.99(18) . .
C2 C1 S1 119.96(19) . .
C3 C2 C1 119.8(2) . .
C3 C2 H2 120.1 . .
C1 C2 H2 120.1 . .
C2 C3 C4 121.1(2) . .
C2 C3 H3 119.5 . .
C4 C3 H3 119.5 . .
N1 C4 C3 119.7(2) . .
N1 C4 C5 122.0(3) . .
C3 C4 C5 118.2(2) . .
C6 C5 C4 120.9(2) . .
C6 C5 H5 119.6 . .
C4 C5 H5 119.6 . .
C5 C6 C1 120.0(2) . .
C5 C6 H6 120.0 . .
C1 C6 H6 120.0 . .
N3 C7 N4 127.0(2) . .
N3 C7 N2 119.6(2) . .
N4 C7 N2 113.5(2) . .
N4 C8 C9 122.4(3) . .
N4 C8 H8 118.8 . .
C9 C8 H8 118.8 . .
C8 C9 C10 118.3(3) . .
C8 C9 H9 120.9 . .
C10 C9 H9 120.9 . .
N3 C10 C9 121.2(2) . .
N3 C10 C11 117.3(3) . .
C9 C10 C11 121.5(3) . .
C10 C11 H11A 109.5 . .
C10 C11 H11B 109.5 . .
H11A C11 H11B 109.5 . .
C10 C11 H11C 109.5 . .
H11A C11 H11C 109.5 . .
H11B C11 H11C 109.5 . .
loop_
_geom_bond_atom_site_label_1
_geom_bond_atom_site_label_2
_geom_bond_distance
_geom_bond_site_symmetry_2
S1 O1 1.4290(17) .
S1 O2 1.4351(18) .
S1 N2 1.638(2) .
S1 C1 1.744(2) .
N4 C8 1.334(3) .
N4 C7 1.346(3) .
N3 C7 1.333(3) .
N3 C10 1.351(3) .
N2 C7 1.383(3) .
N2 H1N2 0.82(3) .
N1 C4 1.370(3) .
N1 H1N1 0.85(3) .
N1 H2N1 0.87(4) .
C1 C6 1.386(3) .
C1 C2 1.386(3) .
C2 C3 1.380(4) .
C2 H2 0.9300 .
C3 C4 1.397(4) .
C3 H3 0.9300 .
C4 C5 1.399(3) .
C5 C6 1.378(3) .
C5 H5 0.9300 .
C6 H6 0.9300 .
C8 C9 1.365(4) .
C8 H8 0.9300 .
C9 C10 1.379(4) .
C9 H9 0.9300 .
C10 C11 1.496(4) .
C11 H11A 0.9600 .
C11 H11B 0.9600 .
C11 H11C 0.9600 .
loop_
_geom_hbond_atom_site_label_D
_geom_hbond_atom_site_label_H
_geom_hbond_atom_site_label_A
_geom_hbond_distance_DH
_geom_hbond_distance_HA
_geom_hbond_distance_DA
_geom_hbond_angle_DHA
_geom_hbond_site_symmetry_A
C6 H6 O1 0.93 2.52 3.423(3) 162.7 8_665
C8 H8 O2 0.93 2.53 3.245(3) 134.2 5_666
C9 H9 O2 0.93 2.64 3.268(3) 125.7 1_655
N2 H1N2 N4 0.82(3) 2.11(3) 2.936(3) 178(3) 5_666
N1 H1N1 O2 0.85(3) 2.26(3) 3.096(3) 170(3) 6_656
N1 H2N1 O1 0.87(4) 2.46(4) 3.044(3) 125(3) 3_655
N1 H2N1 N3 0.87(4) 2.65(4) 3.447(4) 152(3) 3_655
loop_
_geom_torsion_atom_site_label_1
_geom_torsion_atom_site_label_2
_geom_torsion_atom_site_label_3
_geom_torsion_atom_site_label_4
_geom_torsion
_geom_torsion_site_symmetry_1
_geom_torsion_site_symmetry_2
_geom_torsion_site_symmetry_3
_geom_torsion_site_symmetry_4
O1 S1 N2 C7 46.8(2) . . . .
O2 S1 N2 C7 173.8(2) . . . .
C1 S1 N2 C7 -71.7(2) . . . .
O1 S1 C1 C6 160.4(2) . . . .
O2 S1 C1 C6 30.1(2) . . . .
N2 S1 C1 C6 -80.4(2) . . . .
O1 S1 C1 C2 -17.0(3) . . . .
O2 S1 C1 C2 -147.4(2) . . . .
N2 S1 C1 C2 102.2(2) . . . .
C6 C1 C2 C3 -0.1(4) . . . .
S1 C1 C2 C3 177.3(2) . . . .
C1 C2 C3 C4 -1.0(5) . . . .
C2 C3 C4 N1 -176.3(3) . . . .
C2 C3 C4 C5 0.6(4) . . . .
N1 C4 C5 C6 177.7(3) . . . .
C3 C4 C5 C6 0.9(4) . . . .
C4 C5 C6 C1 -2.0(4) . . . .
C2 C1 C6 C5 1.6(4) . . . .
S1 C1 C6 C5 -175.8(2) . . . .
C10 N3 C7 N4 0.7(4) . . . .
C10 N3 C7 N2 -179.3(2) . . . .
C8 N4 C7 N3 -0.3(4) . . . .
C8 N4 C7 N2 179.7(2) . . . .
S1 N2 C7 N3 -3.4(3) . . . .
S1 N2 C7 N4 176.55(18) . . . .
C7 N4 C8 C9 -0.2(4) . . . .
N4 C8 C9 C10 0.3(4) . . . .
C7 N3 C10 C9 -0.5(3) . . . .
C7 N3 C10 C11 177.8(2) . . . .
C8 C9 C10 N3 0.0(4) . . . .
C8 C9 C10 C11 -178.2(3) . . . .
