#------------------------------------------------------------------------------
#$Date: 2017-09-12 06:16:50 +0300 (Tue, 12 Sep 2017) $
#$Revision: 200619 $
#$URL: file:///home/coder/svn-repositories/cod/cif/1/54/71/1547100.cif $
#------------------------------------------------------------------------------
#
# This file is available in the Crystallography Open Database (COD),
# http://www.crystallography.net/
#
# All data on this site have been placed in the public domain by the
# contributors.
#
data_1547100
loop_
_publ_author_name
'Zhao, Quan-Qing'
'Chen, Jun'
'Yan, Dong-Mei'
'Chen, Jia-Rong'
'Xiao, Wen-Jing'
_publ_section_title
;
 Photocatalytic Hydrazonyl Radical-Mediated Radical Cyclization/Allylation
 Cascade: Synthesis of Dihydropyrazoles and Tetrahydropyridazines.
;
_journal_issue                   13
_journal_name_full               'Organic letters'
_journal_page_first              3620
_journal_page_last               3623
_journal_paper_doi               10.1021/acs.orglett.7b01609
_journal_volume                  19
_journal_year                    2017
_chemical_absolute_configuration ad
_chemical_formula_moiety         'C25 H30 N2 O4 S'
_chemical_formula_sum            'C25 H30 N2 O4 S'
_chemical_formula_weight         454.57
_chemical_name_systematic
;
 ? 
;
_space_group_crystal_system      orthorhombic
_space_group_IT_number           43
_space_group_name_Hall           'F 2 -2d'
_space_group_name_H-M_alt        'F d d 2'
_symmetry_space_group_name_Hall  'F 2 -2d'
_symmetry_space_group_name_H-M   'F d d 2'
_atom_sites_solution_hydrogens   geom
_audit_creation_date             2017-03-09
_audit_creation_method
;
Olex2 1.2
(compiled 2016.11.30 svn.r3356 for OlexSys, GUI svn.r5269)
;
_cell_angle_alpha                90
_cell_angle_beta                 90
_cell_angle_gamma                90
_cell_formula_units_Z            16
_cell_length_a                   16.0693(16)
_cell_length_b                   54.037(5)
_cell_length_c                   10.9426(11)
_cell_measurement_reflns_used    8108
_cell_measurement_temperature    296(2)
_cell_measurement_theta_max      27.64
_cell_measurement_theta_min      2.28
_cell_volume                     9501.9(16)
_computing_cell_refinement       'Bruker SAINT'
_computing_data_collection       'Bruker APEX2'
_computing_data_reduction        'Bruker SAINT'
_computing_molecular_graphics    'Olex2 (Dolomanov et al., 2009)'
_computing_publication_material  'Olex2 (Dolomanov et al., 2009)'
_computing_structure_refinement  'ShelXL (Sheldrick, 2015)'
_computing_structure_solution    'SHELXS-97 (Sheldrick, 1990)'
_diffrn_ambient_temperature      296.15
_diffrn_measured_fraction_theta_full 0.998
_diffrn_measured_fraction_theta_max 0.998
_diffrn_measurement_device_type  'Bruker APEX-II CCD'
_diffrn_measurement_method       '\f and \w scans'
_diffrn_radiation_type           MoK\a
_diffrn_radiation_wavelength     0.71073
_diffrn_reflns_av_R_equivalents  0.0275
_diffrn_reflns_av_unetI/netI     0.0255
_diffrn_reflns_Laue_measured_fraction_full 0.998
_diffrn_reflns_Laue_measured_fraction_max 0.998
_diffrn_reflns_limit_h_max       20
_diffrn_reflns_limit_h_min       -20
_diffrn_reflns_limit_k_max       68
_diffrn_reflns_limit_k_min       -68
_diffrn_reflns_limit_l_max       13
_diffrn_reflns_limit_l_min       -13
_diffrn_reflns_number            19328
_diffrn_reflns_point_group_measured_fraction_full 0.978
_diffrn_reflns_point_group_measured_fraction_max 0.973
_diffrn_reflns_theta_full        25.242
_diffrn_reflns_theta_max         26.998
_diffrn_reflns_theta_min         2.283
_exptl_absorpt_coefficient_mu    0.170
_exptl_absorpt_correction_type   none
_exptl_crystal_colour            colourless
_exptl_crystal_colour_primary    colourless
_exptl_crystal_density_diffrn    1.271
_exptl_crystal_description       block
_exptl_crystal_F_000             3872
_exptl_crystal_size_max          0.12
_exptl_crystal_size_mid          0.1
_exptl_crystal_size_min          0.1
_refine_diff_density_max         0.176
_refine_diff_density_min         -0.227
_refine_diff_density_rms         0.041
_refine_ls_abs_structure_details
;
 Flack x determined using 1998 quotients [(I+)-(I-)]/[(I+)+(I-)]
 (Parsons, Flack and Wagner, Acta Cryst. B69 (2013) 249-259).
;
_refine_ls_abs_structure_Flack   0.03(2)
_refine_ls_extinction_method     none
_refine_ls_goodness_of_fit_ref   1.043
_refine_ls_hydrogen_treatment    constr
_refine_ls_matrix_type           full
_refine_ls_number_parameters     293
_refine_ls_number_reflns         5064
_refine_ls_number_restraints     1
_refine_ls_restrained_S_all      1.043
_refine_ls_R_factor_all          0.0358
_refine_ls_R_factor_gt           0.0320
_refine_ls_shift/su_max          0.001
_refine_ls_shift/su_mean         0.000
_refine_ls_structure_factor_coef Fsqd
_refine_ls_weighting_details
'w=1/[\s^2^(Fo^2^)+(0.0515P)^2^+2.2541P] where P=(Fo^2^+2Fc^2^)/3'
_refine_ls_weighting_scheme      calc
_refine_ls_wR_factor_gt          0.0831
_refine_ls_wR_factor_ref         0.0860
_reflns_Friedel_coverage         0.851
_reflns_Friedel_fraction_full    0.956
_reflns_Friedel_fraction_max     0.946
_reflns_number_gt                4689
_reflns_number_total             5064
_reflns_threshold_expression     'I > 2\s(I)'
_cod_data_source_file            ol7b01609_si_003.cif
_cod_data_source_block           t
_cod_original_cell_volume        9501.8(16)
_cod_database_code               1547100
_shelx_space_group_comment
;
The symmetry employed for this shelxl refinement is uniquely defined
by the following loop, which should always be used as a source of
symmetry information in preference to the above space-group names.
They are only intended as comments.
;
_shelx_estimated_absorpt_t_max   0.983
_shelx_estimated_absorpt_t_min   0.980
_olex2_refinement_description
;
1. Fixed Uiso
 At 1.2 times of:
  All C(H) groups, All C(H,H) groups
 At 1.5 times of:
  All C(H,H,H) groups
2.a Ternary CH refined with riding coordinates:
 C11(H11)
2.b Secondary CH2 refined with riding coordinates:
 C9(H9A,H9B), C10(H10A,H10B), C24(H24A,H24B)
2.c Aromatic/amide H refined with riding coordinates:
 C2(H2), C3(H3), C4(H4), C5(H5), C6(H6), C7(H7), C18(H18), C19(H19), C20(H20),
 C21(H21), C22(H22)
2.d Idealised Me refined as rotating group:
 C14(H14A,H14B,H14C), C15(H15A,H15B,H15C), C16(H16A,H16B,H16C), C25(H25A,H25B,
 H25C)
;
_shelx_res_file
;
    t.res created by SHELXL-2014/7

TITL T in Fdd2
CELL 0.71073 16.0693 54.0366 10.9426 90 90 90
ZERR 16 0.0016 0.0054 0.0011 0 0 0
LATT -4
SYMM -X,-Y,+Z
SYMM 0.25+X,0.25-Y,0.25+Z
SYMM 0.25-X,0.25+Y,0.25+Z
SFAC C H N O S
UNIT 400 480 32 64 16

L.S. 4
PLAN  11
SIZE 0.12 0.1 0.1
TEMP 23
BOND $H
CONF
HTAB
fmap 2
acta
OMIT -3 54
REM <olex2.extras>
REM <HklSrc "%.\\T.hkl">
REM </olex2.extras>

WGHT    0.051500    2.254100
FVAR       0.03739
C1    1    0.715110    0.414504    1.222427    11.00000    0.04700    0.05377 =
         0.04648    0.01318   -0.00059   -0.00230
C2    1    0.745495    0.401257    1.123617    11.00000    0.07115    0.05910 =
         0.05760    0.00751   -0.00677    0.01680
AFIX  43
H2    2    0.715766    0.401024    1.050707    11.00000   -1.20000
AFIX   0
C3    1    0.819856    0.388338    1.132449    11.00000    0.08016    0.06724 =
         0.07640    0.01579    0.00655    0.02664
AFIX  43
H3    2    0.839234    0.379468    1.065406    11.00000   -1.20000
AFIX   0
C4    1    0.865008    0.388458    1.238159    11.00000    0.05523    0.07565 =
         0.08981    0.03778    0.00109    0.01354
AFIX  43
H4    2    0.915633    0.380167    1.242613    11.00000   -1.20000
AFIX   0
C5    1    0.834596    0.401004    1.337909    11.00000    0.05611    0.08930 =
         0.07205    0.03324   -0.01450   -0.00579
AFIX  43
H5    2    0.864383    0.400890    1.410775    11.00000   -1.20000
AFIX   0
C6    1    0.760378    0.413761    1.331108    11.00000    0.05738    0.07818 =
         0.05210    0.01843   -0.00316   -0.00278
AFIX  43
H6    2    0.740302    0.421958    1.399776    11.00000   -1.20000
AFIX   0
C7    1    0.637456    0.428956    1.221828    11.00000    0.04914    0.05826 =
         0.04063    0.00340    0.00205   -0.00175
AFIX  43
H7    2    0.612284    0.430649    1.297899    11.00000   -1.20000
AFIX   0
C8    1    0.596909    0.440105    1.129670    11.00000    0.04106    0.04581 =
         0.03965   -0.00117    0.00128   -0.00021
C9    1    0.623134    0.440477    0.997715    11.00000    0.03476    0.03762 =
         0.03908    0.00342    0.00350   -0.00028
AFIX  23
H9A   2    0.682995    0.438365    0.993082    11.00000   -1.20000
H9B   2    0.609652    0.456491    0.962893    11.00000   -1.20000
AFIX   0
C10   1    0.580946    0.420205    0.921934    11.00000    0.03915    0.03854 =
         0.04043    0.00481    0.00370   -0.00446
AFIX  23
H10A  2    0.591088    0.404400    0.961237    11.00000   -1.20000
H10B  2    0.521359    0.423064    0.923201    11.00000   -1.20000
AFIX   0
C11   1    0.608962    0.418347    0.788942    11.00000    0.03586    0.03772 =
         0.04216   -0.00271    0.00093   -0.00026
AFIX  13
H11   2    0.595545    0.401783    0.758251    11.00000   -1.20000
AFIX   0
C12   1    0.576548    0.437877    0.695980    11.00000    0.03644    0.04666 =
         0.03595   -0.00017    0.00001    0.00073
C13   1    0.654114    0.453385    0.677367    11.00000    0.03648    0.03969 =
         0.03554   -0.00263    0.00492    0.00344
C14   1    0.502640    0.453109    0.739774    11.00000    0.03888    0.06930 =
         0.05172    0.01136    0.00498    0.01427
AFIX 137
H14A  2    0.515991    0.460740    0.816535    11.00000   -1.50000
H14B  2    0.455183    0.442512    0.749842    11.00000   -1.50000
H14C  2    0.490142    0.465680    0.680563    11.00000   -1.50000
AFIX   0
C15   1    0.553976    0.424526    0.575606    11.00000    0.06419    0.06908 =
         0.04496   -0.00296   -0.00993   -0.01540
AFIX 137
H15A  2    0.532101    0.436301    0.518303    11.00000   -1.50000
H15B  2    0.512886    0.412047    0.591673    11.00000   -1.50000
H15C  2    0.602916    0.416934    0.542048    11.00000   -1.50000
AFIX   0
C16   1    0.859635    0.409021    0.794703    11.00000    0.04160    0.06148 =
         0.09492   -0.00495   -0.01419    0.01135
AFIX 137
H16A  2    0.901602    0.397226    0.772210    11.00000   -1.50000
H16B  2    0.859972    0.411240    0.881745    11.00000   -1.50000
H16C  2    0.870906    0.424555    0.755478    11.00000   -1.50000
AFIX   0
C17   1    0.657268    0.478453    0.622209    11.00000    0.03769    0.04232 =
         0.04722    0.00475    0.00802    0.00665
C18   1    0.615500    0.484370    0.515058    11.00000    0.05684    0.06418 =
         0.06532    0.01820   -0.00567    0.00498
AFIX  43
H18   2    0.583784    0.472443    0.475254    11.00000   -1.20000
AFIX   0
C19   1    0.621181    0.508209    0.467257    11.00000    0.06399    0.08590 =
         0.08643    0.04495    0.00646    0.01516
AFIX  43
H19   2    0.593634    0.512022    0.394924    11.00000   -1.20000
AFIX   0
C20   1    0.666123    0.525845    0.524505    11.00000    0.06585    0.05826 =
         0.11568    0.03632    0.02668    0.01275
AFIX  43
H20   2    0.669498    0.541671    0.491480    11.00000   -1.20000
AFIX   0
C21   1    0.707186    0.520371    0.632370    11.00000    0.06327    0.04498 =
         0.10393    0.00112    0.02429   -0.00400
AFIX  43
H21   2    0.737454    0.532580    0.672524    11.00000   -1.20000
AFIX   0
C22   1    0.703128    0.496600    0.680610    11.00000    0.04781    0.04465 =
         0.05881   -0.00048    0.01001    0.00269
AFIX  43
H22   2    0.731379    0.492883    0.752479    11.00000   -1.20000
AFIX   0
C23   1    0.519711    0.453732    1.165265    11.00000    0.04492    0.05845 =
         0.04165   -0.00199    0.00398    0.00082
C24   1    0.403232    0.476101    1.089195    11.00000    0.05046    0.07613 =
         0.06249    0.00178    0.01379    0.02061
AFIX  23
H24A  2    0.415050    0.491061    1.135004    11.00000   -1.20000
H24B  2    0.364202    0.466144    1.135618    11.00000   -1.20000
AFIX   0
C25   1    0.367830    0.482367    0.968028    11.00000    0.06562    0.11672 =
         0.07685    0.01491    0.01158    0.04537
AFIX 137
H25A  2    0.355698    0.467414    0.924128    11.00000   -1.50000
H25B  2    0.407303    0.492033    0.922661    11.00000   -1.50000
H25C  2    0.317556    0.491713    0.978805    11.00000   -1.50000
AFIX   0
N1    3    0.701020    0.421966    0.782734    11.00000    0.03759    0.03597 =
         0.04773    0.00269    0.00597    0.00616
N2    3    0.721765    0.443810    0.717696    11.00000    0.03666    0.03783 =
         0.04824    0.00253    0.00479    0.00325
O1    4    0.494329    0.456544    1.266995    11.00000    0.06703    0.10400 =
         0.04756   -0.00762    0.01083    0.02465
O2    4    0.479506    0.462314    1.067304    11.00000    0.04719    0.07557 =
         0.04943    0.00432    0.00743    0.02010
O3    4    0.733986    0.378534    0.825364    11.00000    0.07241    0.04145 =
         0.07723    0.00593    0.00669    0.00989
O4    4    0.765437    0.393529    0.620712    11.00000    0.06893    0.07865 =
         0.05306   -0.01957    0.00424    0.01333
S1    5    0.761846    0.398147    0.748480    11.00000    0.04316    0.04067 =
         0.04934   -0.00571    0.00026    0.00944
HKLF 4

REM  T in Fdd2
REM R1 =  0.0320 for    4689 Fo > 4sig(Fo)  and  0.0358 for all    5064 data
REM    293 parameters refined using      1 restraints

END

WGHT      0.0515      2.2541

REM Instructions for potential hydrogen bonds
EQIV $1 x+1/2, y, z-1/2
HTAB C16 O1_$1

REM Highest difference peak  0.176,  deepest hole -0.227,  1-sigma level  0.041
Q1    1   0.6464  0.4679  0.6511  11.00000  0.05    0.18
Q2    1   0.7207  0.4107  0.7450  11.00000  0.05    0.14
Q3    1   0.3489  0.4641  0.9892  11.00000  0.05    0.14
Q4    1   0.6506  0.4880  0.6648  11.00000  0.05    0.13
Q5    1   0.5707  0.3883  0.8841  11.00000  0.05    0.13
Q6    1   0.5319  0.4080  0.5618  11.00000  0.05    0.13
Q7    1   0.6085  0.4287  0.9574  11.00000  0.05    0.12
Q8    1   0.5093  0.4006  0.4809  11.00000  0.05    0.12
Q9    1   0.7665  0.4107  0.5921  11.00000  0.05    0.12
Q10   1   0.7452  0.4521  0.8990  11.00000  0.05    0.12
Q11   1   0.5227  0.4697  1.2418  11.00000  0.05    0.12
;
_shelx_res_checksum              13724
_shelx_hkl_file
;
   0   0   2   -0.07    0.02
   0   0   2   -0.03    0.02
   0   0   4  106.10    2.74
   0   0   4   77.94    2.65
   0   0  -6    0.14    0.04
   0   0  -8   18.44    0.61
   0   0  -8   18.11    0.59
   0   0 -10   -0.01    0.09
   0   0 -10   -0.02    0.06
   0   0 -12    1.58    0.17
   0   0 -14   -0.09    0.10
   0   0 -16    0.37    0.14
  -2   0   0    0.05    0.01
  -2   0   0    0.00    0.01
  -2   0  -2  294.47    8.31
  -2   0   2  281.01    8.55
  -2   0   2  290.48    8.32
  -2   0   2  287.23    8.25
  -2   0  -4   -0.02    0.01
  -2   0   4    0.03    0.02
  -2   0  -4    0.01    0.03
  -2   0   4   -0.04    0.03
  -2   0   4   -0.01    0.02
   2   0  -6   19.92    0.63
  -2   0  -6   19.50    0.60
  -2   0  -6   19.42    0.62
  -2   0   6   19.44    0.61
  -2   0  -8    0.03    0.04
  -2   0  -8    0.11    0.07
   2   0  -8   -0.07    0.05
  -2   0 -10   16.53    0.59
   2   0 -10   17.42    0.58
   2   0 -12   -0.06    0.09
  -2   0 -12   -0.03    0.08
  -2   0 -14    1.51    0.18
   2   0 -14    1.56    0.19
   2   0 -16   -0.09    0.11
  -2   0 -16    0.11    0.12
  -4   0   0   14.56    0.48
  -4   0   0   15.25    0.45
  -4   0  -2    0.03    0.03
  -4   0   2   -0.06    0.02
   4   0   2   -0.05    0.01
  -4   0   2   -0.05    0.03
  -4   0  -4   31.01    0.96
  -4   0   4   32.56    0.98
  -4   0   4   33.08    0.95
  -4   0   4   31.86    1.00
  -4   0  -6    0.10    0.05
  -4   0   6    0.11    0.04
  -4   0   6    0.05    0.05
   4   0  -8    4.49    0.21
  -4   0  -8    4.72    0.22
   4   0 -10   -0.04    0.07
  -4   0 -10    0.02    0.09
   4   0 -12    3.56    0.20
  -4   0 -12    3.12    0.21
   4   0 -14   -0.10    0.11
  -4   0 -14   -0.05    0.10
  -4   0 -16    0.03    0.12
   4   0 -16   -0.01    0.12
  -6   0   0    0.00    0.01
  -6   0   0    0.06    0.03
  -6   0   0   -0.02    0.01
  -6   0   2    9.95    0.34
  -6   0  -2    9.51    0.33
  -6   0   2   10.08    0.30
   6   0   2   10.00    0.31
  -6   0  -4    0.00    0.04
  -6   0   4   -0.05    0.04
  -6   0   4    0.04    0.04
  -6   0   4    0.01    0.02
  -6   0  -6   10.61    0.38
  -6   0   6   10.90    0.40
  -6   0   6   10.77    0.35
   6   0  -6   10.86    0.39
  -6   0   8   -0.02    0.07
   6   0  -8   -0.08    0.06
  -6   0  -8    0.02    0.07
   6   0 -10    5.99    0.28
  -6   0 -10    5.71    0.28
  -6   0 -12   -0.09    0.08
   6   0 -12   -0.10    0.07
  -6   0 -14    0.36    0.13
   6   0 -14    0.44    0.13
  -8   0   0  313.78    8.98
  -8   0   2    0.05    0.04
  -8   0   2   -0.02    0.04
  -8   0   2    0.05    0.02
   8   0   2   -0.01    0.03
  -8   0  -2   -0.03    0.04
  -8   0  -4   66.90    1.96
  -8   0   4   65.67    1.91
  -8   0   4   66.04    1.98
  -8   0   6    0.05    0.07
  -8   0   6   -0.01    0.02
  -8   0  -6    0.07    0.06
   8   0  -6   -0.12    0.05
   8   0  -8   19.61    0.67
  -8   0  -8   18.60    0.64
  -8   0   8   18.77    0.68
  -8   0 -10    0.13    0.09
   8   0 -10    0.02    0.08
  -8   0 -12    1.93    0.19
   8   0 -12    2.30    0.19
  -8   0 -14    0.02    0.11
 -10   0   0   -0.03    0.02
 -10   0   0    0.00    0.04
  10   0   0   -0.10    0.04
 -10   0  -2    1.02    0.07
 -10   0   2    1.29    0.12
  10   0  -2    1.08    0.10
 -10   0   2    1.47    0.05
 -10   0  -2    1.32    0.11
  10   0   2    0.84    0.07
  10   0  -4   -0.07    0.06
 -10   0  -4   -0.06    0.05
 -10   0   4    0.02    0.06
 -10   0   6    1.44    0.15
  10   0  -6    1.44    0.14
 -10   0  -6    1.26    0.12
  10   0  -8   -0.09    0.08
 -10   0   8   -0.02    0.08
 -10   0  -8   -0.09    0.07
 -10   0  10    1.91    0.21
  10   0 -10    2.31    0.19
 -10   0 -10    2.27    0.17
  10   0 -12   -0.13    0.09
 -10   0 -12    0.00    0.09
  10   0 -14    1.18    0.18
 -10   0 -14    1.37    0.18
  12   0   2   -0.01    0.04
 -12   0  -2    0.11    0.07
  12   0  -2   -0.07    0.05
 -12   0  -2   -0.02    0.04
 -12   0   2    0.01    0.02
  12   0  -4    9.19    0.36
 -12   0  -4    9.10    0.36
 -12   0  -4    8.70    0.32
 -12   0   4    8.79    0.38
 -12   0  -6    0.09    0.07
 -12   0   6    0.03    0.09
  12   0  -6   -0.23    0.07
 -12   0   8    1.34    0.18
  12   0  -8    1.18    0.15
 -12   0  -8    1.34    0.14
 -12   0 -10    0.13    0.10
 -12   0  10    0.13    0.11
  12   0 -10   -0.12    0.09
  12   0 -12    1.24    0.17
 -12   0 -12    0.97    0.15
 -12   0 -14   -0.06    0.11
  12   0 -14    0.06    0.11
 -14   0   0   -0.03    0.06
  14   0   0   -0.04    0.05
  14   0  -2    9.16    0.36
  14   0   2    8.70    0.33
 -14   0  -2    8.99    0.36
 -14   0   2    8.81    0.38
 -14   0  -4    0.04    0.09
 -14   0   4    0.15    0.09
  14   0  -4   -0.29    0.08
 -14   0  -4    0.06    0.07
 -14   0   6    2.17    0.21
 -14   0  -6    1.97    0.18
 -14   0  -6    1.96    0.16
  14   0  -6    2.21    0.19
 -14   0  -8    0.02    0.09
 -14   0   8    0.04    0.10
 -14   0  -8   -0.08    0.08
  14   0  -8    0.06    0.09
 -14   0 -10    0.74    0.13
  14   0 -10    0.58    0.13
 -14   0  10    0.74    0.17
 -14   0 -10    0.54    0.13
 -14   0 -12   -0.10    0.10
 -14   0 -12    0.09    0.11
  14   0 -12   -0.08    0.10
 -14   0  12   -0.09    0.12
 -16   0   0    0.10    0.08
  16   0   0   -0.05    0.06
 -16   0   2    0.11    0.09
  16   0  -2   -0.23    0.07
 -16   0  -2   -0.03    0.08
 -16   0   4    6.29    0.33
  16   0  -4    7.08    0.33
 -16   0  -4    6.43    0.32
 -16   0   6    0.03    0.10
 -16   0  -6    0.00    0.08
  16   0  -6   -0.04    0.08
 -16   0  -8    1.55    0.16
 -16   0  -8    1.75    0.19
  16   0  -8    1.52    0.18
 -16   0   8    2.24    0.23
 -16   0 -10   -0.06    0.10
  16   0 -10   -0.12    0.09
 -16   0 -10    0.07    0.10
 -16   0  10   -0.24    0.10
 -16   0 -12    0.27    0.12
 -18   0   0   -0.04    0.09
  18   0  -2   -0.01    0.09
 -18   0   2   -0.02    0.09
 -18   0  -2    0.39    0.12
 -18   0  -4   -0.04    0.09
  18   0  -4   -0.11    0.08
 -18   0   4   -0.17    0.09
  18   0  -6    0.10    0.11
 -18   0   6    0.03    0.12
 -18   0  -6    0.38    0.12
  18   0  -8    0.04    0.11
 -18   0  -8    0.06    0.11
 -18   0   8   -0.11    0.12
 -18   0 -10   -0.03    0.11
 -18   0  10    0.02    0.15
 -20   0   0    0.11    0.11
 -20   0  -2   -0.02    0.10
 -20   0   2   -0.06    0.10
  20   0  -2   -0.16    0.08
 -20   0   4    1.20    0.19
  20   0  -4    0.99    0.15
 -20   0  -4    1.25    0.18
  20   0  -6    0.11    0.11
 -20   0  -6   -0.11    0.10
 -20   0   6    0.17    0.14
  20   0  -8    0.02    0.11
 -20   0  -8    0.23    0.13
 -22   0   0    0.09    0.11
 -22   0   2    0.28    0.14
 -22   0  -2    0.15    0.12
  22   0  -4   -0.05    0.11
 -22   0   4   -0.06    0.12
 -22   0  -4   -0.07    0.12
  -1   1   1   64.45    1.78
  -1   1   1   60.74    1.84
  -1  -1  -1   64.40    1.79
  -1   1   1   62.15    1.78
  -1  -1   1   60.81    1.79
  -1  -1   1   60.60    1.84
  -1  -1  -3   18.80    0.56
  -1   1   3   18.68    0.58
   1  -1   3   18.74    0.56
  -1   1   3   19.34    0.56
  -1  -1   3   18.44    0.56
  -1  -1   3   18.46    0.58
  -1   1  -3   18.54    0.56
   1   1   3   18.48    0.57
  -1   1  -3   18.98    0.57
  -1   1   5    2.80    0.13
  -1  -1  -5    3.18    0.14
   1   1  -5    2.81    0.13
   1  -1   5    3.10    0.14
  -1  -1   5    3.15    0.14
  -1   1  -5    2.92    0.12
  -1   1  -5    2.93    0.14
  -1  -1  -7    1.52    0.11
  -1  -1  -7    1.30    0.08
   1   1  -7    1.40    0.10
  -1   1  -7    1.30    0.08
  -1   1  -7    1.58    0.12
   1  -1  -7    1.29    0.09
   1   1  -9    2.26    0.14
  -1  -1  -9    2.31    0.13
   1   1  -9    2.53    0.17
  -1  -1  -9    2.33    0.16
   1  -1  -9    2.33    0.16
   1  -1  -9    2.30    0.14
  -1   1  -9    2.38    0.13
  -1   1  -9    2.66    0.17
  -1  -1 -11    0.37    0.10
   1   1 -11    0.35    0.10
   1  -1 -11    0.39    0.11
  -1   1 -11    0.51    0.11
   1   1 -13    0.69    0.14
  -1  -1 -13    0.71    0.13
   1  -1 -13    0.75    0.14
  -1   1 -13    1.02    0.15
  -1  -1 -15    0.37    0.13
   1   1 -15    0.28    0.13
  -1   1 -15    0.18    0.12
   1  -1 -15    0.20    0.12
  -3  -1  -1  139.16    4.14
  -3   1   1  140.82    4.24
  -3   1   1  147.27    4.09
  -3   1   1  141.71    4.16
   3   1   1  144.70    4.24
  -3  -1   1  150.44    4.10
  -3   1  -1  141.66    4.24
  -3  -1   1  139.78    4.26
  -3   1   3   19.63    0.56
  -3  -1  -3   19.36    0.58
  -3   1   3   19.46    0.59
  -3   1   3   19.10    0.60
  -3  -1   3   18.08    0.59
  -3  -1   3   18.84    0.56
  -3  -1   3   18.41    0.59
  -3   1  -3   18.65    0.58
  -3  -1  -5    4.44    0.14
  -3  -1  -5    4.56    0.18
  -3   1   5    4.06    0.18
  -3   1   5    4.50    0.19
  -3  -1   5    4.02    0.19
  -3   1  -5    4.35    0.14
  -3   1  -5    4.27    0.18
  -3  -1  -7   20.11    0.62
  -3  -1  -7   20.35    0.65
   3   1  -7   20.26    0.66
  -3   1  -7   20.92    0.66
   3  -1  -7   20.62    0.66
  -3   1  -7   19.69    0.62
  -3  -1   7   20.29    0.64
  -3  -1  -9    0.47    0.10
   3   1  -9    0.26    0.09
   3  -1  -9    0.22    0.08
  -3   1  -9    0.59    0.10
   3   1 -11    2.01    0.15
  -3  -1 -11    1.79    0.17
   3  -1 -11    2.02    0.15
  -3   1 -11    1.88    0.17
   3   1 -13    0.18    0.11
  -3  -1 -13    0.15    0.11
  -3   1 -13    0.34    0.12
   3  -1 -13    0.06    0.09
   3   1 -15    0.24    0.13
  -3  -1 -15    0.19    0.12
  -3   1 -15    0.34    0.13
   3  -1 -15    0.35    0.14
  -5  -1  -1   30.94    0.91
  -5   1   1   29.95    0.94
  -5  -1  -1   31.36    0.90
  -5   1   1   31.04    0.88
   5   1   1   30.74    0.93
  -5   1  -1   31.05    0.93
  -5  -1   1   30.22    0.94
  -5  -1   1   31.34    0.89
  -5   1   3    9.15    0.26
  -5  -1  -3    8.78    0.29
  -5   1   3    7.27    0.29
  -5   1  -3    8.68    0.29
  -5  -1   3    7.62    0.29
  -5  -1   3    8.90    0.27
  -5   1   5   32.95    1.02
  -5   1   5   33.50    1.00
  -5   1   5   27.39    0.95
  -5  -1  -5   33.87    0.98
  -5   1  -5   33.13    0.98
  -5  -1   5   32.76    1.00
  -5  -1  -7    4.03    0.19
   5   1  -7    4.35    0.20
  -5   1   7    4.02    0.21
  -5  -1   7    4.17    0.22
  -5   1  -7    4.03    0.20
   5  -1  -7    4.16    0.20
  -5  -1   7    3.90    0.18
  -5  -1  -9    1.61    0.14
   5   1  -9    1.55    0.14
   5  -1  -9    1.54    0.14
  -5   1  -9    1.64    0.15
  -5  -1 -11    2.15    0.17
   5   1 -11    1.96    0.16
  -5   1 -11    1.73    0.17
   5  -1 -11    1.83    0.16
  -5  -1 -13   -0.22    0.08
  -5   1 -13    0.00    0.10
  -5  -1 -15    0.04    0.12
   5   1 -15    0.05    0.12
   5  -1 -15    0.13    0.13
  -5   1 -15    0.05    0.12
  -7   1   1   27.47    0.77
  -7  -1  -1   26.61    0.79
  -7   1   1   27.02    0.83
  -7  -1  -1   25.57    0.81
  -7  -1   1   28.15    0.78
   7   1   1   26.68    0.81
  -7   1  -1   26.65    0.78
  -7   1  -1   25.04    0.81
  -7   1   3   11.46    0.41
  -7   1   3   11.99    0.36
   7  -1   3   12.13    0.37
  -7   1   3   11.81    0.42
  -7  -1  -3   12.49    0.40
   7   1   3   12.42    0.37
  -7  -1   3   11.93    0.41
  -7   1  -3   12.25    0.40
  -7  -1   3   11.98    0.36
  -7   1   5    1.12    0.11
  -7  -1  -5    1.24    0.10
  -7   1   5    1.31    0.12
   7   1  -5    1.38    0.11
  -7   1   5    1.24    0.07
  -7  -1   5    1.27    0.08
  -7   1  -5    0.95    0.09
  -7  -1   5    1.05    0.11
   7   1  -7    5.01    0.23
  -7  -1  -7    4.86    0.22
  -7   1   7    4.94    0.25
   7  -1  -7    4.65    0.23
  -7  -1   7    4.71    0.20
  -7   1  -7    4.99    0.23
  -7  -1   7    4.63    0.24
  -7   1   9    6.07    0.31
   7   1  -9    6.72    0.30
  -7  -1  -9    6.27    0.29
  -7   1  -9    7.10    0.30
   7  -1  -9    6.88    0.30
  -7  -1   9    6.48    0.31
  -7  -1 -11    0.63    0.12
   7   1 -11    0.78    0.12
  -7   1 -11    0.76    0.13
   7  -1 -11    0.96    0.13
  -7  -1 -13    0.42    0.12
   7   1 -13    0.59    0.12
   7  -1 -13    0.10    0.09
  -7   1 -13    0.57    0.13
  -7  -1 -15    0.44    0.14
   7   1 -15    0.34    0.14
  -7   1 -15    0.27    0.13
   7  -1 -15    0.74    0.16
  -9   1   1   28.59    0.84
  -9   1   1   29.14    0.91
   9   1  -1   29.66    0.91
  -9  -1  -1   28.60    0.89
  -9  -1  -1   29.55    0.86
  -9   1   1   28.30    0.90
  -9   1  -1   29.27    0.85
  -9   1  -1   28.13    0.89
  -9  -1   1   29.08    0.84
   9   1  -3   10.49    0.37
  -9   1   3   10.45    0.39
   9  -1   3   10.33    0.33
  -9   1   3   10.12    0.31
  -9  -1  -3   10.45    0.37
  -9   1   3   10.28    0.38
   9   1   3   10.39    0.33
  -9  -1   3   10.57    0.38
  -9  -1   3   10.53    0.32
  -9   1  -3   10.02    0.36
  -9  -1  -5    2.67    0.16
  -9   1   5    2.69    0.17
  -9   1   5    2.75    0.11
  -9   1  -5    2.94    0.16
  -9  -1   5    2.83    0.12
  -9  -1   5    2.90    0.18
   9   1  -7    4.53    0.23
  -9  -1  -7    4.14    0.21
  -9   1   7    3.82    0.23
   9  -1  -7    4.09    0.22
  -9  -1   7    4.25    0.24
  -9   1  -7    4.50    0.22
  -9   1   9    1.23    0.15
   9   1  -9    1.03    0.14
  -9  -1  -9    1.18    0.13
  -9  -1   9    1.39    0.17
   9  -1  -9    1.35    0.15
  -9   1  -9    1.40    0.14
   9   1 -11    1.36    0.16
  -9  -1 -11    1.34    0.15
  -9   1 -11    1.27    0.15
   9  -1 -11    1.21    0.16
  -9  -1 -13   -0.03    0.10
   9   1 -13   -0.05    0.09
   9  -1 -13   -0.06    0.09
  -9   1 -13    0.05    0.10
  -9  -1 -15    0.78    0.16
  -9   1 -15    0.32    0.14
  11  -1   1    4.20    0.18
  11   1  -1    4.19    0.19
 -11  -1  -1    4.48    0.20
  11  -1  -1    3.88    0.18
  11   1   1    4.03    0.17
 -11  -1   1    4.06    0.14
 -11   1  -1    4.26    0.16
  11  -1   3    0.55    0.06
 -11  -1  -3    0.57    0.07
  11   1  -3    0.63    0.09
 -11   1   3    0.65    0.10
 -11  -1  -3    0.71    0.09
  11   1   3    0.61    0.06
  11  -1  -3    0.46    0.09
 -11   1  -3    0.63    0.09
 -11   1  -3    0.60    0.07
  11   1  -5    7.28    0.31
 -11  -1  -5    6.68    0.29
 -11   1   5    7.10    0.32
 -11   1  -5    7.14    0.29
  11  -1  -5    6.35    0.30
 -11  -1   5    6.30    0.31
  11   1  -7    0.41    0.10
 -11  -1  -7    0.51    0.10
 -11   1   7    0.69    0.12
 -11  -1   7    0.64    0.13
  11  -1  -7    0.62    0.11
 -11   1  -7    0.57    0.11
 -11   1   9    0.85    0.14
  11   1  -9    0.72    0.13
 -11  -1  -9    0.78    0.12
 -11  -1   9    0.85    0.15
 -11   1  -9    0.91    0.13
  11  -1  -9    0.59    0.12
 -11   1  11    0.34    0.13
  11   1 -11    0.51    0.12
 -11  -1 -11    0.57    0.12
 -11   1 -11    0.30    0.11
  11  -1 -11    0.45    0.12
 -11  -1  11    0.13    0.12
 -11  -1 -13    0.17    0.11
  11   1 -13    0.17    0.11
 -11   1 -13   -0.01    0.10
  11  -1 -13    0.03    0.10
  13   1  -1    0.86    0.10
  13  -1   1    0.73    0.08
 -13  -1  -1    0.82    0.11
 -13   1   1    0.81    0.11
 -13   1  -1    0.73    0.11
  13  -1  -1    0.72    0.09
  13   1   1    0.72    0.08
 -13  -1   1    0.73    0.11
 -13  -1  -3    4.42    0.19
 -13  -1  -3    4.11    0.22
 -13   1   3    4.85    0.25
  13   1  -3    4.45    0.22
  13  -1  -3    4.08    0.22
 -13  -1   3    4.71    0.25
 -13   1  -3    4.23    0.19
 -13   1  -3    4.29    0.22
 -13  -1  -5    0.67    0.11
 -13  -1  -5    0.61    0.10
 -13   1   5    0.61    0.12
  13   1  -5    0.26    0.11
  13  -1  -5    0.42    0.11
 -13   1  -5    0.69    0.11
 -13  -1   5    0.61    0.13
 -13   1  -5    0.60    0.10
 -13  -1  -7    5.63    0.26
  13   1  -7    5.52    0.29
 -13   1   7    5.54    0.31
 -13  -1  -7    5.84    0.28
 -13   1  -7    5.47    0.28
 -13  -1   7    5.95    0.32
  13  -1  -7    5.37    0.29
 -13   1   9    0.78    0.15
 -13  -1  -9    1.10    0.14
  13   1  -9    1.07    0.15
 -13  -1   9    0.97    0.16
 -13   1  -9    0.99    0.14
  13  -1  -9    0.73    0.13
 -13  -1 -11    0.11    0.10
 -13   1  11    0.05    0.12
  13   1 -11    0.23    0.12
 -13  -1  11    0.51    0.15
  13  -1 -11    0.19    0.11
 -13   1 -11    0.40    0.12
  13   1 -13   -0.14    0.10
 -13  -1 -13    0.21    0.12
 -13  -1 -13    0.17    0.12
 -13   1 -13    0.01    0.11
  13  -1 -13   -0.08    0.11
  15   1  -1    1.62    0.14
 -15  -1  -1    1.96    0.17
 -15   1   1    1.69    0.16
  15  -1   1    1.76    0.13
 -15  -1   1    1.77    0.16
  15  -1  -1    1.57    0.14
 -15   1  -1    1.55    0.16
  15   1   1    1.68    0.13
  15   1  -3    6.27    0.29
 -15   1   3    5.87    0.31
 -15  -1  -3    5.62    0.29
  15  -1  -3    5.92    0.29
 -15   1  -3    5.88    0.29
 -15  -1   3    5.70    0.30
  15   1  -5    0.77    0.13
 -15  -1  -5    1.26    0.12
 -15   1   5    1.40    0.17
 -15  -1  -5    1.56    0.16
 -15   1  -5    1.15    0.14
  15  -1  -5    0.94    0.14
 -15  -1   5    1.28    0.17
 -15   1   7    0.90    0.16
  15   1  -7    0.86    0.15
 -15  -1  -7    1.21    0.13
 -15  -1  -7    1.15    0.15
 -15  -1   7    1.26    0.18
 -15   1  -7    1.42    0.16
  15  -1  -7    1.00    0.15
 -15   1  -7    1.20    0.14
 -15  -1  -9    0.45    0.12
 -15   1   9    0.76    0.16
 -15  -1  -9    0.50    0.12
  15   1  -9    0.48    0.12
 -15   1  -9    0.44    0.12
 -15   1  -9    0.39    0.11
 -15  -1   9    0.35    0.14
  15  -1  -9    0.33    0.12
 -15   1  11    0.10    0.13
  15   1 -11    0.18    0.12
 -15  -1 -11    0.13    0.11
 -15  -1 -11    0.04    0.10
 -15   1 -11    0.11    0.11
  15  -1 -11    0.08    0.11
 -15  -1  11   -0.05    0.12
 -15   1 -11    0.01    0.10
 -17  -1  -1    0.77    0.13
  17   1  -1    0.67    0.11
 -17   1   1    0.74    0.13
 -17   1  -1    0.87    0.14
  17  -1  -1    0.71    0.11
 -17  -1   1    0.71    0.13
 -17   1   3    0.71    0.14
  17   1  -3    0.69    0.12
 -17  -1  -3    0.95    0.14
 -17   1  -3    0.77    0.14
  17  -1  -3    0.81    0.13
 -17  -1   3    0.84    0.14
 -17   1   5    0.46    0.14
 -17  -1  -5    0.40    0.12
  17   1  -5    0.34    0.12
  17  -1  -5    0.43    0.12
 -17   1  -5    0.54    0.12
 -17  -1   5    0.61    0.14
 -17   1   7    1.31    0.20
  17   1  -7    0.91    0.16
 -17  -1  -7    1.03    0.15
 -17   1  -7    1.49    0.18
  17  -1  -7    0.93    0.16
 -17  -1   7    1.14    0.19
 -17  -1  -9    0.26    0.12
 -17   1   9    0.09    0.14
  17   1  -9    0.03    0.10
  17  -1  -9   -0.07    0.10
 -17   1  -9    0.02    0.10
 -17  -1   9    0.01    0.13
 -17  -1 -11    0.28    0.13
 -17   1 -11    0.31    0.13
 -19   1   1    2.37    0.22
  19   1  -1    2.91    0.21
 -19  -1  -1    2.91    0.23
  19  -1  -1    2.48    0.19
 -19   1  -1    2.32    0.22
 -19  -1   1    2.29    0.23
 -19  -1  -3    1.12    0.16
  19   1  -3    0.78    0.13
 -19   1   3    0.96    0.16
  19  -1  -3    0.84    0.13
 -19   1  -3    1.03    0.16
 -19  -1   3    1.06    0.17
  19   1  -5    0.25    0.11
 -19  -1  -5    0.09    0.10
 -19   1   5    0.38    0.14
 -19  -1   5    0.06    0.11
  19  -1  -5    0.22    0.11
 -19   1  -5    0.14    0.12
  19   1  -7    0.15    0.11
 -19   1   7    0.40    0.15
 -19  -1  -7    0.37    0.13
 -19  -1   7    0.53    0.16
 -19   1  -7    0.24    0.12
  19  -1  -7    0.32    0.13
 -19   1   9    0.01    0.14
 -19  -1  -9   -0.07    0.11
 -19   1  -9    0.12    0.12
 -19  -1   9    0.11    0.15
 -21   1   1    0.54    0.14
 -21  -1  -1    0.51    0.14
 -21  -1   1    0.49    0.15
 -21   1  -1    0.87    0.17
 -21  -1  -3    0.06    0.11
  21   1  -3   -0.20    0.09
 -21   1   3    0.07    0.12
 -21  -1   3    0.18    0.13
 -21   1  -3    0.16    0.12
  21  -1  -3    0.02    0.10
  21   1  -5    0.16    0.12
 -21  -1  -5   -0.03    0.11
 -21   1   5    0.07    0.14
 -21  -1   5    0.15    0.13
  21  -1  -5   -0.05    0.10
 -21   1  -5   -0.11    0.11
 -21  -1  -7    0.19    0.13
  21   1  -7    0.04    0.12
  21  -1  -7    0.00    0.11
 -23  -1  -1    0.17    0.13
 -23   1  -1    0.14    0.12
   0  -2   0    0.00    0.00
   0   2   0    0.00    0.00
   0  -2   2  397.26   11.05
   0   2  -2  369.82   11.85
   0   2   2  388.64   11.41
   0   2  -4   -0.01    0.02
   0  -2   4   -0.03    0.02
   0   2   4   -0.04    0.02
   0   2   6    6.70    0.27
   0  -2   6    8.43    0.28
   0   2  -6    8.19    0.27
   0  -2  -8    0.14    0.07
   0   2  -8    0.04    0.07
   0  -2  -8   -0.01    0.05
   0   2  -8   -0.07    0.04
   0  -2 -10    0.29    0.07
   0   2 -10    0.24    0.10
   0  -2 -10    0.12    0.09
   0   2 -10    0.16    0.06
   0  -2 -12    0.03    0.09
   0   2 -12   -0.01    0.09
   0  -2 -14    0.24    0.12
   0   2 -14    0.22    0.12
   0  -2 -16   -0.05    0.12
   0   2 -16   -0.05    0.11
  -2  -2   0    6.95    0.23
  -2   2   0    7.40    0.24
  -2  -2   0    7.75    0.23
   2   2   0    7.48    0.24
  -2   2   0    7.54    0.23
  -2   2   2   10.26    0.30
   2   2  -2    9.91    0.31
   2  -2   2    9.90    0.31
  -2  -2  -2    9.89    0.30
  -2   2   2    9.71    0.31
  -2   2   2    9.68    0.32
  -2  -2   2    9.80    0.30
  -2   2  -2    9.96    0.29
  -2   2  -2    9.51    0.31
   2   2   2    9.77    0.29
  -2  -2   2   10.02    0.31
  -2   2   4   17.47    0.56
   2   2  -4   18.21    0.56
  -2  -2  -4   17.38    0.55
  -2   2  -4   18.12    0.54
   2   2   4   17.61    0.54
  -2   2  -4   18.24    0.55
  -2  -2   4   17.31    0.54
  -2   2   6    1.24    0.10
  -2  -2  -6    1.24    0.10
   2   2  -6    1.11    0.09
  -2  -2  -6    1.10    0.06
  -2  -2   6    1.11    0.09
  -2   2  -6    1.26    0.09
  -2   2  -6    1.14    0.07
  -2  -2  -8    4.49    0.21
  -2  -2  -8    4.20    0.17
   2   2  -8    4.29    0.20
   2  -2  -8    4.67    0.20
  -2   2  -8    4.44    0.17
  -2   2  -8    4.44    0.22
   2   2 -10    3.23    0.19
  -2  -2 -10    3.33    0.20
   2  -2 -10    3.53    0.19
  -2   2 -10    3.41    0.21
  -2  -2 -12    0.67    0.12
   2   2 -12    0.54    0.12
   2  -2 -12    0.41    0.11
  -2   2 -12    0.48    0.11
   2   2 -14    1.11    0.17
  -2  -2 -14    1.08    0.16
  -2   2 -14    1.24    0.18
   2  -2 -14    1.16    0.17
   2   2 -16   -0.04    0.11
  -2  -2 -16    0.08    0.12
  -2   2 -16   -0.03    0.12
   2  -2 -16    0.00    0.11
   4   2   0  104.63    3.09
  -4  -2   0  104.68    3.00
  -4   2   0   96.56    3.00
  -4  -2   0  109.32    2.99
  -4   2   0  106.57    3.09
  -4   2   2  260.77    7.38
  -4   2   2  252.80    7.44
  -4  -2  -2  253.40    8.23
   4   2   2  264.60    7.63
  -4  -2   2  261.82    7.39
  -4   2  -2  258.17    7.47
  -4   2  -2  256.60    7.63
  -4   2   4   21.26    0.68
  -4   2   4   22.36    0.65
   4   2  -4   22.39    0.69
  -4   2   4   21.21    0.69
  -4  -2  -4   21.57    0.67
  -4   2  -4   21.71    0.67
  -4  -2   4   21.91    0.65
  -4  -2   4   21.54    0.68
   4   2  -6   35.68    1.07
  -4  -2  -6   34.34    1.04
  -4   2   6   32.56    1.05
  -4  -2  -6   34.06    1.01
  -4   2   6   33.29    1.07
  -4  -2   6   34.12    1.06
  -4   2  -6   34.92    1.01
  -4  -2   6   33.65    1.02
  -4   2  -6   34.54    1.04
   4   2  -8    0.53    0.09
  -4  -2  -8    0.65    0.09
   4  -2  -8    0.72    0.10
  -4   2  -8    0.58    0.10
  -4  -2   8    0.60    0.08
   4   2 -10    4.57    0.23
  -4  -2 -10    4.87    0.24
  -4   2 -10    4.38    0.24
   4  -2 -10    4.64    0.23
   4   2 -12    0.38    0.09
  -4  -2 -12    0.37    0.11
  -4   2 -12    0.55    0.12
   4  -2 -12    0.50    0.10
  -4  -2 -14    0.07    0.11
   4   2 -14    0.29    0.13
  -4   2 -14    0.01    0.11
   4  -2 -14    0.13    0.12
  -4  -2 -16    0.29    0.14
   4  -2 -16    0.06    0.13
  -4   2 -16    0.25    0.14
  -6  -2   0    8.98    0.27
  -6  -2   0    8.39    0.29
  -6   2   0    8.79    0.26
   6   2   0    8.58    0.29
  -6   2   0    8.48    0.29
  -6  -2  -2   24.25    0.74
  -6   2   2   24.75    0.77
  -6   2   2   23.84    0.75
  -6   2   2   24.37    0.71
   6   2   2   24.93    0.74
  -6   2  -2   24.51    0.74
  -6  -2   2   25.09    0.72
  -6   2  -2   24.79    0.75
  -6   2   4    4.92    0.21
  -6  -2  -4    4.97    0.20
  -6   2   4    5.03    0.17
  -6   2   4    4.99    0.21
   6   2  -4    4.88    0.21
  -6  -2   4    4.87    0.21
  -6   2  -4    5.27    0.20
  -6  -2   4    5.16    0.18
  -6   2   6    2.18    0.14
   6   2  -6    1.76    0.12
  -6  -2  -6    2.01    0.13
  -6   2   6    1.75    0.14
  -6   2  -6    1.89    0.13
  -6  -2   6    2.09    0.14
  -6  -2   6    1.97    0.11
  -6   2   8    2.09    0.17
   6   2  -8    2.21    0.16
  -6  -2  -8    2.33    0.15
  -6  -2   8    2.25    0.17
  -6  -2   8    2.11    0.13
   6  -2  -8    2.21    0.15
  -6   2  -8    2.08    0.15
  -6  -2 -10    0.66    0.11
   6   2 -10    0.66    0.11
  -6   2 -10    0.66    0.11
   6  -2 -10    0.79    0.12
   6   2 -12    0.02    0.08
  -6  -2 -12    0.23    0.10
  -6   2 -12    0.16    0.10
   6  -2 -12   -0.14    0.07
   6   2 -14    0.16    0.12
  -6  -2 -14    0.20    0.12
   6  -2 -14    0.26    0.12
  -6   2 -14    0.20    0.12
  -8  -2   0   48.11    1.36
  -8   2   0   47.89    1.35
  -8   2   0   44.89    1.43
  -8  -2   0   46.57    1.40
   8  -2   2    2.15    0.09
  -8  -2  -2    2.12    0.12
  -8   2   2    1.87    0.13
   8   2  -2    1.92    0.12
  -8   2   2    2.02    0.13
   8   2   2    2.17    0.09
  -8  -2   2    2.22    0.08
  -8   2  -2    2.11    0.12
  -8  -2  -4    5.16    0.21
  -8   2   4    4.92    0.23
   8   2  -4    5.12    0.22
  -8   2   4    4.78    0.16
  -8  -2   4    4.90    0.22
   8   2   4    4.56    0.16
  -8  -2   4    5.03    0.17
  -8   2  -4    5.47    0.21
  -8  -2  -6    2.48    0.15
  -8   2   6    2.61    0.16
   8   2  -6    2.48    0.16
  -8   2  -6    2.18    0.14
  -8  -2   6    2.82    0.17
  -8  -2   6    2.47    0.12
  -8   2   8    3.33    0.22
  -8  -2  -8    3.84    0.21
   8   2  -8    3.62    0.21
  -8  -2   8    3.76    0.23
   8  -2  -8    3.72    0.21
  -8   2  -8    4.10    0.21
   8   2 -10    0.76    0.12
  -8  -2 -10    0.69    0.11
  -8   2 -10    0.61    0.11
   8  -2 -10    0.35    0.10
   8   2 -12    1.52    0.17
  -8  -2 -12    1.52    0.17
   8  -2 -12    1.75    0.18
  -8   2 -12    1.41    0.17
  -8  -2 -14    0.22    0.12
  -8   2 -14    0.28    0.13
  10   2   0   14.03    0.47
 -10  -2   0   13.68    0.48
 -10  -2   0   14.22    0.43
 -10   2   0   14.18    0.43
 -10   2   2    1.38    0.12
 -10  -2  -2    1.66    0.12
 -10  -2  -2    1.57    0.09
 -10   2   2    1.39    0.11
  10   2  -2    1.54    0.11
 -10   2  -2    1.77    0.11
 -10  -2   2    1.38    0.07
  10   2  -4    0.83    0.10
 -10  -2  -4    1.02    0.10
 -10   2   4    1.01    0.11
 -10  -2   4    1.04    0.12
 -10   2  -4    0.81    0.09
  10   2  -6   14.03    0.50
 -10  -2  -6   13.23    0.47
 -10   2   6   13.53    0.51
 -10   2  -6   12.78    0.48
 -10  -2   6   13.08    0.51
  10  -2  -6   13.87    0.50
  10   2  -8    0.70    0.12
 -10  -2  -8    0.96    0.12
 -10   2   8    0.84    0.13
 -10   2  -8    1.04    0.12
  10  -2  -8    0.94    0.13
 -10  -2   8    1.07    0.15
 -10   2  10    1.43    0.18
 -10  -2 -10    1.26    0.14
  10   2 -10    1.21    0.16
  10  -2 -10    1.08    0.15
 -10   2 -10    1.45    0.15
 -10  -2  10    1.44    0.18
 -10  -2 -12    0.30    0.11
  10   2 -12    0.05    0.10
  10  -2 -12   -0.01    0.10
 -10   2 -12    0.12    0.10
 -10  -2 -14    0.97    0.16
  10   2 -14    0.62    0.15
 -10   2 -14    0.81    0.16
  10  -2 -14    0.51    0.14
 -12  -2   0    5.80    0.20
  12  -2   0    5.69    0.24
  12   2   0    5.80    0.24
 -12  -2  -2    3.01    0.14
  12  -2   2    3.12    0.14
 -12  -2  -2    3.11    0.17
  12   2  -2    2.87    0.16
 -12   2   2    2.83    0.18
  12  -2  -2    2.90    0.17
  12   2   2    3.01    0.14
 -12   2  -2    3.01    0.13
 -12   2  -2    2.67    0.16
  12   2  -4    4.88    0.25
 -12  -2  -4    5.12    0.22
 -12   2   4    5.28    0.27
 -12  -2  -4    5.03    0.24
 -12   2  -4    5.03    0.24
 -12   2  -4    5.31    0.22
 -12  -2   4    4.86    0.26
  12  -2  -4    5.09    0.25
 -12  -2  -6    2.34    0.17
 -12   2   6    2.08    0.20
 -12  -2  -6    1.79    0.14
  12   2  -6    1.85    0.17
 -12  -2   6    2.03    0.19
 -12   2  -6    2.19    0.17
  12  -2  -6    2.18    0.17
 -12  -2  -8    5.37    0.26
 -12   2   8    4.98    0.30
  12   2  -8    4.80    0.27
 -12   2  -8    5.29    0.27
  12  -2  -8    5.33    0.28
 -12  -2   8    5.17    0.30
 -12   2  10    0.85    0.16
  12   2 -10    0.82    0.14
 -12  -2 -10    0.83    0.13
 -12   2 -10    0.91    0.14
  12  -2 -10    0.64    0.13
 -12  -2  10    0.83    0.16
 -12  -2 -12    0.12    0.10
  12   2 -12    0.21    0.11
  12  -2 -12    0.27    0.12
 -12   2 -12    0.01    0.10
  12   2 -14    0.15    0.13
 -12  -2 -14    0.23    0.13
  12  -2 -14    0.32    0.14
  14  -2   0    2.77    0.16
  14   2   0    2.74    0.16
 -14  -2   0    2.72    0.18
 -14   2   0    2.61    0.18
  14  -2   2    0.72    0.09
 -14   2   2    0.88    0.12
  14   2  -2    0.76    0.11
 -14  -2  -2    0.80    0.12
  14   2   2    0.75    0.09
 -14   2  -2    0.71    0.11
 -14  -2   2    0.78    0.12
  14  -2  -2    0.72    0.11
 -14  -2  -4    5.92    0.24
 -14  -2  -4    5.17    0.27
  14   2  -4    4.89    0.27
 -14   2   4    5.85    0.30
 -14   2  -4    5.65    0.28
 -14  -2   4    5.27    0.29
 -14   2  -4    5.33    0.23
  14  -2  -4    5.13    0.27
 -14  -2  -6    2.30    0.18
 -14   2   6    2.32    0.21
  14   2  -6    2.19    0.19
 -14  -2  -6    2.16    0.16
 -14   2  -6    2.01    0.15
 -14   2  -6    2.04    0.17
 -14  -2   6    2.39    0.20
  14  -2  -6    2.00    0.18
 -14  -2  -8    0.50    0.11
  14   2  -8    0.44    0.12
 -14   2   8    0.20    0.12
 -14  -2  -8    0.27    0.11
 -14   2  -8    0.23    0.10
 -14  -2   8    0.33    0.13
  14  -2  -8    0.08    0.10
  14   2 -10    0.07    0.10
 -14   2  10    0.37    0.14
 -14  -2 -10    0.29    0.11
 -14  -2 -10    0.33    0.11
 -14   2 -10    0.51    0.12
 -14  -2  10    0.29    0.14
  14  -2 -10    0.34    0.12
  14   2 -12   -0.03    0.10
 -14  -2 -12    0.01    0.11
 -14  -2 -12    0.16    0.11
 -14   2  12   -0.16    0.12
 -14   2 -12   -0.18    0.09
  14  -2 -12   -0.02    0.11
  16  -2   0    4.78    0.23
 -16  -2   0    4.71    0.26
 -16   2   0    4.32    0.26
  16   2   0    4.88    0.23
 -16  -2  -2    3.51    0.22
  16   2  -2    3.36    0.21
 -16   2   2    3.39    0.23
  16  -2  -2    3.55    0.21
 -16   2  -2    2.98    0.22
 -16  -2   2    3.38    0.23
 -16   2   4    2.37    0.22
  16   2  -4    2.29    0.19
 -16  -2  -4    2.49    0.20
 -16   2  -4    2.84    0.20
  16  -2  -4    2.52    0.20
 -16  -2   4    2.34    0.22
  16   2  -6   -0.02    0.08
 -16   2   6   -0.04    0.10
 -16  -2  -6   -0.01    0.09
 -16  -2   6    0.00    0.10
 -16   2  -6   -0.02    0.09
  16  -2  -6    0.13    0.10
  16   2  -8    0.56    0.13
 -16  -2  -8    0.51    0.11
 -16   2   8    0.70    0.15
 -16  -2  -8    0.73    0.14
 -16  -2   8    0.66    0.16
  16  -2  -8    0.39    0.12
 -16   2  -8    0.41    0.12
 -16  -2 -10    0.06    0.09
  16   2 -10    0.15    0.11
 -16   2  10    0.18    0.14
 -16  -2 -10    0.13    0.11
 -16  -2  10    0.11    0.14
 -16   2 -10    0.09    0.11
  16  -2 -10    0.19    0.11
 -16   2 -10   -0.12    0.09
 -16  -2 -12    0.21    0.12
 -16   2 -12    0.15    0.12
 -18   2   0    0.25    0.10
 -18  -2   0    0.07    0.10
 -18  -2  -2    3.74    0.25
  18   2  -2    4.40    0.24
 -18   2   2    3.89    0.25
  18  -2  -2    4.08    0.24
 -18   2  -2    4.08    0.25
 -18  -2   2    4.00    0.26
 -18  -2  -4    0.57    0.13
  18   2  -4    0.50    0.12
 -18   2   4    0.75    0.15
 -18  -2   4    0.86    0.16
 -18   2  -4    0.59    0.13
  18  -2  -4    0.33    0.11
  18   2  -6    1.74    0.19
 -18  -2  -6    2.65    0.21
 -18   2   6    2.14    0.24
 -18  -2   6    1.96    0.22
  18  -2  -6    1.83    0.20
 -18   2  -6    2.17    0.21
  18   2  -8    0.16    0.11
 -18   2   8    0.31    0.15
 -18  -2  -8    0.33    0.12
 -18   2  -8    0.42    0.13
 -18  -2   8    0.17    0.14
  18  -2  -8    0.53    0.13
 -18   2  10    0.51    0.16
 -18  -2 -10    0.47    0.14
 -18   2 -10    0.36    0.13
 -20  -2   0    2.99    0.23
 -20   2   0    3.04    0.24
 -20  -2  -2    0.89    0.16
 -20   2   2    0.75    0.15
  20   2  -2    0.98    0.14
 -20  -2   2    0.95    0.17
 -20   2  -2    0.69    0.15
  20  -2  -2    0.90    0.14
 -20  -2  -4    1.35    0.19
  20   2  -4    1.39    0.18
 -20   2   4    1.63    0.22
  20  -2  -4    1.55    0.18
 -20   2  -4    1.61    0.20
 -20  -2   4    1.62    0.21
  20   2  -6    0.56    0.14
 -20   2   6    0.57    0.17
 -20  -2  -6    0.74    0.16
 -20  -2   6    0.64    0.17
 -20   2  -6    0.95    0.17
  20  -2  -6    0.55    0.14
  20   2  -8    0.27    0.13
 -20  -2  -8    0.14    0.12
  20  -2  -8    0.26    0.13
 -20   2  -8    0.30    0.13
 -22   2   0    0.19    0.13
 -22  -2   0    0.20    0.12
 -22  -2  -2    0.34    0.14
 -22   2   2    0.58    0.16
 -22  -2   2    0.29    0.14
 -22   2  -2    0.11    0.13
  22   2  -4    0.08    0.12
 -22  -2  -4    0.09    0.12
 -22   2   4    0.13    0.13
 -22   2  -4    0.25    0.13
 -22  -2   4   -0.03    0.12
  22  -2  -4    0.09    0.12
  -1   3   1   64.94    1.91
  -1  -3  -1   64.89    1.86
  -1   3   1   63.32    1.86
   1  -3   1   59.40    1.85
   1   3   1   65.29    1.91
  -1   3  -1   67.62    1.91
  -1  -3   1   65.03    1.85
  -1  -3  -3   36.34    1.06
  -1   3   3   35.26    1.09
  -1   3   3   36.43    1.06
   1   3  -3   36.01    1.08
  -1   3  -3   36.37    1.07
   1   3   3   35.98    1.08
  -1  -3   3   35.62    1.05
  -1   3  -3   36.75    1.06
   1  -3   5   73.33    2.12
  -1  -3  -5   73.61    2.13
   1   3  -5   73.37    2.18
  -1   3   5   67.77    2.18
  -1  -3   5   73.34    2.12
  -1   3  -5   74.94    2.13
  -1   3  -5   72.54    2.17
   1   3   5   74.64    2.17
  -1   3   7    8.87    0.32
   1   3  -7    9.17    0.32
  -1  -3  -7    9.18    0.33
  -1  -3   7    8.78    0.32
  -1   3  -7    8.72    0.30
  -1   3  -7    9.18    0.34
   1   3  -9    4.22    0.20
  -1  -3  -9    4.27    0.22
  -1  -3  -9    4.33    0.18
   1   3  -9    4.59    0.23
   1  -3  -9    4.07    0.22
  -1   3  -9    4.57    0.22
   1  -3  -9    4.23    0.19
  -1   3  -9    4.17    0.18
   1   3 -11    2.91    0.20
  -1  -3 -11    2.63    0.19
   1  -3 -11    3.02    0.20
  -1   3 -11    2.98    0.20
   1   3 -13    0.31    0.12
  -1  -3 -13    0.50    0.12
   1  -3 -13    0.53    0.13
  -1   3 -13    0.47    0.12
  -1  -3 -15    0.18    0.12
   1   3 -15    0.46    0.14
  -1   3 -15    0.12    0.12
   1  -3 -15    0.15    0.12
  -3  -3  -1   55.84    1.61
  -3   3   1   53.28    1.66
   3  -3   1   57.08    1.60
  -3  -3  -1   55.61    1.60
   3   3  -1   56.66    1.66
  -3   3   1   54.85    1.61
   3   3   1   56.63    1.65
  -3  -3   1   55.70    1.60
  -3   3  -1   55.92    1.65
  -3   3   3  129.06    3.78
  -3  -3  -3  132.83    3.77
  -3   3   3  129.28    3.90
   3   3  -3  132.61    3.89
   3  -3   3  131.41    3.76
   3   3   3  130.83    3.87
  -3  -3   3  131.21    3.75
  -3   3  -3  132.70    3.78
  -3   3   5    0.93    0.08
   3   3  -5    1.17    0.08
  -3   3   5    0.81    0.08
  -3  -3  -5    1.14    0.08
   3   3   5    1.04    0.05
  -3  -3   5    1.02    0.09
  -3  -3   5    0.80    0.07
  -3   3  -5    1.11    0.05
  -3   3  -5    1.15    0.08
  -3  -3  -7    4.05    0.15
  -3  -3  -7    4.43    0.19
   3   3  -7    3.79    0.18
  -3   3   7    4.18    0.20
  -3   3  -7    4.01    0.15
  -3  -3   7    4.49    0.19
  -3   3  -7    4.09    0.19
   3   3  -9   21.35    0.70
  -3  -3  -9   20.12    0.69
   3  -3  -9   20.83    0.69
  -3   3  -9   21.21    0.70
  -3  -3 -11    0.36    0.10
   3   3 -11    0.37    0.09
  -3   3 -11    0.32    0.10
   3  -3 -11    0.30    0.08
   3   3 -13    1.10    0.16
  -3  -3 -13    0.99    0.15
  -3   3 -13    1.21    0.16
   3  -3 -13    1.09    0.16
   3   3 -15    0.24    0.13
  -3  -3 -15    0.08    0.12
  -3   3 -15    0.34    0.13
   3  -3 -15    0.17    0.13
  -5   3   1   89.72    2.70
  -5  -3  -1   90.40    2.59
  -5  -3  -1   89.16    2.61
  -5   3   1   91.72    2.62
   5   3  -1   89.60    2.69
  -5  -3   1   90.84    2.59
  -5   3  -1   91.11    2.68
   5   3   1   91.59    2.68
  -5  -3  -3   10.30    0.35
  -5   3   3   11.10    0.32
  -5  -3   3   10.63    0.33
   5   3   3   10.89    0.32
  -5   3  -3   10.26    0.35
   5   3  -5   41.72    1.29
  -5  -3  -5   41.99    1.25
  -5   3   5   41.68    1.27
  -5   3   5   41.39    1.30
  -5   3  -5   42.37    1.25
  -5  -3   5   41.28    1.27
  -5  -3  -7   16.27    0.54
  -5   3   7   16.02    0.56
   5   3  -7   17.46    0.56
  -5   3   7   15.73    0.56
  -5   3  -7   15.75    0.54
  -5  -3   7   16.48    0.53
  -5  -3   7   16.13    0.57
   5   3  -9    4.92    0.24
  -5  -3  -9    4.86    0.24
  -5   3  -9    4.94    0.25
   5  -3  -9    5.08    0.24
   5   3 -11    0.69    0.11
  -5  -3 -11    0.85    0.12
  -5   3 -11    1.05    0.14
   5  -3 -11    0.71    0.11
  -5  -3 -13    0.18    0.10
  -5   3 -13    0.40    0.12
   5   3 -15   -0.03    0.12
  -5  -3 -15   -0.08    0.11
  -5   3 -15   -0.02    0.12
   5  -3 -15    0.18    0.13
  -7   3   1    9.46    0.33
  -7   3   1    9.45    0.33
  -7  -3  -1    9.54    0.32
  -7  -3  -1   10.05    0.30
  -7   3  -1    9.56    0.32
  -7  -3   1    8.56    0.33
   7   3   1    9.50    0.31
  -7  -3   1    9.82    0.29
   7  -3   3   26.82    0.80
  -7  -3  -3   26.08    0.81
  -7   3   3   26.39    0.85
   7   3  -3   26.85    0.84
  -7   3   3   26.20    0.83
  -7   3  -3   27.18    0.82
  -7  -3   3   26.94    0.78
  -7  -3   3   26.15    0.83
   7   3   3   27.18    0.80
  -7  -3  -5    2.15    0.12
  -7   3   5    1.79    0.13
   7   3  -5    2.20    0.13
  -7   3   5    1.48    0.13
  -7   3  -5    1.82    0.12
  -7  -3   5    1.98    0.13
   7   3  -7    1.98    0.15
  -7  -3  -7    2.29    0.14
  -7   3   7    2.33    0.17
  -7  -3   7    2.29    0.13
  -7  -3   7    2.15    0.16
  -7   3  -7    1.92    0.14
   7   3  -9    2.55    0.18
  -7   3   9    2.68    0.20
  -7  -3  -9    2.56    0.17
   7  -3  -9    2.49    0.18
  -7   3  -9    2.71    0.18
  -7  -3 -11    0.01    0.08
   7   3 -11    0.08    0.08
  -7   3 -11    0.15    0.09
   7  -3 -11    0.07    0.08
  -7  -3 -13    0.45    0.13
   7   3 -13    0.38    0.11
   7  -3 -13    0.59    0.12
  -7   3 -13    0.42    0.12
   7   3 -15    0.49    0.15
  -7  -3 -15    0.67    0.15
   7  -3 -15    0.34    0.15
  -7   3 -15    0.54    0.15
  -9  -3  -1    4.38    0.16
   9   3  -1    4.40    0.18
  -9   3   1    4.46    0.20
  -9   3   1    3.87    0.19
  -9   3   1    4.02    0.13
  -9  -3  -1    4.13    0.18
  -9  -3   1    4.36    0.15
  -9   3  -1    4.40    0.15
  -9   3  -1    4.15    0.18
  -9  -3   1    4.18    0.19
  -9   3   3    2.91    0.16
   9   3  -3    2.89    0.15
  -9  -3  -3    3.08    0.14
  -9  -3  -3    2.86    0.15
  -9   3   3    2.72    0.16
   9  -3   3    2.83    0.11
  -9  -3   3    2.87    0.16
  -9  -3   3    2.96    0.11
   9   3   3    2.96    0.12
  -9   3  -3    2.91    0.15
  -9  -3  -5    9.36    0.35
  -9   3   5    9.53    0.37
  -9   3  -5    9.29    0.35
  -9  -3   5    9.94    0.38
  -9  -3   5    9.62    0.31
   9   3  -7    2.79    0.18
  -9   3   7    2.68    0.19
  -9  -3  -7    2.35    0.16
  -9  -3   7    2.30    0.19
  -9   3  -7    2.49    0.16
   9  -3  -7    2.47    0.17
   9   3  -9    4.93    0.26
  -9  -3  -9    4.47    0.24
  -9   3   9    4.71    0.27
   9  -3  -9    5.00    0.26
  -9  -3   9    4.40    0.27
  -9   3  -9    4.71    0.25
   9   3 -11   -0.02    0.09
  -9  -3 -11   -0.05    0.08
   9  -3 -11    0.03    0.09
  -9   3 -11    0.09    0.09
   9   3 -13    0.10    0.10
  -9  -3 -13    0.22    0.11
  -9   3 -13    0.12    0.11
   9  -3 -13    0.05    0.10
  -9  -3 -15    0.14    0.12
  -9   3 -15    0.13    0.13
  11   3  -1    6.64    0.26
 -11   3   1    6.24    0.26
  11  -3   1    6.42    0.24
 -11  -3  -1    6.09    0.26
  11   3   1    6.65    0.25
 -11   3  -1    6.48    0.22
 -11  -3   1    6.33    0.21
 -11  -3  -3   14.14    0.46
  11  -3   3   13.86    0.46
 -11  -3  -3   14.45    0.49
 -11   3   3   14.48    0.51
  11   3  -3   15.05    0.51
 -11   3   3   14.20    0.52
 -11   3  -3   14.34    0.50
  11   3   3   13.94    0.46
 -11  -3  -5    7.07    0.29
 -11   3   5    6.92    0.31
 -11  -3  -5    6.81    0.27
  11   3  -5    6.72    0.30
 -11   3  -5    6.80    0.29
 -11  -3   5    6.35    0.31
 -11   3   7    1.05    0.14
 -11  -3  -7    1.05    0.12
  11   3  -7    0.87    0.12
 -11  -3   7    0.91    0.14
  11  -3  -7    0.87    0.12
 -11   3  -7    0.95    0.12
 -11  -3  -9    0.66    0.11
  11   3  -9    0.56    0.12
 -11   3   9    0.89    0.14
 -11   3  -9    0.85    0.13
 -11  -3   9    0.69    0.15
  11  -3  -9    0.68    0.13
 -11  -3 -11    0.06    0.09
  11   3 -11    0.13    0.10
 -11   3  11    0.00    0.10
  11  -3 -11    0.11    0.09
 -11   3 -11    0.07    0.10
  11   3 -13    0.23    0.12
 -11  -3 -13    0.31    0.12
  11  -3 -13    0.21    0.12
 -11   3 -13    0.19    0.12
 -13   3   1    3.23    0.19
 -13  -3  -1    2.87    0.13
  13   3  -1    2.87    0.17
 -13  -3  -1    2.54    0.17
  13  -3   1    3.09    0.15
  13  -3  -1    2.80    0.17
  13   3   1    2.82    0.15
 -13   3  -1    2.95    0.18
 -13  -3   1    2.98    0.19
 -13   3   3    0.11    0.08
  13   3  -3    0.04    0.08
 -13  -3  -3    0.10    0.08
 -13  -3  -3    0.17    0.06
 -13   3  -3    0.24    0.08
 -13   3  -3    0.09    0.06
 -13  -3   3    0.08    0.08
  13  -3  -3   -0.14    0.07
  13   3  -5   10.07    0.43
 -13   3   5   10.21    0.44
 -13  -3  -5   10.94    0.42
 -13  -3  -5   10.60    0.39
  13  -3  -5   10.89    0.43
 -13   3  -5   10.35    0.42
 -13  -3   5   10.30    0.44
 -13  -3  -7    2.64    0.18
  13   3  -7    2.64    0.21
 -13   3   7    2.89    0.22
 -13  -3  -7    2.64    0.18
  13  -3  -7    2.29    0.19
 -13   3  -7    2.47    0.19
 -13  -3   7    2.78    0.23
 -13   3   9    0.45    0.14
 -13  -3  -9    0.48    0.11
  13   3  -9    0.46    0.12
 -13  -3  -9    0.66    0.12
 -13  -3   9    0.51    0.14
 -13   3  -9    0.43    0.11
  13  -3  -9    0.43    0.12
  13   3 -11    0.00    0.10
 -13   3  11   -0.03    0.12
 -13  -3 -11    0.07    0.10
 -13  -3 -11    0.10    0.10
 -13   3 -11    0.15    0.11
  13  -3 -11   -0.01    0.10
 -13  -3  11    0.40    0.15
 -13  -3 -13    0.11    0.11
  13   3 -13   -0.05    0.11
 -13  -3 -13    0.23    0.12
  13  -3 -13    0.12    0.12
 -13   3 -13    0.12    0.12
 -15   3   1    0.18    0.09
 -15  -3  -1    0.06    0.08
  15   3  -1    0.16    0.08
  15  -3   1    0.20    0.07
 -15   3  -1    0.25    0.09
 -15  -3   1    0.19    0.08
  15  -3  -1    0.25    0.08
  15   3   1    0.28    0.07
 -15   3   3    0.93    0.14
 -15  -3  -3    0.93    0.13
  15   3  -3    0.86    0.13
 -15   3  -3    1.09    0.13
 -15  -3   3    0.98    0.14
  15  -3  -3    0.66    0.12
 -15  -3  -5    0.28    0.08
 -15   3   5    0.22    0.11
  15   3  -5   -0.13    0.09
 -15  -3  -5    0.04    0.09
 -15  -3   5    0.40    0.12
 -15   3  -5    0.21    0.09
  15  -3  -5   -0.20    0.08
 -15  -3  -7    0.32    0.11
 -15   3   7    0.19    0.11
 -15  -3  -7    0.29    0.10
  15   3  -7    0.07    0.11
 -15   3  -7    0.11    0.10
  15  -3  -7    0.08    0.10
 -15  -3   7    0.32    0.13
 -15   3  -7    0.13    0.09
 -15  -3  -9    0.33    0.10
  15   3  -9    0.40    0.12
 -15  -3  -9    0.19    0.11
 -15   3   9    0.25    0.14
 -15   3  -9    0.42    0.11
 -15  -3   9    0.47    0.15
  15  -3  -9    0.22    0.11
 -15   3  -9    0.37    0.11
 -15  -3 -11   -0.03    0.10
 -15   3  11   -0.06    0.12
  15   3 -11   -0.03    0.10
 -15  -3 -11    0.16    0.10
 -15  -3  11    0.07    0.13
  15  -3 -11    0.15    0.11
 -15   3 -11    0.06    0.11
 -15   3 -11   -0.06    0.10
 -17   3   1    0.64    0.12
  17   3  -1    0.47    0.10
 -17  -3  -1    0.56    0.12
 -17  -3   1    0.41    0.11
  17  -3  -1    0.48    0.10
 -17   3  -1    0.74    0.13
 -17   3   3    0.21    0.10
  17   3  -3    0.10    0.09
 -17  -3  -3    0.07    0.09
  17  -3  -3    0.01    0.08
 -17  -3   3    0.21    0.11
 -17   3  -3    0.20    0.10
 -17   3   5    0.99    0.17
  17   3  -5    0.75    0.14
 -17  -3  -5    0.96    0.15
 -17   3  -5    0.86    0.14
  17  -3  -5    0.64    0.13
 -17  -3   5    0.99    0.16
  17   3  -7    0.14    0.11
 -17   3   7    0.20    0.13
 -17  -3  -7    0.13    0.11
 -17  -3   7    0.30    0.14
 -17   3  -7    0.31    0.11
  17  -3  -7    0.10    0.11
  17   3  -9    0.11    0.11
 -17  -3  -9    0.60    0.14
 -17   3   9    0.23    0.15
 -17   3  -9    0.33    0.13
 -17  -3   9    0.07    0.13
  17  -3  -9    0.29    0.12
 -17  -3 -11    0.04    0.11
 -17   3 -11   -0.03    0.11
 -19  -3  -1    0.46    0.13
  19   3  -1    0.41    0.11
 -19   3   1    0.65    0.14
 -19  -3   1    0.38    0.12
  19  -3  -1    0.44    0.11
 -19   3  -1    0.33    0.12
  19   3  -3    0.44    0.12
 -19   3   3    0.33    0.12
 -19  -3  -3    0.50    0.13
 -19  -3   3    0.25    0.12
  19  -3  -3    0.54    0.12
 -19   3  -3    0.48    0.13
 -19  -3  -5    0.18    0.12
 -19   3   5    0.26    0.13
  19   3  -5    0.16    0.11
 -19  -3   5    0.50    0.14
  19  -3  -5    0.21    0.11
 -19   3  -5    0.29    0.12
 -19  -3  -7    0.68    0.15
  19   3  -7    0.29    0.12
 -19   3   7    0.49    0.17
 -19   3  -7    0.61    0.15
 -19  -3   7    0.52    0.16
  19  -3  -7    0.48    0.13
 -19   3   9   -0.05    0.13
 -19  -3  -9   -0.05    0.10
 -19   3  -9   -0.12    0.11
 -19  -3   9   -0.07    0.12
 -21  -3  -1    0.19    0.13
 -21   3   1    0.22    0.13
 -21  -3   1   -0.01    0.11
 -21   3  -1    0.07    0.11
 -21  -3  -3    0.07    0.12
 -21   3   3    0.18    0.13
  21   3  -3    0.11    0.11
 -21  -3   3    0.32    0.13
 -21   3  -3    0.19    0.12
  21  -3  -3    0.11    0.11
 -21   3   5    0.56    0.16
  21   3  -5    0.64    0.14
 -21  -3  -5    0.58    0.15
  21  -3  -5    0.20    0.12
 -21  -3   5    0.09    0.13
 -21   3  -5    0.57    0.14
  21   3  -7    0.17    0.12
 -21  -3  -7    0.21    0.13
  21  -3  -7    0.08    0.11
 -23  -3  -1    0.02    0.12
 -23   3   1   -0.24    0.09
 -23  -3   1    0.11    0.13
   0  -4   2   -0.06    0.02
   0   4   2   -0.04    0.02
   0   4  -2   -0.02    0.02
   0   4  -4   76.78    2.29
   0   4   4   77.27    2.29
   0  -4   6   -0.03    0.04
   0   4  -6    0.01    0.03
   0   4   6    0.02    0.03
   0   4  -8    7.40    0.30
   0   4  -8    7.49    0.27
   0  -4  -8    7.51    0.29
   0   4 -10    0.01    0.09
   0  -4 -10    0.02    0.09
   0  -4 -10    0.05    0.06
   0   4 -10   -0.02    0.06
   0  -4 -12    0.56    0.12
   0   4 -12    0.68    0.13
   0  -4 -14   -0.08    0.10
   0   4 -14    0.12    0.12
   0   4 -16   -0.04    0.12
   2   4   0  238.15    6.82
  -2  -4   0  224.88    6.63
   2  -4   0  233.89    6.57
  -2   4   0  231.09    6.82
  -2  -4   0  231.64    6.60
  -2   4   0  221.32    6.62
  -2  -4  -2  158.55    4.55
   2   4  -2  155.86    4.66
  -2   4   2  156.88    4.56
  -2   4   2  154.84    4.66
   2  -4   2  157.97    4.53
   2   4   2  155.39    4.66
  -2  -4   2  159.30    4.53
  -2   4  -2  162.44    4.66
  -2   4   4   53.20    1.56
  -2  -4  -4   52.53    1.55
   2   4  -4   51.87    1.59
  -2   4   4   52.55    1.60
   2   4   4   53.79    1.57
  -2   4  -4   54.33    1.57
  -2   4  -4   52.63    1.55
  -2  -4   4   52.42    1.54
  -2   4   6   21.60    0.67
   2   4  -6   21.02    0.66
   2  -4   6   20.48    0.66
  -2  -4  -6   21.28    0.66
  -2  -4   6   20.55    0.65
  -2   4  -6   20.24    0.64
  -2   4  -6   21.01    0.67
   2   4   6   21.18    0.65
  -2  -4  -8    1.01    0.11
  -2  -4  -8    1.09    0.08
   2   4  -8    0.82    0.09
  -2   4  -8    0.93    0.07
  -2   4  -8    1.09    0.12
  -2  -4   8    1.09    0.11
  -2  -4 -10    6.36    0.28
   2   4 -10    5.90    0.26
  -2   4 -10    6.25    0.29
   2  -4 -10    5.80    0.26
  -2  -4 -12    0.22    0.09
   2   4 -12    0.30    0.10
  -2   4 -12    0.21    0.10
   2  -4 -12    0.36    0.11
  -2  -4 -14    0.50    0.13
   2   4 -14    0.62    0.15
   2  -4 -14    0.59    0.14
  -2   4 -14    0.57    0.14
   2   4 -16    0.09    0.13
  -2   4 -16    0.06    0.13
  -4  -4   0  178.57    5.06
  -4   4   0  175.63    5.20
   4   4   0  176.82    5.25
  -4   4   0  170.99    5.08
  -4  -4   0  179.82    5.08
   4  -4   2   30.45    0.87
  -4  -4  -2   28.74    0.87
  -4   4   2   29.00    0.88
  -4  -4   2   30.03    0.86
  -4   4  -2   28.63    0.88
   4   4   2   30.15    0.88
  -4   4   4    1.06    0.08
  -4  -4  -4    0.96    0.07
  -4   4   4    1.10    0.08
   4   4  -4    0.97    0.08
  -4  -4   4    1.08    0.08
  -4   4  -4    0.98    0.07
  -4  -4   4    1.01    0.07
  -4  -4  -6    4.66    0.16
   4   4  -6    5.11    0.21
  -4   4   6    5.16    0.22
  -4   4   6    5.08    0.22
  -4  -4  -6    5.03    0.20
  -4  -4   6    5.13    0.20
  -4   4  -6    4.84    0.21
  -4  -4   6    5.07    0.23
  -4   4  -6    4.73    0.16
  -4   4   8   18.24    0.62
   4   4  -8   17.72    0.60
  -4  -4  -8   18.11    0.60
  -4  -4   8   17.10    0.58
  -4   4  -8   18.40    0.61
  -4  -4 -10    0.44    0.10
   4   4 -10    0.33    0.09
   4  -4 -10    0.26    0.09
  -4   4 -10    0.42    0.11
   4   4 -12    0.28    0.09
  -4  -4 -12    0.40    0.10
   4  -4 -12    0.53    0.10
  -4   4 -12    0.37    0.10
   4   4 -14    0.31    0.13
  -4  -4 -14    0.34    0.12
  -4   4 -14    0.26    0.13
   4  -4 -14    0.29    0.12
   6   4   0    0.21    0.03
  -6  -4   0    0.17    0.03
  -6   4   0    0.09    0.03
  -6  -4   0    0.13    0.03
  -6   4   0    0.21    0.02
  -6   4   2   34.62    1.07
  -6  -4  -2   35.77    1.06
  -6   4   2   35.04    1.10
   6   4  -2   31.61    1.09
  -6  -4  -2   36.47    1.05
  -6  -4   2   37.34    1.04
  -6   4  -2   36.98    1.07
   6   4   2   37.30    1.07
   6   4  -4    2.79    0.14
  -6   4   4    2.78    0.15
  -6   4   4    2.70    0.15
  -6  -4  -4    2.70    0.13
  -6  -4   4    3.01    0.12
  -6   4  -4    2.63    0.14
  -6  -4   4    2.69    0.15
  -6   4   6    8.29    0.33
  -6  -4  -6    8.01    0.31
  -6   4   6    8.49    0.33
   6   4  -6    8.46    0.32
  -6   4  -6    8.71    0.32
  -6  -4   6    8.66    0.30
  -6  -4   6    8.70    0.34
  -6   4   8    4.57    0.24
  -6  -4  -8    4.36    0.22
   6   4  -8    4.81    0.23
  -6   4  -8    4.75    0.23
  -6  -4   8    4.53    0.24
  -6  -4   8    4.65    0.20
   6   4 -10    2.79    0.18
  -6  -4 -10    2.62    0.18
   6  -4 -10    2.46    0.18
  -6   4 -10    2.66    0.18
   6   4 -12    0.07    0.09
  -6  -4 -12    0.09    0.09
  -6   4 -12    0.14    0.10
   6  -4 -12    0.02    0.08
  -6  -4 -14    0.72    0.14
   6   4 -14    0.67    0.15
  -6   4 -14    0.88    0.16
   6  -4 -14    0.62    0.15
  -8   4   0    9.75    0.29
  -8  -4   0    9.59    0.33
  -8   4   0    8.81    0.33
  -8   4   0    9.21    0.33
  -8  -4   0    9.78    0.30
  -8   4   2    9.00    0.34
  -8  -4  -2    9.95    0.34
   8   4  -2    9.61    0.34
  -8   4   2    9.68    0.34
  -8  -4   2    9.59    0.30
   8   4   2    9.81    0.31
  -8   4  -2    9.61    0.32
   8  -4   4    1.76    0.07
  -8  -4  -4    1.58    0.11
  -8   4   4    1.69    0.13
  -8   4   4    1.13    0.10
   8   4  -4    1.43    0.12
   8   4   4    1.60    0.07
  -8   4  -4    1.86    0.12
  -8  -4   4    1.83    0.09
  -8  -4   4    1.91    0.13
   8   4  -6    0.92    0.11
  -8   4   6    1.00    0.12
  -8  -4  -6    1.01    0.10
  -8   4   6    1.05    0.12
  -8   4  -6    0.83    0.10
  -8  -4   6    0.96    0.08
  -8  -4   6    0.79    0.11
   8   4  -8    1.92    0.16
  -8  -4  -8    2.13    0.15
  -8   4   8    2.18    0.18
  -8   4  -8    2.32    0.16
   8  -4  -8    2.11    0.17
  -8  -4   8    2.29    0.14
  -8  -4   8    2.15    0.19
   8   4 -10    1.12    0.14
  -8  -4 -10    1.24    0.14
   8  -4 -10    1.26    0.14
  -8   4 -10    1.54    0.16
  -8  -4 -12    0.21    0.10
   8   4 -12    0.03    0.09
   8  -4 -12    0.03    0.09
  -8   4 -12    0.17    0.10
  -8  -4 -14    1.60    0.19
  -8   4 -14    1.92    0.21
 -10   4   0    1.11    0.06
 -10  -4   0    1.26    0.07
  10   4   0    1.24    0.09
 -10   4   0    1.10    0.10
 -10  -4   0    1.35    0.11
 -10   4   0    1.26    0.10
  10   4  -2   14.24    0.48
 -10   4   2   13.98    0.48
 -10   4   2   13.82    0.48
 -10  -4  -2   13.65    0.44
 -10  -4  -2   14.64    0.47
 -10  -4   2   13.41    0.42
 -10   4  -2   12.96    0.47
 -10  -4  -4    2.08    0.12
  10   4  -4    2.12    0.15
 -10   4   4    1.91    0.15
 -10  -4  -4    2.12    0.14
 -10   4   4    2.19    0.15
 -10  -4   4    1.82    0.09
 -10   4  -4    1.92    0.13
 -10   4   6    1.94    0.17
  10   4  -6    2.17    0.17
 -10  -4  -6    2.54    0.16
 -10   4   6    2.45    0.17
 -10  -4   6    2.37    0.18
 -10   4  -6    2.28    0.16
 -10   4   8    0.74    0.13
  10   4  -8    0.64    0.12
 -10  -4  -8    0.70    0.11
  10  -4  -8    0.53    0.11
 -10  -4   8    0.71    0.13
 -10   4  -8    0.82    0.12
 -10   4  10    1.15    0.16
 -10  -4 -10    1.00    0.13
  10   4 -10    0.60    0.13
 -10  -4  10    1.02    0.16
  10  -4 -10    0.85    0.14
 -10   4 -10    1.20    0.14
 -10  -4 -12    0.31    0.11
  10   4 -12   -0.02    0.10
  10  -4 -12    0.22    0.11
 -10   4 -12    0.33    0.11
 -10  -4 -14    0.24    0.13
  10   4 -14    0.28    0.13
 -10   4 -14    0.34    0.13
  10  -4 -14    0.51    0.14
 -12  -4   0    8.64    0.34
  12   4   0    8.37    0.32
 -12  -4   0    8.35    0.28
 -12  -4  -2    8.43    0.34
  12   4  -2    8.97    0.34
 -12   4   2    8.72    0.36
  12  -4   2    8.93    0.31
 -12  -4  -2    8.78    0.31
  12   4   2    8.97    0.31
 -12   4  -2    8.71    0.30
 -12  -4  -4    1.17    0.11
  12   4  -4    1.17    0.13
 -12  -4  -4    1.21    0.12
 -12   4   4    1.11    0.13
 -12  -4   4    1.02    0.13
 -12   4  -4    1.01    0.12
 -12  -4  -6   11.45    0.42
  12   4  -6   10.85    0.44
 -12  -4  -6   10.39    0.40
 -12   4   6   10.78    0.45
 -12   4  -6   10.54    0.42
  12  -4  -6   11.47    0.45
 -12  -4   6   11.32    0.46
 -12   4   8    0.68    0.13
 -12  -4  -8    0.64    0.11
  12   4  -8    0.44    0.12
 -12  -4  -8    0.43    0.10
 -12   4  -8    0.65    0.11
  12  -4  -8    0.44    0.12
 -12  -4   8    0.66    0.15
 -12  -4 -10    0.35    0.11
 -12   4  10    0.54    0.14
  12   4 -10    0.27    0.11
  12  -4 -10    0.28    0.11
 -12   4 -10    0.32    0.10
 -12  -4  10    0.41    0.12
 -12  -4 -12    0.17    0.11
  12   4 -12    0.40    0.12
 -12  -4 -12    0.41    0.12
 -12   4 -12    0.14    0.11
  12  -4 -12    0.29    0.12
 -12  -4 -14    0.27    0.13
  14   4   0    2.48    0.15
 -14   4   0    2.04    0.16
  14  -4   0    2.39    0.15
 -14  -4   0    2.36    0.17
  14   4  -2    3.95    0.21
  14  -4   2    3.95    0.18
 -14  -4  -2    3.97    0.22
 -14   4   2    3.50    0.21
  14  -4  -2    3.45    0.20
  14   4   2    3.67    0.18
 -14  -4   2    4.01    0.23
 -14   4  -2    3.61    0.22
 -14  -4  -4   16.80    0.55
 -14  -4  -4   16.08    0.58
 -14   4   4   15.24    0.60
  14   4  -4   16.66    0.60
 -14  -4   4   17.10    0.62
  14  -4  -4   16.89    0.60
 -14   4  -4   15.86    0.54
 -14   4  -4   16.32    0.59
  14   4  -6    1.05    0.14
 -14   4   6    1.02    0.15
 -14  -4  -6    0.75    0.11
 -14  -4  -6    1.20    0.15
 -14  -4   6    1.01    0.16
  14  -4  -6    0.85    0.13
 -14   4  -6    1.11    0.14
 -14  -4  -8    0.83    0.13
 -14   4   8    0.90    0.16
 -14  -4  -8    1.25    0.14
  14   4  -8    0.66    0.13
 -14  -4   8    0.71    0.15
 -14   4  -8    1.04    0.15
  14  -4  -8    0.79    0.14
 -14  -4 -10    0.35    0.11
 -14   4  10    0.32    0.13
  14   4 -10    0.21    0.11
 -14  -4 -10    0.37    0.11
 -14   4 -10    0.26    0.11
  14  -4 -10    0.19    0.11
 -14  -4  10    0.53    0.15
 -14  -4 -12    0.30    0.12
 -14   4  12    0.35    0.15
  14   4 -12    0.06    0.11
 -14  -4 -12    0.62    0.13
 -14   4 -12    0.39    0.13
  14  -4 -12    0.39    0.13
  16  -4   0    1.43    0.13
 -16   4   0    1.55    0.16
  16   4   0    1.51    0.14
 -16  -4   0    1.59    0.16
  16   4  -2    3.12    0.20
 -16  -4  -2    3.26    0.21
 -16   4   2    3.18    0.21
  16  -4  -2    2.86    0.19
 -16  -4   2    3.59    0.23
 -16   4  -2    3.43    0.22
 -16   4   4    0.87    0.14
 -16  -4  -4    0.77    0.13
  16   4  -4    0.74    0.13
  16  -4  -4    0.59    0.12
 -16  -4   4    1.05    0.15
 -16   4  -4    0.61    0.12
 -16  -4  -6    0.65    0.13
 -16   4   6    0.75    0.16
  16   4  -6    0.69    0.13
  16  -4  -6    0.74    0.13
 -16  -4   6    0.91    0.16
 -16   4  -6    0.84    0.14
 -16  -4  -8    0.37    0.11
 -16  -4  -8    0.31    0.11
  16   4  -8    0.27    0.11
 -16   4   8    0.48    0.14
  16  -4  -8    0.28    0.12
 -16   4  -8    0.24    0.11
 -16  -4   8    0.28    0.13
 -16  -4 -10    0.31    0.12
  16   4 -10    0.26    0.12
 -16   4  10    0.34    0.15
 -16  -4 -10    0.34    0.11
  16  -4 -10    0.02    0.11
 -16   4 -10    0.39    0.12
 -16   4 -10    0.25    0.13
 -16  -4  10    0.23    0.15
 -16  -4 -12   -0.19    0.10
 -16  -4 -12   -0.01    0.10
 -16   4 -12   -0.03    0.10
 -18  -4   0    2.11    0.21
 -18   4   0    2.68    0.21
 -18  -4  -2    0.39    0.11
 -18   4   2    0.24    0.11
  18   4  -2    0.12    0.09
  18  -4  -2    0.18    0.09
 -18  -4   2    0.05    0.10
 -18   4  -2    0.19    0.11
  18   4  -4    0.09    0.10
 -18   4   4    0.20    0.11
 -18  -4  -4    0.32    0.12
  18  -4  -4    0.16    0.11
 -18  -4   4    0.24    0.12
 -18   4  -4    0.29    0.12
  18   4  -6    0.26    0.11
 -18   4   6    0.29    0.14
 -18  -4  -6    0.53    0.13
 -18   4  -6    0.24    0.12
 -18  -4   6    0.50    0.14
  18  -4  -6    0.23    0.11
 -18  -4  -8    0.07    0.11
  18   4  -8   -0.02    0.11
 -18   4   8    0.27    0.15
 -18  -4   8    0.21    0.14
 -18   4  -8    0.15    0.12
  18  -4  -8    0.04    0.10
 -18   4  10    0.11    0.14
 -18  -4 -10   -0.11    0.10
 -18   4 -10    0.07    0.13
 -20   4   0   -0.04    0.10
 -20  -4   0    0.05    0.11
  20   4  -2    1.31    0.16
 -20   4   2    1.46    0.20
 -20  -4  -2    1.39    0.18
 -20   4  -2    1.27    0.18
  20  -4  -2    1.31    0.16
 -20  -4   2    1.16    0.18
 -20  -4  -4    0.46    0.14
 -20   4   4    0.40    0.15
  20   4  -4    0.32    0.12
 -20  -4   4    0.53    0.15
  20  -4  -4    0.42    0.12
 -20   4  -4    0.50    0.14
 -20   4   6    0.15    0.14
 -20  -4  -6    0.21    0.12
  20   4  -6   -0.02    0.10
  20  -4  -6   -0.03    0.10
 -20  -4   6   -0.12    0.11
 -20   4  -6    0.01    0.11
  20   4  -8   -0.03    0.11
 -20   4   8    0.00    0.13
 -20  -4  -8    0.28    0.13
 -20   4  -8    0.00    0.11
  20  -4  -8    0.08    0.11
 -22  -4   0    0.50    0.14
 -22   4   0    0.63    0.16
 -22  -4  -2    0.51    0.14
 -22   4   2    0.30    0.13
 -22  -4   2    0.19    0.13
 -22   4  -2    0.19    0.13
 -22  -4  -4    0.88    0.17
  22   4  -4    0.65    0.15
 -22   4   4    0.55    0.16
  22  -4  -4    0.80    0.16
 -22  -4   4    0.72    0.17
 -22   4  -4    0.71    0.16
  -1   5   1   14.39    0.45
   1  -5   1   14.54    0.43
  -1  -5  -1   14.73    0.43
  -1   5   1   14.22    0.43
  -1  -5   1   14.65    0.43
   1   5   1   15.05    0.44
  -1   5  -1   14.92    0.43
  -1  -5   1   14.52    0.44
   1  -5  -1   14.91    0.43
  -1   5  -1   14.59    0.44
   1   5  -3    5.65    0.19
  -1  -5  -3    5.58    0.19
  -1   5   3    5.75    0.20
  -1   5   3    5.71    0.20
  -1  -5   3    5.54    0.19
   1   5   3    5.68    0.19
  -1   5  -3    5.86    0.19
  -1  -5  -5    5.13    0.19
   1   5  -5    5.05    0.19
  -1   5  -5    4.98    0.18
  -1  -5   5    5.04    0.20
  -1   5  -5    5.25    0.21
   1   5   5    5.33    0.19
   1  -5   7    1.21    0.11
   1   5  -7    1.28    0.09
  -1   5   7    1.35    0.10
  -1  -5  -7    1.42    0.11
  -1   5  -7    1.61    0.09
  -1   5  -7    1.54    0.11
  -1  -5   7    1.29    0.10
  -1  -5  -9    4.89    0.23
  -1  -5  -9    4.95    0.20
   1   5  -9    4.54    0.21
   1   5  -9    5.05    0.25
  -1   5  -9    4.47    0.20
   1  -5  -9    5.01    0.21
   1  -5  -9    4.65    0.23
  -1   5  -9    5.07    0.25
  -1  -5 -11   -0.04    0.08
   1   5 -11   -0.07    0.09
   1  -5 -11    0.08    0.09
  -1   5 -11    0.05    0.10
   1   5 -13    0.11    0.11
  -1  -5 -13    0.16    0.10
   1  -5 -13    0.11    0.10
  -1   5 -13    0.06    0.10
   1   5 -15   -0.02    0.11
  -1  -5 -15    0.07    0.11
   1  -5 -15    0.04    0.11
  -1   5 -15    0.15    0.12
  -3  -5  -1   22.01    0.65
   3  -5   1   22.31    0.65
  -3   5   1   21.15    0.67
  -3   5   1   22.68    0.66
  -3  -5  -1   21.72    0.65
   3   5  -1   22.09    0.67
  -3  -5   1   21.52    0.66
  -3  -5   1   21.88    0.65
  -3   5  -1   22.13    0.65
   3   5   1   22.46    0.66
   3  -5  -1   22.59    0.63
  -3   5  -1   22.06    0.66
  -3   5   3    0.25    0.04
  -3  -5  -3    0.38    0.04
   3   5  -3    0.29    0.04
  -3   5   3    0.25    0.04
   3  -5   3    0.27    0.04
   3   5   3    0.31    0.02
  -3   5  -3    0.12    0.03
  -3  -5   3    0.27    0.03
  -3   5  -3    0.26    0.02
  -3  -5  -5    1.07    0.08
   3   5  -5    0.96    0.08
  -3   5   5    1.02    0.09
  -3   5   5    0.83    0.08
   3  -5   5    0.97    0.08
  -3   5  -5    1.04    0.08
  -3  -5   5    1.01    0.07
  -3   5  -5    1.11    0.05
   3   5   5    1.08    0.06
  -3  -5   5    0.90    0.09
  -3  -5  -7    1.22    0.10
  -3   5   7    1.07    0.10
   3   5  -7    0.91    0.09
  -3   5  -7    0.90    0.10
  -3   5  -7    0.86    0.07
  -3  -5   7    1.09    0.09
  -3  -5  -9    1.99    0.15
   3   5  -9    1.88    0.15
  -3  -5   9    1.87    0.15
  -3   5  -9    2.18    0.17
   3   5 -11    0.17    0.08
  -3  -5 -11    0.34    0.10
  -3   5 -11    0.16    0.09
   3  -5 -11    0.30    0.08
  -3  -5 -13    0.19    0.10
   3   5 -13    0.23    0.12
   3  -5 -13    0.07    0.10
  -3   5 -13    0.09    0.11
   3   5 -15    0.00    0.11
  -3  -5 -15    0.02    0.11
  -3   5 -15   -0.02    0.11
   3  -5 -15    0.15    0.12
  -5   5   1   46.85    1.41
  -5  -5  -1   46.79    1.35
  -5   5   1   46.46    1.37
   5   5  -1   45.99    1.40
  -5  -5  -1   46.07    1.36
  -5  -5   1   47.84    1.35
  -5  -5   1   45.16    1.37
  -5   5  -1   47.29    1.39
   5   5   1   47.16    1.39
  -5  -5  -3   29.91    0.90
  -5   5  -3   28.21    0.91
   5   5   3   31.60    0.90
  -5  -5   3   30.99    0.89
  -5   5  -3   30.69    0.90
   5   5  -5   29.68    0.92
  -5   5   5   29.12    0.90
  -5  -5  -5   29.00    0.88
  -5   5   5   28.83    0.92
  -5  -5   5   28.68    0.91
  -5   5  -5   29.06    0.89
  -5   5   7    1.45    0.13
  -5   5   7    1.47    0.13
  -5  -5  -7    1.48    0.11
   5   5  -7    1.48    0.13
  -5   5  -7    1.61    0.12
  -5  -5   7    1.82    0.15
  -5  -5   7    1.36    0.11
   5   5  -9    1.16    0.13
  -5  -5  -9    1.11    0.12
  -5   5  -9    1.13    0.13
  -5  -5   9    1.42    0.12
  -5  -5 -11    0.17    0.08
   5   5 -11   -0.06    0.07
  -5   5 -11   -0.03    0.08
   5  -5 -11   -0.08    0.07
  -5  -5 -13    0.39    0.12
  -5   5 -13    0.57    0.13
   5   5 -15    0.40    0.15
  -5  -5 -15    0.27    0.13
   5  -5 -15    0.17    0.13
  -5   5 -15    0.21    0.13
  -7   5   1    6.28    0.24
  -7  -5  -1    6.56    0.23
  -7  -5  -1    6.32    0.22
  -7   5   1    6.65    0.24
   7   5  -1    5.93    0.23
  -7   5  -1    6.73    0.23
   7   5   1    6.48    0.22
  -7  -5   1    6.22    0.24
  -7  -5   1    6.66    0.21
  -7  -5  -3   10.76    0.35
   7   5  -3   10.42    0.37
  -7  -5  -3   10.75    0.35
  -7   5   3   10.21    0.37
  -7   5   3    9.77    0.37
  -7   5  -3   10.74    0.36
   7   5   3   10.80    0.33
  -7  -5   3   10.46    0.33
  -7   5  -3   10.62    0.33
   7   5  -5    3.51    0.17
  -7  -5  -5    3.63    0.16
  -7   5   5    3.47    0.18
  -7   5   5    3.44    0.19
  -7  -5   5    3.40    0.18
  -7   5  -5    3.39    0.17
  -7  -5  -7    4.87    0.21
  -7   5   7    4.57    0.23
  -7   5   7    4.45    0.23
   7   5  -7    4.80    0.23
  -7  -5   7    4.51    0.19
  -7   5  -7    4.32    0.22
  -7  -5   7    4.44    0.24
   7   5  -9    3.13    0.20
  -7  -5  -9    3.57    0.20
  -7   5   9    3.63    0.22
   7  -5  -9    3.59    0.21
  -7   5  -9    3.61    0.21
  -7  -5   9    3.71    0.19
   7   5 -11    0.57    0.11
  -7  -5 -11    0.52    0.11
  -7   5 -11    0.70    0.12
   7  -5 -11    0.45    0.11
   7   5 -13   -0.05    0.09
  -7  -5 -13    0.07    0.10
  -7   5 -13    0.01    0.10
   7  -5 -13    0.08    0.09
   7   5 -15    1.02    0.18
  -7   5 -15    1.17    0.19
   7  -5 -15    0.90    0.17
  -9   5   1   29.96    0.93
  -9   5   1   28.97    0.91
  -9  -5  -1   29.41    0.91
   9   5  -1   30.62    0.92
  -9  -5   1   28.87    0.91
  -9   5  -1   29.52    0.91
  -9  -5   1   29.00    0.87
  -9  -5  -3    0.87    0.08
  -9   5   3    0.86    0.09
   9   5  -3    0.78    0.09
  -9  -5  -3    0.79    0.08
  -9   5   3    0.87    0.10
  -9  -5   3    0.75    0.06
  -9   5  -3    0.80    0.08
   9   5   3    0.80    0.06
  -9  -5  -5    2.58    0.15
  -9   5   5    2.29    0.16
  -9  -5   5    2.39    0.17
  -9   5  -5    2.80    0.16
   9   5  -7    2.68    0.18
  -9   5   7    2.22    0.17
  -9  -5  -7    2.47    0.16
  -9   5   7    2.43    0.18
  -9  -5   7    2.19    0.13
  -9   5  -7    2.31    0.15
  -9  -5   7    2.17    0.17
   9   5  -9    0.22    0.10
  -9   5   9    0.41    0.12
  -9  -5  -9    0.62    0.10
   9  -5  -9    0.25    0.10
  -9  -5   9    0.44    0.12
  -9   5  -9    0.51    0.11
   9   5 -11    0.16    0.10
  -9  -5 -11    0.22    0.09
   9  -5 -11    0.16    0.09
  -9   5 -11    0.47    0.11
  -9  -5 -13    0.26    0.11
   9   5 -13    0.14    0.11
  -9   5 -13    0.07    0.11
   9  -5 -13    0.06    0.10
 -11  -5  -1    7.33    0.28
  11   5  -1    8.44    0.32
 -11   5   1    8.66    0.33
 -11   5   1    8.65    0.33
 -11  -5  -1    8.46    0.33
 -11   5  -1    8.47    0.27
 -11  -5   1    8.35    0.33
  11   5   1    8.72    0.30
 -11   5  -1    8.80    0.31
 -11  -5   1    8.51    0.28
 -11   5   3   16.73    0.56
 -11  -5  -3   16.23    0.51
 -11  -5  -3   15.73    0.53
  11  -5   3   15.65    0.50
 -11   5   3   16.36    0.56
  11   5  -3   16.30    0.55
  11   5   3   13.19    0.49
 -11   5   5    6.94    0.31
 -11  -5  -5    5.84    0.26
 -11   5   5    6.37    0.30
 -11  -5  -5    6.39    0.28
  11   5  -5    6.15    0.30
 -11  -5   5    6.26    0.30
 -11   5  -5    6.67    0.28
 -11   5   7    1.25    0.15
  11   5  -7    1.33    0.15
 -11  -5  -7    1.25    0.13
 -11  -5  -7    1.26    0.13
  11  -5  -7    1.36    0.15
 -11  -5   7    1.26    0.16
 -11   5  -7    1.16    0.14
 -11   5   9    0.32    0.12
  11   5  -9    0.12    0.09
 -11  -5  -9    0.23    0.08
 -11   5  -9    0.17    0.09
 -11  -5   9    0.35    0.12
  11  -5  -9    0.13    0.09
  11   5 -11   -0.04    0.09
 -11   5  11   -0.16    0.09
 -11  -5 -11   -0.09    0.08
  11  -5 -11    0.04    0.09
 -11   5 -11   -0.09    0.09
  11   5 -13   -0.11    0.10
 -11  -5 -13    0.06    0.11
 -11  -5 -13    0.13    0.11
 -11   5 -13    0.19    0.11
  11  -5 -13   -0.04    0.10
 -13  -5  -1    4.68    0.23
  13   5  -1    5.05    0.23
 -13   5   1    4.50    0.23
  13  -5   1    4.60    0.21
 -13  -5  -1    4.90    0.19
 -13   5  -1    4.84    0.24
 -13  -5   1    4.89    0.24
  13   5   1    4.70    0.21
 -13   5   3    3.17    0.20
 -13  -5  -3    3.37    0.19
  13   5  -3    3.37    0.20
 -13  -5  -3    3.63    0.17
 -13   5  -3    3.47    0.16
 -13  -5   3    3.52    0.22
 -13   5  -3    3.16    0.19
 -13   5   5    7.64    0.36
  13   5  -5    7.40    0.34
 -13  -5  -5    7.48    0.32
 -13  -5  -5    7.31    0.30
 -13   5  -5    7.42    0.33
 -13  -5   5    7.48    0.35
  13  -5  -5    7.77    0.34
  13   5  -7    1.93    0.19
 -13   5   7    1.44    0.18
 -13  -5  -7    1.92    0.16
 -13  -5  -7    2.01    0.16
 -13   5  -7    1.86    0.17
  13  -5  -7    1.45    0.17
 -13  -5   7    2.21    0.21
 -13   5   9    1.85    0.21
  13   5  -9    1.37    0.17
 -13  -5  -9    1.49    0.16
 -13  -5  -9    1.87    0.18
 -13   5  -9    1.59    0.17
 -13  -5   9    1.72    0.21
  13  -5  -9    1.61    0.18
 -13   5  11    0.04    0.12
  13   5 -11   -0.03    0.10
 -13  -5 -11   -0.07    0.09
 -13  -5 -11    0.02    0.09
 -13   5 -11    0.02    0.10
 -13  -5  11    0.04    0.12
  13  -5 -11   -0.11    0.09
 -13  -5 -13    0.00    0.11
 -13  -5 -13    0.20    0.12
  13   5 -13    0.00    0.12
  13  -5 -13   -0.16    0.10
 -13   5 -13   -0.14    0.11
 -15   5   1    1.38    0.15
  15   5  -1    1.23    0.13
 -15  -5  -1    1.28    0.14
  15  -5   1    1.55    0.13
 -15  -5   1    1.60    0.16
  15   5   1    1.52    0.12
  15  -5  -1    1.43    0.13
 -15   5  -1    1.50    0.15
  15   5  -3    1.31    0.15
 -15   5   3    1.63    0.17
 -15  -5  -3    1.79    0.17
 -15   5  -3    1.57    0.16
  15  -5  -3    1.30    0.15
 -15  -5   3    1.77    0.18
  15   5  -5    3.83    0.24
 -15   5   5    3.78    0.25
 -15  -5  -5    4.17    0.21
 -15  -5  -5    3.75    0.23
 -15  -5   5    4.25    0.26
  15  -5  -5    3.61    0.23
 -15   5  -5    4.37    0.25
 -15  -5  -7    1.80    0.16
  15   5  -7    1.58    0.18
 -15  -5  -7    1.79    0.18
 -15   5   7    1.68    0.20
 -15  -5   7    1.83    0.21
 -15   5  -7    1.93    0.19
 -15   5  -7    1.91    0.16
  15  -5  -7    1.34    0.17
 -15  -5  -9    1.36    0.17
 -15   5   9    1.46    0.21
 -15  -5  -9    1.54    0.16
  15   5  -9    1.23    0.17
  15  -5  -9    1.31    0.17
 -15  -5   9    1.36    0.20
 -15   5  -9    1.27    0.17
 -15  -5 -11    0.29    0.12
 -15  -5 -11    0.13    0.11
 -15   5  11    0.26    0.14
  15   5 -11    0.11    0.11
  15  -5 -11    0.08    0.10
 -15   5 -11    0.17    0.12
 -15  -5  11    0.29    0.14
 -17   5   1    0.07    0.09
  17   5  -1    0.35    0.10
 -17  -5  -1    0.15    0.09
  17  -5  -1    0.16    0.08
 -17  -5   1    0.24    0.10
 -17   5  -1    0.30    0.10
 -17  -5  -3    0.73    0.13
 -17   5   3    1.16    0.16
  17   5  -3    0.63    0.12
 -17   5  -3    0.72    0.13
 -17  -5   3    1.04    0.15
  17  -5  -3    0.91    0.13
  17   5  -5    0.95    0.15
 -17   5   5    1.04    0.17
 -17  -5  -5    1.04    0.15
 -17  -5   5    1.27    0.18
 -17   5  -5    1.15    0.15
  17  -5  -5    1.08    0.16
 -17   5   7    1.27    0.19
  17   5  -7    1.39    0.18
 -17  -5  -7    1.51    0.18
 -17  -5   7    1.14    0.19
  17  -5  -7    1.34    0.18
 -17   5  -7    1.57    0.18
 -17   5   9    0.07    0.13
 -17  -5  -9    0.09    0.11
  17   5  -9   -0.02    0.11
 -17  -5   9   -0.08    0.12
 -17   5  -9    0.05    0.11
  17  -5  -9    0.06    0.11
 -17  -5 -11    0.06    0.12
 -17   5  11    0.18    0.15
 -17  -5 -11   -0.18    0.09
 -19  -5  -1    0.21    0.11
 -19   5   1    0.49    0.13
  19   5  -1    0.18    0.10
 -19   5  -1    0.29    0.11
  19  -5  -1    0.33    0.10
 -19  -5   1    0.60    0.13
 -19   5   3    0.49    0.14
  19   5  -3    0.63    0.13
 -19  -5  -3    0.31    0.12
  19  -5  -3    0.64    0.13
 -19  -5   3    0.27    0.13
 -19   5  -3    0.62    0.14
  19   5  -5    1.69    0.19
 -19   5   5    1.76    0.22
 -19  -5  -5    1.58    0.19
 -19  -5   5    1.76    0.22
 -19   5  -5    1.35    0.19
  19  -5  -5    1.55    0.18
 -19  -5  -7    0.09    0.11
 -19   5   7   -0.18    0.11
  19   5  -7   -0.17    0.09
 -19   5  -7    0.02    0.11
  19  -5  -7    0.10    0.11
 -19  -5   7    0.26    0.14
 -19  -5  -9    0.42    0.14
 -19   5   9    0.32    0.15
 -19   5  -9    0.10    0.11
 -21   5   1    1.03    0.18
 -21  -5  -1    1.27    0.18
 -21   5  -1    0.96    0.17
 -21  -5   1    1.13    0.18
  21   5  -3    0.61    0.14
 -21   5   3    0.70    0.16
 -21  -5  -3    0.65    0.16
 -21  -5   3    0.64    0.17
  21  -5  -3    0.80    0.15
 -21   5  -3    0.62    0.15
 -21  -5  -5    0.09    0.11
  21   5  -5    0.02    0.11
 -21   5   5    0.07    0.13
 -21  -5   5    0.02    0.13
  21  -5  -5    0.07    0.11
 -21   5  -5   -0.03    0.12
 -21  -5  -7    0.14    0.13
 -23  -5  -1    0.31    0.14
   0   6   0   -0.02    0.01
   0  -6   0   -0.01    0.01
   0   6   0   -0.02    0.00
   0   6  -2  743.71   23.06
   0  -6   2  781.06   22.79
   0   6   2  747.67   23.11
   0   6   4    0.01    0.02
   0   6  -4   -0.03    0.02
   0  -6   4    0.00    0.01
   0  -6  -6   47.65    1.40
   0  -6   6   47.57    1.41
   0   6  -6   46.51    1.43
   0   6  -8   -0.06    0.07
   0   6   8   -0.05    0.04
   0  -6  -8    0.00    0.06
   0  -6   8    0.00    0.05
   0   6  -8   -0.04    0.04
   0  -6 -10    4.86    0.25
   0   6 -10    5.18    0.27
   0   6 -10    4.98    0.22
   0  -6 -10    5.09    0.22
   0  -6 -12    0.01    0.09
   0   6 -12    0.02    0.09
   0  -6 -14    0.93    0.15
   0   6 -14    0.78    0.16
   0   6 -16    0.18    0.13
  -2   6   0  173.95    5.21
   2   6   0  178.27    5.21
  -2  -6   0  178.69    5.05
   2  -6   0  181.15    5.02
  -2  -6   0  171.93    5.06
  -2   6   0  166.53    5.04
   2   6  -2  150.70    4.55
  -2   6   2  150.60    4.53
  -2  -6  -2  154.15    4.40
  -2   6   2  153.29    4.40
   2  -6   2  152.44    4.37
  -2   6  -2  148.10    4.39
  -2  -6   2  152.01    4.40
  -2   6  -2  159.65    4.53
   2   6   2  155.02    4.53
  -2   6   4   35.72    0.98
   2   6  -4   33.14    1.00
  -2  -6  -4   33.58    0.97
  -2   6   4   27.63    0.99
  -2   6  -4   34.03    0.98
   2   6   4   33.83    0.98
  -2   6  -4   30.27    0.97
  -2  -6  -6    6.14    0.23
   2   6  -6    5.90    0.23
  -2   6   6    5.81    0.23
   2  -6   6    5.85    0.23
  -2   6  -6    5.99    0.20
  -2  -6   6    5.94    0.23
   2   6   6    5.88    0.21
  -2   6  -6    5.79    0.24
  -2   6   8   17.23    0.59
  -2  -6  -8   17.44    0.58
   2   6  -8   17.49    0.58
  -2   6  -8   17.44    0.59
  -2   6  -8   17.33    0.55
  -2  -6   8   17.33    0.58
   2   6 -10    1.68    0.14
  -2  -6 -10    1.50    0.14
   2  -6 -10    1.38    0.13
  -2   6 -10    1.61    0.16
  -2  -6 -12    0.08    0.09
   2   6 -12    0.31    0.10
  -2   6 -12    0.37    0.11
   2  -6 -12    0.07    0.09
   2   6 -14    0.12    0.12
  -2  -6 -14    0.11    0.11
  -2   6 -14    0.20    0.12
   2  -6 -14    0.09    0.11
   2   6 -16   -0.01    0.12
  -2   6 -16    0.07    0.12
   4   6   0   18.01    0.56
  -4   6   0   17.80    0.55
  -4  -6   0   17.95    0.55
  -4   6   0   18.32    0.56
  -4  -6   0   18.92    0.54
   4  -6   0   18.64    0.53
  -4  -6  -2   28.19    0.83
   4  -6   2   28.49    0.83
  -4  -6  -2   28.66    0.83
  -4   6   2   28.49    0.84
  -4   6  -2   29.42    0.85
  -4  -6   2   23.90    0.84
   4  -6  -2   29.15    0.81
   4   6   2   28.99    0.85
  -4  -6   2   28.85    0.83
  -4   6   4    1.02    0.09
  -4  -6  -4    1.16    0.07
   4  -6   4    1.10    0.08
   4   6  -4    1.05    0.08
  -4  -6   4    1.08    0.07
   4   6   4    1.19    0.05
  -4   6  -4    1.08    0.04
  -4  -6   4    1.02    0.09
  -4   6  -4    1.11    0.08
   4   6  -6    6.92    0.27
   4  -6   6    6.94    0.27
  -4   6   6    7.08    0.28
  -4   6   6    7.21    0.28
  -4  -6  -6    6.73    0.26
  -4   6  -6    7.02    0.22
  -4   6  -6    6.85    0.27
  -4  -6   6    6.61    0.28
   4   6   6    6.83    0.22
  -4  -6   6    7.00    0.26
  -4   6   8    1.49    0.13
   4   6  -8    1.33    0.12
  -4  -6  -8    1.34    0.12
  -4   6  -8    1.39    0.13
  -4  -6   8    1.43    0.12
   4   6 -10    4.35    0.22
  -4  -6 -10    4.16    0.22
  -4   6 -10    3.98    0.23
   4  -6 -10    4.25    0.22
   4   6 -12    0.14    0.08
  -4  -6 -12    0.02    0.08
  -4   6 -12    0.10    0.10
   4  -6 -12   -0.01    0.07
  -4  -6 -14    1.38    0.17
   4   6 -14    1.60    0.19
   4  -6 -14    1.30    0.18
  -4   6 -14    1.61    0.20
  -6  -6   0  135.21    3.96
   6   6   0  137.08    4.07
  -6   6   0  137.09    4.08
  -6  -6   0  140.30    3.93
   6   6  -2    2.43    0.12
  -6   6   2    2.60    0.12
  -6   6   2    2.25    0.12
  -6  -6  -2    2.56    0.12
  -6  -6   2    2.54    0.10
  -6   6  -2    2.55    0.10
   6   6   2    2.61    0.10
  -6  -6   2    2.53    0.12
  -6   6   4    1.14    0.10
  -6   6   4    1.13    0.10
   6   6  -4    1.34    0.09
  -6  -6  -4    1.32    0.09
  -6  -6   4    1.12    0.10
   6   6   4    1.20    0.05
  -6  -6   4    1.23    0.08
  -6   6  -4    1.41    0.10
  -6   6   6    1.59    0.13
   6   6  -6    1.61    0.12
  -6  -6  -6    1.48    0.11
  -6   6   6    1.79    0.13
  -6  -6   6    1.32    0.13
  -6   6  -6    1.61    0.12
  -6  -6   6    1.53    0.10
   6   6  -8    2.35    0.16
  -6   6   8    2.30    0.16
  -6  -6  -8    2.34    0.15
  -6   6   8    2.11    0.17
  -6   6  -8    2.31    0.15
  -6  -6   8    2.27    0.18
  -6  -6   8    2.01    0.13
   6   6 -10    0.24    0.09
  -6  -6 -10    0.41    0.09
  -6   6 -10    0.37    0.10
   6  -6 -10    0.30    0.09
  -6  -6 -12    0.16    0.09
   6   6 -12    0.09    0.09
   6  -6 -12    0.03    0.08
  -6   6 -12    0.15    0.10
   6   6 -14    0.27    0.13
  -6  -6 -14    0.37    0.12
   6  -6 -14    0.25    0.12
  -6   6 -14    0.21    0.12
  -8   6   0    1.36    0.09
  -8   6   0    1.48    0.06
  -8   6   0    1.64    0.10
  -8  -6   0    1.44    0.08
  -8  -6   0    1.65    0.10
  -8   6   2   62.86    1.82
  -8  -6  -2   53.30    1.78
  -8   6   2   61.09    1.87
  -8  -6  -2   61.69    1.81
   8   6  -2   61.54    1.86
  -8   6  -2   61.09    1.84
   8   6   2   63.33    1.83
  -8  -6   2   64.84    1.83
  -8  -6   2   62.44    1.77
  -8  -6  -4   21.79    0.68
  -8   6   4   21.11    0.70
  -8  -6  -4   22.17    0.68
   8   6  -4   21.46    0.71
  -8  -6   4   21.40    0.66
   8   6   4   22.23    0.66
  -8   6  -4   21.54    0.69
  -8   6   6    1.03    0.12
   8   6  -6    0.75    0.10
  -8   6   6    0.97    0.12
  -8  -6  -6    1.03    0.10
  -8  -6   6    0.80    0.11
  -8  -6   6    0.74    0.07
  -8   6  -6    0.91    0.10
  -8  -6  -8    1.79    0.14
   8   6  -8    1.61    0.15
  -8   6   8    1.74    0.16
  -8   6   8    1.68    0.16
  -8  -6   8    1.88    0.12
  -8  -6   8    2.03    0.19
  -8   6  -8    1.54    0.15
  -8  -6 -10    1.93    0.15
   8   6 -10    1.69    0.16
  -8   6 -10    1.70    0.17
   8  -6 -10    1.69    0.16
   8   6 -12    0.39    0.12
  -8  -6 -12    0.56    0.12
   8  -6 -12    0.22    0.10
  -8   6 -12    0.43    0.12
  -8  -6 -14    0.41    0.13
  -8   6 -14    0.13    0.12
 -10   6   0   16.31    0.55
  10   6   0   16.19    0.54
 -10   6   0   16.32    0.55
 -10   6   0   16.44    0.49
 -10  -6   0   16.63    0.55
 -10  -6   0   16.69    0.51
 -10   6   2    3.63    0.19
 -10  -6  -2    3.50    0.15
 -10  -6  -2    3.87    0.18
  10   6  -2    3.45    0.17
 -10   6   2    3.25    0.18
 -10  -6   2    3.55    0.18
 -10   6  -2    3.62    0.16
 -10  -6   2    3.55    0.14
 -10  -6  -4    0.91    0.10
 -10   6   4    0.74    0.10
 -10   6   4    0.79    0.10
 -10  -6  -4    0.86    0.09
  10   6  -4    0.75    0.10
 -10  -6   4    0.88    0.07
 -10   6  -4    0.61    0.09
 -10   6   6    1.37    0.15
  10   6  -6    1.22    0.13
 -10  -6  -6    1.50    0.13
 -10   6   6    1.46    0.15
 -10  -6  -6    1.55    0.13
 -10  -6   6    1.27    0.15
 -10   6  -6    1.35    0.13
  10   6  -8    2.30    0.18
 -10   6   8    2.50    0.20
 -10  -6  -8    2.72    0.17
 -10   6  -8    2.26    0.17
 -10  -6   8    2.57    0.21
  10   6 -10    0.20    0.10
 -10   6  10    0.30    0.11
 -10  -6 -10    0.31    0.10
 -10  -6  10    0.37    0.12
  10  -6 -10    0.09    0.10
 -10   6 -10    0.37    0.11
 -10  -6 -12    2.15    0.19
  10   6 -12    1.78    0.19
  10  -6 -12    1.90    0.19
 -10   6 -12    2.06    0.20
 -10  -6 -14    0.63    0.15
  10   6 -14    0.58    0.15
 -10  -6 -14    0.52    0.14
  10  -6 -14    0.51    0.14
 -10   6 -14    0.68    0.15
  12   6   0   11.87    0.42
 -12  -6   0   12.58    0.45
 -12   6   0   11.95    0.43
 -12  -6  -2    0.28    0.08
  12   6  -2    0.23    0.08
 -12  -6  -2    0.32    0.06
  12  -6   2    0.26    0.06
 -12   6   2    0.30    0.08
 -12   6   2    0.20    0.08
 -12  -6   2    0.34    0.08
 -12   6  -2    0.21    0.05
  12   6   2    0.26    0.06
 -12  -6  -4    3.16    0.19
 -12   6   4    3.29    0.21
 -12   6   4    3.38    0.21
 -12  -6  -4    3.09    0.16
  12   6  -4    3.08    0.20
 -12  -6   4    3.10    0.20
 -12   6  -4    3.11    0.19
 -12  -6  -6    0.54    0.10
 -12  -6  -6    0.53    0.10
  12   6  -6    0.31    0.11
 -12   6   6    0.55    0.12
 -12  -6   6    0.85    0.14
 -12   6  -6    0.61    0.11
 -12  -6  -8    1.21    0.14
 -12  -6  -8    1.33    0.14
 -12   6   8    1.24    0.16
  12   6  -8    1.07    0.15
  12  -6  -8    1.10    0.15
 -12  -6   8    1.24    0.17
 -12   6  -8    1.40    0.15
 -12   6  10    1.64    0.19
 -12  -6 -10    1.44    0.15
  12   6 -10    1.63    0.18
 -12  -6 -10    1.37    0.15
  12  -6 -10    1.52    0.18
 -12  -6  10    1.11    0.18
 -12   6 -10    1.49    0.16
  12   6 -12    0.00    0.10
 -12  -6 -12   -0.01    0.10
 -12  -6 -12    0.22    0.11
 -12   6 -12    0.15    0.11
  12  -6 -12    0.09    0.10
  14  -6   0   -0.03    0.06
 -14  -6   0    0.08    0.08
  14   6   0    0.10    0.06
 -14   6   0   -0.03    0.07
 -14  -6  -2    9.29    0.38
  14  -6   2    9.07    0.34
 -14   6   2    9.27    0.38
  14   6  -2    9.71    0.38
 -14   6  -2    9.02    0.38
  14   6   2    9.37    0.34
 -14  -6   2    9.39    0.39
 -14   6   4    3.15    0.22
 -14  -6  -4    3.06    0.19
 -14  -6  -4    2.74    0.16
  14   6  -4    2.66    0.20
 -14  -6   4    2.74    0.21
 -14   6  -4    2.76    0.20
  14  -6  -4    2.57    0.20
 -14  -6  -6    0.34    0.10
 -14  -6  -6    0.48    0.10
 -14   6   6    0.53    0.12
  14   6  -6    0.33    0.10
 -14  -6   6    0.53    0.13
 -14   6  -6    0.40    0.10
  14  -6  -6    0.56    0.12
 -14   6   8    1.18    0.18
  14   6  -8    1.12    0.16
 -14  -6  -8    1.22    0.14
 -14  -6  -8    1.27    0.15
 -14   6  -8    1.60    0.17
  14  -6  -8    0.96    0.14
 -14  -6   8    1.09    0.17
  14   6 -10    0.51    0.13
 -14   6  10    0.64    0.16
 -14  -6 -10    0.84    0.14
 -14  -6 -10    0.76    0.13
 -14   6 -10    0.71    0.14
 -14  -6  10    0.45    0.14
  14  -6 -10    0.36    0.12
 -14   6  12    0.18    0.13
 -14  -6 -12   -0.10    0.09
  14   6 -12    0.06    0.12
 -14  -6 -12   -0.06    0.10
  14  -6 -12   -0.07    0.10
 -14   6 -12   -0.02    0.11
 -16   6   0    0.82    0.13
  16  -6   0    0.83    0.11
 -16  -6   0    0.72    0.12
  16   6   0    0.72    0.11
 -16   6   2    0.55    0.12
 -16  -6  -2    0.58    0.12
  16   6  -2    0.39    0.10
  16  -6  -2    0.58    0.11
 -16  -6   2    0.72    0.13
 -16   6  -2    0.72    0.12
 -16  -6  -4    0.61    0.12
 -16   6   4    0.44    0.12
  16   6  -4    0.57    0.12
 -16  -6   4    0.61    0.13
 -16   6  -4    0.61    0.12
  16  -6  -4    0.44    0.11
 -16   6   6    0.44    0.13
 -16  -6  -6    0.36    0.11
  16   6  -6    0.30    0.11
 -16  -6   6    0.33    0.12
 -16   6  -6    0.26    0.11
  16  -6  -6    0.52    0.12
 -16  -6  -8    1.39    0.16
 -16  -6  -8    1.77    0.18
  16   6  -8    1.78    0.20
 -16   6   8    1.80    0.22
 -16   6  -8    1.60    0.19
 -16  -6   8    1.32    0.21
  16  -6  -8    1.48    0.18
 -16  -6 -10    0.30    0.11
 -16  -6 -10    0.26    0.12
 -16   6  10    0.06    0.13
  16   6 -10   -0.03    0.10
 -16   6 -10    0.06    0.11
  16  -6 -10   -0.02    0.10
 -16  -6  10    0.22    0.15
 -16   6 -10    0.26    0.11
 -16  -6 -12    0.09    0.12
 -16   6 -12    0.10    0.11
 -18  -6   0    0.61    0.13
 -18   6   0    0.90    0.15
  18   6  -2    0.23    0.10
 -18  -6  -2    0.32    0.12
 -18   6   2    0.34    0.12
 -18   6  -2    0.31    0.11
  18  -6  -2    0.30    0.10
 -18  -6   2    0.19    0.11
  18   6  -4   -0.08    0.09
 -18  -6  -4    0.36    0.11
 -18   6   4    0.13    0.10
 -18  -6   4    0.07    0.10
  18  -6  -4    0.12    0.10
 -18   6  -4    0.22    0.11
  18   6  -6    0.20    0.11
 -18  -6  -6    0.33    0.12
 -18   6   6    0.11    0.12
 -18   6  -6    0.26    0.11
 -18  -6   6    0.31    0.14
  18  -6  -6    0.08    0.11
 -18   6   8    0.06    0.12
 -18  -6  -8    0.19    0.12
  18   6  -8    0.12    0.11
 -18  -6   8    0.32    0.15
 -18   6  -8    0.22    0.12
  18  -6  -8    0.09    0.11
 -18   6  10    0.14    0.14
 -18  -6 -10    0.16    0.11
 -18   6 -10    0.03    0.12
 -20   6   0    0.21    0.12
 -20  -6   0    0.21    0.12
 -20  -6  -2    0.34    0.13
 -20   6   2    0.27    0.13
  20   6  -2    0.21    0.11
  20  -6  -2    0.17    0.10
 -20   6  -2    0.22    0.11
 -20  -6   2    0.34    0.14
 -20   6   4    0.59    0.16
 -20  -6  -4    0.71    0.15
  20   6  -4    0.66    0.14
 -20   6  -4    0.43    0.14
  20  -6  -4    0.41    0.13
 -20  -6   4    0.73    0.16
 -20   6   6    0.57    0.17
  20   6  -6    0.48    0.14
 -20  -6  -6    0.83    0.16
 -20  -6   6    0.75    0.17
  20  -6  -6    0.69    0.15
 -20   6  -6    0.65    0.15
 -20   6   8    0.21    0.14
 -20  -6  -8    0.23    0.13
 -22  -6   0    0.07    0.12
 -22   6   0    0.26    0.13
 -22   6   2    0.17    0.12
 -22  -6  -2    0.07    0.12
 -22   6  -2    0.24    0.13
 -22  -6   2    0.47    0.15
 -22  -6  -4    0.20    0.13
 -22   6   4    0.13    0.14
  22   6  -4   -0.06    0.11
 -22  -6   4    0.20    0.14
 -22   6  -4    0.18    0.13
  22  -6  -4    0.10    0.12
  -1   7   1   26.24    0.78
  -1  -7  -1   25.48    0.75
   1  -7   1   26.26    0.76
  -1   7   1   25.65    0.75
   1   7   1   25.52    0.78
  -1  -7   1   26.77    0.76
  -1   7  -1   25.99    0.78
   1  -7  -1   25.66    0.75
  -1   7  -1   25.39    0.76
  -1  -7   1   26.67    0.76
   1   7  -3   50.46    1.56
  -1  -7  -3   52.30    1.52
  -1   7   3   53.46    1.52
  -1   7   3   52.92    1.57
   1   7   3   53.18    1.56
  -1   7  -3   52.30    1.56
  -1  -7   3   51.81    1.52
   1   7  -5   28.32    0.89
   1  -7   5   29.31    0.88
  -1  -7  -5   28.41    0.87
  -1  -7   5   29.26    0.87
   1   7   5   29.51    0.88
  -1   7  -5   29.12    0.88
  -1   7  -5   28.12    0.88
  -1   7   7    8.74    0.32
   1   7  -7    8.69    0.31
   1  -7   7    8.96    0.33
  -1  -7  -7    8.36    0.31
  -1   7  -7    8.68    0.33
  -1  -7   7    8.71    0.32
  -1   7  -7    8.52    0.30
  -1   7   9    2.41    0.16
   1   7  -9    2.45    0.15
   1   7  -9    2.39    0.17
  -1  -7  -9    2.62    0.17
  -1  -7   9    2.72    0.17
  -1   7  -9    2.73    0.19
  -1   7  -9    2.79    0.14
   1  -7  -9    2.71    0.17
  -1  -7 -11    1.78    0.16
   1   7 -11    1.97    0.19
   1  -7 -11    1.80    0.17
  -1   7 -11    1.89    0.18
   1   7 -13    0.07    0.10
  -1  -7 -13   -0.01    0.09
   1  -7 -13   -0.06    0.09
  -1   7 -13   -0.02    0.09
   1   7 -15    0.00    0.12
  -1   7 -15    0.05    0.12
   1  -7 -15    0.15    0.11
  -3  -7  -1  147.43    4.23
  -3   7   1  150.72    4.25
   3   7  -1  148.76    4.37
   3  -7   1  150.96    4.19
  -3  -7  -1  141.90    4.24
  -3   7   1  145.07    4.35
  -3  -7   1  146.07    4.20
  -3   7  -1  149.24    4.36
  -3  -7   1  143.83    4.23
   3  -7  -1  147.53    4.20
   3   7   1  148.85    4.36
  -3   7  -1  141.37    4.24
  -3   7   3    4.92    0.18
   3   7  -3    4.76    0.18
  -3  -7  -3    4.79    0.17
  -3   7   3    4.07    0.18
   3  -7   3    5.04    0.18
  -3  -7   3    5.14    0.17
   3   7   3    5.05    0.16
  -3   7  -3    4.86    0.16
   3   7  -5   27.99    0.87
  -3  -7  -5   27.69    0.85
  -3   7   5   28.61    0.88
   3  -7   5   27.60    0.85
  -3   7   5   28.65    0.86
  -3   7  -5   28.25    0.84
  -3  -7   5   27.69    0.87
  -3   7  -5   27.46    0.86
   3   7   5   28.76    0.85
  -3  -7   5   27.47    0.85
   3   7  -7    6.56    0.26
  -3  -7  -7    6.94    0.26
  -3   7   7    6.50    0.26
  -3   7  -7    6.68    0.27
  -3   7  -7    6.41    0.22
  -3  -7   7    6.36    0.25
   3   7   7    6.26    0.23
   3   7  -9   11.52    0.42
  -3  -7  -9   11.18    0.42
  -3   7   9   11.46    0.43
  -3   7  -9   11.01    0.43
  -3  -7   9   11.54    0.42
   3   7 -11    0.29    0.09
  -3  -7 -11    0.31    0.10
  -3   7 -11    0.53    0.12
   3  -7 -11    0.47    0.09
  -3  -7 -13    2.13    0.19
   3   7 -13    2.31    0.21
   3  -7 -13    2.02    0.20
  -3   7 -13    2.02    0.20
   3   7 -15    0.43    0.15
   3  -7 -15    0.48    0.15
  -3   7 -15    0.21    0.13
  -5   7   1   80.52    2.45
  -5  -7  -1   82.08    2.38
   5   7  -1   80.92    2.45
  -5   7   1   82.06    2.38
   5  -7   1   83.80    2.36
  -5  -7  -1   82.68    2.37
  -5  -7   1   82.14    2.39
   5   7   1   83.60    2.44
  -5  -7   1   82.26    2.36
  -5   7  -1   82.44    2.44
  -5  -7  -3   58.10    1.91
  -5  -7  -3   67.33    1.92
   5  -7   3   66.84    1.92
  -5   7  -3   68.14    1.95
   5   7   3   68.25    1.96
  -5  -7   3   66.92    1.91
  -5  -7  -5    2.40    0.12
   5   7  -5    1.87    0.13
   5  -7   5    2.49    0.13
  -5   7   5    2.19    0.13
  -5   7   5    2.38    0.13
  -5   7  -5    2.25    0.13
  -5  -7   5    2.21    0.11
  -5  -7   5    2.29    0.14
   5   7   5    2.32    0.08
  -5   7   7    5.46    0.25
  -5   7   7    5.56    0.25
  -5  -7  -7    5.42    0.22
   5   7  -7    5.19    0.23
  -5  -7   7    5.21    0.22
  -5   7  -7    5.34    0.24
  -5  -7   7    5.25    0.25
  -5   7   9    7.05    0.32
   5   7  -9    7.78    0.32
  -5  -7  -9    7.09    0.30
  -5   7  -9    7.51    0.33
  -5  -7   9    8.09    0.31
  -5  -7 -11    0.88    0.12
   5   7 -11    0.63    0.11
  -5   7 -11    0.72    0.13
   5  -7 -11    0.69    0.11
  -5  -7 -13    1.57    0.17
  -5   7 -13    1.83    0.20
   5   7 -15    0.40    0.15
   5  -7 -15    0.61    0.15
  -5   7 -15    0.56    0.15
  -7   7   1   32.90    0.98
   7   7  -1   32.76    1.00
  -7  -7  -1   32.34    0.96
  -7  -7  -1   32.25    0.97
  -7   7   1   31.94    1.00
  -7   7  -1   32.49    0.99
  -7   7  -1   31.79    0.98
  -7  -7   1   31.47    0.98
  -7  -7   1   32.89    0.95
   7   7   1   32.72    0.98
  -7  -7  -3    0.41    0.06
  -7   7   3    0.47    0.06
  -7   7   3    0.49    0.07
  -7  -7  -3    0.39    0.05
   7   7  -3    0.31    0.06
  -7  -7   3    0.33    0.06
  -7  -7   3    0.70    0.06
  -7   7  -3    0.47    0.04
   7   7   3    0.57    0.04
  -7  -7  -5    0.49    0.07
  -7   7   5    0.47    0.08
  -7   7   5    0.38    0.07
   7   7  -5    0.58    0.08
  -7  -7   5    0.73    0.10
  -7  -7   5    0.46    0.06
  -7   7  -5    0.66    0.08
  -7   7   7    2.59    0.18
   7   7  -7    2.16    0.15
  -7   7   7    2.19    0.16
  -7  -7  -7    2.44    0.15
  -7  -7   7    2.45    0.13
  -7   7  -7    2.41    0.16
  -7  -7   7    2.26    0.17
   7   7  -9    1.75    0.16
  -7  -7  -9    1.48    0.14
  -7   7   9    1.89    0.17
  -7   7  -9    1.88    0.17
  -7  -7   9    1.86    0.14
   7   7 -11    0.90    0.13
  -7  -7 -11    0.94    0.13
  -7   7 -11    0.98    0.14
   7  -7 -11    0.92    0.13
   7   7 -13    0.24    0.11
  -7  -7 -13    0.33    0.11
   7  -7 -13    0.48    0.12
  -7   7 -13    0.37    0.13
   7   7 -15    0.00    0.13
  -7   7 -15    0.16    0.13
   7  -7 -15    0.35    0.14
  -9  -7  -1    0.83    0.08
  -9   7   1    0.66    0.08
  -9   7   1    0.92    0.09
   9   7  -1    0.65    0.07
  -9  -7   1    0.67    0.06
  -9   7  -1    0.66    0.08
  -9   7  -1    0.70    0.07
  -9  -7   1    0.81    0.09
   9   7   1    0.40    0.05
  -9   7   3    7.84    0.30
  -9  -7  -3    7.95    0.29
  -9   7   3    7.20    0.30
   9   7  -3    7.93    0.30
  -9  -7  -3    7.53    0.27
  -9  -7   3    7.59    0.25
   9   7   3    7.78    0.26
  -9   7  -3    7.64    0.26
  -9  -7   3    6.94    0.30
  -9   7   5    1.25    0.12
  -9  -7  -5    1.20    0.10
  -9  -7   5    0.64    0.06
  -9  -7  -7    0.50    0.09
   9   7  -7    0.44    0.10
  -9   7   7    0.44    0.10
  -9   7   7    0.40    0.10
  -9  -7   7    0.36    0.10
  -9  -7   7    0.36    0.07
  -9   7  -7    0.43    0.09
   9   7  -9    0.28    0.10
  -9   7   9    0.48    0.11
  -9  -7  -9    0.40    0.09
  -9  -7   9    0.44    0.12
  -9   7  -9    0.42    0.10
   9   7 -11    0.71    0.13
  -9  -7 -11    0.72    0.12
  -9   7 -11    0.63    0.13
   9  -7 -11    0.73    0.13
  -9  -7 -13    0.52    0.12
   9   7 -13    0.67    0.15
  -9   7 -13    0.39    0.14
   9  -7 -13    0.33    0.12
  11   7  -1    2.91    0.16
 -11  -7  -1    3.16    0.17
 -11  -7  -1    2.99    0.14
 -11   7   1    3.25    0.17
 -11   7   1    2.73    0.17
  11   7   1    3.05    0.15
 -11  -7   1    3.04    0.13
 -11  -7   1    2.91    0.17
 -11   7  -1    3.01    0.12
 -11   7  -1    2.75    0.15
 -11  -7  -3    2.24    0.14
 -11   7   3    2.50    0.17
 -11  -7  -3    2.38    0.13
  11   7  -3    2.20    0.15
 -11   7   3    2.24    0.16
 -11  -7   3    2.13    0.10
 -11  -7  -5   23.74    0.76
 -11  -7  -5   23.75    0.78
 -11   7   5   24.79    0.82
  11   7  -5   24.70    0.81
 -11   7   5   23.42    0.81
 -11  -7   5   23.81    0.81
 -11   7  -5   23.56    0.78
 -11   7   7    4.53    0.26
 -11  -7  -7    4.68    0.23
 -11  -7  -7    4.59    0.23
  11   7  -7    4.73    0.25
 -11   7   7    5.16    0.27
 -11  -7   7    4.56    0.28
 -11   7  -7    4.60    0.24
  11   7  -9    1.33    0.15
 -11  -7  -9    1.16    0.14
 -11   7   9    1.60    0.18
 -11  -7  -9    1.28    0.15
 -11   7  -9    1.50    0.15
  11  -7  -9    1.48    0.16
 -11  -7   9    1.33    0.18
 -11  -7 -11    0.67    0.13
  11   7 -11    0.60    0.13
 -11   7  11    0.65    0.14
 -11  -7 -11    0.52    0.12
 -11   7 -11    0.49    0.12
  11  -7 -11    0.43    0.11
 -11  -7 -13    0.10    0.11
 -11  -7 -13    0.25    0.12
  11   7 -13    0.13    0.12
  11  -7 -13    0.28    0.12
 -11   7 -13    0.18    0.12
 -13   7   1    2.48    0.18
 -13   7   1    2.17    0.17
 -13  -7  -1    2.66    0.17
  13   7  -1    2.31    0.15
 -13  -7  -1    2.77    0.13
  13   7   1    2.45    0.15
 -13   7  -1    2.54    0.17
 -13  -7   1    2.66    0.18
 -13   7   3    2.49    0.18
  13   7  -3    2.28    0.17
 -13   7   3    2.54    0.19
 -13  -7  -3    2.50    0.17
 -13  -7  -3    2.60    0.14
 -13   7  -3    2.56    0.13
 -13   7  -3    2.08    0.17
 -13  -7   3    2.54    0.18
 -13  -7  -5   14.30    0.50
 -13   7   5   14.11    0.55
  13   7  -5   14.68    0.54
 -13   7   5   14.08    0.55
 -13  -7  -5   14.19    0.52
 -13   7  -5   14.42    0.53
 -13  -7   5   14.16    0.55
 -13  -7  -7    0.47    0.10
 -13  -7  -7    0.31    0.10
 -13   7   7    0.47    0.12
  13   7  -7    0.58    0.13
 -13   7  -7    0.49    0.11
 -13  -7   7    0.45    0.13
  13  -7  -7    0.30    0.11
 -13   7   9    1.20    0.18
 -13  -7  -9    1.41    0.16
 -13  -7  -9    1.57    0.16
  13   7  -9    1.31    0.16
 -13  -7   9    1.67    0.20
  13  -7  -9    1.27    0.16
 -13   7  -9    1.51    0.17
 -13   7  11    0.40    0.15
 -13  -7 -11    0.42    0.12
 -13  -7 -11    0.21    0.11
  13   7 -11    0.27    0.12
  13  -7 -11    0.35    0.12
 -13  -7  11    0.40    0.14
 -13   7 -11    0.29    0.11
 -13  -7 -13   -0.03    0.10
 -13  -7 -13    0.07    0.11
  13   7 -13   -0.13    0.11
  13  -7 -13   -0.13    0.10
 -13   7 -13    0.05    0.12
 -15  -7  -1    2.66    0.19
 -15   7   1    2.77    0.19
  15  -7   1    2.83    0.16
  15   7  -1    2.73    0.17
 -15   7  -1    3.06    0.20
  15   7   1    2.64    0.16
  15  -7  -1    2.87    0.17
 -15  -7   1    2.57    0.19
 -15  -7  -3    1.09    0.13
 -15   7   3    0.98    0.14
  15   7  -3    0.90    0.13
  15  -7  -3    0.90    0.13
 -15   7  -3    1.08    0.14
 -15  -7   3    1.08    0.15
 -15   7   5    0.96    0.15
 -15  -7  -5    0.90    0.11
 -15  -7  -5    0.85    0.13
  15   7  -5    0.68    0.13
  15  -7  -5    0.62    0.13
 -15  -7   5    0.72    0.14
 -15   7  -5    0.94    0.13
 -15   7   7    2.72    0.22
  15   7  -7    2.48    0.21
 -15  -7  -7    2.23    0.17
 -15  -7  -7    2.55    0.19
 -15   7  -7    2.78    0.20
 -15  -7   7    2.81    0.23
  15  -7  -7    2.03    0.20
 -15  -7  -9    0.20    0.10
 -15   7   9    0.15    0.12
  15   7  -9    0.14    0.11
 -15  -7  -9    0.04    0.10
  15  -7  -9    0.09    0.10
 -15  -7   9    0.27    0.13
 -15   7  -9    0.07    0.10
  15   7 -11   -0.04    0.11
 -15  -7 -11    0.01    0.10
 -15   7  11   -0.04    0.12
 -15  -7 -11    0.23    0.10
  15  -7 -11    0.06    0.10
 -15  -7  11   -0.04    0.12
 -15   7 -11    0.00    0.11
 -17  -7  -1    0.52    0.12
  17   7  -1    0.64    0.11
 -17   7   1    0.61    0.12
 -17  -7   1    0.57    0.12
  17  -7  -1    0.62    0.11
 -17   7  -1    0.39    0.11
 -17   7   3    0.26    0.11
  17   7  -3    0.20    0.10
 -17  -7  -3    0.15    0.09
 -17  -7   3    0.34    0.11
 -17   7  -3    0.15    0.09
  17  -7  -3    0.00    0.08
 -17   7   5    0.62    0.15
  17   7  -5    0.53    0.13
 -17  -7  -5    0.44    0.12
 -17   7  -5    0.74    0.14
 -17  -7   5    0.50    0.14
  17  -7  -5    0.31    0.11
 -17  -7  -7    0.40    0.12
  17   7  -7    0.22    0.12
 -17   7   7    0.30    0.14
  17  -7  -7    0.28    0.12
 -17  -7   7    0.67    0.16
 -17   7  -7    0.58    0.14
 -17  -7  -9    0.04    0.10
  17   7  -9   -0.05    0.10
 -17   7   9    0.26    0.14
  17  -7  -9   -0.01    0.10
 -17  -7   9    0.10    0.14
 -17   7  -9   -0.06    0.09
 -17  -7 -11    0.01    0.11
 -17   7  11   -0.06    0.13
 -17  -7 -11    0.03    0.10
 -19  -7  -1    0.74    0.14
  19   7  -1    0.68    0.12
 -19   7   1    0.57    0.13
  19  -7  -1    0.83    0.13
 -19   7  -1    0.50    0.13
 -19  -7   1    0.73    0.15
 -19   7   3    1.17    0.18
 -19  -7  -3    1.18    0.17
 -19  -7   3    1.33    0.18
 -19   7  -3    1.05    0.17
  19  -7  -3    1.21    0.15
 -19   7   5    0.30    0.14
 -19  -7  -5    0.23    0.12
  19   7  -5    0.42    0.13
 -19   7  -5    0.45    0.13
  19  -7  -5    0.49    0.13
 -19  -7   5    0.30    0.13
  19   7  -7    0.24    0.13
 -19   7   7    0.11    0.13
 -19  -7  -7    0.44    0.13
  19  -7  -7    0.05    0.11
 -19   7  -7    0.13    0.12
 -19  -7   7    0.07    0.13
 -19   7   9    0.26    0.15
 -19  -7  -9    0.11    0.11
 -19   7  -9   -0.09    0.11
 -21   7   1   -0.03    0.11
 -21  -7  -1    0.06    0.11
 -21   7  -1    0.23    0.13
 -21  -7   1    0.07    0.11
  21   7  -3    0.76    0.15
 -21   7   3    0.64    0.16
 -21  -7  -3    0.78    0.15
 -21   7  -3    0.65    0.15
 -21  -7   3    0.68    0.16
  21  -7  -3    0.62    0.13
 -21   7   5    0.09    0.14
  21   7  -5    0.05    0.11
 -21  -7  -5   -0.02    0.11
  21  -7  -5   -0.02    0.11
 -21  -7   5    0.15    0.14
 -21   7  -5   -0.05    0.12
 -21  -7  -7    0.00    0.11
 -23  -7  -1   -0.06    0.12
   0  -8   0   44.28    1.39
   0   8   0   52.13    1.38
   0   8   2    0.00    0.02
   0  -8  -2   -0.05    0.02
   0  -8   2   -0.07    0.02
   0   8  -2    0.01    0.03
   0   8   4   58.83    1.73
   0   8  -4   57.02    1.73
   0  -8   6    0.08    0.04
   0   8  -6   -0.04    0.03
   0   8   6   -0.02    0.01
   0  -8  -6   -0.03    0.05
   0   8   8    7.90    0.29
   0   8  -8    7.55    0.31
   0   8  -8    7.55    0.28
   0  -8   8    7.20    0.30
   0  -8  -8    7.53    0.30
   0  -8 -10    0.07    0.08
   0   8 -10   -0.01    0.06
   0  -8 -10    0.16    0.06
   0   8 -10    0.03    0.09
   0  -8 -12    0.15    0.09
   0   8 -12    0.12    0.10
   0  -8 -14    0.13    0.11
   0   8 -14    0.19    0.12
   2  -8   0    5.45    0.17
  -2   8   0    5.41    0.18
  -2  -8   0    5.59    0.18
  -2   8   0    5.18    0.17
  -2  -8   0    5.29    0.17
   2   8   0    5.53    0.18
  -2   8   2   87.26    2.56
   2   8  -2   85.35    2.56
  -2  -8  -2   88.53    2.47
   2  -8   2   86.82    2.48
  -2  -8  -2   73.65    2.47
  -2   8   2   85.96    2.48
  -2  -8   2   86.89    2.49
  -2   8  -2   88.57    2.49
   2   8   2   88.61    2.55
  -2  -8   2   86.05    2.48
   2  -8  -2   86.40    2.46
  -2   8  -2   89.90    2.55
  -2   8   4   10.02    0.33
  -2  -8  -4    9.79    0.32
   2   8  -4   10.11    0.33
  -2   8  -4   10.15    0.32
   2   8   4   10.05    0.32
  -2   8   6   10.75    0.37
   2  -8   6    9.55    0.36
  -2  -8  -6    9.89    0.35
   2   8  -6   10.40    0.36
   2   8   6   10.89    0.34
  -2  -8   6   10.27    0.36
  -2   8  -6   10.82    0.37
  -2   8  -6   10.30    0.34
  -2   8   8    3.78    0.19
  -2  -8  -8    3.95    0.19
   2  -8   8    3.70    0.19
   2   8  -8    3.78    0.18
  -2   8  -8    3.85    0.21
  -2   8  -8    3.60    0.16
  -2  -8   8    3.71    0.19
  -2  -8 -10    2.07    0.15
   2   8 -10    1.79    0.15
   2  -8 -10    2.07    0.16
  -2   8 -10    1.95    0.18
  -2  -8  10    2.17    0.16
   2   8 -12    0.34    0.11
  -2  -8 -12    0.40    0.10
  -2   8 -12    0.31    0.10
   2  -8 -12    0.54    0.12
   2   8 -14    0.45    0.14
  -2  -8 -14    0.46    0.13
   2  -8 -14    1.00    0.16
  -2   8 -14    0.99    0.16
  -4  -8   0    0.33    0.04
  -4   8   0    0.24    0.03
  -4   8   0    0.24    0.03
   4   8   0    0.19    0.03
  -4  -8   0    0.25    0.03
   4  -8   0    0.29    0.02
  -4  -8  -2    4.37    0.15
  -4  -8  -2    4.31    0.15
   4  -8   2    4.06    0.15
  -4   8   2    4.31    0.16
  -4  -8   2    4.28    0.17
  -4  -8   2    4.16    0.15
   4   8   2    4.23    0.15
  -4   8  -2    4.32    0.14
   4  -8  -2    4.39    0.13
  -4  -8  -4   17.17    0.53
  -4   8   4   17.01    0.56
   4   8  -4   17.02    0.56
   4  -8   4   17.20    0.54
   4   8   4   17.74    0.53
  -4   8  -4   17.50    0.52
  -4   8   6    7.82    0.30
   4  -8   6    7.75    0.30
  -4  -8  -6    7.78    0.28
  -4   8   6    8.18    0.31
   4   8  -6    8.09    0.30
   4   8   6    7.94    0.26
  -4  -8   6    8.13    0.29
  -4  -8   6    7.91    0.32
  -4   8  -6    7.92    0.30
  -4   8  -6    8.06    0.26
   4   8  -8    0.70    0.09
  -4   8   8    0.63    0.10
  -4  -8  -8    0.77    0.09
  -4  -8   8    0.88    0.09
  -4   8  -8    0.65    0.10
   4   8 -10    0.18    0.08
  -4  -8 -10    0.29    0.09
  -4  -8  10    0.22    0.08
  -4   8 -10    0.41    0.11
   4   8 -12   -0.12    0.07
  -4  -8 -12    0.13    0.08
  -4   8 -12    0.14    0.10
   4  -8 -12    0.06    0.07
   4   8 -14    0.00    0.12
  -4  -8 -14    0.15    0.11
   4  -8 -14    0.09    0.11
  -4   8 -14    0.22    0.12
  -6  -8   0   12.15    0.37
  -6   8   0   11.56    0.38
   6   8   0   11.26    0.38
  -6  -8   0   11.60    0.38
  -6   8   2   18.00    0.60
   6   8  -2   19.17    0.61
  -6   8   2   19.51    0.62
  -6  -8  -2   19.50    0.59
   6  -8   2   19.77    0.58
  -6   8  -2   17.58    0.59
  -6   8  -2   19.43    0.59
  -6  -8   2   18.99    0.58
  -6  -8   2   20.20    0.61
   6   8   2   19.92    0.59
  -6  -8  -4    9.01    0.30
  -6   8   4    8.54    0.32
   6   8  -4    8.67    0.32
   6  -8   4    8.81    0.30
  -6   8   4    8.71    0.32
  -6   8  -4    8.75    0.27
   6   8   4    8.83    0.27
  -6   8   6    2.40    0.15
   6   8  -6    2.37    0.14
  -6  -8  -6    2.25    0.13
  -6   8   6    2.30    0.15
  -6   8  -6    1.90    0.14
  -6  -8   6    2.13    0.15
  -6  -8   6    2.16    0.12
  -6  -8  -8    2.02    0.14
  -6   8   8    1.74    0.16
  -6   8   8    1.85    0.15
   6   8  -8    1.86    0.15
  -6  -8   8    2.08    0.13
  -6   8  -8    1.96    0.15
  -6  -8 -10    2.15    0.16
   6   8 -10    2.32    0.17
  -6  -8  10    2.58    0.16
  -6   8 -10    2.45    0.18
  -6  -8 -12    0.27    0.09
   6   8 -12    0.13    0.09
   6  -8 -12    0.05    0.08
  -6   8 -12    0.02    0.08
  -6  -8 -14    1.06    0.15
   6   8 -14    1.01    0.18
   6  -8 -14    1.18    0.17
  -6   8 -14    1.51    0.19
  -8  -8   0    1.32    0.09
   8   8   0    1.16    0.09
  -8   8   0    1.44    0.09
  -8   8   0    1.28    0.09
  -8  -8   0    1.48    0.08
  -8  -8  -2   13.20    0.42
  -8   8   2   12.62    0.43
  -8   8   2   12.59    0.44
   8   8  -2   12.09    0.43
  -8  -8  -2   12.54    0.41
   8   8   2   13.12    0.41
  -8  -8   2   12.88    0.44
  -8   8  -2   12.53    0.41
  -8   8  -2   12.51    0.43
  -8  -8   2   12.84    0.40
  -8  -8  -4    1.11    0.09
  -8   8   4    0.87    0.09
   8   8  -4    0.91    0.10
  -8  -8  -4    1.21    0.10
  -8   8   4    1.18    0.11
  -8   8  -4    1.15    0.06
  -8   8  -4    1.13    0.09
   8  -8  -4    1.03    0.05
   8   8   4    1.24    0.06
  -8   8   6    8.87    0.37
  -8   8   6    9.82    0.38
   8   8  -6    9.90    0.37
  -8  -8  -6    9.51    0.35
  -8   8  -6    9.42    0.36
  -8  -8   6    9.34    0.33
  -8  -8  -8    0.98    0.11
  -8   8   8    0.71    0.12
   8   8  -8    0.73    0.11
  -8   8   8    1.04    0.14
  -8   8  -8    0.92    0.12
  -8  -8   8    0.90    0.13
  -8  -8   8    0.90    0.10
  -8  -8 -10    1.42    0.14
   8   8 -10    1.37    0.15
  -8   8 -10    1.60    0.16
  -8  -8  10    1.28    0.13
   8  -8 -10    1.58    0.16
   8   8 -12    0.11    0.10
  -8  -8 -12    0.05    0.09
   8  -8 -12    0.15    0.09
  -8   8 -12    0.24    0.11
  -8   8 -14    0.29    0.14
 -10   8   0    2.96    0.16
 -10   8   0    2.57    0.10
 -10  -8   0    3.10    0.16
 -10   8   0    2.92    0.15
  10   8   0    2.78    0.14
 -10  -8  -2   15.06    0.50
 -10  -8  -2   15.63    0.48
 -10   8   2   15.63    0.52
  10   8  -2   14.79    0.51
 -10   8   2   15.93    0.52
 -10   8  -2   12.24    0.49
 -10  -8   2   14.80    0.46
 -10  -8   2   15.44    0.52
 -10   8  -2   15.22    0.49
 -10  -8   4    3.36    0.14
 -10   8   6    9.46    0.39
 -10   8   6    9.28    0.39
 -10  -8  -6    9.47    0.36
  10   8  -6    9.61    0.38
 -10  -8  -6    9.69    0.36
 -10   8  -6    9.42    0.37
 -10  -8   6    9.72    0.41
 -10  -8  -8    2.48    0.18
 -10   8   8    3.08    0.21
  10   8  -8    3.05    0.20
 -10  -8  -8    2.51    0.17
 -10   8   8    2.59    0.20
 -10   8  -8    2.70    0.18
 -10  -8   8    2.61    0.20
 -10   8  10    0.70    0.14
 -10  -8 -10    0.95    0.12
  10   8 -10    0.92    0.14
 -10  -8  10    0.93    0.16
  10  -8 -10    1.01    0.15
 -10   8 -10    1.05    0.14
 -10  -8 -12    1.42    0.17
  10   8 -12    1.56    0.18
 -10  -8 -12    1.47    0.16
 -10   8 -12    1.57    0.18
  10  -8 -12    1.38    0.17
 -10  -8 -14    0.21    0.12
  10   8 -14    0.05    0.12
  10  -8 -14    0.16    0.12
 -10   8 -14    0.15    0.13
 -12  -8   0    0.11    0.05
 -12  -8   0    0.01    0.06
 -12   8   0    0.00    0.06
  12   8   0    0.06    0.06
 -12   8   0    0.10    0.07
 -12   8   2   11.34    0.42
 -12  -8  -2   11.02    0.38
  12   8  -2   11.59    0.41
 -12  -8  -2   10.63    0.41
 -12   8   2   11.02    0.42
 -12   8  -2   10.93    0.39
  12   8   2   10.93    0.38
 -12  -8   2   11.01    0.42
  12   8  -4    7.80    0.33
 -12  -8  -4    7.28    0.30
 -12  -8  -4    8.05    0.32
 -12   8   4    7.35    0.33
 -12   8   4    7.81    0.34
 -12  -8   4    7.86    0.35
 -12   8  -4    7.79    0.32
 -12   8   6    8.24    0.36
 -12   8   6    8.35    0.37
 -12  -8  -6    8.41    0.33
 -12  -8  -6    8.23    0.34
  12   8  -6    7.92    0.36
 -12   8  -6    7.63    0.34
 -12  -8   6    7.89    0.38
 -12  -8  -8    1.45    0.14
 -12   8   8    1.57    0.18
 -12  -8  -8    1.49    0.15
  12   8  -8    1.65    0.17
 -12  -8   8    1.24    0.17
  12  -8  -8    1.41    0.17
 -12   8  -8    1.67    0.16
  12   8 -10    0.23    0.11
 -12  -8 -10    0.15    0.09
 -12  -8 -10    0.32    0.11
 -12   8  10    0.28    0.12
 -12  -8  10    0.20    0.12
 -12   8 -10    0.23    0.11
  12  -8 -10    0.39    0.12
 -12  -8 -12    0.17    0.11
 -12  -8 -12    0.20    0.11
  12   8 -12    0.16    0.12
 -12   8 -12    0.25    0.12
  12  -8 -12    0.21    0.11
  14   8   0    9.50    0.36
 -14  -8   0    9.36    0.38
 -14   8   0    9.44    0.39
  14   8  -2    3.72    0.22
 -14  -8  -2    3.67    0.22
 -14   8   2    4.07    0.23
  14  -8   2    3.84    0.18
 -14  -8  -2    4.09    0.19
 -14   8   2    3.90    0.22
 -14  -8   2    3.90    0.23
  14   8   2    4.00    0.19
 -14   8  -2    4.06    0.22
 -14   8   4    0.52    0.11
 -14   8   4    0.47    0.11
 -14  -8  -4    0.46    0.10
 -14  -8  -4    0.22    0.08
  14   8  -4    0.26    0.11
 -14  -8   4    0.45    0.11
 -14   8  -4    0.51    0.10
 -14  -8  -6    2.56    0.17
 -14  -8  -6    2.20    0.18
 -14   8   6    2.47    0.20
  14   8  -6    2.54    0.20
 -14  -8   6    2.68    0.22
 -14   8  -6    2.55    0.19
  14   8  -8    1.32    0.17
 -14  -8  -8    1.61    0.16
 -14  -8  -8    1.54    0.16
 -14   8   8    1.49    0.19
 -14   8  -8    1.46    0.17
 -14  -8   8    1.41    0.19
  14  -8  -8    1.11    0.16
 -14  -8 -10    0.28    0.11
  14   8 -10    0.22    0.11
 -14   8  10    0.06    0.12
 -14  -8 -10    0.28    0.11
 -14  -8  10    0.29    0.14
  14  -8 -10    0.31    0.12
 -14   8 -10    0.38    0.12
  14   8 -12   -0.17    0.10
 -14  -8 -12   -0.05    0.09
 -14  -8 -12    0.15    0.11
 -14   8  12    0.06    0.13
  14  -8 -12    0.01    0.11
 -14   8 -12    0.09    0.12
 -16   8   0    0.67    0.12
  16   8   0    0.63    0.10
 -16  -8   0    0.66    0.12
  16  -8   0    0.83    0.11
 -16  -8  -2    0.55    0.12
 -16   8   2    0.75    0.12
  16   8  -2    0.68    0.12
  16  -8  -2    0.63    0.11
 -16  -8   2    1.00    0.14
 -16   8  -2    0.67    0.12
 -16  -8  -4    1.36    0.15
 -16   8   4    1.33    0.16
  16   8  -4    1.27    0.15
  16  -8  -4    1.40    0.16
 -16  -8   4    1.10    0.16
 -16   8  -4    1.27    0.16
 -16  -8  -6    2.16    0.16
  16   8  -6    1.90    0.19
 -16   8   6    2.08    0.22
 -16  -8  -6    2.18    0.20
 -16  -8   6    2.28    0.23
  16  -8  -6    2.31    0.19
 -16   8  -6    2.20    0.18
 -16  -8  -8    0.12    0.09
  16   8  -8    0.01    0.10
 -16  -8  -8    0.14    0.10
 -16   8   8    0.07    0.12
 -16  -8   8   -0.04    0.12
 -16   8  -8    0.08    0.11
  16  -8  -8   -0.01    0.10
 -16   8  10    1.37    0.21
  16   8 -10    0.96    0.17
 -16  -8 -10    1.19    0.17
 -16  -8 -10    1.08    0.15
 -16  -8  10    0.97    0.20
 -16   8 -10    0.78    0.15
  16  -8 -10    0.78    0.15
 -16  -8 -12    0.10    0.11
 -16   8 -12    0.21    0.12
 -18   8   0    2.53    0.20
 -18  -8   0    2.61    0.20
 -18   8   2    0.61    0.13
  18   8  -2    0.36    0.11
 -18  -8  -2    0.60    0.13
 -18  -8   2    0.59    0.13
  18  -8  -2    0.56    0.11
 -18   8  -2    0.79    0.14
  18   8  -4    1.68    0.18
 -18   8   4    1.91    0.21
 -18  -8  -4    1.73    0.18
  18  -8  -4    1.87    0.18
 -18  -8   4    1.79    0.21
 -18   8  -4    1.69    0.19
  18   8  -6    0.36    0.12
 -18   8   6    0.25    0.13
 -18  -8  -6    0.13    0.11
  18  -8  -6    0.43    0.12
 -18   8  -6    0.41    0.13
 -18  -8   6    0.27    0.13
 -18   8   8    1.33    0.21
  18   8  -8    1.10    0.17
 -18  -8  -8    1.26    0.17
 -18   8  -8    1.31    0.18
 -18  -8   8    0.99    0.20
  18  -8  -8    1.12    0.17
 -18   8  10   -0.01    0.13
 -18  -8 -10   -0.17    0.10
 -20  -8   0    0.01    0.10
 -20   8   0    0.05    0.11
 -20   8   2    2.01    0.22
  20   8  -2    1.66    0.18
 -20  -8  -2    1.79    0.20
 -20   8  -2    1.78    0.20
 -20  -8   2    1.99    0.22
  20  -8  -2    1.60    0.18
  20   8  -4    0.42    0.13
 -20  -8  -4    0.88    0.16
 -20   8   4    0.53    0.16
 -20  -8   4    0.54    0.16
 -20   8  -4    0.51    0.14
  20  -8  -4    0.57    0.13
 -20  -8  -6    0.74    0.16
  20   8  -6    0.84    0.16
 -20   8   6    0.74    0.17
 -20  -8   6    0.86    0.18
  20  -8  -6    0.60    0.14
 -20   8  -6    0.99    0.17
 -20  -8  -8    0.24    0.12
 -20   8   8    0.33    0.16
 -22  -8   0    0.64    0.16
 -22   8   0    0.96    0.18
 -22   8   2    0.15    0.12
 -22  -8  -2   -0.04    0.11
 -22   8  -2    0.17    0.13
 -22  -8   2    0.03    0.12
 -22   8   4    0.26    0.15
 -22  -8  -4    0.43    0.14
  22   8  -4    0.10    0.12
 -22   8  -4    0.19    0.13
  22  -8  -4    0.23    0.12
 -22  -8   4    0.38    0.16
  -1   9   1   53.63    1.49
   1  -9   1   53.02    1.50
  -1  -9  -1   49.89    1.49
  -1   9   1   50.72    1.55
   1   9   1   50.62    1.55
  -1  -9   1   52.68    1.50
  -1   9  -1   53.34    1.55
  -1   9  -1   50.79    1.50
   1  -9  -1   52.74    1.49
  -1  -9   1   52.32    1.50
  -1  -9  -3   22.72    0.65
  -1   9   3   22.01    0.68
   1   9  -3   21.31    0.68
  -1   9   3   22.29    0.66
  -1   9  -3   21.97    0.67
   1   9   3   22.28    0.68
  -1  -9   3   22.51    0.67
  -1  -9  -5   16.31    0.52
   1   9  -5   16.11    0.53
   1  -9   5   16.97    0.53
  -1  -9   5   16.82    0.53
   1   9   5   16.98    0.53
  -1   9  -5   16.98    0.52
   1   9  -7   16.39    0.53
  -1  -9  -7   16.13    0.52
  -1   9   7   15.99    0.53
   1  -9   7   15.81    0.54
  -1   9  -7   16.12    0.52
  -1  -9   7   16.05    0.53
  -1   9  -7   16.23    0.55
   1  -9   9   10.51    0.40
  -1   9   9   10.45    0.39
   1   9  -9   10.48    0.41
  -1  -9  -9   10.52    0.39
   1   9  -9   10.27    0.38
  -1   9  -9   10.21    0.36
  -1  -9   9   10.73    0.40
   1   9   9   10.77    0.38
   1  -9  -9   10.29    0.39
  -1   9  -9   10.31    0.41
   1   9 -11    0.10    0.09
  -1  -9 -11    0.01    0.08
   1  -9 -11    0.12    0.09
  -1   9 -11    0.25    0.11
  -1  -9 -13   -0.02    0.08
   1   9 -13    0.04    0.10
  -1   9 -13    0.15    0.11
   1  -9 -13    0.05    0.10
   1   9 -15   -0.06    0.11
  -1   9 -15   -0.17    0.10
   3   9  -1   93.51    2.72
  -3  -9  -1   90.27    2.63
  -3   9   1   95.07    2.64
  -3  -9  -1   90.86    2.64
  -3   9   1   88.65    2.72
   3  -9   1   92.61    2.63
  -3   9  -1   92.72    2.72
  -3   9  -1   90.42    2.64
   3   9   1   92.97    2.72
  -3  -9   1   89.97    2.64
  -3  -9   1   90.19    2.63
   3  -9  -1   93.65    2.62
  -3  -9  -3   10.62    0.32
   3   9  -3   10.24    0.34
   3  -9   3   10.53    0.34
  -3   9   3   10.46    0.33
   3   9   3   10.46    0.32
  -3   9  -3   10.82    0.32
  -3  -9   3    9.39    0.34
  -3  -9   3   10.19    0.33
   3  -9   5    3.95    0.17
  -3   9   5    4.80    0.18
  -3   9   5    3.80    0.17
  -3  -9  -5    4.01    0.16
   3   9  -5    4.08    0.17
  -3  -9   5    4.05    0.17
  -3   9  -5    4.29    0.15
   3   9   5    4.24    0.15
  -3  -9   5    3.99    0.19
  -3   9  -5    3.86    0.17
   3   9  -7    6.94    0.26
  -3  -9  -7    6.36    0.26
  -3   9   7    6.67    0.27
  -3  -9   7    6.77    0.26
   3   9   7    6.65    0.23
  -3   9  -7    7.10    0.28
  -3   9  -7    6.49    0.23
  -3   9   9    0.49    0.09
  -3  -9  -9    0.52    0.09
   3   9  -9    0.31    0.09
  -3  -9   9    0.65    0.10
  -3   9  -9    0.57    0.11
  -3  -9 -11    0.76    0.12
   3   9 -11    0.48    0.09
   3  -9 -11    0.84    0.11
  -3   9 -11    0.72    0.13
  -3  -9 -13    0.00    0.09
   3   9 -13    0.03    0.11
   3  -9 -13    0.03    0.10
  -3   9 -13    0.24    0.12
   3   9 -15   -0.11    0.12
  -3   9 -15   -0.09    0.12
  -5  -9  -1    5.39    0.19
  -5   9   1    5.01    0.19
  -5  -9  -1    5.41    0.18
   5   9  -1    5.60    0.19
  -5   9   1    5.00    0.19
   5  -9   1    5.30    0.17
  -5   9  -1    5.42    0.18
   5   9   1    5.30    0.18
  -5  -9   1    5.30    0.18
  -5  -9   1    4.82    0.19
   5  -9   3    4.57    0.18
  -5  -9  -3    4.73    0.18
  -5  -9  -3    4.68    0.17
   5  -9  -3    4.73    0.15
  -5  -9   3    4.55    0.17
  -5  -9   3    4.53    0.19
  -5   9  -3    4.59    0.16
   5   9   3    4.53    0.16
   5   9  -5   21.35    0.69
  -5  -9  -5   21.47    0.66
  -5   9   5   20.97    0.70
  -5   9   5   21.73    0.68
   5  -9   5   21.13    0.67
  -5   9  -5   21.43    0.64
  -5   9  -5   21.39    0.68
  -5  -9   5   21.07    0.66
   5   9   5   21.36    0.64
   5   9  -7   10.58    0.39
  -5   9   7   10.70    0.40
  -5   9   7   10.36    0.40
  -5  -9  -7   10.45    0.37
  -5  -9   7   10.74    0.41
  -5   9  -7   11.01    0.40
  -5  -9   7   10.38    0.37
   5   9  -9    4.36    0.22
  -5   9   9    4.16    0.23
  -5  -9  -9    4.69    0.22
  -5  -9   9    4.36    0.22
  -5   9  -9    4.52    0.23
   5   9 -11    2.28    0.17
  -5  -9 -11    2.28    0.17
   5  -9 -11    2.44    0.17
  -5   9 -11    1.90    0.19
  -5  -9 -13    0.04    0.09
  -5   9 -13    0.18    0.11
   5  -9 -13    0.21    0.11
   5   9 -15   -0.01    0.13
  -5   9 -15   -0.14    0.11
  -7  -9  -1   63.80    1.92
  -7   9   1   66.32    1.98
  -7   9   1   66.35    1.93
   7   9  -1   65.36    1.97
  -7   9  -1   65.47    1.92
  -7  -9   1   66.10    1.90
  -7   9  -1   65.60    1.97
   7   9   1   66.69    1.96
  -7  -9   1   64.62    1.93
  -7   9   3   19.22    0.61
  -7  -9  -3   18.94    0.58
  -7  -9  -3   18.41    0.58
   7   9  -3   18.34    0.60
  -7   9   3   19.46    0.60
  -7   9  -3   18.13    0.57
  -7  -9   3   18.10    0.60
  -7   9  -3   16.44    0.58
  -7  -9   3   18.75    0.57
   7   9   3   18.45    0.57
  -7   9   5   15.35    0.53
   7   9  -5   16.16    0.53
  -7  -9  -5   15.73    0.51
  -7   9   5   15.54    0.54
  -7  -9  -5   14.90    0.50
  -7  -9   5   15.48    0.49
   7   9   5   15.55    0.47
  -7   9  -5   15.30    0.52
  -7  -9  -7    4.60    0.21
  -7   9   7    4.51    0.23
   7   9  -7    4.52    0.22
  -7   9   7    4.60    0.23
  -7  -9   7    4.87    0.25
  -7  -9   7    4.67    0.21
  -7   9  -7    4.75    0.23
  -7  -9  -9    2.44    0.16
  -7   9   9    2.39    0.18
   7   9  -9    2.30    0.17
  -7   9   9    2.43    0.19
  -7  -9   9    2.60    0.16
  -7   9  -9    2.57    0.18
  -7  -9 -11    0.25    0.09
   7   9 -11    0.14    0.09
   7  -9 -11    0.13    0.08
  -7   9 -11    0.30    0.10
  -7  -9 -13   -0.15    0.08
   7   9 -13   -0.13    0.08
  -7   9 -13    0.08    0.11
   7  -9 -13    0.05    0.09
   7   9 -15    0.27    0.14
  -7   9 -15    0.39    0.15
  -9  -9  -1    1.53    0.11
  -9  -9  -1    1.28    0.08
   9   9  -1    1.26    0.10
  -9   9   1    1.29    0.10
  -9   9   1    1.30    0.11
  -9   9  -1    1.27    0.09
   9   9   1    1.19    0.09
  -9  -9   1    1.18    0.08
  -9   9  -1    1.40    0.11
  -9  -9   1    1.31    0.11
  -9   9   3    8.01    0.32
  -9   9   3    8.15    0.32
  -9  -9  -3    8.49    0.31
   9   9  -3    8.19    0.32
  -9  -9  -3    8.83    0.30
  -9   9  -3    8.49    0.28
   9   9   3    8.36    0.28
  -9  -9   3    8.55    0.28
  -9  -9   3    8.25    0.33
  -9  -9  -7    4.30    0.22
  -9   9   7    4.68    0.25
   9   9  -7    4.60    0.24
  -9   9   7    4.46    0.24
  -9  -9  -7    4.22    0.21
  -9  -9   7    4.49    0.20
  -9   9  -7    4.08    0.22
  -9  -9   7    4.48    0.25
   9   9  -9    1.49    0.16
  -9  -9  -9    1.55    0.14
  -9   9   9    1.41    0.16
  -9   9   9    1.30    0.16
  -9   9  -9    1.20    0.14
  -9  -9   9    1.22    0.16
  -9  -9 -11    0.97    0.13
   9   9 -11    0.76    0.13
   9  -9 -11    1.09    0.14
  -9   9 -11    0.87    0.14
   9   9 -13    0.20    0.11
  -9  -9 -13    0.26    0.11
  -9  -9 -13    0.49    0.12
  -9   9 -13    0.55    0.14
   9  -9 -13    0.28    0.11
  11   9  -1    0.74    0.09
 -11  -9  -1    0.73    0.07
 -11   9   1    1.05    0.11
 -11  -9  -1    0.76    0.09
 -11   9   1    0.80    0.10
 -11   9  -1    0.76    0.09
 -11   9  -1    0.89    0.10
  11   9   1    0.79    0.08
 -11   9  -1    0.69    0.06
 -11  -9   1    0.75    0.09
 -11   9   3    4.33    0.23
 -11  -9  -3    5.09    0.20
 -11   9   3    4.82    0.23
  11   9  -3    4.77    0.22
 -11  -9  -3    4.80    0.21
 -11  -9   3    4.17    0.23
 -11   9  -3    4.49    0.19
 -11   9   5    6.55    0.30
 -11   9   5    6.46    0.31
 -11  -9  -5    6.61    0.28
 -11  -9  -5    6.56    0.27
  11   9  -5    6.39    0.30
 -11  -9   5    6.61    0.31
 -11   9  -5    7.10    0.30
 -11   9   7    7.99    0.37
  11   9  -7    8.22    0.36
 -11  -9  -7    8.65    0.34
 -11  -9  -7    7.82    0.33
 -11   9   7    8.64    0.38
 -11   9  -7    8.50    0.35
 -11  -9   7    8.23    0.39
 -11   9   9    0.77    0.14
 -11  -9  -9    0.57    0.11
 -11  -9  -9    0.67    0.11
  11   9  -9    0.66    0.12
 -11   9  -9    0.58    0.11
  11  -9  -9    0.74    0.12
 -11  -9   9    0.65    0.14
  11   9 -11    0.23    0.11
 -11  -9 -11    0.26    0.10
 -11  -9 -11    0.39    0.11
 -11   9  11    0.54    0.14
  11  -9 -11    0.50    0.12
 -11   9 -11    0.30    0.12
  11   9 -13    0.06    0.11
 -11  -9 -13    0.13    0.11
 -11   9 -13    0.19    0.13
  11  -9 -13    0.15    0.11
  13   9  -1   11.93    0.43
 -13   9   1   11.52    0.45
 -13  -9  -1   11.63    0.44
 -13  -9  -1   12.36    0.40
 -13   9   1   12.29    0.44
 -13   9  -1   11.85    0.43
 -13   9  -1   11.47    0.44
 -13  -9   1   11.08    0.44
  13   9   1   11.79    0.42
  13   9  -3   12.83    0.46
 -13  -9  -3   12.07    0.41
 -13  -9  -3   11.61    0.44
 -13   9   3   11.25    0.45
 -13   9   3   11.55    0.45
 -13  -9   3   10.83    0.45
 -13   9  -3   12.09    0.45
 -13   9   5    9.69    0.41
 -13  -9  -5    9.80    0.37
  13   9  -5    9.03    0.39
 -13   9   5    9.37    0.41
 -13  -9  -5    9.76    0.38
 -13   9  -5    8.99    0.38
 -13  -9   5    9.43    0.41
 -13  -9  -7    0.70    0.11
 -13   9   7    0.73    0.14
  13   9  -7    0.66    0.13
 -13  -9  -7    0.72    0.11
 -13   9  -7    0.69    0.12
 -13  -9   7    0.70    0.14
 -13  -9  -9    0.59    0.12
 -13  -9  -9    0.23    0.10
 -13   9   9    0.36    0.12
  13   9  -9    0.26    0.11
  13  -9  -9    0.20    0.11
 -13  -9   9    0.17    0.11
 -13   9  -9    0.41    0.12
 -13   9  11   -0.11    0.11
  13   9 -11   -0.06    0.10
 -13  -9 -11   -0.01    0.09
 -13  -9 -11   -0.03    0.09
 -13   9 -11   -0.13    0.09
  13  -9 -11   -0.15    0.08
 -13  -9  11   -0.10    0.10
 -13  -9 -13    0.18    0.12
  13   9 -13   -0.03    0.12
  13  -9 -13    0.05    0.12
 -13   9 -13    0.48    0.15
 -15  -9  -1    1.12    0.14
  15  -9   1    1.23    0.11
 -15   9   1    1.07    0.14
  15   9  -1    1.42    0.13
  15   9   1    1.14    0.11
 -15   9  -1    1.04    0.13
 -15  -9   1    1.27    0.15
 -15  -9  -3    2.37    0.18
  15   9  -3    2.29    0.18
 -15   9   3    2.27    0.19
 -15  -9   3    2.35    0.19
 -15   9  -3    2.47    0.18
 -15  -9  -5    5.88    0.29
 -15   9   5    5.54    0.30
  15   9  -5    5.37    0.29
 -15  -9  -5    6.03    0.27
 -15  -9   5    5.55    0.32
 -15   9  -5    6.23    0.30
 -15  -9  -7    3.56    0.21
  15   9  -7    3.31    0.24
 -15  -9  -7    3.76    0.23
 -15   9   7    3.56    0.26
  15  -9  -7    3.54    0.25
 -15  -9   7    4.28    0.28
 -15   9  -7    3.51    0.23
  15   9  -9    0.24    0.12
 -15   9   9    0.16    0.13
 -15  -9  -9    0.69    0.13
 -15  -9  -9    0.35    0.11
 -15   9  -9    0.51    0.13
 -15  -9   9    0.45    0.15
  15  -9  -9    0.36    0.12
  15   9 -11    0.16    0.12
 -15   9  11    0.02    0.13
 -15  -9 -11    0.08    0.10
 -15  -9 -11    0.15    0.11
 -15   9 -11    0.32    0.13
 -15  -9  11    0.24    0.15
  15  -9 -11    0.05    0.10
  17   9  -1    0.90    0.12
 -17  -9  -1    1.06    0.15
 -17   9   1    0.71    0.13
 -17   9  -1    0.93    0.14
  17  -9  -1    1.06    0.13
 -17  -9   1    0.67    0.13
 -17   9   3    0.70    0.14
  17   9  -3    0.77    0.13
 -17  -9  -3    0.91    0.14
  17  -9  -3    0.72    0.13
 -17   9  -3    1.10    0.15
 -17  -9   3    0.92    0.15
 -17   9   5    0.83    0.16
  17   9  -5    0.99    0.15
 -17  -9  -5    1.06    0.15
  17  -9  -5    1.03    0.15
 -17  -9   5    0.93    0.16
 -17   9  -5    1.20    0.16
 -17  -9  -7    1.64    0.18
 -17   9   7    1.42    0.20
  17   9  -7    1.13    0.17
  17  -9  -7    1.28    0.17
 -17  -9   7    1.64    0.22
 -17   9  -7    1.61    0.19
 -17  -9  -9    0.67    0.13
 -17   9   9    0.72    0.17
 -17  -9  -9    0.44    0.13
  17   9  -9    0.73    0.16
 -17   9  -9    0.56    0.14
  17  -9  -9    0.51    0.14
 -17  -9   9    0.58    0.17
 -17  -9 -11    0.22    0.12
 -17  -9 -11    0.17    0.11
 -17   9  11    0.28    0.15
 -19  -9  -1    0.73    0.15
  19   9  -1    0.47    0.11
 -19   9   1    0.40    0.12
 -19   9  -1    0.69    0.14
  19  -9  -1    0.49    0.11
 -19  -9   1    0.89    0.15
  19   9  -3   -0.03    0.09
 -19  -9  -3    0.06    0.10
 -19   9   3    0.11    0.11
 -19   9  -3    0.02    0.10
  19  -9  -3    0.04    0.09
 -19  -9   3   -0.12    0.09
  19   9  -5   -0.09    0.09
 -19   9   5    0.00    0.11
 -19  -9  -5    0.17    0.11
 -19  -9   5    0.04    0.12
 -19   9  -5    0.09    0.11
  19  -9  -5    0.05    0.10
 -19  -9  -7    0.31    0.13
 -19   9   7    0.24    0.13
  19   9  -7    0.22    0.12
  19  -9  -7    0.01    0.10
 -19   9  -7    0.31    0.13
 -19  -9   7    0.27    0.14
 -19  -9  -9    0.26    0.12
 -19   9   9    0.17    0.15
 -21  -9  -1    0.39    0.13
 -21   9   1    0.40    0.14
 -21  -9   1    0.40    0.14
 -21   9  -1    0.26    0.14
 -21   9   3    0.36    0.14
 -21  -9  -3    0.53    0.15
  21   9  -3    0.36    0.13
  21  -9  -3    0.37    0.12
 -21  -9   3    0.29    0.14
 -21   9  -3    0.44    0.14
  21   9  -5    0.07    0.11
 -21  -9  -5   -0.05    0.11
 -21   9   5    0.17    0.13
 -21   9  -5    0.03    0.12
 -21  -9   5    0.04    0.12
  21  -9  -5   -0.04    0.10
 -21  -9  -7    0.58    0.15
 -23  -9  -1    0.12    0.13
   0  10   0   -0.03    0.01
   0  10   0    0.01    0.01
   0 -10   0   -0.03    0.01
   0  10  -2   61.22    1.83
   0 -10  -2   60.24    1.77
   0  10   2   62.69    1.83
   0  10  -4    0.00    0.03
   0 -10   4    0.00    0.02
   0  10   4    0.04    0.03
   0  10  -6   46.53    1.43
   0  10  -6   46.96    1.42
   0 -10  -6   46.78    1.40
   0 -10   6   48.44    1.41
   0  10  -8   -0.01    0.07
   0 -10   8    0.02    0.06
   0  10   8   -0.06    0.05
   0  10  -8   -0.03    0.04
   0 -10  -8    0.04    0.06
   0 -10  10    7.92    0.35
   0  10 -10    8.64    0.32
   0  10 -10    8.63    0.37
   0 -10 -10    8.99    0.35
   0 -10 -12    0.02    0.08
   0  10 -12   -0.03    0.09
   0 -10 -14    1.24    0.16
   0  10 -14    1.72    0.20
   2  10   0 1000.00   28.09
   2 -10   0  938.46   26.91
  -2  10   0  890.20   27.10
  -2 -10   0  878.99   27.21
  -2 -10   0  902.90   27.69
  -2  10   0  921.13   28.42
  -2  10   2   21.59    0.69
   2  10  -2   22.62    0.69
  -2 -10  -2   22.18    0.65
  -2  10   2   22.33    0.66
   2 -10   2   22.38    0.67
  -2  10  -2   22.09    0.68
  -2  10  -2   22.52    0.67
   2 -10  -2   22.26    0.66
  -2 -10   2   22.09    0.67
  -2 -10   2   22.34    0.68
   2  10   2   23.31    0.68
   2  10  -4   11.79    0.41
  -2  10   4   13.01    0.40
   2 -10   4   12.41    0.41
  -2 -10  -4   11.85    0.39
  -2  10  -4   12.12    0.39
   2  10   4   13.77    0.40
   2  10  -6   13.71    0.45
  -2  10   6   13.04    0.45
  -2 -10  -6   13.55    0.44
  -2 -10   6   13.61    0.45
  -2  10  -6   13.27    0.43
   2  10   6   13.54    0.43
  -2  10  -6   13.20    0.46
  -2  10   8   17.52    0.57
  -2 -10  -8   15.96    0.55
   2  10  -8   16.67    0.56
   2 -10   8   16.32    0.56
  -2  10  -8   17.14    0.58
  -2  10  -8   16.47    0.53
  -2 -10   8   16.88    0.56
  -2 -10 -10    0.65    0.11
  -2  10  10    0.69    0.10
   2  10 -10    0.47    0.09
   2 -10 -10    0.80    0.12
  -2 -10  10    0.65    0.11
  -2  10 -10    0.74    0.12
  -2 -10 -12    1.92    0.17
   2  10 -12    2.19    0.20
  -2  10 -12    2.16    0.20
   2 -10 -12    2.18    0.19
   2  10 -14    1.38    0.19
   2 -10 -14    1.22    0.17
  -2  10 -14    1.12    0.18
  -4  10   0    3.81    0.14
  -4  10   0    3.78    0.14
   4 -10   0    3.78    0.13
  -4 -10   0    3.93    0.14
   4  10   0    4.05    0.15
  -4 -10  -2   50.08    1.43
  -4 -10  -2   45.13    1.43
   4 -10   2   49.23    1.43
  -4  10   2   48.18    1.43
   4  10   2   51.55    1.47
   4 -10  -2   51.52    1.41
  -4 -10   2   49.01    1.43
  -4 -10   2   46.75    1.44
  -4  10  -2   50.26    1.47
   4  10  -4   32.85    1.03
   4 -10   4   33.31    1.00
  -4 -10  -4   33.33    1.00
  -4  10   4   33.22    1.04
  -4 -10  -4   33.57    0.99
   4  10   4   34.35    1.00
  -4  10  -4   33.33    1.00
   4  10  -6    1.00    0.09
  -4 -10  -6    1.26    0.09
   4 -10   6    1.21    0.10
  -4  10   6    1.23    0.10
  -4  10   6    1.50    0.11
  -4  10  -6    1.31    0.10
  -4  10  -6    1.30    0.07
   4  10   6    1.45    0.07
  -4 -10   6    1.37    0.09
  -4 -10   6    1.24    0.12
   4 -10   8    5.32    0.27
   4  10  -8    7.12    0.28
  -4 -10  -8    6.68    0.27
  -4  10   8    7.05    0.29
  -4  10  -8    7.34    0.30
  -4 -10   8    6.96    0.27
  -4 -10 -10    2.60    0.17
   4  10 -10    3.07    0.18
  -4  10  10    2.77    0.19
  -4 -10  10    2.65    0.18
  -4  10 -10    2.74    0.19
   4  10 -12    0.64    0.11
  -4 -10 -12    0.84    0.12
   4 -10 -12    0.64    0.11
  -4  10 -12    0.64    0.13
   4  10 -14    1.32    0.19
  -4  10 -14    1.38    0.19
   4 -10 -14    1.04    0.16
  -6  10   0  182.31    5.48
   6  10   0  179.33    5.48
   6 -10   0  189.83    5.28
  -6 -10   0  186.44    5.32
  -6 -10   0  188.48    5.30
  -6 -10  -2   26.87    0.82
   6  10  -2   26.74    0.85
   6 -10   2   27.90    0.82
  -6  10   2   27.93    0.86
  -6  10   2   25.67    0.83
  -6 -10   2   27.74    0.84
  -6  10  -2   27.59    0.84
  -6 -10   2   27.76    0.82
   6  10   2   28.41    0.84
  -6  10  -2   27.87    0.84
  -6 -10  -4   24.16    0.73
   6  10  -4   23.35    0.76
  -6  10   4   24.28    0.77
  -6 -10  -4   23.70    0.73
   6 -10   4   24.49    0.73
  -6  10   4   23.88    0.75
  -6 -10   4   22.17    0.76
   6  10   4   24.67    0.72
   6 -10  -4   23.73    0.70
  -6  10  -4   23.44    0.72
  -6  10   6    5.88    0.26
  -6  10   6    5.55    0.25
  -6 -10  -6    6.02    0.23
   6  10  -6    6.06    0.25
   6 -10   6    6.00    0.24
  -6 -10   6    5.72    0.23
  -6  10  -6    5.42    0.24
  -6  10   8    6.86    0.31
   6  10  -8    7.08    0.30
  -6  10   8    7.01    0.31
  -6 -10  -8    6.57    0.27
  -6 -10   8    6.61    0.27
  -6  10  -8    6.96    0.30
  -6  10  10   -0.11    0.07
  -6 -10 -10    0.01    0.07
   6  10 -10   -0.15    0.07
  -6  10 -10   -0.02    0.08
  -6 -10  10   -0.05    0.06
   6  10 -12    3.37    0.22
  -6 -10 -12    3.51    0.22
   6 -10 -12    3.41    0.21
  -6  10 -12    3.71    0.24
   6  10 -14    0.14    0.12
  -6  10 -14    0.10    0.11
   6 -10 -14    0.08    0.11
  -8 -10   0   26.07    0.80
  -8  10   0   25.69    0.80
  -8  10   0   25.68    0.81
   8  10   0   26.18    0.81
  -8  10   2    3.64    0.17
  -8  10   2    3.28    0.16
  -8 -10  -2    3.33    0.15
   8  10  -2    2.81    0.15
  -8 -10  -2    3.11    0.14
  -8  10  -2    3.03    0.13
   8  10   2    3.53    0.14
  -8 -10   2    3.43    0.16
  -8  10  -2    3.20    0.15
  -8 -10   2    3.28    0.13
   8  10  -4   10.77    0.38
  -8 -10  -4   10.78    0.36
  -8  10   4   10.91    0.38
  -8 -10  -4   10.35    0.36
   8 -10  -4   10.40    0.31
  -8 -10   4   10.15    0.39
  -8  10  -4   10.13    0.33
   8  10   4   10.48    0.33
  -8 -10  -6    4.22    0.21
  -8  10   6    4.59    0.23
  -8 -10  -6    4.64    0.20
  -8  10   6    4.44    0.23
   8  10  -6    4.84    0.23
  -8 -10   6    4.87    0.20
  -8  10  -6    3.74    0.21
  -8 -10  -8    1.65    0.13
   8  10  -8    2.04    0.17
  -8  10   8    1.68    0.16
  -8  10   8    1.66    0.16
  -8 -10   8    1.84    0.13
  -8  10  -8    1.69    0.16
  -8 -10   8    1.80    0.18
  -8 -10 -10    1.45    0.14
   8  10 -10    1.23    0.14
  -8  10 -10    1.10    0.14
  -8 -10  10    1.38    0.13
   8  10 -12    0.77    0.14
  -8 -10 -12    0.76    0.12
  -8  10 -12    1.04    0.15
   8 -10 -12    1.03    0.15
  -8 -10 -14    0.86    0.16
  -8  10 -14    0.91    0.17
 -10 -10   0   34.71    1.06
 -10  10   0   34.58    1.07
 -10  10   0   34.26    0.99
 -10  10   0   33.84    1.05
  10  10   0   33.68    1.06
  10  10  -2    3.87    0.19
 -10 -10  -2    4.07    0.17
 -10  10   2    4.00    0.20
 -10  10   2    4.00    0.20
 -10 -10  -2    4.05    0.18
  10  10   2    3.65    0.16
 -10  10  -2    4.15    0.17
 -10 -10   2    3.88    0.20
 -10  10  -2    4.00    0.19
 -10  10   4    8.49    0.33
 -10 -10  -4    7.97    0.30
 -10  10   4    8.37    0.34
 -10 -10  -4    7.91    0.31
  10  10  -4    8.12    0.33
 -10  10  -4    7.92    0.27
 -10 -10  -6    1.27    0.12
 -10  10   6    1.25    0.14
  10  10  -6    1.16    0.14
 -10  10   6    1.01    0.13
 -10 -10  -6    1.06    0.12
 -10  10  -6    0.92    0.11
 -10 -10   6    1.11    0.09
 -10 -10   6    0.96    0.14
  10  10  -8   10.54    0.43
 -10  10   8   10.57    0.43
 -10 -10  -8   10.37    0.39
 -10 -10  -8    9.42    0.39
 -10  10   8   10.43    0.43
 -10 -10   8   10.04    0.44
 -10  10  -8   10.17    0.41
 -10  10  10    0.29    0.11
 -10 -10 -10    0.42    0.11
 -10 -10 -10    0.56    0.11
  10  10 -10    0.09    0.10
 -10  10 -10    0.29    0.11
  10 -10 -10    0.28    0.10
 -10 -10  10    0.23    0.12
  10  10 -12    0.17    0.11
 -10 -10 -12    0.51    0.12
 -10 -10 -12    0.22    0.11
 -10  10 -12    0.44    0.12
  10 -10 -12    0.40    0.12
  10  10 -14   -0.05    0.12
 -10 -10 -14    0.19    0.12
  10 -10 -14    0.17    0.12
 -10  10 -14    0.16    0.13
 -12 -10   0    4.44    0.22
 -12  10   0    4.39    0.21
 -12  10   0    4.34    0.22
 -12 -10   0    4.32    0.18
  12  10   0    4.16    0.20
 -12 -10  -2    0.99    0.11
 -12  10   2    1.26    0.13
 -12 -10  -2    1.07    0.10
 -12  10   2    1.02    0.12
  12  10  -2    1.01    0.11
  12  10   2    1.27    0.10
 -12 -10   2    1.10    0.12
 -12  10  -2    1.10    0.11
 -12  10  -2    0.98    0.09
 -12 -10  -4   16.35    0.56
 -12  10   4   16.38    0.59
  12  10  -4   16.09    0.58
 -12  10   4   16.46    0.59
 -12 -10  -4   16.47    0.55
 -12  10  -4   16.58    0.58
 -12 -10   4   15.77    0.59
 -12  10   6    0.54    0.11
 -12 -10  -6    0.46    0.09
  12  10  -6    0.35    0.11
 -12  10   6    0.53    0.11
 -12 -10  -6    0.36    0.09
 -12 -10   6    0.53    0.12
 -12  10  -6    0.54    0.11
 -12 -10  -8    0.38    0.10
 -12 -10  -8    0.43    0.10
  12  10  -8    0.46    0.12
 -12  10   8    0.51    0.13
 -12  10   8    0.59    0.12
 -12 -10   8    0.50    0.13
 -12  10  -8    0.46    0.11
 -12  10  10    1.50    0.19
 -12 -10 -10    1.54    0.16
 -12 -10 -10    1.27    0.15
  12  10 -10    1.40    0.17
 -12  10 -10    1.32    0.16
  12 -10 -10    1.03    0.15
 -12 -10  10    1.45    0.20
 -12 -10 -12   -0.01    0.09
 -12 -10 -12    0.08    0.10
  12  10 -12   -0.10    0.10
  12 -10 -12    0.05    0.10
 -12  10 -12    0.20    0.12
  14  10   0    7.41    0.29
 -14  10   0    7.28    0.30
 -14 -10   0    6.78    0.31
 -14  10   0    6.93    0.32
 -14  10   2    2.03    0.17
  14  10  -2    1.79    0.16
 -14 -10  -2    2.03    0.16
 -14 -10  -2    1.84    0.13
 -14  10   2    1.69    0.16
 -14 -10   2    1.84    0.17
 -14  10  -2    1.70    0.16
  14  10   2    2.04    0.14
 -14 -10  -4    1.87    0.14
 -14  10   4    1.95    0.18
 -14 -10  -4    2.15    0.17
 -14  10   4    2.28    0.18
  14  10  -4    1.78    0.17
 -14 -10   4    2.19    0.20
 -14  10  -4    1.81    0.17
 -14  10   6    2.36    0.19
 -14 -10  -6    2.11    0.17
 -14  10   6    2.26    0.21
 -14 -10  -6    2.21    0.16
  14  10  -6    2.07    0.18
 -14  10  -6    2.61    0.19
 -14 -10   6    2.03    0.21
  14  10  -8    0.83    0.15
 -14 -10  -8    1.03    0.14
 -14 -10  -8    1.01    0.13
 -14  10   8    1.13    0.17
 -14 -10   8    0.96    0.17
 -14  10  -8    1.07    0.15
  14 -10  -8    1.06    0.15
 -14 -10 -10    0.14    0.10
  14  10 -10   -0.06    0.10
 -14 -10 -10    0.13    0.09
 -14  10  10    0.11    0.12
  14 -10 -10   -0.16    0.08
 -14 -10  10    0.08    0.12
 -14  10 -10    0.11    0.11
 -14 -10 -12    0.09    0.10
 -14  10  12    0.07    0.13
  14  10 -12    0.00    0.12
  14 -10 -12    0.07    0.11
 -14  10 -12    0.12    0.12
  16  10   0    2.16    0.16
  16 -10   0    2.15    0.15
 -16  10   0    2.32    0.19
 -16 -10   0    2.27    0.18
 -16 -10  -2    1.49    0.16
  16  10  -2    1.83    0.16
 -16  10   2    1.93    0.18
 -16  10  -2    1.92    0.18
 -16 -10   2    1.71    0.18
 -16  10   4    0.50    0.12
  16  10  -4    0.48    0.12
 -16 -10  -4    0.57    0.12
 -16 -10   4    0.55    0.13
 -16  10  -4    0.57    0.12
 -16 -10  -6    0.00    0.07
 -16  10   6    0.02    0.10
  16  10  -6   -0.02    0.09
 -16 -10  -6    0.05    0.09
 -16 -10   6    0.08    0.10
 -16  10  -6    0.11    0.10
  16 -10  -6   -0.01    0.09
 -16 -10  -8    0.35    0.11
  16  10  -8    0.20    0.12
 -16  10   8    0.27    0.13
 -16 -10  -8    0.40    0.11
 -16  10  -8    0.20    0.11
 -16 -10   8    0.17    0.13
  16 -10  -8    0.15    0.10
 -16 -10 -10    0.36    0.12
 -16  10  10    0.26    0.14
 -16 -10 -10    0.42    0.12
  16  10 -10    0.16    0.12
 -16  10 -10    0.09    0.12
 -16 -10  10    0.41    0.16
  16 -10 -10    0.10    0.11
 -18 -10   0    0.83    0.14
 -18  10   0    0.90    0.14
 -18  10   2    0.76    0.14
 -18 -10  -2    0.66    0.14
  18  10  -2    0.73    0.13
 -18  10  -2    0.63    0.13
  18 -10  -2    0.60    0.12
 -18 -10   2    0.41    0.13
 -18 -10  -4    0.88    0.15
  18  10  -4    0.87    0.14
 -18  10   4    0.98    0.16
 -18 -10   4    1.21    0.18
  18 -10  -4    0.98    0.15
 -18  10  -4    0.87    0.14
 -18  10   6    0.00    0.10
  18  10  -6    0.03    0.10
 -18 -10  -6    0.07    0.10
  18 -10  -6    0.07    0.10
 -18  10  -6    0.01    0.11
 -18 -10   6    0.19    0.13
 -18  10   8    0.63    0.17
  18  10  -8    0.36    0.13
 -18 -10  -8    0.26    0.12
 -18  10  -8    0.56    0.15
 -18 -10   8    0.37    0.15
  18 -10  -8    0.24    0.12
 -18 -10 -10   -0.13    0.10
 -18  10  10   -0.01    0.13
 -20 -10   0    0.08    0.10
 -20  10   0   -0.01    0.11
  20  10  -2   -0.20    0.09
 -20  10   2    0.14    0.12
 -20 -10  -2    0.27    0.12
 -20  10  -2    0.25    0.12
  20 -10  -2    0.00    0.09
 -20 -10   2   -0.10    0.09
  20  10  -4    1.01    0.16
 -20 -10  -4    0.70    0.15
 -20  10   4    0.98    0.18
 -20 -10   4    0.61    0.16
  20 -10  -4    0.91    0.15
 -20  10  -4    0.90    0.16
 -20  10   6    0.35    0.15
  20  10  -6    0.10    0.12
 -20 -10  -6    0.37    0.13
  20 -10  -6    0.24    0.12
 -20  10  -6    0.25    0.13
 -20 -10   6    0.36    0.15
 -20 -10  -8    0.19    0.12
 -20  10   8    0.01    0.14
 -22  10   0   -0.03    0.11
 -22 -10   0    0.05    0.11
 -22  10   2   -0.09    0.12
 -22 -10  -2   -0.02    0.11
 -22  10  -2    0.13    0.13
 -22 -10   2   -0.01    0.12
  22  10  -4   -0.13    0.11
 -22  10   4   -0.20    0.10
 -22 -10  -4    0.09    0.12
 -22  10  -4    0.17    0.13
 -22 -10   4   -0.02    0.12
  22 -10  -4   -0.07    0.10
  -1  11   1   34.16    1.00
   1 -11   1   35.45    1.02
  -1  11   1   35.13    1.05
  -1 -11  -1   34.13    1.00
  -1  11  -1   34.35    1.02
  -1  11  -1   36.39    1.05
   1 -11  -1   35.70    1.02
   1  11   1   33.92    1.05
  -1 -11   1   34.95    1.02
  -1 -11   1   34.72    1.02
  -1 -11  -3   61.42    1.73
  -1  11   3   61.73    1.80
   1  11  -3   61.02    1.80
  -1 -11  -3   60.46    1.74
  -1  11   3   61.72    1.74
  -1 -11   3   57.53    1.75
   1  11   3   61.53    1.79
  -1  11  -3   60.45    1.79
  -1  11  -3   53.45    1.75
   1 -11  -3   60.38    1.73
  -1 -11  -5   11.52    0.38
   1  11  -5   11.81    0.40
   1 -11   5   12.25    0.40
   1  11   5   12.29    0.39
  -1 -11   5   12.47    0.40
  -1  11  -5   11.75    0.39
  -1 -11  -7   16.75    0.55
  -1  11   7   17.22    0.57
   1  11  -7   17.64    0.56
   1 -11   7   17.37    0.57
   1  11   7   17.29    0.56
  -1  11  -7   16.99    0.55
  -1  11  -7   18.00    0.59
  -1 -11   7   16.62    0.57
  -1  11   9    3.68    0.20
  -1 -11  -9    3.50    0.20
   1 -11   9    3.50    0.20
   1  11  -9    3.93    0.22
   1  11  -9    3.97    0.19
  -1  11  -9    3.94    0.22
   1  11   9    3.78    0.19
  -1 -11   9    3.67    0.20
  -1  11  -9    3.94    0.18
   1 -11  -9    3.68    0.20
   1  11 -11    3.17    0.21
  -1 -11 -11    3.28    0.20
  -1  11 -11    3.02    0.22
   1 -11 -11    2.99    0.19
  -1 -11 -13    0.51    0.11
   1  11 -13    0.47    0.14
  -1  11 -13    0.57    0.13
   1 -11 -13    0.49    0.12
   1  11 -15    0.77    0.16
  -1  11 -15    0.72    0.17
  -3  11   1  179.14    4.95
  -3  11   1  168.26    5.09
  -3 -11  -1  170.08    4.97
   3 -11   1  176.00    4.91
  -3 -11  -1  169.43    4.95
   3  11  -1  171.07    5.10
   3 -11  -1  173.61    4.93
  -3  11  -1  169.49    4.97
   3  11   1  174.54    5.12
  -3  11  -1  170.61    5.08
  -3 -11   1  171.07    4.93
  -3 -11   1  171.30    4.92
   3 -11   3    3.54    0.14
  -3 -11  -3    3.37    0.13
  -3  11   3    3.57    0.14
   3  11  -3    3.32    0.14
  -3  11  -3    3.45    0.13
  -3 -11   3    3.48    0.15
   3  11   3    3.78    0.13
   3 -11  -3    3.37    0.12
  -3 -11   3    3.61    0.14
   3 -11   5    9.32    0.32
  -3  11   5    8.78    0.32
   3  11  -5    8.71    0.32
  -3 -11  -5    8.62    0.30
  -3 -11   5    9.26    0.32
   3  11   5    9.38    0.30
  -3  11  -5    9.21    0.29
  -3  11   7    1.01    0.10
  -3 -11  -7    1.18    0.10
   3  11  -7    1.28    0.11
  -3 -11   7    1.12    0.10
   3  11   7    1.09    0.08
  -3  11  -7    1.18    0.08
  -3  11  -7    1.07    0.11
   3 -11   9    1.19    0.12
  -3  11   9    1.13    0.12
   3  11  -9    1.32    0.12
  -3 -11  -9    1.08    0.12
  -3  11  -9    1.11    0.14
  -3 -11   9    1.15    0.12
   3  11 -11    2.02    0.16
  -3 -11 -11    1.94    0.16
  -3  11 -11    1.91    0.18
   3 -11 -11    1.98    0.16
  -3 -11  11    1.93    0.16
  -3 -11 -13    1.07    0.14
   3  11 -13    0.99    0.16
   3 -11 -13    1.14    0.16
  -3  11 -13    1.25    0.18
   3  11 -15    0.07    0.12
  -3  11 -15   -0.08    0.11
   5 -11   1   15.73    0.47
  -5  11   1   15.55    0.48
  -5 -11  -1   15.64    0.48
  -5  11   1   15.45    0.50
  -5 -11  -1   15.08    0.48
   5 -11  -1   15.44    0.45
  -5 -11   1   15.85    0.48
  -5 -11   1   15.66    0.49
  -5  11  -1   14.89    0.49
   5  11   1   15.88    0.49
  -5 -11  -3   15.15    0.48
  -5 -11  -3   15.14    0.48
   5 -11   3   15.71    0.48
   5 -11  -3   15.56    0.46
  -5 -11   3   15.68    0.51
  -5  11  -3   15.67    0.49
  -5 -11   3   14.03    0.48
   5  11   3   16.08    0.48
  -5  11  -3   15.76    0.48
  -5  11   5    1.63    0.12
  -5 -11  -5    1.66    0.11
  -5  11   5    1.72    0.11
   5 -11   5    1.52    0.11
   5  11  -5    1.31    0.11
  -5 -11  -5    1.60    0.09
  -5  11  -5    1.64    0.07
   5  11   5    1.65    0.07
  -5 -11   5    1.50    0.10
  -5  11   7    4.65    0.22
  -5  11   7    4.66    0.22
   5 -11   7    4.68    0.21
   5  11  -7    4.61    0.21
  -5 -11  -7    4.29    0.19
  -5 -11   7    4.33    0.20
  -5  11  -7    4.21    0.21
  -5  11   9    0.22    0.09
  -5 -11  -9    0.40    0.08
   5  11  -9    0.23    0.09
  -5  11  -9    0.47    0.11
  -5 -11   9    0.27    0.08
   5  11 -11    4.97    0.25
  -5 -11 -11    4.86    0.24
  -5 -11  11    4.57    0.24
  -5  11 -11    5.06    0.27
  -5 -11 -13    0.15    0.10
   5 -11 -13    0.35    0.12
  -5  11 -13    0.36    0.13
   5  11 -15    0.69    0.17
  -5 -11 -15    0.35    0.13
  -5  11 -15    0.66    0.16
  -7  11   1   62.04    1.78
   7 -11   1   61.59    1.75
  -7 -11  -1   61.43    1.78
  -7  11   1   61.85    1.84
   7  11  -1   61.08    1.83
  -7  11  -1   60.62    1.82
  -7 -11   1   60.79    1.76
  -7  11  -1   60.35    1.78
   7  11   1   55.60    1.82
  -7 -11   1   60.83    1.79
  -7 -11  -3    0.49    0.06
   7 -11   3    0.53    0.06
  -7  11   3    0.59    0.07
   7  11  -3    0.52    0.07
  -7  11   3    0.34    0.06
  -7 -11  -3    0.51    0.06
  -7  11  -3    0.44    0.04
  -7 -11   3    0.50    0.07
  -7  11  -3    0.42    0.06
   7  11   3    0.61    0.05
  -7 -11  -5    6.44    0.25
  -7  11   5    6.45    0.27
   7 -11   5    6.74    0.25
   7  11  -5    6.30    0.27
  -7  11   5    6.49    0.27
  -7 -11  -5    6.65    0.25
  -7 -11   5    6.29    0.24
   7 -11  -5    6.18    0.21
  -7  11  -5    6.36    0.21
   7  11   5    6.75    0.21
   7  11  -7    0.78    0.10
  -7 -11  -7    0.79    0.09
  -7  11   7    0.69    0.10
  -7  11   7    0.75    0.11
  -7 -11   7    0.79    0.12
  -7 -11   7    0.70    0.08
  -7  11  -7    0.64    0.10
  -7  11   9    3.74    0.22
   7  11  -9    3.59    0.21
  -7 -11  -9    3.37    0.19
  -7  11   9    3.61    0.23
  -7 -11   9    3.68    0.20
  -7  11  -9    3.68    0.21
  -7 -11 -11    0.18    0.08
   7  11 -11   -0.10    0.08
  -7  11 -11    0.12    0.10
  -7 -11  11    0.19    0.08
   7 -11 -11    0.11    0.08
  -7 -11 -13    0.54    0.13
   7  11 -13    0.81    0.14
  -7 -11 -13    0.53    0.12
   7 -11 -13    0.63    0.13
  -7  11 -13    0.66    0.15
   7  11 -15    0.15    0.14
  -7  11 -15    0.37    0.14
  -9 -11  -1   38.20    1.12
   9  11  -1   37.15    1.16
  -9  11   1   38.02    1.17
  -9  11   1   37.72    1.15
  -9 -11  -1   36.88    1.14
  -9  11  -1   37.69    1.16
  -9  11  -1   37.44    1.14
   9  11   1   38.04    1.15
  -9 -11   1   37.55    1.15
  -9  11   3    8.39    0.32
   9  11  -3    8.48    0.32
  -9 -11  -3    8.55    0.30
  -9  11   3    7.74    0.31
  -9 -11  -3    7.99    0.30
  -9  11  -3    8.03    0.31
  -9  11  -3    8.14    0.28
  -9 -11   3    8.43    0.33
   9  11   3    8.46    0.28
  -9  11   7   10.00    0.42
  -9 -11  -7   10.35    0.38
   9  11  -7   11.20    0.42
  -9 -11  -7   10.34    0.39
  -9  11   7    9.62    0.41
  -9 -11   7    9.99    0.43
  -9  11  -7   10.19    0.40
  -9 -11   7   10.86    0.37
  -9  11   9    3.87    0.25
  -9  11   9    4.40    0.26
   9  11  -9    4.22    0.24
  -9 -11  -9    4.12    0.22
  -9 -11  -9    4.46    0.24
  -9  11  -9    4.16    0.24
  -9 -11   9    4.38    0.26
  -9 -11 -11    1.60    0.17
   9  11 -11    1.77    0.18
  -9 -11 -11    1.97    0.16
  -9  11 -11    1.64    0.18
   9 -11 -11    1.56    0.17
  -9 -11 -13    0.38    0.12
   9  11 -13    0.08    0.11
   9 -11 -13    0.17    0.11
  -9  11 -13    0.03    0.12
 -11  11   1   33.67    1.04
 -11 -11  -1   33.29    1.01
 -11  11   1   31.51    1.01
 -11 -11  -1   33.34    0.98
  11  11  -1   33.14    1.03
 -11  11  -1   32.80    1.02
 -11  11  -1   32.20    1.01
 -11 -11   1   29.44    0.97
 -11 -11   1   31.94    1.02
  11  11   1   32.95    1.01
 -11  11   3    6.16    0.28
 -11 -11  -3    6.31    0.24
 -11 -11  -3    5.77    0.25
  11  11  -3    5.99    0.26
 -11  11   3    5.65    0.27
 -11  11  -3    6.29    0.23
 -11 -11   3    5.96    0.28
  11  11  -5    8.51    0.36
 -11  11   5    8.73    0.37
 -11 -11  -5    8.57    0.33
 -11  11   5    8.26    0.36
 -11 -11  -5    8.48    0.33
 -11  11  -5    8.46    0.35
 -11 -11   5    8.74    0.38
 -11 -11  -7    4.71    0.24
  11  11  -7    4.80    0.27
 -11 -11  -7    4.81    0.24
 -11  11   7    5.22    0.28
 -11  11   7    4.73    0.27
 -11  11  -7    4.90    0.25
 -11 -11   7    4.99    0.28
 -11  11   9    1.09    0.15
  11  11  -9    1.01    0.14
 -11  11   9    1.36    0.17
 -11 -11  -9    0.98    0.13
 -11 -11  -9    1.00    0.12
 -11 -11   9    1.00    0.17
 -11  11  -9    0.96    0.14
  11  11 -11    0.17    0.11
 -11 -11 -11    0.08    0.10
 -11  11  11    0.13    0.11
 -11 -11 -11    0.04    0.09
 -11  11 -11    0.16    0.11
  11 -11 -11    0.29    0.10
  11  11 -13   -0.03    0.11
 -11 -11 -13   -0.06    0.09
 -11  11 -13    0.07    0.12
  11 -11 -13    0.11    0.10
 -13 -11  -1   13.35    0.45
 -13 -11  -1   13.70    0.50
 -13  11   1   13.80    0.50
 -13  11   1   13.80    0.50
  13  11  -1   13.83    0.48
 -13  11  -1   13.77    0.50
 -13 -11   1   13.28    0.50
  13  11   1   13.67    0.47
 -13  11  -1   13.40    0.48
 -13 -11  -3    2.23    0.17
 -13  11   3    2.62    0.18
  13  11  -3    2.44    0.17
 -13 -11  -3    2.27    0.14
 -13  11   3    2.12    0.17
 -13 -11   3    2.49    0.19
 -13  11  -3    2.17    0.17
  13  11  -5   -0.05    0.10
 -13 -11  -5    0.27    0.09
 -13  11   5    0.35    0.10
 -13  11   5    0.27    0.10
 -13 -11  -5    0.18    0.08
 -13  11  -5    0.24    0.09
 -13 -11   5    0.27    0.10
  13  11  -7    0.69    0.13
 -13 -11  -7    1.16    0.13
 -13 -11  -7    1.10    0.13
 -13  11   7    0.93    0.14
 -13  11   7    0.83    0.14
 -13  11  -7    1.14    0.14
 -13 -11   7    0.85    0.15
 -13 -11  -9    0.19    0.10
 -13  11   9    0.07    0.11
 -13 -11  -9    0.08    0.09
  13  11  -9    0.12    0.10
 -13 -11   9    0.19    0.12
 -13  11  -9    0.19    0.10
  13 -11  -9    0.01    0.09
 -13 -11 -11    0.02    0.09
  13  11 -11   -0.14    0.10
 -13 -11 -11   -0.05    0.08
 -13  11  11    0.16    0.12
  13 -11 -11    0.00    0.10
 -13 -11  11    0.10    0.12
 -13  11 -11    0.14    0.12
  13  11 -13    0.02    0.12
 -13  11 -13   -0.06    0.10
  13 -11 -13   -0.16    0.10
 -15 -11  -1    2.18    0.17
 -15  11   1    2.08    0.18
 -15  11   1    2.13    0.17
  15  11  -1    1.91    0.15
 -15  11  -1    2.24    0.17
  15  11   1    2.07    0.14
 -15 -11   1    2.06    0.17
 -15  11   3    0.70    0.12
 -15 -11  -3    0.81    0.12
 -15  11   3    0.85    0.13
  15  11  -3    0.53    0.11
 -15 -11   3    0.77    0.13
 -15  11  -3    0.66    0.11
 -15 -11  -5    1.47    0.15
 -15 -11  -5    1.28    0.13
 -15  11   5    1.14    0.15
 -15  11   5    1.46    0.17
  15  11  -5    1.01    0.15
 -15  11  -5    1.28    0.16
 -15 -11   5    1.31    0.17
 -15 -11  -7    0.08    0.09
  15  11  -7    0.17    0.11
 -15 -11  -7    0.17    0.09
 -15  11   7    0.17    0.11
 -15 -11   7   -0.07    0.10
 -15  11  -7    0.14    0.09
  15 -11  -7    0.06    0.10
 -15 -11  -9    0.05    0.09
 -15 -11  -9    0.09    0.09
 -15  11   9    0.05    0.12
  15  11  -9   -0.01    0.10
  15 -11  -9   -0.02    0.09
 -15  11  -9    0.19    0.11
 -15 -11   9    0.07    0.13
 -15 -11 -11    0.21    0.11
 -15  11  11    0.39    0.15
 -15 -11 -11    0.29    0.11
  15  11 -11    0.12    0.11
  15 -11 -11    0.28    0.12
 -15  11 -11    0.15    0.12
 -15 -11  11    0.40    0.17
 -17  11   1    1.00    0.15
  17  11  -1    0.73    0.11
 -17 -11  -1    0.85    0.14
  17 -11  -1    0.84    0.12
 -17  11  -1    0.87    0.14
 -17 -11   1    0.68    0.13
 -17 -11  -3    3.81    0.23
  17  11  -3    3.37    0.22
 -17  11   3    3.26    0.24
 -17  11  -3    3.58    0.24
  17 -11  -3    3.27    0.21
 -17 -11   3    3.51    0.24
 -17 -11  -5    1.83    0.18
 -17  11   5    1.82    0.21
  17  11  -5    1.70    0.18
 -17  11  -5    1.78    0.19
 -17 -11   5    1.83    0.21
  17 -11  -5    1.46    0.17
 -17 -11  -7    0.28    0.11
 -17  11   7    0.33    0.13
  17  11  -7    0.02    0.10
 -17 -11   7    0.09    0.12
 -17  11  -7    0.05    0.11
  17 -11  -7    0.13    0.10
 -17  11   9    0.34    0.15
 -17 -11  -9    0.39    0.12
  17  11  -9    0.26    0.13
 -17 -11  -9    0.24    0.11
  17 -11  -9    0.18    0.12
 -17 -11   9    0.18    0.15
 -17  11  -9    0.33    0.13
 -17 -11 -11    0.58    0.14
 -17  11  11    0.52    0.17
 -19 -11  -1    0.38    0.12
 -19  11   1    0.29    0.12
  19  11  -1    0.25    0.10
 -19 -11   1    0.62    0.14
  19 -11  -1    0.22    0.10
 -19  11  -1    0.41    0.12
 -19 -11  -3    1.37    0.18
 -19  11   3    1.34    0.19
  19  11  -3    1.23    0.16
 -19 -11   3    1.43    0.19
  19 -11  -3    1.48    0.17
 -19  11  -3    1.46    0.18
  19  11  -5    0.77    0.14
 -19  11   5    0.40    0.13
 -19 -11  -5    0.74    0.15
 -19  11  -5    0.87    0.16
  19 -11  -5    0.62    0.14
 -19 -11   5    0.75    0.16
 -19  11   7    0.92    0.18
  19  11  -7    0.75    0.16
 -19 -11  -7    1.03    0.16
 -19  11  -7    1.01    0.17
  19 -11  -7    0.78    0.15
 -19 -11   7    0.78    0.18
 -19 -11  -9    0.01    0.10
 -19  11   9    0.02    0.13
 -21  11   1    0.33    0.14
 -21 -11  -1    0.56    0.15
 -21 -11   1    0.56    0.15
 -21  11  -1    0.68    0.16
  21  11  -3    0.25    0.12
 -21 -11  -3    0.28    0.13
 -21  11   3    0.21    0.13
 -21 -11   3    0.35    0.14
  21 -11  -3    0.31    0.12
 -21  11  -3    0.29    0.14
 -21 -11  -5    0.38    0.14
  21  11  -5    0.29    0.13
 -21  11   5    0.43    0.15
 -21  11  -5    0.12    0.13
  21 -11  -5    0.32    0.13
 -21 -11   5    0.30    0.15
 -21 -11  -7    0.02    0.11
   0  12   0   17.88    0.52
   0 -12   0   18.00    0.54
   0  12   2   -0.04    0.02
   0  12  -2    0.03    0.03
   0 -12  -2    0.01    0.02
   0 -12   2   -0.01    0.01
   0 -12  -4    4.22    0.17
   0  12   4    4.28    0.17
   0 -12   4    4.29    0.18
   0  12  -4    4.50    0.17
   0  12  -6    0.01    0.04
   0  12   6    0.05    0.04
   0  12  -6    0.02    0.02
   0 -12  -6    0.06    0.05
   0 -12   6    0.07    0.04
   0  12  -8    0.62    0.11
   0 -12   8    0.71    0.10
   0  12   8    0.79    0.09
   0 -12  -8    0.84    0.10
   0  12  -8    0.78    0.08
   0  12 -10   -0.04    0.07
   0 -12 -10    0.03    0.08
   0  12 -10    0.19    0.11
   0 -12  10    0.18    0.08
   0 -12 -12    0.93    0.13
   0  12 -12    1.13    0.16
   0  12 -14    0.07    0.11
   0 -12 -16    0.34    0.13
   2 -12   0  746.76   20.83
  -2  12   0  693.35   21.39
  -2  12   0  708.85   22.88
  -2 -12   0  694.98   21.62
  -2 -12   0  734.48   20.86
   2  12   0  787.91   21.58
   2 -12   2  139.14    3.98
  -2  12   2  137.44    3.99
  -2  12   2  137.05    4.12
   2  12  -2  137.14    4.12
  -2 -12  -2  138.79    3.99
   2  12   2  143.85    4.12
  -2 -12   2  138.13    4.00
  -2  12  -2  145.24    4.12
   2 -12  -2  135.93    3.97
  -2 -12   2  137.81    3.98
  -2  12  -2  138.17    3.99
  -2 -12  -4   10.81    0.36
   2 -12   4   10.72    0.36
  -2  12   4   11.20    0.35
   2  12  -4   10.87    0.36
  -2 -12  -4   10.95    0.34
  -2 -12   4   10.97    0.36
  -2  12  -4   10.72    0.35
  -2  12  -4   10.74    0.37
   2  12   4   11.13    0.35
   2 -12  -4   11.06    0.35
  -2  12   6    6.08    0.24
  -2 -12  -6    6.05    0.22
   2  12  -6    6.12    0.24
  -2 -12   6    5.96    0.24
   2  12   6    6.37    0.22
  -2  12  -6    5.82    0.21
   2  12  -8    3.48    0.19
  -2  12   8    3.52    0.19
  -2 -12  -8    3.79    0.18
   2 -12   8    3.31    0.19
   2  12   8    3.85    0.17
  -2  12  -8    3.83    0.21
  -2 -12   8    3.80    0.20
  -2  12  -8    3.79    0.16
  -2  12  10    3.81    0.20
  -2 -12 -10    3.50    0.20
   2  12 -10    3.21    0.22
   2  12 -10    3.27    0.19
   2 -12  10    3.16    0.20
  -2  12 -10    3.66    0.22
  -2 -12  10    3.62    0.21
   2 -12 -10    3.21    0.19
  -2 -12 -12    0.31    0.10
   2  12 -12    0.42    0.12
   2 -12 -12    0.32    0.10
  -2  12 -12    0.17    0.11
   2  12 -14    0.10    0.11
  -2  12 -14    0.05    0.12
   2 -12 -16    0.21    0.12
  -4  12   0  135.13    3.89
   4 -12   0  139.08    3.87
  -4 -12   0  131.43    3.89
  -4 -12   0  138.81    3.88
  -4  12   0  132.89    4.01
   4  12   0  135.07    4.01
  -4 -12  -2   19.79    0.60
   4 -12   2   19.77    0.61
  -4  12   2   20.53    0.61
  -4 -12   2   19.87    0.61
   4 -12  -2   20.18    0.59
  -4  12  -2   19.48    0.61
   4  12   2   20.68    0.62
  -4 -12   2   19.93    0.62
  -4  12   4   25.63    0.85
   4  12  -4   27.41    0.84
  -4 -12  -4   27.20    0.82
  -4 -12  -4   26.55    0.80
   4 -12   4   27.10    0.82
  -4 -12   4   27.05    0.82
  -4  12  -4   26.45    0.83
   4 -12  -4   27.12    0.80
  -4 -12   4   27.05    0.84
  -4  12  -4   27.29    0.82
   4  12   4   27.48    0.82
   4  12  -6    0.50    0.07
   4 -12   6    0.62    0.08
  -4  12   6    0.52    0.08
  -4  12   6    0.50    0.07
  -4 -12  -6    0.53    0.06
  -4  12  -6    0.59    0.05
  -4  12  -6    0.57    0.08
   4  12   6    0.57    0.05
  -4 -12   6    0.53    0.07
  -4  12   8    1.95    0.15
  -4 -12  -8    2.38    0.14
   4  12  -8    2.13    0.15
   4 -12   8    1.90    0.14
  -4  12  -8    2.13    0.16
  -4 -12   8    2.20    0.15
  -4 -12 -10    1.71    0.14
  -4  12  10    1.90    0.16
   4  12 -10    1.75    0.15
  -4 -12  10    1.38    0.14
  -4  12 -10    1.57    0.16
  -4 -12 -12    0.19    0.09
   4  12 -12    0.12    0.08
  -4  12 -12    0.32    0.11
   4 -12 -12    0.20    0.10
   4 -12 -12    0.19    0.08
   4  12 -14    0.17    0.14
  -4  12 -14    0.29    0.14
  -6 -12   0    1.17    0.07
  -6 -12   0    1.26    0.08
   6 -12   0    1.29    0.06
  -6  12   0    1.21    0.08
  -6  12   0    0.90    0.07
   6  12  -2   12.39    0.41
  -6 -12  -2   12.37    0.39
  -6 -12  -2   12.37    0.40
  -6  12   2   12.27    0.42
   6 -12   2   12.48    0.39
  -6  12   2   10.68    0.40
  -6  12  -2   12.36    0.40
   6 -12  -2   12.86    0.36
   6  12   2   12.77    0.40
  -6 -12   2   12.34    0.41
  -6  12  -2   12.44    0.39
  -6 -12   2   12.36    0.39
  -6  12   4    5.84    0.24
  -6  12   4    5.93    0.23
   6 -12   4    6.17    0.23
   6  12  -4    5.77    0.24
  -6 -12  -4    5.67    0.22
  -6 -12  -4    6.02    0.22
   6  12   4    5.92    0.20
  -6 -12   4    5.93    0.22
   6 -12  -4    5.70    0.19
  -6 -12   4    5.81    0.24
  -6  12  -4    5.65    0.19
  -6  12  -4    5.79    0.23
  -6 -12  -6    8.28    0.30
  -6 -12  -6    8.63    0.32
   6  12  -6    8.77    0.33
  -6  12   6    8.10    0.33
  -6  12   6    8.23    0.32
   6 -12   6    8.56    0.32
  -6 -12   6    8.43    0.31
  -6  12  -6    8.39    0.26
   6  12  -8    0.99    0.12
  -6  12   8    1.21    0.13
  -6  12   8    1.30    0.13
  -6 -12  -8    1.12    0.11
  -6  12  -8    0.97    0.12
  -6 -12   8    1.27    0.11
  -6 -12 -10    1.52    0.14
   6  12 -10    1.45    0.14
  -6  12  10    1.43    0.16
  -6 -12  10    1.40    0.13
  -6  12 -10    1.47    0.16
  -6 -12 -12    0.07    0.08
   6  12 -12    0.44    0.11
  -6  12 -12    0.13    0.10
   6 -12 -12    0.27    0.09
  -6 -12 -14    0.08    0.11
   6  12 -14    0.04    0.12
  -6  12 -14    0.17    0.13
  -8  12   0   20.20    0.64
  -8 -12   0   19.55    0.63
  -8  12   0   19.96    0.63
   8  12   0   19.56    0.63
   8 -12   2   41.67    1.19
  -8  12   2   41.23    1.23
   8  12  -2   41.09    1.25
  -8 -12  -2   41.10    1.21
  -8 -12  -2   40.73    1.21
  -8  12   2   42.07    1.26
  -8  12  -2   40.98    1.23
  -8 -12   2   41.09    1.24
   8  12   2   35.15    1.23
  -8  12  -2   40.88    1.22
  -8 -12  -4    0.04    0.04
  -8  12   4    0.01    0.04
  -8  12   4    0.00    0.05
  -8 -12  -4    0.02    0.04
   8  12  -4    0.01    0.05
   8  12   4    0.12    0.04
  -8 -12   4    0.02    0.04
   8 -12  -4    0.08    0.02
  -8  12  -4    0.04    0.05
  -8 -12   4   -0.08    0.05
  -8  12  -4    0.05    0.03
  -8  12   6   16.15    0.57
  -8  12   6   16.55    0.56
  -8 -12  -6   15.79    0.54
  -8 -12  -6   15.74    0.53
   8  12  -6   16.59    0.56
   8 -12  -6   15.45    0.49
  -8 -12   6   15.70    0.52
  -8  12   8    0.63    0.11
  -8  12   8    0.78    0.12
   8  12  -8    0.70    0.12
  -8 -12  -8    0.86    0.10
  -8 -12  -8    0.79    0.12
  -8  12  -8    0.66    0.11
  -8 -12   8    0.69    0.09
  -8 -12   8    0.71    0.13
  -8 -12 -10    0.88    0.11
   8  12 -10    0.78    0.12
  -8 -12 -10    0.81    0.12
  -8  12  10    0.87    0.13
  -8  12 -10    0.88    0.13
  -8 -12  10    0.88    0.11
  -8 -12 -12    1.12    0.14
  -8 -12 -12    1.05    0.15
   8  12 -12    1.01    0.15
  -8  12 -12    1.12    0.16
   8 -12 -12    0.85    0.14
  -8 -12 -14    0.26    0.12
  -8  12 -14    0.39    0.15
 -10 -12   0   22.12    0.68
  10  12   0   21.44    0.70
 -10  12   0   22.22    0.71
 -10 -12   0   22.13    0.71
 -10  12   0   21.48    0.70
 -10  12   2    0.19    0.07
  10  12  -2    0.18    0.06
 -10 -12  -2    0.28    0.05
 -10  12   2    0.23    0.07
 -10 -12  -2    0.26    0.06
 -10  12  -2    0.26    0.06
 -10 -12   2    0.13    0.04
 -10 -12   2    0.08    0.06
 -10  12  -2    0.31    0.05
  10  12   2    0.27    0.05
 -10 -12  -4   13.10    0.44
 -10 -12  -4   12.81    0.44
  10  12  -4   13.38    0.47
 -10  12   4   12.87    0.47
 -10  12   4   13.12    0.47
 -10 -12   4   12.55    0.42
  10  12   4   12.77    0.42
 -10 -12   4   12.65    0.48
 -10  12  -4   12.66    0.41
 -10 -12  -6    3.29    0.19
  10  12  -6    3.20    0.21
 -10 -12  -6    3.16    0.18
 -10  12   6    3.45    0.21
 -10  12   6    2.89    0.20
 -10 -12   6    3.12    0.22
 -10  12  -6    3.40    0.19
 -10 -12   6    3.27    0.16
 -10  12   8    5.99    0.30
 -10 -12  -8    5.49    0.27
 -10 -12  -8    5.87    0.26
 -10  12   8    5.73    0.30
  10  12  -8    5.83    0.29
 -10 -12   8    5.72    0.31
 -10  12  -8    5.60    0.28
 -10  12  10    0.73    0.14
 -10 -12 -10    0.91    0.13
 -10 -12 -10    0.93    0.12
  10  12 -10    0.77    0.13
 -10 -12  10    0.83    0.15
 -10  12 -10    0.96    0.14
  10  12 -12    1.25    0.16
 -10 -12 -12    1.29    0.16
 -10 -12 -12    1.14    0.16
  10 -12 -12    1.03    0.16
 -10  12 -12    1.14    0.17
  10  12 -14   -0.24    0.10
 -10  12 -14    0.17    0.13
  10 -12 -14   -0.14    0.10
 -12 -12   0   15.99    0.56
  12  12   0   16.17    0.55
 -12  12   0   16.32    0.55
 -12  12   0   15.94    0.56
 -12 -12   0   15.79    0.52
 -12 -12  -2   14.84    0.52
 -12  12   2   14.70    0.53
 -12  12   2   15.12    0.53
 -12 -12  -2   14.84    0.49
  12  12  -2   15.15    0.53
 -12 -12   2   14.29    0.47
 -12  12  -2   14.75    0.52
 -12 -12   2   15.10    0.54
  12  12   2   15.13    0.50
 -12  12  -2   14.84    0.50
 -12 -12  -4    5.35    0.24
 -12 -12  -4    5.43    0.25
 -12  12   4    5.42    0.27
 -12  12   4    5.42    0.28
  12  12  -4    5.44    0.27
 -12 -12   4    5.17    0.27
 -12  12  -4    5.20    0.26
 -12 -12  -6    4.31    0.22
 -12 -12  -6    4.44    0.22
 -12  12   6    4.00    0.24
 -12  12   6    4.30    0.25
  12  12  -6    4.07    0.24
 -12  12  -6    4.17    0.23
 -12 -12   6    4.33    0.26
 -12  12   8    0.13    0.09
  12  12  -8    0.01    0.09
 -12  12   8    0.15    0.10
 -12 -12  -8    0.20    0.08
 -12 -12  -8    0.15    0.09
 -12  12  -8    0.21    0.10
 -12 -12   8    0.12    0.10
 -12 -12 -10    0.39    0.10
 -12  12  10    0.36    0.12
 -12 -12 -10    0.25    0.10
  12  12 -10    0.26    0.11
 -12 -12  10    0.45    0.14
 -12  12 -10    0.39    0.11
  12 -12 -10    0.33    0.11
  12  12 -12    0.18    0.11
 -12 -12 -12    0.26    0.11
  12 -12 -12    0.19    0.11
 -12  12 -12    0.30    0.12
 -14  12   0    6.26    0.27
  14  12   0    5.99    0.26
 -14  12   0    5.98    0.28
 -14 -12   0    5.59    0.28
  14  12  -2    1.03    0.12
 -14  12   2    1.03    0.13
 -14 -12  -2    1.36    0.12
 -14 -12  -2    1.05    0.13
 -14  12   2    1.19    0.14
 -14  12  -2    1.08    0.11
 -14  12  -2    1.27    0.14
 -14 -12   2    1.09    0.13
  14  12   2    1.33    0.11
 -14  12   4    0.15    0.08
 -14  12   4    0.39    0.10
 -14 -12  -4    0.01    0.08
 -14 -12  -4    0.01    0.07
  14  12  -4   -0.02    0.08
 -14  12  -4    0.34    0.10
 -14 -12   4    0.36    0.11
  14  12  -6    0.24    0.10
 -14 -12  -6    0.23    0.09
 -14  12   6    0.31    0.11
 -14 -12  -6    0.17    0.09
 -14  12   6    0.47    0.11
 -14  12  -6    0.25    0.10
 -14 -12   6    0.18    0.10
 -14 -12  -8   -0.01    0.08
 -14  12   8   -0.01    0.10
  14  12  -8   -0.08    0.09
 -14 -12  -8    0.09    0.08
 -14 -12   8   -0.05    0.10
 -14  12  -8    0.13    0.10
  14  12 -10    0.11    0.11
 -14 -12 -10    0.34    0.11
 -14 -12 -10    0.24    0.11
 -14  12  10    0.45    0.14
 -14  12 -10    0.26    0.12
 -14 -12  10    0.35    0.15
  14 -12 -10    0.29    0.11
 -14 -12 -12    0.21    0.11
 -14  12  12    0.24    0.14
  14  12 -12   -0.04    0.11
 -14  12 -12    0.28    0.12
  14 -12 -12    0.14    0.12
 -16 -12   0    0.34    0.10
  16  12   0    0.38    0.09
 -16  12   0    0.47    0.11
  16  12  -2    0.46    0.10
 -16  12   2    0.64    0.12
 -16  12   2    0.58    0.12
 -16 -12  -2    0.65    0.12
 -16  12  -2    0.64    0.12
 -16 -12   2    0.56    0.12
 -16  12   4    0.37    0.10
 -16 -12  -4    0.32    0.10
 -16  12   4    0.26    0.10
  16  12  -4    0.43    0.11
 -16 -12   4    0.29    0.12
 -16  12  -4    0.39    0.11
  16  12  -6    1.48    0.17
 -16  12   6    1.15    0.17
 -16 -12  -6    1.36    0.16
 -16 -12  -6    1.24    0.14
 -16 -12   6    1.52    0.19
 -16  12  -6    1.38    0.17
 -16  12   8    0.31    0.14
 -16 -12  -8    0.39    0.11
  16  12  -8    0.42    0.13
 -16 -12  -8    0.48    0.12
 -16  12  -8    0.36    0.13
 -16 -12   8    0.79    0.17
  16 -12  -8    0.47    0.12
  16  12 -10    0.53    0.15
 -16 -12 -10    0.81    0.14
 -16  12  10    0.79    0.18
 -16 -12 -10    0.94    0.15
  16 -12 -10    0.47    0.13
 -16  12 -10    0.64    0.15
 -16 -12  10    1.11    0.21
 -18 -12   0    3.01    0.23
 -18  12   0    3.50    0.23
 -18  12   2    0.91    0.14
 -18 -12  -2    0.57    0.13
  18  12  -2    0.67    0.13
 -18  12  -2    0.83    0.15
 -18 -12   2    1.08    0.16
  18 -12  -2    0.83    0.13
 -18 -12  -4    2.79    0.21
 -18  12   4    2.39    0.23
  18  12  -4    2.95    0.22
  18 -12  -4    2.56    0.20
 -18  12  -4    2.98    0.22
 -18 -12   4    2.39    0.24
 -18 -12  -6    0.09    0.11
 -18  12   6    0.11    0.12
  18  12  -6    0.00    0.10
 -18 -12   6   -0.06    0.11
  18 -12  -6    0.05    0.10
 -18  12  -6    0.13    0.11
 -18 -12  -8    0.69    0.14
 -18  12   8    1.08    0.19
  18  12  -8    0.60    0.15
 -18 -12   8    1.12    0.20
 -18  12  -8    0.71    0.15
  18 -12  -8    0.59    0.14
 -18 -12 -10    0.13    0.11
 -18  12  10    0.29    0.15
 -20 -12   0    0.13    0.11
 -20  12   0    0.27    0.13
 -20  12   2    0.96    0.17
  20  12  -2    1.22    0.16
 -20 -12  -2    1.01    0.17
  20 -12  -2    1.20    0.15
 -20  12  -2    1.33    0.18
 -20 -12   2    1.13    0.18
 -20  12   4    0.84    0.17
  20  12  -4    0.60    0.14
 -20 -12  -4    0.66    0.15
  20 -12  -4    0.62    0.13
 -20 -12   4    0.58    0.16
 -20  12  -4    0.56    0.14
 -20  12   6    1.34    0.21
 -20 -12  -6    0.93    0.16
  20  12  -6    1.16    0.18
  20 -12  -6    1.14    0.17
 -20  12  -6    0.98    0.17
 -20 -12   6    1.32    0.21
 -20  12   8    0.11    0.15
 -20 -12  -8    0.06    0.12
 -22 -12   0    0.16    0.13
 -22  12   0   -0.01    0.12
 -22 -12  -2    0.53    0.14
 -22  12   2    0.41    0.16
 -22  12  -2    0.43    0.15
 -22 -12   2    0.21    0.14
  22  12  -4    0.02    0.12
 -22 -12  -4    0.06    0.12
 -22  12   4    0.03    0.13
  22 -12  -4    0.05    0.11
 -22 -12   4    0.31    0.15
  -1 -13  -1   41.90    1.19
   1 -13   1   41.84    1.22
  -1  13   1   41.71    1.26
  -1  13   1   42.93    1.20
  -1 -13   1   37.70    1.22
  -1  13  -1   41.97    1.25
  -1  13  -1   42.17    1.21
   1  13   1   42.52    1.25
   1 -13  -1   42.47    1.21
  -1 -13  -3    8.48    0.26
  -1  13   3    8.45    0.26
  -1  13   3    8.14    0.28
   1  13  -3    8.49    0.28
  -1 -13  -3    8.58    0.28
   1  13   3    7.86    0.28
  -1  13  -3    8.67    0.28
   1 -13  -3    8.56    0.27
  -1  13   5   36.54    1.11
   1  13  -5   36.95    1.10
   1 -13   5   35.81    1.09
  -1 -13  -5   36.25    1.06
  -1  13  -5   36.59    1.09
  -1  13  -5   36.07    1.09
   1  13   5   33.52    1.09
  -1 -13   5   36.16    1.09
  -1 -13  -7   18.86    0.59
   1 -13   7   18.27    0.61
   1  13  -7   18.29    0.60
  -1  13   7   18.61    0.61
   1  13   7   18.45    0.59
  -1  13  -7   17.95    0.59
  -1 -13   7   18.16    0.60
  -1  13   9   16.66    0.57
   1 -13   9   16.97    0.58
   1  13  -9   16.19    0.59
  -1 -13  -9   16.61    0.55
   1  13  -9   16.18    0.55
  -1  13  -9   16.47    0.54
  -1  13  -9   16.21    0.58
  -1 -13   9   16.35    0.57
   1  13   9   16.31    0.55
   1 -13  -9   16.04    0.55
   1  13 -11    1.52    0.17
  -1 -13 -11    1.51    0.14
  -1 -13  11    1.48    0.15
   1 -13 -11    1.43    0.15
  -1  13 -11    1.27    0.17
   1  13 -13    0.43    0.13
  -1 -13 -13    0.45    0.11
  -1  13 -13    0.52    0.14
   1 -13 -13    0.46    0.11
  -1 -13 -15    0.16    0.11
   1  13 -15    0.26    0.13
  -1  13 -15    0.20    0.13
   1 -13 -15    0.32    0.12
  -3 -13  -1   75.17    2.10
   3  13  -1   72.68    2.18
  -3  13   1   70.61    2.18
  -3  13   1   74.28    2.11
   3 -13   1   74.64    2.11
  -3 -13  -1   73.16    2.11
  -3  13  -1   73.81    2.11
   3  13   1   72.80    2.18
   3 -13  -1   73.77    2.10
  -3  13  -1   72.64    2.18
  -3 -13   1   71.92    2.12
  -3 -13   1   71.23    2.11
  -3 -13  -3   54.64    1.58
   3  13  -3   54.76    1.65
  -3  13   3   53.40    1.59
   3 -13   3   53.79    1.60
   3  13   3   56.26    1.64
  -3 -13   3   54.22    1.62
  -3  13  -3   56.72    1.64
   3 -13  -3   54.26    1.58
  -3  13   5   16.56    0.55
  -3 -13  -5   16.63    0.51
  -3 -13  -5   13.96    0.52
   3  13  -5   17.61    0.55
   3 -13   5   16.81    0.54
  -3  13  -5   17.03    0.52
   3  13   5   16.51    0.52
  -3  13  -5   16.38    0.54
   3 -13  -5   17.34    0.52
  -3 -13   5   17.16    0.53
  -3 -13  -7    9.43    0.32
   3  13  -7    9.18    0.33
  -3  13   7    8.92    0.34
  -3  13  -7    9.08    0.30
   3  13   7    8.24    0.30
  -3 -13   7    8.97    0.33
  -3  13   9    3.51    0.20
   3 -13   9    3.28    0.19
  -3 -13  -9    3.00    0.17
   3  13  -9    3.08    0.18
  -3  13  -9    3.45    0.21
  -3 -13   9    3.50    0.19
  -3 -13 -11    2.95    0.18
   3  13 -11    2.73    0.19
  -3  13  11    3.30    0.20
  -3 -13  11    3.16    0.20
  -3  13 -11    3.15    0.21
   3 -13 -11    2.76    0.19
   3  13 -13    0.56    0.14
   3 -13 -13    0.52    0.12
  -3  13 -13    0.49    0.14
  -3 -13 -15    0.06    0.10
   3  13 -15    0.33    0.15
  -3  13 -15    0.31    0.14
  -5  13   1    1.82    0.10
  -5 -13  -1    2.02    0.09
   5 -13   1    1.78    0.08
  -5  13   1    1.70    0.09
   5  13   1    1.88    0.09
   5 -13  -1    2.02    0.07
  -5  13  -1    2.06    0.09
  -5 -13   1    2.37    0.11
  -5 -13   1    1.87    0.09
  -5 -13  -3    2.58    0.12
  -5 -13  -3    2.83    0.13
   5 -13   3    2.79    0.13
  -5  13  -3    2.97    0.11
   5  13   3    2.95    0.12
  -5  13  -3    2.93    0.14
   5 -13  -3    3.09    0.11
  -5 -13   3    2.78    0.14
  -5  13   5   14.93    0.51
  -5  13   5   14.01    0.48
   5  13  -5   14.71    0.50
  -5 -13  -5   14.85    0.47
   5 -13   5   14.74    0.49
  -5 -13  -5   14.66    0.48
  -5  13  -5   14.87    0.46
   5 -13  -5   14.66    0.45
   5  13   5   14.89    0.46
  -5 -13   5   15.05    0.48
  -5 -13   5   14.49    0.51
   5 -13   7    0.91    0.10
   5  13  -7    0.84    0.10
  -5  13   7    0.76    0.10
  -5  13   7    0.94    0.10
  -5 -13  -7    0.88    0.09
  -5 -13   7    0.89    0.09
   5  13  -9    9.16    0.37
  -5 -13  -9    9.01    0.35
  -5  13   9    9.78    0.39
  -5 -13   9    9.42    0.37
  -5  13  -9    9.49    0.39
  -5 -13 -11    0.99    0.12
   5  13 -11    1.07    0.13
  -5  13  11    1.08    0.14
  -5 -13  11    1.03    0.13
  -5  13 -11    1.00    0.15
   5  13 -13    1.32    0.18
  -5 -13 -13    0.85    0.15
  -5  13 -13    1.32    0.17
   5 -13 -13    0.94    0.15
  -5 -13 -15    0.10    0.11
   5  13 -15    0.24    0.13
  -5  13 -15   -0.05    0.12
  -7 -13  -1   11.48    0.38
  -7 -13  -1   11.16    0.38
  -7  13   1   11.31    0.39
   7  13  -1   11.45    0.39
   7 -13   1   11.66    0.36
  -7  13   1   11.83    0.39
  -7 -13   1   11.31    0.39
   7 -13  -1   11.65    0.34
  -7  13  -1   11.51    0.38
  -7  13  -1   11.28    0.38
   7  13  -3    1.70    0.11
  -7  13   3    2.00    0.12
   7 -13   3    1.96    0.10
  -7 -13  -3    1.53    0.10
  -7  13   3    1.76    0.11
  -7 -13  -3    1.72    0.10
  -7  13  -3    1.68    0.11
  -7 -13   3    1.73    0.12
   7  13   3    1.78    0.09
  -7  13  -3    1.75    0.09
   7 -13  -3    1.76    0.06
  -7  13   5   16.23    0.55
   7  13  -5   16.04    0.55
  -7 -13  -5   16.47    0.52
  -7  13   5   15.86    0.54
  -7 -13  -5   15.96    0.53
   7 -13   5   16.36    0.53
   7 -13  -5   15.67    0.48
  -7  13  -5   15.61    0.49
  -7 -13   5   14.94    0.55
   7  13   5   16.23    0.50
  -7 -13   5   16.14    0.52
  -7 -13  -7    5.02    0.23
  -7  13   7    4.32    0.24
  -7 -13  -7    4.88    0.21
  -7  13   7    4.50    0.23
   7  13  -7    4.86    0.24
  -7  13  -7    4.70    0.23
  -7 -13   7    4.76    0.21
   7 -13  -7    4.67    0.19
  -7 -13   7    4.80    0.25
   7  13  -9    3.29    0.20
  -7  13   9    3.22    0.21
  -7 -13  -9    3.35    0.18
  -7  13   9    3.62    0.22
  -7 -13  -9    3.55    0.21
  -7  13  -9    3.45    0.22
  -7 -13   9    3.43    0.19
   7  13 -11    0.29    0.10
  -7 -13 -11    0.41    0.10
  -7 -13 -11    0.33    0.11
  -7  13 -11    0.57    0.12
  -7 -13  11    0.41    0.09
   7  13 -13   -0.02    0.09
  -7 -13 -13    0.10    0.10
   7 -13 -13   -0.03    0.09
  -7  13 -13    0.14    0.12
  -9 -13  -1   14.54    0.46
  -9 -13  -1   14.50    0.47
  -9  13   1   14.11    0.48
  -9  13   1   14.34    0.48
   9  13  -1   14.51    0.48
  -9 -13   1   14.26    0.48
  -9  13  -1   14.20    0.48
   9  13   1   14.37    0.47
  -9 -13   1   12.09    0.44
  -9  13  -1   14.16    0.47
  -9 -13  -3    5.66    0.22
  -9  13   3    5.57    0.24
  -9 -13  -3    5.48    0.22
   9  13  -3    5.19    0.23
  -9  13   3    5.49    0.24
  -9 -13   3    5.86    0.25
  -9  13  -3    5.37    0.23
  -9  13  -3    5.38    0.20
  -9 -13   3    5.40    0.21
   9  13   3    4.68    0.20
  -9 -13   5    3.69    0.20
   9  13  -7    0.59    0.10
  -9  13   7    0.73    0.11
  -9 -13  -7    0.40    0.10
  -9 -13  -7    0.58    0.09
  -9  13   7    0.49    0.10
  -9  13  -7    0.53    0.10
  -9 -13   7    0.40    0.11
  -9 -13   7    0.51    0.08
  -9 -13  -9    2.19    0.17
  -9  13   9    2.28    0.19
   9  13  -9    2.36    0.19
  -9  13   9    2.72    0.20
  -9 -13  -9    2.17    0.16
  -9 -13   9    2.32    0.21
  -9 -13   9    2.25    0.15
  -9  13  -9    2.31    0.18
  -9 -13 -11    0.05    0.09
   9  13 -11    0.21    0.10
  -9 -13 -11    0.24    0.09
  -9  13 -11    0.23    0.11
   9  13 -13    0.30    0.12
  -9 -13 -13    0.42    0.12
   9 -13 -13    0.39    0.12
  -9  13 -13    0.20    0.12
 -11 -13  -1    3.83    0.19
  11  13  -1    3.57    0.18
 -11 -13  -1    3.76    0.17
 -11  13   1    3.57    0.19
 -11  13   1    3.72    0.19
 -11  13  -1    3.50    0.17
 -11  13  -1    3.66    0.19
  11  13   1    3.63    0.18
 -11 -13   1    3.71    0.20
 -11 -13   1    3.70    0.16
 -11 -13  -3    1.19    0.10
 -11  13   3    1.11    0.12
 -11 -13  -3    1.29    0.11
  11  13  -3    1.12    0.12
 -11  13   3    1.12    0.12
 -11 -13   3    1.35    0.09
 -11  13  -3    1.16    0.12
  11  13   3    1.34    0.10
 -11  13  -3    1.25    0.09
 -11 -13   3    1.32    0.13
 -11  13   5    1.19    0.13
 -11 -13  -5    1.22    0.12
 -11  13   5    1.20    0.13
  11  13  -5    1.00    0.13
 -11 -13  -5    1.14    0.12
 -11  13  -5    1.14    0.13
 -11 -13   5    1.07    0.14
 -11 -13  -7    5.57    0.26
 -11  13   7    5.68    0.29
  11  13  -7    5.51    0.28
 -11 -13  -7    5.86    0.26
 -11  13   7    5.78    0.30
 -11  13  -7    5.18    0.27
 -11 -13   7    5.26    0.30
 -11 -13  -9    1.63    0.15
 -11 -13  -9    1.34    0.15
  11  13  -9    1.41    0.16
 -11  13   9    1.24    0.16
 -11  13   9    1.49    0.17
 -11 -13   9    1.56    0.19
 -11  13  -9    1.49    0.16
 -11 -13 -11    0.84    0.13
 -11 -13 -11    0.69    0.13
 -11  13  11    0.71    0.15
  11  13 -11    0.94    0.14
  11 -13 -11    0.90    0.14
 -11  13 -11    0.77    0.14
  11  13 -13   -0.01    0.11
 -11 -13 -13    0.07    0.11
  11 -13 -13    0.03    0.10
 -11  13 -13   -0.05    0.11
  13  13  -1    4.12    0.21
 -13 -13  -1    4.00    0.22
 -13  13   1    3.92    0.22
 -13  13   1    4.24    0.21
 -13 -13  -1    4.17    0.19
 -13  13  -1    4.23    0.20
  13  13   1    4.26    0.21
 -13  13  -1    3.77    0.22
 -13 -13   1    4.16    0.22
 -13 -13  -3    7.58    0.32
 -13 -13  -3    7.19    0.30
 -13  13   3    8.01    0.34
 -13  13   3    7.47    0.33
  13  13  -3    7.34    0.32
 -13  13  -3    7.77    0.33
 -13 -13   3    7.17    0.33
  13  13  -5    0.29    0.10
 -13 -13  -5    0.55    0.10
 -13  13   5    0.69    0.12
 -13  13   5    0.46    0.10
 -13 -13  -5    0.52    0.10
 -13  13  -5    0.53    0.11
 -13 -13   5    0.67    0.13
 -13  13   7    0.74    0.13
 -13 -13  -7    0.99    0.13
  13  13  -7    0.92    0.14
 -13  13   7    0.64    0.12
 -13 -13  -7    0.82    0.12
 -13 -13   7    0.73    0.15
 -13  13  -7    1.00    0.14
 -13 -13  -9    0.24    0.10
  13  13  -9    0.12    0.10
 -13 -13  -9    0.37    0.10
 -13  13   9    0.40    0.13
 -13  13  -9    0.31    0.11
 -13 -13   9    0.11    0.11
 -13 -13 -11    0.18    0.10
 -13 -13 -11    0.01    0.09
 -13  13  11    0.20    0.13
  13  13 -11    0.00    0.10
 -13 -13  11    0.09    0.12
  13 -13 -11    0.16    0.10
 -13  13 -11    0.06    0.11
  13  13 -13    0.03    0.12
  13 -13 -13   -0.01    0.11
 -15 -13  -1    1.14    0.14
 -15  13   1    1.15    0.14
  15  13  -1    1.17    0.12
 -15  13   1    1.43    0.14
  15  13   1    1.32    0.12
 -15  13  -1    1.00    0.13
 -15 -13   1    1.29    0.15
 -15  13  -1    1.03    0.12
  15  13  -3    1.97    0.17
 -15  13   3    2.64    0.19
 -15 -13  -3    2.47    0.16
 -15 -13  -3    2.30    0.17
 -15  13   3    2.52    0.18
 -15 -13   3    1.93    0.19
 -15  13  -3    2.69    0.18
 -15  13   5    1.35    0.16
 -15  13   5    1.14    0.16
 -15 -13  -5    1.46    0.14
  15  13  -5    1.23    0.16
 -15 -13  -5    1.40    0.15
 -15 -13   5    1.47    0.18
 -15  13  -5    1.44    0.16
  15  13  -7    1.47    0.18
 -15 -13  -7    1.46    0.15
 -15  13   7    1.61    0.19
 -15 -13  -7    1.42    0.16
 -15 -13   7    1.41    0.19
 -15  13  -7    1.39    0.16
 -15  13   9    0.72    0.16
 -15 -13  -9    0.47    0.12
 -15 -13  -9    0.60    0.12
  15  13  -9    0.53    0.14
 -15 -13   9    0.24    0.14
 -15  13  -9    0.44    0.12
  15 -13  -9    0.57    0.13
 -15  13  11    0.15    0.13
  15  13 -11    0.06    0.12
 -15 -13 -11    0.35    0.12
 -15  13 -11    0.10    0.12
 -15 -13  11    0.20    0.15
  15 -13 -11    0.17    0.11
 -17  13   1   -0.09    0.08
  17  13  -1   -0.03    0.08
 -17 -13  -1    0.12    0.09
 -17 -13   1    0.05    0.10
 -17  13  -1    0.20    0.10
 -17 -13  -3    2.13    0.19
  17  13  -3    1.91    0.18
 -17  13   3    1.77    0.19
 -17 -13   3    2.05    0.20
 -17  13  -3    1.85    0.19
 -17  13   5    1.60    0.19
 -17 -13  -5    1.50    0.17
  17  13  -5    1.36    0.17
 -17  13  -5    1.39    0.17
 -17 -13   5    1.48    0.19
 -17  13   7    0.05    0.11
 -17 -13  -7    0.03    0.10
  17  13  -7   -0.09    0.10
 -17  13  -7   -0.03    0.11
 -17 -13   7   -0.04    0.11
  17 -13  -7    0.01    0.10
 -17 -13  -9    0.08    0.10
  17  13  -9    0.11    0.11
 -17 -13  -9    0.29    0.11
 -17  13   9    0.14    0.14
 -17  13  -9    0.13    0.12
  17 -13  -9    0.27    0.12
 -17 -13   9    0.10    0.13
 -17  13  11    0.04    0.14
 -17 -13 -11    0.21    0.12
  19  13  -1    0.88    0.13
 -19  13   1    1.12    0.16
 -19 -13  -1    1.09    0.16
  19 -13  -1    1.01    0.14
 -19 -13   1    0.82    0.15
 -19  13  -1    1.09    0.17
  19  13  -3   -0.13    0.09
 -19 -13  -3   -0.09    0.09
 -19  13   3   -0.02    0.10
 -19  13  -3    0.00    0.10
  19 -13  -3   -0.02    0.09
 -19 -13   3    0.02    0.11
  19  13  -5    0.63    0.14
 -19 -13  -5    0.82    0.15
 -19  13   5    0.69    0.16
 -19  13  -5    0.47    0.14
  19 -13  -5    0.87    0.15
 -19 -13   5    0.59    0.16
 -19  13   7    0.14    0.13
  19  13  -7    0.22    0.12
 -19 -13  -7    0.26    0.12
  19 -13  -7    0.13    0.11
 -19 -13   7    0.30    0.15
 -19  13  -7    0.38    0.13
 -19  13   9   -0.16    0.12
 -19 -13  -9   -0.03    0.10
 -21  13   1    0.09    0.12
 -21 -13  -1   -0.06    0.11
 -21  13  -1    0.35    0.13
 -21 -13   1    0.21    0.13
  21  13  -3    0.03    0.11
 -21  13   3   -0.10    0.11
 -21 -13  -3   -0.13    0.10
  21 -13  -3    0.01    0.10
 -21  13  -3    0.09    0.12
 -21 -13   3   -0.05    0.11
 -21 -13  -5    0.14    0.12
 -21  13   5    0.15    0.14
  21  13  -5   -0.05    0.11
  21 -13  -5    0.11    0.11
 -21 -13   5   -0.08    0.11
 -21  13  -5    0.07    0.12
 -21 -13  -7   -0.05    0.11
   0 -14  -2  136.62    3.88
   0  14  -2  138.89    4.03
   0  14   2  133.12    4.02
   0 -14  -2  134.86    3.89
   0  14   4    0.01    0.03
   0 -14  -4    0.01    0.03
   0 -14   4   -0.01    0.03
   0  14  -4   -0.02    0.03
   0 -14  -4    0.05    0.03
   0 -14   6   23.27    0.73
   0  14   6   23.28    0.73
   0  14  -6   23.42    0.73
   0 -14  -6   22.39    0.70
   0  14  -8    0.17    0.06
   0 -14  -8    0.00    0.07
   0  14  -8    0.12    0.06
   0 -14   8    0.14    0.07
   0  14   8    0.15    0.06
   0  14 -10   13.21    0.46
   0  14 -10   13.70    0.52
   0 -14  10   12.76    0.49
   0 -14 -10   13.17    0.47
   0 -14 -12    0.02    0.08
   0  14 -12   -0.05    0.10
   0 -14 -14    3.68    0.24
   0  14 -14    2.92    0.24
   2 -14   0   40.32    1.19
   2  14   0   39.46    1.23
  -2 -14   0   41.34    1.18
  -2  14   0   41.87    1.23
  -2 -14   0   41.34    1.20
  -2  14   0   40.42    1.18
  -2 -14  -2    2.76    0.09
  -2  14   2    2.93    0.10
   2 -14   2    2.88    0.12
   2  14  -2    2.88    0.12
  -2  14   2    2.20    0.11
  -2 -14   2    2.64    0.12
   2 -14  -2    2.79    0.11
  -2  14  -2    2.77    0.11
  -2 -14   2    2.81    0.12
   2  14   2    2.74    0.11
  -2  14  -2    2.85    0.11
  -2  14   4   18.92    0.61
  -2  14   4   19.25    0.58
  -2 -14  -4   19.34    0.57
  -2 -14  -4   18.81    0.59
   2 -14   4   18.71    0.60
   2  14  -4   19.01    0.61
   2  14   4   18.70    0.59
  -2 -14   4   19.88    0.60
  -2  14  -4   19.17    0.60
   2 -14  -4   18.79    0.58
  -2  14  -4   18.89    0.59
   2  14  -6   17.79    0.58
  -2 -14  -6   18.05    0.55
  -2  14   6   18.12    0.59
  -2 -14   6   17.57    0.58
  -2  14  -6   17.27    0.56
   2 -14   8   11.97    0.47
  -2 -14  -8   13.28    0.45
   2  14  -8   13.05    0.46
  -2  14   8   13.60    0.47
   2  14   8   13.66    0.45
  -2 -14   8   13.29    0.47
  -2  14  -8   13.61    0.44
   2 -14  10    0.77    0.12
   2  14 -10    1.13    0.12
   2  14 -10    1.04    0.14
  -2  14  10    0.91    0.12
  -2 -14 -10    0.91    0.11
  -2 -14  10    0.82    0.12
  -2  14 -10    1.00    0.14
   2 -14 -10    0.83    0.12
  -2 -14 -12    0.20    0.09
   2  14 -12    0.37    0.11
   2 -14 -12    0.05    0.08
  -2  14 -12    0.02    0.10
   2  14 -14    0.32    0.14
  -2 -14 -14    0.23    0.11
  -2  14 -14    0.31    0.14
   2 -14 -14    0.42    0.12
   4 -14   0   20.81    0.60
  -4  14   0   19.97    0.61
  -4 -14   0   21.01    0.62
   4  14   0   20.22    0.63
  -4 -14   0   20.20    0.61
  -4  14   0   19.87    0.63
  -4  14   2   42.21    1.20
   4 -14   2   40.32    1.20
  -4 -14  -2   40.65    1.19
  -4  14  -2   41.55    1.23
  -4 -14   2   41.21    1.22
  -4 -14   2   34.79    1.20
   4  14   2   42.73    1.23
   4 -14  -2   43.18    1.18
  -4 -14  -4    9.15    0.31
   4 -14   4    9.86    0.33
   4  14  -4    9.51    0.34
  -4 -14  -4    9.74    0.33
  -4  14   4    9.42    0.34
  -4  14  -4    9.55    0.31
  -4 -14   4    9.81    0.35
   4  14   4   10.01    0.31
  -4 -14   4   10.17    0.33
  -4  14  -4    9.23    0.33
   4 -14  -4    9.39    0.31
   4  14  -6   21.65    0.70
  -4  14   6   21.93    0.69
  -4 -14  -6   21.15    0.67
  -4  14   6   21.58    0.71
   4 -14   6   21.89    0.69
  -4  14  -6   21.81    0.67
   4 -14  -6   21.39    0.66
  -4 -14   6   21.41    0.69
   4  14   6   21.93    0.67
  -4  14   8    0.61    0.10
   4 -14   8    0.66    0.10
   4  14  -8    0.67    0.10
  -4 -14  -8    0.79    0.09
  -4  14  -8    0.60    0.11
  -4 -14   8    0.58    0.09
   4  14 -10    3.27    0.19
  -4  14  10    3.25    0.20
  -4 -14 -10    3.02    0.18
  -4 -14  10    2.92    0.19
  -4  14 -10    3.32    0.21
   4  14 -12    1.03    0.13
  -4 -14 -12    1.10    0.13
  -4 -14  12    1.03    0.13
  -4  14 -12    0.95    0.15
   4 -14 -12    0.93    0.14
   4  14 -14   -0.01    0.11
  -4 -14 -14    0.04    0.10
  -4  14 -14    0.06    0.12
   6 -14   0   44.57    1.23
  -6  14   0   38.50    1.26
  -6 -14   0   43.09    1.26
  -6  14   0   44.27    1.30
   6 -14   2   14.84    0.45
  -6 -14  -2   14.33    0.45
  -6  14   2   14.44    0.48
   6  14  -2   14.75    0.48
  -6  14   2   12.02    0.46
  -6 -14  -2   14.49    0.46
  -6  14  -2   14.47    0.46
  -6 -14   2   14.75    0.48
   6  14   2   15.17    0.46
   6 -14  -2   14.88    0.43
  -6  14  -2   14.66    0.47
  -6  14   4    3.36    0.16
  -6 -14  -4    3.44    0.16
   6 -14   4    3.29    0.15
  -6  14   4    3.32    0.16
  -6 -14  -4    3.21    0.14
   6  14  -4    3.39    0.16
  -6 -14   4    3.37    0.15
   6 -14  -4    3.35    0.12
   6  14   4    3.51    0.13
  -6  14  -4    3.30    0.13
  -6  14  -4    3.10    0.16
  -6 -14   4    3.35    0.18
  -6  14   6    2.05    0.15
   6 -14   6    2.02    0.14
  -6 -14  -6    2.12    0.12
   6  14  -6    2.12    0.15
  -6 -14  -6    2.00    0.14
  -6  14   6    2.16    0.14
  -6 -14   6    2.20    0.13
   6 -14  -6    2.14    0.11
   6  14   6    2.10    0.09
  -6  14  -6    2.03    0.09
   6  14  -8   12.35    0.46
  -6 -14  -8   12.59    0.46
  -6  14   8   12.23    0.46
  -6 -14  -8   12.47    0.43
   6 -14   8   12.45    0.46
  -6  14   8   12.59    0.47
  -6 -14   8   12.81    0.45
  -6  14  -8   12.36    0.47
  -6  14  10    1.98    0.17
  -6 -14 -10    2.40    0.16
  -6 -14 -10    2.37    0.18
   6  14 -10    2.30    0.17
  -6 -14  10    2.37    0.17
  -6  14 -10    2.04    0.19
   6  14 -12    0.04    0.09
  -6 -14 -12    0.15    0.10
  -6 -14 -12    0.15    0.09
  -6  14 -12    0.17    0.11
   6 -14 -12    0.22    0.09
  -6 -14  12    0.06    0.08
  -6 -14 -14    0.27    0.12
   6  14 -14    0.40    0.15
  -6  14 -14    0.15    0.13
   8 -14   0    5.13    0.16
   8  14   0    4.86    0.20
  -8  14   0    4.78    0.20
  -8 -14   0    5.01    0.19
  -8  14   0    4.92    0.20
  -8 -14   0    5.18    0.21
  -8 -14  -2   52.22    1.53
   8 -14   2   52.03    1.51
  -8  14   2   54.51    1.59
  -8 -14  -2   52.68    1.52
   8  14  -2   52.37    1.58
  -8  14   2   52.30    1.54
  -8 -14   2   52.44    1.55
  -8  14  -2   51.44    1.54
  -8  14  -2   52.02    1.56
  -8 -14   2   43.60    1.51
  -8 -14  -4    7.23    0.26
   8 -14   4    6.96    0.26
  -8  14   4    7.74    0.29
  -8 -14  -4    7.36    0.27
   8  14  -4    6.19    0.28
  -8 -14   4    7.75    0.31
  -8  14  -4    7.03    0.28
  -8 -14   4    6.99    0.26
   8 -14  -4    7.22    0.22
   8  14   4    7.06    0.24
  -8  14  -4    7.19    0.24
  -8 -14  -6   21.54    0.69
  -8  14   6   21.76    0.73
  -8  14   6   21.14    0.70
   8  14  -6   22.49    0.72
  -8 -14  -6   20.07    0.67
   8 -14  -6   20.27    0.64
  -8 -14   6   21.04    0.67
  -8  14   8    8.62    0.38
  -8 -14  -8    8.86    0.33
   8  14  -8    9.15    0.37
  -8  14   8    8.59    0.37
  -8 -14  -8    8.53    0.35
  -8 -14   8    8.70    0.33
  -8 -14   8    8.18    0.38
  -8  14  -8    8.08    0.36
   8  14 -10    2.04    0.17
  -8 -14 -10    1.96    0.15
  -8 -14 -10    2.09    0.17
  -8  14  10    1.92    0.19
  -8  14 -10    2.01    0.18
  -8 -14  10    2.31    0.16
   8  14 -12    0.26    0.11
  -8 -14 -12    0.28    0.11
  -8  14 -12    0.31    0.12
   8 -14 -12    0.37    0.11
  -8 -14 -14    0.24    0.12
  -8  14 -14    0.52    0.15
 -10  14   0   30.95    0.97
 -10 -14   0   31.09    0.93
  10  14   0   29.88    0.96
 -10  14   0   30.55    0.96
 -10 -14   0   31.10    0.96
 -10  14   2    1.59    0.13
 -10  14   2    1.78    0.12
 -10 -14  -2    1.58    0.12
  10  14  -2    1.69    0.13
 -10 -14  -2    1.77    0.11
 -10 -14   2    1.67    0.14
  10  14   2    1.83    0.11
 -10  14  -2    1.59    0.12
 -10  14  -2    1.65    0.10
 -10 -14   2    1.66    0.10
 -10  14   4    2.30    0.16
  10  14  -4    2.41    0.16
 -10  14   4    2.33    0.17
 -10 -14  -4    2.59    0.14
 -10 -14  -4    2.37    0.14
 -10 -14   4    2.35    0.12
  10  14   4    2.29    0.12
 -10 -14   4    2.08    0.16
 -10  14  -4    1.62    0.13
 -10  14  -4    2.40    0.11
 -10 -14  -6    3.09    0.17
  10  14  -6    3.59    0.20
 -10  14   6    3.36    0.20
 -10  14   6    3.24    0.20
 -10 -14  -6    3.07    0.18
 -10  14  -6    2.76    0.18
 -10 -14   6    3.36    0.16
 -10 -14   6    2.93    0.21
 -10 -14  -8    2.10    0.17
 -10  14   8    1.94    0.19
  10  14  -8    2.29    0.19
 -10  14   8    2.31    0.19
 -10 -14  -8    2.51    0.16
 -10  14  -8    2.32    0.18
 -10 -14   8    2.30    0.21
  10  14 -10    0.45    0.11
 -10 -14 -10    0.50    0.10
 -10  14  10    0.43    0.12
 -10  14  10    0.68    0.14
 -10 -14 -10    0.49    0.11
 -10  14 -10    0.34    0.10
 -10 -14 -12    0.45    0.12
  10  14 -12    0.06    0.11
 -10  14 -12    0.42    0.13
  10 -14 -12    0.37    0.11
  10  14 -14    0.03    0.12
  10 -14 -14   -0.10    0.10
 -10  14 -14    0.09    0.13
 -12  14   0   12.84    0.47
 -12 -14   0   12.67    0.46
 -12 -14   0   12.74    0.43
 -12  14   0   12.77    0.46
  12  14   0   12.96    0.45
 -12 -14  -2   10.03    0.38
 -12 -14  -2    9.97    0.36
  12  14  -2   10.82    0.39
 -12  14   2   10.20    0.40
 -12  14   2   10.44    0.40
 -12  14  -2    9.99    0.36
  12  14   2   10.13    0.36
 -12  14  -2   10.12    0.39
 -12 -14   2    9.98    0.35
 -12 -14   2    9.54    0.39
  12  14  -4    8.31    0.37
 -12  14   4    9.30    0.38
 -12 -14  -4    9.24    0.35
 -12 -14  -4    8.84    0.35
 -12  14   4    9.25    0.38
 -12  14  -4    9.42    0.37
 -12 -14   4   10.04    0.40
 -12  14   6    1.37    0.16
 -12  14   6    1.32    0.15
  12  14  -6    1.21    0.15
 -12 -14  -6    1.54    0.14
 -12  14  -6    1.55    0.15
 -12 -14   6    1.16    0.15
 -12 -14  -8    0.31    0.10
  12  14  -8    0.33    0.11
 -12  14   8    0.39    0.11
 -12 -14  -8    0.39    0.10
 -12  14   8    0.38    0.11
 -12  14  -8    0.28    0.10
 -12 -14   8    0.36    0.13
 -12 -14 -10    0.12    0.09
 -12 -14 -10    0.40    0.10
 -12  14  10    0.30    0.12
  12  14 -10    0.23    0.11
 -12  14 -10    0.28    0.11
 -12 -14  10    0.67    0.16
  12  14 -12    0.07    0.11
 -12 -14 -12    0.27    0.11
 -12  14 -12    0.05    0.11
  12 -14 -12    0.32    0.12
 -14  14   0    3.38    0.21
  14  14   0    3.37    0.19
 -14  14   0    3.94    0.20
 -14 -14   0    3.64    0.21
 -14 -14  -2    9.91    0.39
 -14  14   2    9.27    0.39
 -14 -14  -2    9.69    0.36
 -14  14   2    9.07    0.38
  14  14  -2    9.69    0.38
 -14  14  -2    9.95    0.36
  14  14   2    9.84    0.36
 -14  14  -2    8.88    0.38
 -14 -14   2    9.87    0.41
 -14 -14  -4    0.31    0.08
 -14  14   4    0.49    0.10
  14  14  -4    0.33    0.10
 -14 -14  -4    0.59    0.10
 -14  14   4    0.41    0.10
 -14  14  -4    0.39    0.10
 -14 -14   4    0.54    0.12
  14  14  -6    1.13    0.15
 -14  14   6    1.33    0.16
 -14 -14  -6    1.20    0.14
 -14  14   6    1.22    0.16
 -14 -14  -6    1.05    0.13
 -14 -14   6    1.09    0.16
 -14  14  -6    1.01    0.14
 -14  14   8    0.39    0.13
 -14  14   8    0.31    0.12
 -14 -14  -8    0.51    0.11
 -14 -14  -8    0.23    0.10
  14  14  -8    0.37    0.12
 -14 -14   8    0.25    0.12
 -14  14  -8    0.46    0.12
 -14 -14 -10    0.20    0.10
  14  14 -10    0.05    0.10
 -14 -14 -10    0.00    0.09
 -14  14  10    0.00    0.11
  14 -14 -10    0.23    0.11
 -14 -14  10    0.00    0.12
 -14  14 -10    0.06    0.10
  14  14 -12   -0.01    0.12
 -14  14  12   -0.10    0.12
 -14 -14 -12    0.01    0.10
 -14  14 -12    0.00    0.12
  14 -14 -12   -0.03    0.10
 -16  14   0    0.70    0.12
 -16  14   0    0.61    0.11
  16  14   0    0.70    0.11
 -16 -14   0    0.50    0.11
 -16  14   2    2.62    0.20
  16  14  -2    2.83    0.19
 -16  14   2    2.71    0.20
 -16 -14  -2    2.99    0.20
 -16  14  -2    3.19    0.21
 -16 -14   2    2.77    0.21
 -16  14   4    0.66    0.13
 -16 -14  -4    0.83    0.13
 -16  14   4    0.57    0.12
  16  14  -4    0.46    0.11
 -16  14  -4    0.42    0.11
 -16 -14   4    0.58    0.13
 -16  14   6    1.94    0.21
 -16 -14  -6    1.40    0.16
  16  14  -6    1.70    0.18
 -16  14   6    1.48    0.17
 -16 -14  -6    1.63    0.16
 -16  14  -6    1.76    0.18
 -16 -14   6    2.23    0.23
 -16  14   8    0.76    0.16
 -16 -14  -8    0.82    0.14
  16  14  -8    0.70    0.15
 -16 -14  -8    0.71    0.13
  16 -14  -8    0.82    0.15
 -16  14  -8    0.90    0.15
 -16 -14   8    0.94    0.18
 -16  14  10    0.45    0.16
 -16 -14 -10    0.39    0.12
 -16 -14 -10    0.63    0.13
  16  14 -10    0.32    0.13
 -16  14 -10    0.60    0.15
  16 -14 -10    0.44    0.12
 -16 -14  10    0.76    0.18
 -18  14   0   -0.07    0.08
 -18 -14   0    0.02    0.10
 -18  14   2    0.93    0.15
  18  14  -2    0.97    0.14
 -18 -14  -2    0.66    0.13
 -18 -14   2    0.80    0.15
 -18  14  -2    0.65    0.14
  18 -14  -2    0.93    0.13
  18  14  -4    0.12    0.11
 -18  14   4    0.27    0.12
 -18 -14  -4    0.35    0.12
  18 -14  -4    0.46    0.12
 -18 -14   4    0.26    0.12
 -18  14  -4    0.57    0.13
  18  14  -6   -0.16    0.09
 -18 -14  -6   -0.05    0.09
 -18  14   6   -0.01    0.11
 -18  14  -6   -0.08    0.10
 -18 -14   6    0.06    0.12
  18 -14  -6    0.12    0.11
 -18  14   8    0.23    0.14
  18  14  -8    0.10    0.11
 -18 -14  -8    0.13    0.10
  18 -14  -8   -0.01    0.10
 -18  14  -8    0.03    0.12
 -18 -14   8    0.17    0.13
 -18  14  10   -0.25    0.11
 -20  14   0    1.07    0.18
 -20 -14   0    1.19    0.17
  20  14  -2   -0.05    0.10
 -20  14   2    0.19    0.12
 -20 -14  -2    0.09    0.11
 -20  14  -2    0.09    0.11
  20 -14  -2   -0.02    0.09
 -20 -14   2   -0.17    0.09
 -20  14   4    0.64    0.16
 -20 -14  -4    0.73    0.15
  20  14  -4    0.76    0.15
  20 -14  -4    1.03    0.16
 -20  14  -4    0.80    0.15
 -20 -14   4    0.78    0.17
 -20  14   6    0.05    0.13
 -20 -14  -6   -0.05    0.10
  20  14  -6   -0.08    0.11
 -20 -14   6    0.00    0.12
 -20  14  -6    0.01    0.12
  20 -14  -6    0.00    0.11
 -20  14   8    0.19    0.14
 -20 -14  -8    0.25    0.12
 -22 -14   0    0.05    0.12
 -22  14   0    0.07    0.12
 -22  14   2   -0.04    0.12
 -22  14  -2    0.03    0.13
 -22 -14   2    0.06    0.12
 -22  14   4    0.19    0.15
  22  14  -4    0.18    0.13
 -22 -14  -4    0.24    0.13
  22 -14  -4    0.16    0.12
  -1  15   1    0.62    0.03
  -1  15   1    0.64    0.05
   1 -15   1    0.62    0.05
  -1 -15  -1    0.53    0.05
   1  15  -1    0.47    0.05
   1 -15  -1    0.64    0.05
   1  15   1    0.55    0.05
  -1  15  -1    0.59    0.05
  -1  15  -1    0.73    0.04
  -1 -15  -3   10.68    0.35
  -1 -15  -3   11.11    0.33
   1  15  -3   11.07    0.36
   1 -15  -3   10.89    0.34
  -1  15  -3   10.58    0.35
   1  15   3   10.63    0.35
  -1  15   5   21.53    0.70
  -1 -15  -5   22.00    0.68
  -1 -15  -5   21.88    0.66
   1  15  -5   22.02    0.69
  -1  15  -5   22.53    0.69
   1 -15  -5   22.43    0.68
  -1 -15   5   21.01    0.69
  -1  15  -5   22.62    0.70
  -1 -15  -7   12.11    0.40
   1 -15   7   11.74    0.43
   1  15  -7   11.81    0.41
  -1  15   7   11.87    0.42
  -1  15  -7   11.93    0.40
  -1 -15   7   12.24    0.43
   1  15   7   11.95    0.41
   1  15  -9    4.85    0.25
   1 -15   9    4.45    0.24
   1  15  -9    5.04    0.22
  -1  15   9    4.94    0.23
  -1 -15  -9    4.72    0.22
  -1  15  -9    4.67    0.21
  -1 -15   9    4.80    0.25
   1 -15  -9    4.57    0.23
   1  15   9    5.03    0.22
  -1  15  -9    5.11    0.26
  -1 -15 -11    0.22    0.08
   1  15 -11    0.16    0.10
   1 -15  11    0.31    0.09
  -1 -15  11    0.26    0.09
   1 -15 -11    0.16    0.08
  -1  15 -11    0.07    0.10
   1  15 -13    0.46    0.13
  -1  15 -13    0.30    0.12
  -1 -15 -15    0.08    0.11
   1  15 -15   -0.15    0.12
  -1  15 -15    0.17    0.14
   1 -15 -15    0.03    0.10
  -3  15   1   75.46    2.42
   3 -15   1   82.93    2.34
  -3 -15  -1   82.20    2.33
  -3  15   1   80.93    2.34
  -3 -15   1   81.30    2.35
   3  15   1   85.02    2.42
   3 -15  -1   81.26    2.33
  -3  15  -1   81.75    2.34
  -3 -15   1   81.16    2.35
  -3  15  -1   79.85    2.42
   3 -15   3   11.07    0.37
  -3  15   3   11.30    0.36
  -3  15   3   11.08    0.38
  -3 -15  -3   11.66    0.34
   3  15  -3   11.32    0.38
   3 -15  -3   11.13    0.35
  -3 -15   3   11.49    0.38
  -3  15  -3   11.18    0.36
   3  15   3   11.50    0.36
  -3  15  -3   10.59    0.37
  -3 -15  -5    0.25    0.06
  -3  15   5    0.36    0.06
  -3 -15  -5    0.29    0.04
   3 -15   5    0.15    0.05
   3  15  -5    0.30    0.06
  -3  15  -5    0.16    0.04
  -3 -15   5    0.28    0.05
  -3  15  -5    0.14    0.05
   3  15   5    0.29    0.04
   3 -15  -5    0.34    0.05
   3  15  -7    1.40    0.11
  -3 -15  -7    1.22    0.10
  -3  15   7    1.36    0.12
  -3 -15  -7    1.29    0.12
  -3  15  -7    1.38    0.09
  -3 -15   7    1.20    0.11
   3 -15   9    3.93    0.22
   3  15  -9    4.32    0.21
  -3 -15  -9    4.15    0.20
  -3  15   9    4.41    0.22
  -3  15  -9    4.15    0.24
  -3 -15   9    4.33    0.22
   3  15 -11    0.25    0.11
   3  15 -11    0.13    0.08
  -3  15  11    0.21    0.08
  -3 -15 -11    0.29    0.09
  -3 -15  11    0.35    0.09
   3 -15 -11    0.15    0.09
  -3  15 -11    0.36    0.11
  -3 -15 -13    0.01    0.09
   3  15 -13   -0.22    0.10
  -3  15 -13    0.26    0.13
   3 -15 -13    0.16    0.10
  -3 -15 -15    0.44    0.13
   3  15 -15    0.61    0.16
  -3  15 -15    0.52    0.16
  -5 -15  -1   64.30    1.86
   5 -15   1   64.40    1.86
   5  15  -1   59.12    1.93
  -5  15   1   65.34    1.87
  -5  15   1   65.42    1.93
   5  15   1   65.12    1.93
  -5 -15   1   63.99    1.88
  -5  15  -1   64.58    1.92
   5 -15  -1   65.37    1.84
   5 -15   3   35.49    1.06
  -5 -15  -3   34.39    1.06
  -5 -15  -3   35.68    1.04
   5  15   3   35.30    1.07
  -5  15  -3   35.93    1.07
  -5 -15   3   35.11    1.06
  -5 -15   3   35.91    1.08
   5 -15  -3   35.45    1.03
  -5  15  -3   35.28    1.07
   5  15  -5    0.02    0.05
  -5  15   5    0.03    0.05
  -5 -15  -5    0.04    0.04
   5 -15   5   -0.02    0.05
  -5 -15  -5    0.03    0.04
  -5  15   5    0.08    0.04
   5  15   5    0.05    0.03
  -5  15  -5   -0.05    0.02
  -5 -15   5    0.07    0.06
  -5 -15   5    0.01    0.03
   5 -15  -5   -0.01    0.03
  -5  15  -5    0.13    0.06
  -5 -15  -7    2.13    0.12
  -5  15   7    2.07    0.15
   5 -15   7    2.00    0.15
   5  15  -7    2.20    0.15
  -5  15   7    2.15    0.15
  -5 -15   7    2.10    0.13
   5 -15  -7    1.90    0.12
   5  15  -9    6.63    0.30
   5 -15   9    7.21    0.31
  -5 -15  -9    7.09    0.28
  -5 -15  -9    6.93    0.30
  -5  15   9    6.81    0.31
  -5  15  -9    6.67    0.31
  -5 -15   9    6.89    0.29
  -5 -15 -11    0.49    0.11
  -5  15  11    0.43    0.11
  -5 -15 -11    0.45    0.09
   5  15 -11    0.48    0.10
  -5 -15  11    0.47    0.10
  -5  15 -11    0.28    0.12
  -5 -15 -13    0.48    0.12
   5  15 -13    0.36    0.14
  -5  15 -13    0.48    0.13
  -5 -15 -15    0.38    0.13
   5  15 -15    0.36    0.15
  -5  15 -15    0.44    0.15
  -7  15   1   72.21    2.19
  -7  15   1   72.52    2.12
  -7 -15  -1   72.83    2.12
  -7 -15  -1   72.11    2.12
   7 -15   1   73.10    2.09
   7  15  -1   73.01    2.19
  -7  15  -1   71.81    2.12
  -7 -15   1   72.79    2.13
   7 -15  -1   72.17    2.07
  -7  15  -1   73.02    2.18
  -7 -15  -3   20.70    0.64
  -7 -15  -3   21.06    0.65
  -7  15   3   21.03    0.68
   7 -15   3   20.37    0.63
   7  15  -3   20.37    0.67
  -7  15   3   20.19    0.65
  -7  15  -3   20.47    0.64
  -7 -15   3   20.48    0.64
  -7  15  -3   20.16    0.65
   7 -15  -3   20.76    0.60
  -7 -15   3   19.59    0.66
   7  15   3   21.06    0.64
  -7 -15  -5    6.65    0.25
  -7  15   5    7.21    0.29
   7  15  -5    6.87    0.28
  -7  15   5    6.94    0.27
  -7 -15  -5    6.78    0.27
   7 -15   5    7.14    0.27
  -7 -15   5    6.61    0.29
  -7 -15   5    7.14    0.26
   7 -15  -5    6.37    0.22
  -7  15  -5    6.35    0.22
   7  15   5    6.62    0.23
  -7  15   7    1.30    0.13
  -7 -15  -7    1.38    0.11
   7  15  -7    1.30    0.13
  -7 -15  -7    1.52    0.13
   7 -15   7    1.25    0.12
  -7  15   7    1.30    0.13
  -7 -15   7    1.14    0.14
  -7  15  -7    1.44    0.14
  -7 -15   7    1.26    0.11
   7 -15  -7    1.40    0.10
  -7  15   9    2.76    0.19
  -7 -15  -9    2.92    0.19
  -7  15   9    2.76    0.20
   7  15  -9    2.90    0.19
  -7 -15  -9    2.69    0.16
  -7  15  -9    2.85    0.20
  -7 -15   9    2.64    0.17
  -7 -15 -11    0.61    0.10
  -7  15  11    0.49    0.12
  -7 -15 -11    0.56    0.12
   7  15 -11    0.34    0.11
  -7 -15  11    0.51    0.10
  -7  15 -11    0.34    0.12
   7  15 -13    0.01    0.10
  -7 -15 -13    0.02    0.10
  -7  15 -13    0.08    0.12
   7 -15 -13    0.17    0.10
  -9  15   1   13.88    0.48
   9  15  -1   13.66    0.49
  -9  15   1   14.99    0.50
  -9 -15  -1   14.76    0.47
  -9 -15  -1   14.21    0.48
  -9  15  -1   14.41    0.48
  -9  15  -1   14.46    0.49
  -9 -15   1   14.64    0.49
   9  15   1   14.81    0.48
  -9 -15   1   14.94    0.47
  -9 -15  -3    5.44    0.22
  -9  15   3    5.64    0.24
  -9  15   3    5.74    0.24
  -9 -15  -3    5.05    0.22
   9  15  -3    5.41    0.24
   9 -15   3    5.77    0.21
  -9  15  -3    5.63    0.23
  -9 -15   3    5.79    0.25
  -9  15  -3    5.35    0.20
  -9 -15   3    5.35    0.21
  -9  15   5    1.91    0.14
  -9 -15  -5    1.47    0.12
  -9 -15  -5    1.70    0.12
  -9 -15   5    1.88    0.12
  -9 -15   5    1.89    0.16
  -9 -15  -7    1.84    0.13
   9  15  -7    1.85    0.16
  -9  15   7    1.94    0.16
  -9  15   7    1.49    0.16
  -9 -15  -7    2.02    0.15
  -9 -15   7    1.93    0.14
  -9  15  -7    1.71    0.16
  -9 -15   7    1.68    0.18
  -9 -15  -9    0.39    0.10
  -9  15   9    0.55    0.11
  -9  15   9    0.42    0.11
  -9 -15  -9    0.50    0.10
   9  15  -9    0.31    0.10
  -9 -15   9    0.67    0.10
  -9  15  -9    0.51    0.11
  -9 -15   9    0.37    0.12
  -9  15  11    0.35    0.11
  -9 -15 -11    0.36    0.10
   9  15 -11    0.34    0.11
  -9 -15 -11    0.23    0.10
  -9  15 -11    0.28    0.11
   9  15 -13    0.07    0.11
  -9 -15 -13    0.24    0.11
   9 -15 -13    0.20    0.10
  -9  15 -13    0.25    0.12
 -11  15   1    8.24    0.34
 -11 -15  -1    8.85    0.31
 -11  15   1    8.53    0.33
  11  15  -1    9.10    0.34
 -11 -15  -1    8.55    0.33
 -11  15  -1    8.83    0.34
 -11 -15   1    8.46    0.34
  11  15   1    8.48    0.32
 -11 -15   1    8.94    0.31
 -11  15  -1    8.70    0.32
 -11 -15  -3    2.07    0.14
 -11  15   3    2.47    0.17
  11  15  -3    2.40    0.17
 -11 -15  -3    2.32    0.15
 -11  15   3    2.33    0.16
 -11 -15   3    2.78    0.18
 -11  15  -3    2.40    0.13
 -11 -15   3    2.41    0.13
 -11  15  -3    2.49    0.16
  11  15   3    2.54    0.13
 -11 -15  -5    2.63    0.16
  11  15  -5    2.32    0.18
 -11  15   5    2.23    0.17
 -11  15   5    2.89    0.19
 -11 -15  -5    2.77    0.17
 -11 -15   5    2.94    0.15
 -11  15  -5    2.43    0.17
 -11 -15   5    2.76    0.20
 -11  15   7    1.75    0.17
 -11  15   7    1.70    0.17
 -11 -15  -7    1.78    0.15
  11  15  -7    1.48    0.16
 -11 -15  -7    1.79    0.14
 -11 -15   7    1.86    0.19
 -11  15  -7    1.72    0.16
  11  15  -9    2.68    0.20
 -11  15   9    2.91    0.21
 -11 -15  -9    2.90    0.18
 -11  15   9    2.75    0.22
 -11 -15  -9    2.78    0.19
 -11  15  -9    2.54    0.20
 -11 -15   9    2.33    0.23
 -11  15  11    0.85    0.15
  11  15 -11    0.96    0.15
 -11 -15 -11    1.10    0.13
 -11 -15 -11    0.60    0.13
 -11  15 -11    0.78    0.14
  11  15 -13   -0.09    0.10
 -11 -15 -13   -0.04    0.10
 -11  15 -13   -0.06    0.10
  11 -15 -13    0.09    0.10
 -13 -15  -1    2.36    0.17
 -13  15   1    2.21    0.15
  13  15  -1    2.39    0.16
 -13  15   1    2.30    0.16
 -13 -15  -1    2.35    0.14
 -13  15  -1    1.97    0.16
 -13  15  -1    2.46    0.15
 -13 -15   1    2.39    0.17
 -13 -15   1    2.30    0.13
  13  15   1    2.15    0.15
 -13 -15  -3   13.40    0.49
 -13 -15  -3   13.87    0.48
 -13  15   3   13.40    0.51
 -13  15   3   13.71    0.51
  13  15  -3   13.74    0.51
 -13  15  -3   13.95    0.51
 -13 -15   3   13.10    0.52
 -13  15   5    0.98    0.13
 -13 -15  -5    0.66    0.11
 -13  15   5    0.76    0.13
 -13 -15  -5    0.72    0.11
  13  15  -5    0.53    0.12
 -13 -15   5    0.72    0.13
 -13  15  -5    0.74    0.12
 -13  15   7    1.36    0.16
 -13  15   7    1.14    0.16
  13  15  -7    1.05    0.14
 -13 -15  -7    1.08    0.13
 -13 -15  -7    1.29    0.14
 -13 -15   7    1.03    0.16
 -13  15  -7    1.01    0.13
  13  15  -9    0.34    0.11
 -13 -15  -9    0.33    0.10
 -13  15   9    0.24    0.11
 -13  15   9    0.44    0.13
 -13 -15  -9    0.24    0.09
 -13 -15   9    0.17    0.12
 -13  15  -9    0.48    0.12
 -13  15  11    0.72    0.17
  13  15 -11    0.60    0.14
 -13 -15 -11    0.73    0.13
  13 -15 -11    0.57    0.12
 -13  15 -11    0.61    0.14
 -15  15   1    3.51    0.21
 -15 -15  -1    3.09    0.20
  15  15  -1    3.18    0.19
 -15  15   1    3.49    0.22
 -15  15  -1    2.97    0.20
  15  15   1    3.06    0.18
 -15 -15   1    3.19    0.21
 -15  15  -1    3.13    0.19
 -15 -15  -3    2.16    0.15
 -15  15   3    1.55    0.16
  15  15  -3    1.97    0.17
 -15 -15  -3    1.82    0.15
 -15  15   3    1.96    0.18
 -15  15  -3    1.97    0.16
 -15 -15   3    1.67    0.18
 -15 -15  -5    4.56    0.24
 -15 -15  -5    4.85    0.26
 -15  15   5    5.26    0.28
  15  15  -5    4.64    0.27
 -15  15   5    4.94    0.29
 -15  15  -5    5.01    0.27
 -15 -15   5    5.17    0.30
 -15  15   7    0.86    0.14
 -15 -15  -7    0.91    0.14
 -15 -15  -7    0.89    0.13
 -15  15   7    1.11    0.17
  15  15  -7    0.76    0.14
 -15 -15   7    0.98    0.17
 -15  15  -7    1.01    0.14
 -15 -15  -9    0.85    0.14
 -15 -15  -9    0.84    0.14
 -15  15   9    0.48    0.15
  15  15  -9    0.86    0.15
 -15 -15   9    0.73    0.17
 -15  15  -9    0.67    0.14
  15 -15  -9    0.63    0.14
 -15 -15 -11    0.72    0.14
  15  15 -11    0.38    0.14
 -15  15  11    0.77    0.17
  15 -15 -11    0.57    0.14
 -15 -15  11    0.63    0.17
 -15  15 -11    0.27    0.13
 -17  15   1    0.84    0.13
 -17 -15  -1    0.48    0.12
  17  15  -1    0.70    0.12
 -17  15   1    0.67    0.13
 -17 -15   1    0.66    0.13
 -17  15  -1    0.79    0.14
 -17  15   3    0.86    0.14
 -17  15   3    1.02    0.14
 -17 -15  -3    0.73    0.13
  17  15  -3    0.70    0.13
 -17 -15   3    0.86    0.15
 -17  15  -3    0.76    0.14
 -17 -15  -5    0.30    0.11
  17  15  -5    0.29    0.11
 -17  15   5    0.62    0.14
 -17 -15   5    0.29    0.13
 -17  15  -5    0.47    0.12
  17  15  -7    1.14    0.17
 -17  15   7    0.99    0.18
 -17 -15  -7    1.06    0.16
 -17 -15   7    1.33    0.20
  17 -15  -7    0.78    0.15
 -17  15  -7    1.09    0.16
 -17 -15  -9    0.78    0.14
  17  15  -9    0.42    0.14
 -17  15   9    0.65    0.17
 -17 -15  -9    0.48    0.12
 -17  15  -9    0.57    0.15
 -17 -15   9    0.71    0.18
  17 -15  -9    0.37    0.12
 -17  15  11    0.13    0.15
 -17 -15 -11    0.00    0.10
  19  15  -1    0.66    0.13
 -19 -15  -1    0.85    0.15
 -19  15   1    0.86    0.15
  19 -15  -1    0.64    0.12
 -19 -15   1    0.76    0.15
 -19  15  -1    0.72    0.14
 -19  15   3    0.52    0.14
 -19 -15  -3    0.58    0.13
  19  15  -3    0.41    0.12
  19 -15  -3    0.36    0.11
 -19  15  -3    0.36    0.13
 -19 -15   3    0.54    0.14
 -19 -15  -5    0.05    0.10
  19  15  -5    0.01    0.11
 -19  15   5    0.31    0.14
 -19 -15   5   -0.05    0.12
  19 -15  -5    0.00    0.10
 -19  15  -5    0.22    0.12
 -19 -15  -7    0.07    0.11
  19  15  -7   -0.02    0.11
 -19  15   7    0.07    0.13
 -19 -15   7    0.19    0.15
  19 -15  -7    0.18    0.11
 -19  15  -7   -0.13    0.09
 -19  15   9    0.34    0.16
 -21  15   1    0.17    0.11
 -21 -15  -1    0.08    0.12
 -21  15  -1    0.02    0.11
 -21 -15   1    0.22    0.13
 -21  15   3    0.36    0.14
  21  15  -3    0.32    0.13
 -21 -15  -3    0.59    0.14
  21 -15  -3    0.37    0.12
 -21 -15   3    0.63    0.16
 -21  15  -3    0.42    0.13
 -21  15   5    0.44    0.16
  21  15  -5    0.44    0.15
 -21 -15  -5    0.40    0.13
 -21 -15   5    0.43    0.16
  21 -15  -5    0.31    0.12
 -21  15  -5    0.33    0.13
 -21 -15  -7    0.16    0.11
   0  16   0   76.65    2.15
   0 -16   0   73.31    2.17
   0 -16  -2    0.06    0.03
   0  16   2    0.03    0.03
   0 -16   2    0.00    0.01
   0  16  -2    0.01    0.03
   0 -16   4   81.48    2.32
   0  16  -4   77.93    2.38
   0 -16  -4   79.01    2.29
   0 -16  -4   80.05    2.31
   0 -16  -6    0.06    0.05
   0 -16  -6    0.06    0.04
   0  16   6    0.03    0.04
   0  16  -6    0.04    0.06
   0  16  -6    0.05    0.04
   0 -16   6    0.02    0.05
   0 -16  -8    5.45    0.23
   0 -16   8    5.43    0.25
   0  16  -8    5.20    0.23
   0  16   8    5.99    0.24
   0  16 -10    0.28    0.10
   0  16 -10    0.01    0.07
   0 -16  10    0.09    0.08
   0 -16 -10    0.13    0.08
   0  16 -12    1.18    0.16
   0 -16 -12    0.94    0.13
   0 -16  12    1.00    0.14
   0 -16 -14   -0.08    0.09
   0  16 -14   -0.05    0.11
  -2  16   0   64.54    1.96
  -2 -16   0   66.31    1.88
  -2  16   0   64.76    1.88
   2  16   0   67.51    1.96
   2 -16   0   63.51    1.89
  -2 -16  -2   11.21    0.33
   2  16  -2   11.49    0.37
  -2  16   2   10.89    0.34
   2 -16   2   11.12    0.36
   2  16   2   11.13    0.37
  -2 -16   2   10.69    0.36
  -2  16  -2   11.33    0.36
  -2  16  -2   11.40    0.36
   2 -16  -2   11.77    0.35
  -2  16   4   21.25    0.66
   2 -16   4   20.41    0.65
  -2 -16  -4   20.81    0.64
   2  16  -4   20.29    0.66
  -2  16   4   21.57    0.63
  -2 -16  -4   20.47    0.62
  -2  16  -4   20.34    0.65
   2 -16  -4   20.66    0.63
  -2 -16   4   20.86    0.65
  -2  16  -4   20.43    0.65
   2  16   4   21.34    0.65
   2  16  -6    4.12    0.18
  -2 -16  -6    3.99    0.18
  -2  16   6    3.94    0.18
  -2 -16  -6    3.78    0.16
  -2  16  -6    3.67    0.18
   2 -16  -6    3.96    0.17
  -2  16  -6    3.80    0.16
  -2 -16   6    3.77    0.18
  -2  16   8    2.23    0.15
   2 -16   8    2.02    0.15
  -2 -16  -8    2.15    0.13
   2  16  -8    2.07    0.14
  -2 -16   8    2.32    0.16
   2  16   8    2.20    0.13
  -2  16  -8    2.07    0.12
  -2  16  10    3.18    0.19
   2  16 -10    3.31    0.22
   2 -16  10    3.09    0.20
  -2 -16 -10    3.03    0.18
   2  16 -10    3.21    0.18
  -2  16 -10    3.48    0.22
   2 -16 -10    2.81    0.18
  -2 -16  10    3.36    0.21
  -2 -16 -12    0.08    0.09
   2  16 -12   -0.08    0.10
   2 -16 -12    0.16    0.09
  -2  16 -12    0.08    0.10
  -2 -16  12   -0.03    0.08
   2  16 -14    0.37    0.14
  -2 -16 -14    0.58    0.13
  -2  16 -14    0.51    0.15
   2 -16 -14    0.58    0.13
   4 -16   0   45.52    1.30
  -4  16   0   44.78    1.31
  -4 -16   0   44.54    1.31
  -4  16   0   44.04    1.35
  -4  16   2   44.59    1.29
  -4 -16  -2   42.31    1.29
   4 -16   2   43.27    1.29
  -4 -16  -2   42.05    1.27
   4  16   2   45.77    1.33
   4 -16  -2   44.62    1.27
  -4  16  -2   43.67    1.32
  -4 -16   2   44.66    1.30
   4  16  -4   14.05    0.46
  -4 -16  -4   13.77    0.43
  -4  16   4   13.55    0.47
  -4 -16  -4   13.66    0.45
   4 -16   4   13.64    0.45
  -4  16  -4   13.87    0.44
  -4 -16   4   13.91    0.47
   4 -16  -4   13.57    0.43
  -4  16  -4   13.72    0.45
   4  16   4   14.07    0.44
  -4 -16   4   13.94    0.45
  -4  16   6    6.11    0.25
  -4 -16  -6    5.96    0.22
   4 -16   6    6.13    0.25
  -4  16   6    5.86    0.24
   4  16  -6    6.20    0.25
  -4  16  -6    6.16    0.22
  -4  16  -6    5.63    0.25
   4  16   6    6.13    0.22
  -4 -16   6    6.02    0.24
   4 -16  -6    6.28    0.23
   4 -16   8   10.51    0.40
   4  16  -8   10.53    0.40
  -4  16   8   10.50    0.41
  -4 -16  -8   10.35    0.37
  -4 -16  -8   10.68    0.40
  -4  16  -8   10.64    0.41
  -4 -16   8   10.24    0.39
   4 -16  -8   10.95    0.38
  -4 -16 -10    0.38    0.08
  -4 -16 -10    0.49    0.10
   4  16 -10    0.35    0.09
  -4  16  10    0.36    0.09
   4 -16  10    0.32    0.09
  -4  16 -10    0.52    0.11
  -4 -16  10    0.32    0.09
   4  16 -12    0.52    0.12
   4  16 -12    0.82    0.12
  -4  16  12    0.64    0.12
  -4 -16 -12    0.75    0.13
   4 -16 -12    0.78    0.13
  -4 -16  12    0.50    0.11
   4 -16 -12    0.93    0.13
  -4  16 -12    0.57    0.13
  -4 -16 -14    0.05    0.10
   4  16 -14    0.17    0.13
  -4  16 -14    0.07    0.12
  -6 -16   0   21.76    0.68
   6 -16   0   22.79    0.66
  -6  16   0   22.71    0.70
   6  16   0   22.63    0.70
  -6  16   0   21.33    0.68
  -6 -16   0   22.35    0.68
  -6 -16  -2    1.36    0.09
   6  16  -2    1.48    0.10
  -6  16   2    1.06    0.08
  -6 -16  -2    1.41    0.08
   6 -16   2    1.26    0.08
  -6  16   2    1.24    0.10
  -6 -16   2    1.15    0.08
  -6 -16   2    1.28    0.09
   6 -16  -2    1.36    0.06
  -6  16  -2    1.33    0.09
  -6  16  -2    1.42    0.08
   6  16   2    1.35    0.08
  -6  16   4    1.82    0.11
  -6 -16  -4    1.53    0.09
   6 -16   4    1.73    0.11
  -6  16   4    1.60    0.12
  -6 -16  -4    1.56    0.10
   6  16  -4    1.61    0.11
  -6  16  -4    1.59    0.11
  -6 -16   4    1.55    0.12
  -6 -16   4    1.58    0.10
   6 -16  -4    1.69    0.08
   6  16   4    1.74    0.09
  -6  16  -4    1.62    0.08
  -6  16   6    9.22    0.36
  -6 -16  -6    9.35    0.32
  -6 -16  -6    9.72    0.35
   6  16  -6    8.97    0.35
  -6  16   6    9.69    0.35
   6 -16   6    9.50    0.35
   6  16   6    9.17    0.31
  -6  16  -6    8.98    0.30
   6 -16  -6    9.20    0.31
  -6 -16   6    8.92    0.34
  -6 -16  -8    0.29    0.09
  -6  16   8    0.16    0.08
   6  16  -8    0.11    0.08
  -6  16   8    0.11    0.08
  -6 -16  -8    0.25    0.07
   6 -16   8    0.17    0.08
  -6  16  -8    0.09    0.09
   6 -16  -8    0.21    0.07
  -6 -16   8    0.11    0.07
  -6 -16 -10    0.39    0.09
  -6 -16 -10    0.39    0.10
   6  16 -10    0.32    0.09
  -6  16  10    0.47    0.11
   6 -16 -10    0.54    0.09
  -6  16 -10    0.36    0.10
  -6 -16  10    0.29    0.09
   6  16 -12    0.04    0.09
  -6 -16 -12    0.05    0.09
  -6 -16  12    0.17    0.09
  -6  16 -12    0.46    0.13
  -6 -16 -14    0.67    0.15
   6  16 -14    0.80    0.17
  -6  16 -14    0.91    0.17
  -8  16   0   20.93    0.67
  -8  16   0   20.53    0.65
  -8 -16   0   21.09    0.66
   8 -16   0   20.76    0.61
  -8 -16   0   20.53    0.64
   8  16   0   20.23    0.66
   8  16  -2   11.49    0.41
  -8  16   2   12.38    0.42
  -8 -16  -2   11.42    0.39
  -8  16   2   12.47    0.41
  -8 -16  -2   11.35    0.39
   8 -16   2   12.07    0.38
  -8 -16   2   11.18    0.41
  -8  16  -2   11.58    0.40
  -8  16  -2   11.29    0.39
  -8 -16   2   11.43    0.39
  -8 -16  -4    0.22    0.05
  -8 -16  -4    0.34    0.07
   8 -16   4    0.21    0.05
  -8  16   4    0.41    0.07
   8  16  -4    0.17    0.05
  -8 -16   4    0.44    0.06
  -8 -16   4    0.31    0.08
   8 -16  -4    0.29    0.03
  -8  16  -4    0.24    0.06
   8  16   4    0.34    0.05
  -8  16  -4    0.30    0.04
  -8  16   6    0.68    0.10
   8 -16   6    0.53    0.09
  -8 -16  -6    0.54    0.09
  -8 -16  -6    0.61    0.08
   8  16  -6    0.45    0.09
  -8  16   6    0.44    0.09
  -8 -16   6    0.57    0.11
  -8 -16   6    0.58    0.08
  -8  16  -6    0.24    0.07
   8  16  -8    0.14    0.09
  -8  16   8    0.39    0.11
  -8 -16  -8    0.27    0.09
  -8 -16  -8    0.35    0.08
  -8  16   8    0.31    0.10
  -8 -16   8    0.45    0.09
  -8  16  -8    0.42    0.10
  -8 -16   8    0.39    0.11
   8  16 -10    0.85    0.13
  -8 -16 -10    0.86    0.12
  -8  16  10    0.68    0.12
  -8 -16 -10    0.68    0.10
  -8  16 -10    0.91    0.14
  -8 -16  10    0.76    0.11
   8  16 -12    0.25    0.11
  -8 -16 -12    0.22    0.11
  -8  16 -12    0.47    0.13
  -8 -16 -14    0.25    0.11
  -8  16 -14    0.32    0.13
 -10  16   0    0.67    0.09
 -10 -16   0    0.70    0.08
 -10  16   0    0.61    0.08
  10  16   0    0.53    0.08
 -10 -16   0    0.75    0.09
 -10  16   2    2.33    0.15
  10  16  -2    2.58    0.16
 -10 -16  -2    2.37    0.13
 -10  16   2    2.59    0.15
 -10 -16  -2    2.38    0.14
 -10  16  -2    2.51    0.13
 -10 -16   2    2.36    0.13
  10  16   2    2.35    0.13
 -10 -16   2    2.73    0.17
 -10  16  -2    2.49    0.15
  10  16  -4   13.22    0.47
 -10  16   4   13.17    0.48
 -10 -16  -4   12.33    0.45
 -10  16   4   12.61    0.47
 -10 -16  -4   13.38    0.45
 -10  16  -4   13.32    0.47
 -10 -16   4   13.11    0.44
 -10 -16   4   13.13    0.49
 -10  16  -4   12.74    0.42
 -10 -16  -6    2.91    0.17
 -10  16   6    2.95    0.19
 -10  16   6    2.62    0.19
 -10 -16  -6    3.12    0.17
  10  16  -6    2.50    0.18
 -10  16  -6    2.46    0.18
 -10 -16   6    3.01    0.16
 -10 -16   6    3.37    0.22
 -10 -16  -8    1.56    0.15
 -10  16   8    1.52    0.16
 -10  16   8    1.46    0.16
  10  16  -8    1.60    0.16
 -10 -16  -8    1.51    0.13
 -10  16  -8    1.19    0.14
 -10 -16   8    1.27    0.17
 -10  16  10    0.85    0.14
 -10 -16 -10    0.70    0.11
  10  16 -10    0.80    0.13
 -10  16  10    0.76    0.14
 -10 -16 -10    0.82    0.13
 -10  16 -10    0.72    0.13
 -10 -16 -12    0.08    0.09
  10  16 -12   -0.14    0.09
  10 -16 -12   -0.01    0.09
 -10  16 -12    0.25    0.12
  10  16 -14    0.07    0.12
  10 -16 -14    0.56    0.14
 -12 -16   0   17.11    0.55
 -12  16   0   17.41    0.59
 -12 -16   0   16.84    0.58
  12  16   0   16.63    0.58
 -12  16   0   16.89    0.58
  12  16  -2    3.22    0.19
 -12 -16  -2    3.18    0.17
 -12 -16  -2    3.16    0.17
 -12  16   2    3.14    0.19
 -12  16   2    3.15    0.19
  12  16   2    2.80    0.16
 -12 -16   2    3.11    0.19
 -12  16  -2    3.10    0.16
 -12  16  -2    3.03    0.18
 -12 -16   2    3.10    0.15
 -12 -16  -4    1.78    0.14
 -12  16   4    2.02    0.16
 -12  16   4    1.97    0.16
 -12 -16  -4    1.78    0.14
  12  16  -4    1.62    0.15
 -12  16  -4    1.85    0.16
 -12 -16   4    1.93    0.18
 -12 -16  -6    3.31    0.20
 -12 -16  -6    3.94    0.20
 -12  16   6    3.15    0.21
  12  16  -6    3.55    0.22
 -12  16   6    3.46    0.22
 -12 -16   6    3.70    0.24
 -12  16  -6    4.01    0.22
 -12 -16  -8    1.13    0.13
 -12  16   8    1.35    0.16
  12  16  -8    1.38    0.16
 -12  16   8    1.37    0.17
 -12 -16  -8    1.35    0.15
 -12  16  -8    1.13    0.14
 -12 -16   8    1.21    0.17
 -12  16  10    0.80    0.15
  12  16 -10    0.86    0.15
 -12 -16 -10    1.16    0.14
 -12 -16 -10    0.80    0.13
 -12  16  10    0.75    0.15
 -12 -16  10    0.93    0.17
 -12  16 -10    0.68    0.13
  12  16 -12    0.89    0.16
 -12 -16 -12    0.72    0.14
  12 -16 -12    0.57    0.13
 -12  16 -12    0.74    0.16
 -14  16   0    0.20    0.07
 -14 -16   0    0.24    0.09
 -14  16   0    0.04    0.07
  14  16   0    0.14    0.07
 -14  16   2    3.04    0.19
 -14  16   2    3.02    0.19
 -14 -16  -2    2.57    0.18
  14  16  -2    2.49    0.18
 -14 -16  -2    2.71    0.16
 -14  16  -2    3.05    0.17
 -14 -16   2    2.81    0.19
  14  16   2    2.63    0.16
 -14  16  -2    2.59    0.18
 -14 -16  -4    0.17    0.08
 -14  16   4    0.26    0.09
 -14  16   4    0.36    0.10
 -14 -16  -4    0.25    0.09
  14  16  -4    0.29    0.10
 -14  16  -4    0.09    0.09
 -14 -16   4    0.26    0.10
 -14 -16  -6    2.88    0.19
 -14  16   6    2.86    0.21
 -14  16   6    2.98    0.22
  14  16  -6    3.13    0.21
 -14 -16  -6    3.14    0.20
 -14 -16   6    2.74    0.22
 -14  16  -6    2.85    0.21
 -14 -16  -8    1.88    0.17
 -14 -16  -8    1.91    0.17
  14  16  -8    1.81    0.19
 -14  16   8    1.92    0.21
 -14  16   8    1.63    0.19
 -14  16  -8    1.86    0.18
 -14 -16   8    1.78    0.21
 -14  16  10    0.10    0.12
  14  16 -10   -0.03    0.10
 -14 -16 -10    0.17    0.10
 -14 -16 -10   -0.04    0.09
 -14 -16  10    0.03    0.12
  14 -16 -10    0.21    0.11
 -14  16 -10    0.17    0.12
  14  16 -12   -0.04    0.12
 -14 -16 -12   -0.06    0.09
 -14  16 -12    0.20    0.13
  14 -16 -12   -0.17    0.09
 -16 -16   0    0.30    0.10
 -16  16   0    0.31    0.10
 -16  16   0    0.27    0.09
  16  16   0    0.30    0.09
 -16  16   2    1.59    0.16
 -16  16   2    1.40    0.16
  16  16  -2    1.35    0.15
 -16 -16  -2    1.32    0.15
 -16 -16   2    1.43    0.17
 -16  16  -2    1.54    0.17
 -16 -16  -4   -0.12    0.07
 -16  16   4    0.10    0.09
 -16  16   4    0.02    0.09
  16  16  -4    0.04    0.09
 -16  16  -4    0.04    0.08
 -16 -16   4   -0.03    0.08
 -16  16   6    0.75    0.14
 -16 -16  -6    0.62    0.12
  16  16  -6    0.58    0.13
 -16  16   6    0.61    0.14
 -16 -16  -6    0.60    0.12
 -16  16  -6    0.53    0.13
 -16 -16   6    0.59    0.15
 -16 -16  -8    0.22    0.10
 -16 -16  -8    0.16    0.09
 -16  16   8    0.03    0.11
  16  16  -8    0.12    0.11
 -16 -16   8    0.01    0.12
 -16  16  -8    0.29    0.12
 -16 -16 -10    0.24    0.11
 -16  16  10    0.11    0.14
  16  16 -10    0.24    0.13
  16 -16 -10    0.20    0.11
 -16 -16  10    0.36    0.15
 -16  16 -10   -0.02    0.10
 -18  16   0    0.66    0.13
 -18 -16   0    0.62    0.13
 -18 -16  -2    0.14    0.10
  18  16  -2    0.24    0.10
 -18  16   2    0.19    0.10
 -18 -16   2    0.19    0.11
 -18  16  -2    0.27    0.11
 -18  16   4    0.08    0.11
 -18 -16  -4    0.14    0.10
  18  16  -4    0.01    0.10
 -18  16  -4    0.23    0.11
 -18 -16   4    0.07    0.11
 -18 -16  -6    0.20    0.11
  18  16  -6    0.16    0.11
 -18  16   6    0.25    0.13
 -18  16  -6    0.11    0.11
 -18 -16   6    0.59    0.16
  18 -16  -6    0.15    0.11
 -18  16   8    0.30    0.15
  18  16  -8   -0.11    0.11
 -18 -16  -8    0.20    0.11
  18 -16  -8    0.05    0.11
 -18  16  -8    0.28    0.13
 -18 -16   8    0.14    0.14
 -18  16  10   -0.01    0.13
 -20  16   0    0.55    0.15
 -20 -16   0    0.69    0.15
 -20  16   2    0.53    0.14
  20  16  -2    0.63    0.13
 -20 -16  -2    0.57    0.14
 -20 -16   2    0.29    0.13
  20 -16  -2    0.70    0.13
 -20  16  -2    0.43    0.13
 -20 -16  -4    0.44    0.13
 -20  16   4    0.34    0.14
  20  16  -4    0.17    0.12
 -20  16  -4    0.18    0.13
 -20 -16   4    0.42    0.14
  20 -16  -4    0.41    0.12
 -20 -16  -6    0.51    0.14
 -20  16   6    0.54    0.16
  20  16  -6    0.30    0.13
 -20 -16   6    0.87    0.19
  20 -16  -6    0.44    0.13
 -20  16  -6    0.60    0.15
 -20 -16  -8    0.21    0.13
 -20  16   8    0.18    0.15
 -22  16   0    0.25    0.14
 -22 -16   0    0.22    0.13
 -22 -16  -2    0.08    0.11
 -22  16   2    0.08    0.13
 -22  16  -2   -0.03    0.12
 -22 -16   2    0.30    0.14
 -22 -16  -4    0.79    0.16
 -22  16   4    0.69    0.18
  22  16  -4    0.80    0.17
  22 -16  -4    0.78    0.15
  -1  17   1   14.89    0.43
  -1 -17  -1   14.55    0.46
   1 -17   1   15.14    0.46
  -1  17  -1   14.17    0.45
  -1  17  -1   14.72    0.47
   1 -17  -1   14.88    0.45
   1  17   1   14.88    0.47
  -1 -17  -3   57.36    1.58
  -1 -17  -3   55.63    1.61
   1  17  -3   56.53    1.66
   1 -17   3   54.63    1.62
  -1 -17   3   51.38    1.62
  -1  17  -3   55.58    1.66
   1  17   3   53.57    1.66
   1 -17  -3   55.86    1.60
  -1  17   5   12.26    0.42
   1  17  -5   12.78    0.42
  -1 -17  -5   11.98    0.38
  -1 -17  -5   12.35    0.41
  -1  17  -5   12.06    0.41
  -1 -17   5   13.05    0.42
  -1  17  -5   12.21    0.42
   1 -17  -5   12.36    0.40
   1 -17   7    2.03    0.15
  -1 -17  -7    3.16    0.16
   1  17  -7    3.12    0.16
  -1 -17  -7    2.69    0.14
  -1  17   7    2.65    0.15
   1  17   7    3.01    0.15
  -1  17  -7    2.86    0.14
   1 -17  -7    2.83    0.15
  -1 -17   7    3.04    0.18
   1 -17   9    3.53    0.21
   1  17  -9    3.24    0.18
  -1  17   9    3.43    0.19
  -1 -17  -9    3.61    0.18
  -1 -17  -9    3.39    0.21
   1  17  -9    3.63    0.22
  -1  17  -9    3.27    0.18
  -1  17  -9    3.52    0.21
   1 -17  -9    3.41    0.19
   1  17   9    3.67    0.18
  -1 -17   9    3.62    0.20
   1 -17  -9    3.79    0.19
   1  17 -11    1.33    0.17
  -1 -17 -11    1.39    0.15
   1 -17  11    1.23    0.14
  -1 -17 -11    1.41    0.14
   1 -17 -11    1.48    0.15
  -1  17 -11    1.19    0.15
  -1 -17  11    1.11    0.14
   1 -17 -11    1.28    0.13
  -1 -17 -13    0.64    0.13
   1  17 -13    0.33    0.13
  -1  17 -13    0.43    0.13
   1 -17 -13    0.52    0.12
   1  17 -15    0.36    0.15
  -1 -17 -15    0.35    0.12
  -1  17 -15    0.35    0.14
   1 -17 -15    0.46    0.13
  -3  17   1   77.24    2.20
  -3 -17  -1   75.44    2.20
   3 -17   1   76.04    2.21
   3 -17  -1   75.20    2.20
  -3  17  -1   77.62    2.29
  -3 -17   1   75.84    2.22
   3  17   1   76.99    2.29
  -3  17  -1   78.05    2.21
   3  17  -3   17.08    0.56
   3 -17   3   17.38    0.54
  -3  17   3   17.77    0.53
  -3  17   3   16.99    0.56
  -3 -17  -3   16.85    0.51
  -3 -17   3   17.38    0.55
  -3 -17   3   17.48    0.55
   3  17   3   17.61    0.55
   3 -17  -3   17.32    0.52
  -3  17  -3   17.47    0.54
  -3  17  -3   16.24    0.54
   3  17  -5    4.08    0.17
  -3  17   5    4.00    0.18
   3 -17   5    3.81    0.17
  -3 -17  -5    3.81    0.17
  -3 -17  -5    3.94    0.15
  -3  17  -5    3.78    0.17
  -3 -17   5    3.89    0.18
   3  17   5    3.24    0.15
   3 -17  -5    3.89    0.16
  -3  17  -5    3.83    0.15
  -3 -17  -7   15.70    0.51
   3  17  -7   15.92    0.52
  -3 -17  -7   14.77    0.48
  -3  17   7   14.83    0.52
   3 -17  -7   15.49    0.49
   3  17   7   13.49    0.48
  -3 -17   7   14.66    0.51
  -3  17  -7   14.83    0.49
  -3 -17  -9    1.79    0.14
  -3 -17  -9    2.05    0.17
  -3  17   9    2.03    0.16
   3  17  -9    1.91    0.15
   3 -17   9    2.08    0.17
  -3 -17   9    2.09    0.16
  -3  17  -9    1.74    0.17
   3 -17  -9    2.01    0.15
   3  17 -11    1.61    0.15
  -3  17  11    1.70    0.16
   3 -17  11    1.37    0.15
  -3 -17 -11    1.71    0.14
  -3 -17 -11    1.93    0.18
   3  17 -11    1.94    0.19
  -3 -17  11    1.41    0.15
   3 -17 -11    1.80    0.16
  -3  17 -11    1.73    0.18
   3 -17 -11    1.91    0.16
  -3 -17 -13    0.77    0.14
   3  17 -13    0.50    0.14
  -3  17 -13    0.80    0.16
   3 -17 -13    0.67    0.12
   3  17 -15    0.17    0.14
  -3 -17 -15    0.15    0.11
  -3  17 -15    0.15    0.14
  -5  17   1   21.38    0.66
  -5  17   1   22.29    0.69
  -5 -17  -1   22.58    0.67
   5 -17   1   22.07    0.66
   5  17  -1   21.71    0.69
  -5 -17  -1   21.77    0.66
  -5 -17   1   21.78    0.67
  -5  17  -1   21.41    0.68
   5 -17  -1   21.99    0.65
   5 -17   3    3.97    0.16
  -5 -17  -3    3.84    0.15
  -5 -17  -3    3.71    0.17
  -5 -17   3    3.87    0.17
  -5  17  -3    3.84    0.15
   5 -17  -3    3.83    0.14
  -5  17  -3    4.15    0.17
   5  17   3    4.20    0.16
  -5 -17   3    3.94    0.18
   5  17  -5   20.32    0.66
  -5  17   5   19.73    0.64
  -5 -17  -5   19.86    0.61
  -5 -17  -5   20.51    0.64
   5 -17   5   20.70    0.64
  -5  17   5   19.80    0.66
   5  17   5   20.62    0.63
  -5 -17   5   20.22    0.64
  -5  17  -5   19.83    0.62
  -5 -17   5   19.00    0.66
  -5  17  -5   19.62    0.65
   5 -17  -5   19.80    0.61
  -5  17   7   11.62    0.44
   5 -17   7   12.26    0.43
  -5  17   7   11.46    0.42
   5  17  -7   12.44    0.44
  -5 -17  -7   11.66    0.40
   5 -17  -7   11.99    0.40
  -5 -17   7   12.03    0.43
  -5 -17  -9   11.12    0.41
  -5  17   9   11.63    0.45
   5 -17   9   11.10    0.44
  -5 -17  -9   11.35    0.44
   5  17  -9   11.50    0.44
  -5  17  -9   11.27    0.45
  -5 -17   9   12.03    0.44
   5 -17  -9   11.42    0.41
   5  17 -11    0.27    0.10
  -5 -17 -11    0.32    0.10
  -5 -17 -11    0.45    0.09
  -5  17  11    0.58    0.11
  -5 -17  11    0.53    0.11
  -5  17 -11    0.35    0.12
   5 -17 -11    0.40    0.09
  -5 -17 -13    0.72    0.13
   5  17 -13    0.73    0.15
  -5  17 -13    0.83    0.15
  -5 -17 -15    0.29    0.12
   5  17 -15    0.14    0.14
  -5  17 -15    0.45    0.16
   7  17  -1    7.36    0.27
  -7  17   1    7.18    0.26
  -7  17   1    7.14    0.27
  -7 -17  -1    7.31    0.25
   7 -17   1    6.85    0.24
  -7 -17  -1    7.33    0.26
  -7 -17   1    6.94    0.25
   7 -17  -1    7.13    0.22
  -7  17  -1    6.60    0.25
  -7 -17   1    6.95    0.26
  -7  17  -1    6.93    0.25
   7  17   1    6.86    0.26
  -7  17   3   17.23    0.54
   7  17  -3   16.34    0.55
   7 -17   3   16.64    0.53
  -7 -17  -3   16.68    0.52
  -7 -17  -3   16.28    0.53
  -7  17   3   16.51    0.56
  -7  17  -3   16.47    0.53
   7 -17  -3   16.48    0.49
  -7 -17   3   17.30    0.56
  -7  17  -3   16.20    0.54
  -7 -17   3   16.34    0.53
   7  17  -5    7.07    0.29
  -7  17   5    6.98    0.28
  -7 -17  -5    7.07    0.27
  -7 -17  -5    6.63    0.25
  -7  17   5    7.40    0.29
   7 -17   5    6.57    0.27
  -7 -17   5    6.99    0.27
  -7  17  -5    6.82    0.23
   7  17   5    6.71    0.24
   7 -17  -5    6.85    0.23
  -7 -17   5    6.74    0.29
  -7  17  -5    6.94    0.28
  -7 -17  -7   10.26    0.38
  -7  17   7    9.87    0.38
  -7 -17  -7    9.89    0.35
   7  17  -7   10.21    0.39
   7 -17   7   10.26    0.38
  -7  17   7    9.53    0.40
   7 -17  -7   10.08    0.34
  -7 -17   7    9.44    0.37
  -7  17  -7    9.45    0.38
  -7 -17   7    9.94    0.41
  -7  17   9   -0.01    0.07
  -7 -17  -9    0.03    0.07
   7  17  -9   -0.10    0.07
  -7  17   9    0.06    0.08
  -7 -17  -9    0.01    0.08
  -7 -17   9    0.01    0.06
  -7  17  -9    0.01    0.08
   7  17 -11    1.10    0.14
  -7 -17 -11    1.14    0.15
  -7  17  11    0.96    0.14
  -7  17 -11    0.98    0.15
  -7 -17  11    0.89    0.13
   7  17 -13    0.02    0.09
  -7 -17 -13    0.21    0.11
   7 -17 -13    0.04    0.09
  -7  17 -13   -0.05    0.10
  -9 -17  -1   23.43    0.74
  -9  17   1   24.09    0.77
   9  17  -1   23.59    0.76
  -9 -17  -1   23.71    0.74
   9 -17   1   23.42    0.71
  -9  17   1   23.59    0.75
  -9 -17   1   23.99    0.74
  -9 -17   1   23.20    0.75
   9  17   1   23.73    0.75
  -9  17  -1   23.57    0.75
  -9  17  -1   24.00    0.75
  -9 -17  -3    3.74    0.17
  -9  17   3    3.64    0.18
  -9  17   3    3.27    0.17
  -9 -17  -3    3.50    0.17
   9  17  -3    3.48    0.19
   9 -17   3    3.34    0.15
  -9  17  -3    3.48    0.17
  -9  17  -3    3.57    0.15
  -9 -17   3    3.79    0.19
   9  17   3    3.34    0.15
  -9 -17   3    3.57    0.16
  -9  17   5   17.21    0.58
   9 -17   5   17.40    0.56
  -9 -17  -5   16.47    0.56
  -9 -17  -5   17.52    0.55
  -9  17  -5   16.56    0.57
  -9 -17   5   16.01    0.59
  -9 -17   5   16.23    0.55
  -9  17   7    2.60    0.18
  -9 -17  -7    2.49    0.17
  -9  17   7    2.41    0.18
  -9 -17  -7    2.44    0.15
   9  17  -7    2.57    0.18
  -9 -17   7    2.59    0.20
  -9 -17   7    2.56    0.15
  -9  17  -7    2.49    0.17
  -9  17   9    0.41    0.10
  -9 -17  -9    0.34    0.08
  -9 -17  -9    0.43    0.10
   9  17  -9    0.51    0.11
  -9  17   9    0.37    0.11
  -9 -17   9    0.46    0.09
  -9  17  -9    0.53    0.11
  -9 -17   9    0.47    0.12
  -9  17  11    0.10    0.10
  -9 -17 -11    0.11    0.09
   9  17 -11   -0.07    0.09
  -9  17 -11    0.02    0.09
  -9 -17 -13    0.24    0.11
   9  17 -13   -0.01    0.11
   9 -17 -13    0.16    0.11
  -9  17 -13    0.37    0.14
 -11  17   1    7.08    0.30
 -11  17   1    7.44    0.30
 -11 -17  -1    8.40    0.29
  11  17  -1    7.21    0.30
 -11 -17  -1    7.34    0.29
 -11  17  -1    6.99    0.30
 -11 -17   1    7.46    0.28
 -11 -17   1    7.12    0.31
 -11  17  -1    7.60    0.29
  11  17   1    7.58    0.29
  11  17  -3    9.41    0.36
 -11 -17  -3    9.09    0.34
 -11  17   3    9.02    0.35
 -11  17   3    8.27    0.35
 -11 -17  -3    8.79    0.34
  11  17   3    8.67    0.32
 -11 -17   3    8.91    0.32
 -11  17  -3    8.97    0.32
 -11 -17   3    9.08    0.37
 -11  17  -3    8.67    0.35
 -11  17   5    2.88    0.18
 -11 -17  -5    2.27    0.15
 -11 -17  -5    2.60    0.16
  11  17  -5    2.71    0.18
 -11  17   5    2.36    0.18
 -11  17  -5    2.33    0.17
 -11 -17   5    2.41    0.14
 -11 -17   5    2.36    0.19
  11  17  -7    0.96    0.14
 -11 -17  -7    0.84    0.12
 -11 -17  -7    1.07    0.12
 -11  17   7    1.26    0.15
 -11  17   7    1.05    0.14
 -11 -17   7    0.93    0.15
 -11  17  -7    1.03    0.13
 -11 -17  -9    0.64    0.12
 -11 -17  -9    0.47    0.10
  11  17  -9    0.47    0.11
 -11  17   9    0.63    0.13
 -11  17   9    0.58    0.13
 -11 -17   9    0.49    0.13
 -11  17  -9    0.40    0.11
 -11 -17 -11    0.98    0.14
 -11  17  11    1.11    0.17
  11  17 -11    0.75    0.14
 -11  17 -11    1.06    0.15
 -11 -17 -13    0.10    0.11
  11  17 -13    0.35    0.13
  11 -17 -13    0.44    0.12
 -11  17 -13    0.35    0.14
 -13  17   1    1.59    0.15
 -13 -17  -1    1.85    0.15
 -13 -17  -1    1.78    0.13
 -13  17   1    1.78    0.15
  13  17  -1    1.54    0.14
 -13 -17   1    1.93    0.12
 -13 -17   1    2.00    0.15
 -13  17  -1    1.70    0.14
 -13  17  -1    1.47    0.13
  13  17   1    1.80    0.14
 -13 -17  -3    3.18    0.18
  13  17  -3    3.13    0.20
 -13  17   3    3.06    0.20
 -13  17   3    2.96    0.20
 -13 -17  -3    3.52    0.19
 -13 -17   3    3.11    0.21
 -13  17  -3    3.30    0.20
  13  17  -5    7.05    0.32
 -13 -17  -5    6.72    0.29
 -13 -17  -5    6.81    0.29
 -13  17   5    7.18    0.33
 -13  17   5    6.56    0.32
 -13  17  -5    6.40    0.31
 -13 -17   5    6.71    0.34
 -13  17   7    0.45    0.11
 -13  17   7    0.53    0.12
 -13 -17  -7    0.46    0.10
  13  17  -7    0.56    0.12
 -13 -17  -7    0.57    0.10
 -13  17  -7    0.43    0.10
 -13 -17   7    0.56    0.13
 -13 -17  -9    0.12    0.09
 -13 -17  -9    0.16    0.09
 -13  17   9    0.18    0.10
 -13  17   9    0.11    0.10
  13  17  -9    0.19    0.11
 -13  17  -9    0.05    0.10
 -13 -17   9    0.20    0.13
 -13 -17 -11    1.20    0.16
 -13  17  11    0.89    0.17
  13  17 -11    1.08    0.17
 -13  17 -11    0.96    0.16
  13 -17 -11    0.82    0.14
 -15 -17  -1    2.37    0.18
 -15  17   1    2.37    0.18
 -15  17   1    2.68    0.19
  15  17  -1    2.71    0.18
 -15 -17   1    2.44    0.18
 -15  17  -1    3.62    0.19
 -15  17  -1    2.38    0.19
  15  17   1    2.56    0.17
  15  17  -3    0.03    0.08
 -15 -17  -3    0.06    0.08
 -15 -17  -3    0.09    0.07
 -15  17   3    0.08    0.08
 -15  17   3    0.11    0.09
 -15  17  -3    0.14    0.08
 -15 -17   3    0.05    0.08
 -15  17   5    0.62    0.13
 -15 -17  -5    0.78    0.12
 -15  17   5    0.57    0.12
 -15 -17  -5    0.60    0.11
  15  17  -5    0.51    0.12
 -15  17  -5    0.74    0.12
 -15 -17   5    0.88    0.15
 -15  17   7    0.22    0.11
 -15 -17  -7    0.42    0.10
 -15 -17  -7    0.58    0.12
  15  17  -7    0.72    0.14
 -15  17   7    0.44    0.13
 -15  17  -7    0.83    0.14
 -15 -17   7    0.76    0.15
  15  17  -9    0.02    0.11
 -15  17   9   -0.08    0.11
 -15 -17  -9    0.12    0.10
 -15 -17  -9   -0.07    0.08
 -15  17  -9    0.17    0.11
 -15 -17   9   -0.02    0.12
  15  17 -11   -0.05    0.11
 -15  17  11    0.15    0.13
 -15 -17 -11   -0.06    0.09
 -15  17 -11    0.10    0.12
 -15 -17  11    0.14    0.13
  15 -17 -11    0.04    0.10
 -17 -17  -1    0.06    0.09
 -17  17   1   -0.07    0.08
  17  17  -1   -0.02    0.08
 -17  17   1   -0.09    0.07
 -17 -17   1    0.00    0.08
 -17  17  -1    0.20    0.10
 -17  17   3    0.74    0.13
  17  17  -3    0.68    0.12
 -17  17   3    0.71    0.13
 -17 -17  -3    0.79    0.13
 -17  17  -3    0.89    0.14
 -17 -17   3    1.15    0.17
 -17  17   5    0.84    0.16
 -17  17   5    0.90    0.15
  17  17  -5    0.64    0.14
 -17 -17  -5    0.72    0.13
 -17  17  -5    0.79    0.14
 -17 -17   5    0.70    0.15
 -17 -17  -7    0.95    0.15
 -17  17   7    1.45    0.20
 -17 -17  -7    1.05    0.15
  17  17  -7    1.16    0.17
 -17 -17   7    1.35    0.20
 -17  17  -7    0.98    0.16
 -17 -17  -9    0.18    0.11
  17  17  -9    0.33    0.14
 -17  17   9    0.33    0.14
 -17  17  -9    0.23    0.12
  17 -17  -9    0.10    0.11
 -17 -17   9    0.31    0.15
 -19 -17  -1    0.04    0.10
  19  17  -1    0.21    0.11
 -19  17   1    0.20    0.11
  19 -17  -1    0.10    0.09
 -19  17  -1    0.15    0.10
 -19 -17   1    0.07    0.10
 -19 -17  -3    0.01    0.10
  19  17  -3   -0.13    0.09
 -19  17   3    0.17    0.11
 -19  17  -3   -0.07    0.10
 -19 -17   3    0.08    0.11
  19  17  -5   -0.09    0.10
 -19 -17  -5    0.18    0.11
 -19  17   5    0.14    0.12
 -19  17  -5    0.05    0.11
  19 -17  -5    0.05    0.10
 -19 -17   5    0.04    0.12
  19  17  -7    0.44    0.14
 -19 -17  -7    0.28    0.12
 -19  17   7    0.73    0.17
  19 -17  -7    0.42    0.13
 -19 -17   7    0.12    0.13
 -19  17  -7    0.26    0.14
 -19  17   9    0.19    0.15
 -21  17   1   -0.05    0.11
 -21 -17  -1   -0.04    0.11
 -21 -17   1   -0.05    0.11
 -21  17  -1   -0.04    0.11
 -21  17   3    0.33    0.14
 -21 -17  -3    0.24    0.12
  21  17  -3    0.02    0.11
 -21 -17   3    0.26    0.14
  21 -17  -3    0.25    0.11
 -21  17  -3   -0.12    0.11
  21  17  -5    0.07    0.12
 -21  17   5    0.12    0.13
 -21 -17  -5    0.18    0.12
 -21  17  -5    0.07    0.12
  21 -17  -5    0.01    0.11
 -21 -17   5    0.03    0.13
 -21 -17  -7    0.06    0.11
   0 -18   0    0.08    0.02
   0  18   0    0.04    0.02
   0  18  -2  140.82    4.05
   0 -18  -2  142.79    4.04
   0  18  -2  138.85    4.18
   0  18  -4    0.10    0.05
   0 -18  -4    0.00    0.04
   0  18  -4    0.11    0.04
   0  18   4    0.06    0.04
   0 -18   4    0.00    0.04
   0 -18  -4    0.01    0.03
   0  18   6    8.95    0.33
   0  18  -6    9.26    0.33
   0 -18   6    9.26    0.34
   0 -18  -6    9.21    0.31
   0 -18  -6    9.57    0.33
   0  18  -6    8.98    0.34
   0 -18  -8    0.06    0.07
   0 -18   8   -0.01    0.06
   0 -18  -8    0.02    0.06
   0  18   8   -0.01    0.06
   0  18  -8    0.01    0.06
   0  18  -8   -0.07    0.06
   0  18 -10    1.89    0.15
   0 -18  10    2.18    0.17
   0  18 -10    2.20    0.18
   0 -18 -10    2.18    0.17
   0 -18 -10    2.32    0.16
   0  18 -12    0.09    0.11
   0 -18 -12   -0.13    0.07
   0 -18  12   -0.03    0.07
   0  18 -14    1.83    0.21
   0 -18 -14    1.18    0.16
  -2  18   0   24.81    0.77
  -2 -18   0   25.61    0.73
   2 -18   0   23.90    0.74
  -2  18   0   24.90    0.73
   2  18  -2   24.47    0.76
   2 -18   2   24.52    0.74
  -2  18   2   24.25    0.71
  -2 -18  -2   24.22    0.70
   2  18   2   24.03    0.75
  -2  18  -2   24.31    0.73
  -2  18  -2   24.28    0.75
   2 -18  -2   24.11    0.73
  -2  18   4    1.94    0.11
   2  18  -4    1.94    0.11
   2 -18   4    1.95    0.11
  -2 -18  -4    1.87    0.08
  -2  18   4    1.84    0.09
  -2 -18  -4    1.86    0.10
   2 -18  -4    2.00    0.10
  -2 -18   4    1.93    0.11
  -2  18  -4    1.86    0.11
  -2  18  -4    1.89    0.10
   2  18  -6    1.50    0.11
  -2 -18  -6    1.27    0.08
  -2  18   6    1.29    0.11
  -2 -18  -6    1.43    0.11
  -2 -18   6    1.47    0.11
  -2  18  -6    1.33    0.09
   2  18   6    1.31    0.09
  -2  18  -6    1.30    0.12
   2 -18  -6    1.29    0.10
  -2  18   8    0.90    0.11
   2 -18   8    0.82    0.11
   2  18  -8    1.03    0.10
  -2 -18  -8    0.71    0.09
  -2 -18  -8    0.85    0.11
  -2  18  -8    0.88    0.09
   2 -18  -8    0.85    0.10
  -2  18  -8    0.81    0.12
   2  18   8    1.01    0.09
  -2 -18   8    0.88    0.11
  -2 -18 -10    2.63    0.16
   2 -18  10    2.70    0.19
   2  18 -10    2.91    0.18
  -2 -18 -10    2.61    0.19
   2  18 -10    2.73    0.21
  -2  18  10    2.83    0.18
  -2  18 -10    2.75    0.20
   2 -18 -10    2.65    0.17
   2 -18 -10    2.91    0.17
  -2 -18  10    2.23    0.17
   2  18 -12    0.69    0.14
  -2 -18 -12    0.66    0.12
   2 -18 -12    0.71    0.12
  -2  18 -12    0.68    0.14
  -2 -18  12    0.58    0.11
  -2 -18 -14    1.02    0.16
   2  18 -14    0.82    0.16
  -2  18 -14    0.48    0.15
   2 -18 -14    0.72    0.13
  -4  18   0    4.47    0.17
  -4 -18   0    4.26    0.16
  -4 -18   0    3.54    0.16
   4 -18   0    4.38    0.15
  -4 -18  -2   23.03    0.70
  -4  18   2   23.33    0.69
   4 -18   2   23.09    0.70
  -4 -18  -2   22.98    0.68
  -4  18  -2   23.36    0.71
  -4 -18   2   22.79    0.71
   4 -18  -2   22.55    0.68
   4  18   2   22.14    0.71
  -4 -18   2   22.63    0.70
  -4 -18  -4    2.77    0.11
  -4 -18  -4    2.52    0.13
  -4  18   4    2.94    0.15
  -4  18   4    2.90    0.13
   4  18  -4    2.64    0.15
   4 -18   4    3.01    0.15
  -4  18  -4    2.93    0.12
  -4 -18   4    3.01    0.14
  -4 -18   4    2.83    0.15
   4 -18  -4    2.79    0.12
  -4  18  -4    2.87    0.14
   4  18   4    2.96    0.12
  -4  18   6   11.44    0.41
  -4 -18  -6   11.08    0.37
   4  18  -6   10.92    0.40
  -4  18   6   11.73    0.39
   4 -18   6   11.43    0.40
   4 -18  -6   11.16    0.37
  -4  18  -6   10.91    0.41
  -4 -18   6   10.96    0.40
  -4  18  -6   11.13    0.37
  -4 -18  -8    2.58    0.14
  -4 -18  -8    2.48    0.17
   4  18  -8    2.69    0.17
   4 -18   8    2.26    0.16
  -4  18   8    2.00    0.16
  -4  18  -8    2.48    0.17
  -4 -18   8    2.41    0.16
   4 -18  -8    2.44    0.15
  -4 -18 -10    0.25    0.08
  -4 -18 -10    0.26    0.09
   4 -18  10    0.09    0.08
  -4  18  10    0.17    0.08
   4  18 -10    0.09    0.08
  -4 -18  10    0.24    0.08
  -4  18 -10    0.19    0.10
   4 -18 -10    0.16    0.08
   4  18 -12    0.14    0.11
  -4 -18 -12   -0.12    0.08
  -4  18  12   -0.02    0.08
   4  18 -12    0.13    0.09
  -4  18 -12    0.05    0.10
  -4 -18  12    0.00    0.07
   4 -18 -12    0.11    0.09
  -4 -18 -14    0.44    0.13
   4  18 -14    0.17    0.13
  -4  18 -14    0.07    0.13
   6  18   0   11.30    0.39
  -6 -18   0   11.63    0.38
  -6  18   0   11.26    0.37
  -6 -18   0   11.30    0.37
  -6  18   0   11.31    0.38
   6 -18   0   11.29    0.35
  -6  18   2    1.64    0.10
  -6 -18  -2    1.38    0.08
  -6  18   2    1.18    0.08
  -6 -18  -2    1.61    0.10
   6  18  -2    1.65    0.10
   6 -18   2    1.54    0.09
  -6  18  -2    1.27    0.08
  -6 -18   2    1.77    0.10
  -6 -18   2    1.61    0.11
   6 -18  -2    1.45    0.07
  -6  18  -2    1.46    0.10
   6 -18   4    1.66    0.11
  -6  18   4    1.68    0.11
  -6 -18  -4    1.53    0.10
  -6 -18  -4    1.62    0.09
   6  18  -4    1.54    0.11
  -6  18   4    1.59    0.10
  -6 -18   4    1.73    0.11
   6  18   4    1.69    0.09
  -6  18  -4    1.63    0.08
  -6 -18   4    1.69    0.12
   6 -18  -4    1.48    0.08
  -6  18  -4    1.46    0.10
  -6  18   6    4.97    0.23
   6  18  -6    4.69    0.22
  -6  18   6    4.81    0.22
   6 -18   6    4.60    0.22
  -6 -18  -6    4.93    0.22
  -6 -18  -6    4.66    0.19
  -6  18  -6    5.04    0.18
  -6 -18   6    4.92    0.25
   6  18   6    4.95    0.18
   6 -18  -6    4.71    0.19
  -6 -18   6    4.69    0.21
   6  18  -8    6.52    0.29
  -6 -18  -8    6.21    0.26
  -6  18   8    6.23    0.29
   6 -18   8    6.80    0.29
  -6  18   8    6.20    0.29
  -6 -18  -8    6.55    0.29
  -6 -18   8    6.55    0.28
  -6  18  -8    6.77    0.30
   6 -18  -8    6.49    0.25
  -6 -18 -10    3.18    0.18
  -6 -18 -10    3.24    0.21
  -6  18  10    3.20    0.21
   6  18 -10    3.13    0.20
   6 -18 -10    3.12    0.18
  -6 -18  10    3.34    0.20
  -6  18 -10    3.30    0.21
  -6 -18 -12    1.29    0.16
   6  18 -12    1.39    0.16
  -6  18  12    1.28    0.16
  -6 -18  12    1.14    0.14
  -6  18 -12    0.95    0.16
   6  18 -14    0.29    0.14
  -6 -18 -14    0.33    0.12
  -6  18 -14    0.40    0.14
  -8 -18   0    3.82    0.17
  -8 -18   0    3.96    0.18
  -8  18   0    4.09    0.18
   8 -18   0    4.09    0.14
  -8  18   0    3.94    0.18
   8  18   0    3.91    0.18
   8 -18   2    0.42    0.05
  -8  18   2    0.58    0.08
  -8 -18  -2    0.57    0.07
   8  18  -2    0.38    0.07
  -8  18   2    0.47    0.07
  -8 -18  -2    0.43    0.06
  -8  18  -2    0.40    0.06
  -8 -18   2    0.55    0.07
  -8 -18   2    0.46    0.07
  -8  18  -2    0.55    0.07
   8  18   2    0.50    0.06
   8 -18  -2    0.54    0.03
   8 -18   4    9.82    0.35
  -8 -18  -4   10.27    0.36
  -8 -18  -4   10.47    0.35
  -8  18   4   10.28    0.37
  -8  18  -4   10.17    0.34
  -8 -18   4    9.91    0.36
   8 -18  -4   10.37    0.31
  -8 -18   4   10.05    0.39
  -8  18  -4   10.28    0.37
   8  18  -6    7.83    0.32
  -8 -18  -6    7.79    0.29
   8 -18   6    7.62    0.31
  -8  18   6    7.61    0.32
  -8  18   6    7.77    0.33
  -8 -18  -6    7.69    0.31
  -8  18  -6    7.96    0.32
  -8 -18   6    7.83    0.30
  -8 -18   6    7.58    0.34
  -8  18   8    1.66    0.16
  -8 -18  -8    1.56    0.15
  -8 -18  -8    1.78    0.14
  -8  18   8    1.70    0.17
   8  18  -8    1.88    0.17
  -8 -18   8    1.52    0.17
  -8 -18   8    1.66    0.14
  -8  18  -8    1.46    0.15
  -8  18  10    1.15    0.15
   8  18 -10    0.88    0.13
  -8 -18 -10    1.11    0.12
  -8 -18 -10    1.04    0.13
  -8 -18  10    1.04    0.13
  -8  18 -10    1.12    0.15
  -8  18  12    0.74    0.14
  -8 -18 -12    0.82    0.13
   8  18 -12    0.80    0.14
  -8  18 -12    0.76    0.15
  -8 -18 -14    0.01    0.10
  -8  18 -14    0.20    0.14
 -10 -18   0    2.77    0.14
 -10  18   0    2.54    0.15
 -10 -18   0    2.59    0.15
  10  18   0    2.43    0.14
 -10  18   0    2.63    0.15
 -10 -18  -2    4.20    0.20
 -10  18   2    4.25    0.21
 -10 -18  -2    4.53    0.20
  10  18  -2    4.40    0.21
  10 -18   2    4.16    0.17
 -10  18   2    4.51    0.21
 -10 -18   2    4.56    0.22
  10  18   2    4.54    0.20
 -10 -18   2    4.40    0.19
 -10  18  -2    4.53    0.19
 -10  18  -2    4.73    0.21
 -10 -18  -4    5.53    0.23
 -10  18   4    5.33    0.26
 -10  18   4    5.32    0.25
 -10 -18  -4    5.36    0.23
  10  18  -4    4.93    0.25
  10  18   4    4.94    0.20
 -10 -18   4    5.42    0.22
 -10 -18   4    5.50    0.27
 -10  18  -4    5.26    0.25
 -10  18  -4    5.13    0.20
  10  18  -6    5.92    0.28
 -10  18   6    6.12    0.28
 -10 -18  -6    6.09    0.27
 -10 -18  -6    5.92    0.25
 -10  18   6    6.12    0.29
 -10 -18   6    5.97    0.30
 -10 -18   6    6.08    0.25
 -10  18  -6    5.78    0.27
 -10 -18  -8    0.38    0.10
 -10  18   8    0.50    0.11
  10  18  -8    0.25    0.10
 -10  18   8    0.46    0.11
 -10 -18  -8    0.38    0.09
 -10 -18   8    0.40    0.08
 -10 -18   8    0.46    0.12
 -10  18  -8    0.41    0.11
  10  18 -10    0.09    0.09
 -10  18  10    0.05    0.09
 -10  18  10    0.09    0.09
 -10 -18 -10    0.25    0.10
 -10 -18 -10    0.18    0.08
 -10  18 -10    0.03    0.10
  10  18 -12    0.14    0.11
 -10 -18 -12    0.10    0.10
 -10  18 -12    0.34    0.13
  10  18 -14    0.11    0.13
  10 -18 -14    0.06    0.11
 -12  18   0    8.45    0.34
 -12  18   0    8.30    0.34
 -12 -18   0    8.74    0.34
 -12 -18   0    8.58    0.32
  12  18   0    8.59    0.33
  12  18  -2   15.00    0.53
 -12  18   2   14.61    0.52
 -12 -18  -2   14.22    0.49
 -12 -18  -2   14.82    0.51
 -12  18   2   14.60    0.53
 -12 -18   2   14.50    0.49
 -12 -18   2   14.36    0.53
 -12  18  -2   14.82    0.50
  12  18   2   14.70    0.50
 -12  18  -2   14.12    0.52
 -12  18   4    0.74    0.11
  12  18  -4    0.57    0.11
 -12  18   4    0.80    0.12
 -12 -18  -4    0.80    0.10
 -12 -18  -4    0.75    0.10
 -12  18  -4    0.78    0.12
 -12 -18   4    0.71    0.08
 -12 -18   4    0.52    0.11
  12  18  -6    1.62    0.16
 -12 -18  -6    1.82    0.14
 -12  18   6    1.84    0.18
 -12  18   6    1.69    0.17
 -12 -18  -6    1.68    0.15
 -12  18  -6    1.69    0.16
 -12 -18   6    1.60    0.18
 -12 -18  -8    1.33    0.15
  12  18  -8    1.42    0.16
 -12  18   8    1.50    0.17
 -12  18   8    1.30    0.16
 -12 -18  -8    1.44    0.14
 -12 -18   8    1.42    0.18
 -12  18  -8    1.22    0.15
 -12 -18 -10    0.30    0.10
  12  18 -10    0.26    0.11
 -12  18  10    0.20    0.12
 -12  18  10    0.12    0.11
 -12  18 -10    0.31    0.12
 -12 -18  10    0.38    0.13
 -12 -18 -12    0.22    0.11
  12  18 -12    0.36    0.14
  12 -18 -12    0.43    0.12
 -12  18 -12    0.45    0.14
 -14  18   0    0.46    0.09
 -14  18   0    0.28    0.09
  14  18   0    0.27    0.08
 -14 -18   0    0.43    0.08
 -14 -18   0    0.23    0.09
 -14 -18  -2    1.43    0.14
 -14  18   2    1.33    0.15
 -14 -18  -2    1.35    0.12
  14  18  -2    1.25    0.14
 -14  18   2    1.56    0.15
  14  18   2    1.44    0.12
 -14 -18   2    1.43    0.15
 -14  18  -2    1.75    0.16
 -14  18  -2    1.40    0.12
 -14 -18  -4    0.44    0.10
 -14  18   4    0.42    0.11
 -14 -18  -4    0.35    0.09
 -14  18   4    0.38    0.10
  14  18  -4    0.24    0.09
 -14 -18   4    0.43    0.11
 -14  18  -4    0.23    0.09
 -14  18   6    2.55    0.20
 -14  18   6    2.42    0.20
  14  18  -6    2.57    0.20
 -14 -18  -6    2.67    0.18
 -14 -18  -6    2.27    0.17
 -14 -18   6    2.16    0.22
 -14  18  -6    2.32    0.18
 -14 -18  -8    1.16    0.14
 -14  18   8    0.98    0.15
  14  18  -8    0.87    0.15
 -14  18   8    1.56    0.18
 -14 -18  -8    1.11    0.14
 -14 -18   8    1.09    0.17
 -14  18  -8    1.04    0.15
 -14 -18 -10    1.47    0.17
  14  18 -10    1.41    0.18
 -14  18  10    1.46    0.20
 -14 -18  10    1.58    0.22
 -14  18 -10    1.49    0.19
 -14 -18 -12    0.21    0.12
  14  18 -12   -0.09    0.11
  14 -18 -12    0.12    0.11
  16  18   0    1.97    0.16
 -16  18   0    1.88    0.16
 -16 -18   0    1.99    0.18
 -16  18   0    2.14    0.19
  16  18  -2    0.08    0.08
 -16 -18  -2    0.11    0.08
 -16  18   2    0.15    0.09
 -16  18   2    0.08    0.09
 -16  18  -2    0.04    0.09
 -16 -18   2    0.17    0.10
  16  18  -4   -0.03    0.09
 -16 -18  -4    0.16    0.08
 -16 -18  -4    0.04    0.09
 -16  18   4    0.04    0.08
 -16  18   4    0.15    0.09
 -16 -18   4    0.06    0.10
 -16  18  -4    0.03    0.09
 -16 -18  -6    0.33    0.11
 -16  18   6    0.34    0.12
  16  18  -6    0.47    0.12
 -16 -18  -6    0.51    0.11
 -16  18   6    0.37    0.12
 -16 -18   6    0.60    0.15
 -16  18  -6    0.43    0.12
 -16  18   8    1.37    0.20
  16  18  -8    1.28    0.17
 -16  18   8    1.17    0.17
 -16 -18  -8    1.20    0.15
 -16 -18  -8    1.43    0.16
 -16  18  -8    1.28    0.17
 -16 -18   8    1.43    0.20
 -16 -18 -10    0.17    0.11
  16  18 -10    0.08    0.12
 -16  18  10    0.23    0.14
 -16 -18  10    0.12    0.14
 -16  18 -10    0.13    0.12
  16 -18 -10    0.39    0.13
 -18 -18   0   -0.05    0.09
 -18  18   0   -0.07    0.07
 -18  18   0   -0.06    0.09
 -18  18   2    1.25    0.17
 -18  18   2    0.89    0.14
 -18 -18  -2    1.05    0.15
  18  18  -2    1.00    0.14
 -18  18  -2    0.88    0.15
 -18 -18   2    1.18    0.17
 -18  18   4    0.10    0.11
 -18  18   4    0.07    0.10
  18  18  -4    0.02    0.10
 -18 -18  -4   -0.07    0.09
 -18 -18   4   -0.05    0.09
 -18  18  -4   -0.03    0.10
 -18 -18  -6    1.05    0.16
 -18  18   6    1.23    0.18
  18  18  -6    1.01    0.16
 -18 -18   6    0.91    0.18
 -18  18  -6    1.37    0.18
 -18 -18  -8    0.03    0.10
  18  18  -8    0.13    0.12
 -18  18   8    0.08    0.13
 -18 -18   8    0.01    0.12
 -18  18  -8   -0.19    0.10
  18 -18  -8    0.10    0.11
 -18  18  10    0.00    0.13
 -20  18   0    1.00    0.16
 -20 -18   0    0.85    0.16
 -20 -18  -2    0.06    0.10
 -20  18   2    0.07    0.12
  20  18  -2   -0.06    0.10
 -20  18  -2    0.10    0.12
  20 -18  -2   -0.02    0.09
 -20 -18   2    0.09    0.12
  20  18  -4    0.70    0.15
 -20  18   4    1.27    0.19
 -20 -18  -4    0.83    0.16
  20 -18  -4    1.19    0.17
 -20  18  -4    1.10    0.18
 -20 -18   4    1.28    0.20
  20  18  -6   -0.13    0.11
 -20  18   6    0.14    0.13
 -20 -18  -6    0.10    0.11
 -20 -18   6    0.07    0.13
  20 -18  -6   -0.04    0.09
 -20  18  -6    0.01    0.12
 -22 -18   0    0.36    0.14
 -22  18   0    0.33    0.15
 -22  18   2    0.13    0.14
 -22 -18  -2    0.38    0.14
 -22 -18   2    0.05    0.12
 -22  18  -2    0.31    0.14
 -22 -18  -4    0.27    0.13
  22  18  -4    0.06    0.12
 -22  18   4    0.11    0.14
  22 -18  -4    0.27    0.13
  -1  19   1    0.27    0.02
   1 -19   1    0.11    0.03
  -1 -19  -1    0.26    0.04
   1  19   1    0.20    0.04
  -1  19  -1    0.20    0.04
  -1  19  -1    0.30    0.03
   1 -19   3   15.21    0.49
  -1 -19  -3   15.06    0.44
   1  19  -3   15.25    0.49
  -1 -19  -3   14.78    0.48
  -1  19   3   15.24    0.49
  -1 -19   3   15.76    0.49
  -1  19  -3   15.14    0.49
   1 -19  -3   15.09    0.47
  -1  19   5    2.06    0.11
   1  19  -5    1.88    0.12
  -1 -19  -5    1.92    0.11
  -1 -19  -5    1.80    0.09
   1 -19  -5    1.98    0.11
   1  19   5    2.01    0.11
  -1  19  -5    1.74    0.12
  -1 -19   5    1.89    0.12
  -1  19  -5    1.84    0.11
   1  19  -7   30.99    0.97
  -1  19   7   30.82    0.98
  -1 -19  -7   29.79    0.93
  -1 -19  -7   31.11    0.96
  -1 -19   7   31.67    0.97
  -1  19  -7   30.13    0.96
   1  19   7   31.55    0.97
   1 -19  -7   29.52    0.93
   1 -19  -7   31.24    0.95
  -1 -19  -9    0.90    0.10
  -1  19   9    0.77    0.10
   1  19  -9    0.76    0.10
   1 -19   9    0.69    0.11
   1  19  -9    0.52    0.11
  -1 -19  -9    0.76    0.11
  -1  19  -9    0.57    0.11
  -1  19  -9    0.86    0.10
   1  19   9    0.76    0.10
  -1 -19   9    0.73    0.11
   1 -19  -9    0.78    0.10
   1 -19  -9    0.72    0.11
   1  19 -11    0.72    0.14
  -1 -19 -11    0.71    0.12
   1 -19  11    0.61    0.11
   1 -19 -11    0.75    0.12
  -1 -19  11    0.80    0.12
  -1  19 -11    0.72    0.14
  -1 -19 -13    0.81    0.13
   1  19 -13    0.64    0.15
  -1  19 -13    0.62    0.15
   1 -19 -13    0.52    0.12
  -1 -19 -15    0.19    0.11
   1  19 -15    0.22    0.13
   1 -19 -15    0.10    0.11
  -1  19 -15    0.10    0.13
  -3  19   1   34.40    1.00
  -3 -19  -1   34.57    1.00
   3 -19   1   34.30    1.02
  -3  19   1   32.09    1.05
  -3  19  -1   35.71    1.01
   3 -19  -1   33.68    1.01
  -3  19  -1   34.92    1.05
  -3 -19   1   34.86    1.02
  -3 -19  -3   31.61    0.90
   3  19  -3   30.41    0.96
   3 -19   3   30.69    0.93
  -3  19   3   29.95    0.96
  -3  19   3   31.36    0.91
   3 -19  -3   30.65    0.91
  -3 -19   3   30.10    0.94
  -3 -19   3   31.36    0.94
  -3  19  -3   31.24    0.93
  -3  19  -3   30.74    0.95
  -3 -19  -5   24.91    0.75
   3  19  -5   25.29    0.80
  -3 -19  -5   25.23    0.78
  -3  19   5   24.23    0.81
   3 -19   5   25.27    0.79
  -3  19  -5   25.32    0.78
   3 -19  -5   25.66    0.76
  -3  19  -5   25.68    0.79
  -3 -19   5   24.78    0.79
  -3 -19  -7    2.17    0.12
  -3  19   7    2.51    0.16
   3  19  -7    2.45    0.15
  -3 -19  -7    2.70    0.16
   3 -19  -7    2.26    0.14
  -3  19  -7    2.41    0.13
  -3 -19   7    2.48    0.16
   3  19   7    2.38    0.13
  -3  19   9    0.14    0.08
  -3 -19  -9    0.27    0.10
   3 -19   9    0.28    0.09
  -3 -19  -9    0.19    0.07
   3  19  -9    0.22    0.08
  -3  19  -9    0.16    0.09
  -3 -19   9    0.14    0.07
   3 -19  -9    0.07    0.07
  -3  19  11    0.07    0.08
   3 -19  11    0.12    0.08
   3  19 -11    0.03    0.08
   3  19 -11    0.20    0.11
  -3 -19 -11    0.25    0.10
  -3  19 -11    0.11    0.10
   3 -19 -11    0.14    0.08
  -3 -19  11    0.13    0.08
   3 -19 -11    0.15    0.09
   3  19 -13    0.72    0.15
  -3 -19 -13    0.76    0.13
  -3 -19  13    0.70    0.13
   3 -19 -13    0.53    0.12
  -3  19 -13    0.50    0.15
  -3 -19 -15    0.12    0.11
   3  19 -15    0.04    0.13
  -3  19 -15   -0.21    0.11
  -5 -19  -1   17.20    0.55
  -5  19   1   17.69    0.58
   5 -19   1   18.45    0.56
  -5  19   1   18.41    0.56
   5  19  -1   18.29    0.59
  -5 -19  -1   18.08    0.57
  -5 -19   1   18.31    0.57
  -5  19  -1   18.17    0.58
  -5 -19   1   18.17    0.57
   5 -19  -1   17.90    0.54
  -5  19   3    0.57    0.07
  -5 -19  -3    0.93    0.06
   5 -19   3    0.71    0.07
  -5 -19  -3    0.81    0.08
   5 -19  -3    0.90    0.06
  -5 -19   3    0.89    0.08
  -5  19  -3    0.80    0.06
  -5 -19   3    0.86    0.09
  -5  19  -3    0.85    0.08
  -5  19   5    0.71    0.09
  -5 -19  -5    0.94    0.09
  -5  19   5    0.94    0.09
   5 -19   5    0.86    0.09
  -5 -19  -5    0.93    0.08
   5  19  -5    0.87    0.09
   5  19   5    0.68    0.06
  -5 -19   5    0.86    0.10
  -5  19  -5    0.89    0.10
  -5  19  -5    1.06    0.07
   5 -19  -5    0.91    0.07
   5  19  -7    5.94    0.26
   5 -19   7    5.81    0.26
  -5  19   7    5.90    0.25
  -5  19   7    5.80    0.26
  -5 -19  -7    5.54    0.22
  -5 -19   7    5.44    0.25
   5 -19  -7    5.80    0.23
  -5  19  -7    4.76    0.25
  -5  19  -7    5.87    0.21
   5 -19   9    1.92    0.17
  -5 -19  -9    1.51    0.15
   5  19  -9    1.54    0.15
  -5 -19  -9    1.64    0.13
  -5  19   9    1.89    0.16
  -5 -19   9    2.27    0.16
   5 -19  -9    1.70    0.14
  -5  19  -9    1.99    0.18
  -5 -19 -11    1.13    0.14
   5  19 -11    0.94    0.13
  -5  19  11    1.06    0.14
  -5  19 -11    1.06    0.16
   5 -19 -11    1.10    0.12
  -5 -19  11    0.70    0.12
   5  19 -13    0.24    0.13
  -5 -19 -13    0.32    0.12
  -5  19 -13    0.50    0.13
  -5 -19  13    0.54    0.12
  -7 -19  -1    5.18    0.19
   7  19  -1    4.88    0.21
  -7  19   1    4.99    0.21
  -7  19   1    4.67    0.19
  -7 -19  -1    4.90    0.20
   7 -19   1    4.75    0.18
   7 -19  -1    5.08    0.17
  -7  19  -1    4.85    0.19
   7  19   1    4.95    0.20
  -7 -19   1    4.87    0.20
  -7  19  -1    4.74    0.20
  -7 -19   1    5.44    0.21
   7  19  -3    0.65    0.08
  -7 -19  -3    0.69    0.08
   7 -19   3    0.52    0.07
  -7 -19  -3    0.61    0.06
  -7  19   3    0.71    0.08
  -7  19   3    0.62    0.08
  -7  19  -3    0.63    0.06
   7 -19  -3    0.73    0.05
  -7  19  -3    0.82    0.08
  -7 -19   3    0.60    0.08
  -7 -19   3    0.61    0.07
   7 -19   5    7.89    0.30
  -7 -19  -5    7.69    0.28
  -7  19   5    7.73    0.30
   7  19  -5    7.36    0.31
  -7 -19  -5    8.15    0.31
  -7  19   5    7.52    0.31
   7 -19  -5    7.90    0.26
  -7  19  -5    7.95    0.31
  -7  19  -5    7.89    0.27
  -7 -19   5    8.38    0.33
  -7 -19   5    7.75    0.29
   7  19   5    7.37    0.27
  -7  19   7    4.07    0.22
  -7 -19  -7    4.19    0.19
  -7 -19  -7    4.20    0.21
   7  19  -7    3.90    0.21
  -7  19   7    4.01    0.21
   7 -19   7    4.12    0.21
  -7 -19   7    4.10    0.24
  -7 -19   7    4.20    0.20
   7 -19  -7    4.04    0.17
  -7  19  -7    3.94    0.21
  -7 -19  -9    0.63    0.11
  -7 -19  -9    0.62    0.09
   7  19  -9    0.56    0.11
  -7  19   9    0.67    0.11
  -7  19   9    0.54    0.11
   7 -19   9    0.52    0.10
  -7 -19   9    0.72    0.11
  -7  19  -9    0.45    0.11
   7  19 -11    1.97    0.18
  -7 -19 -11    1.82    0.18
  -7  19  11    1.84    0.19
  -7 -19  11    2.04    0.18
  -7  19 -11    1.84    0.19
   7  19 -13    0.14    0.11
  -7 -19 -13    0.27    0.11
   7 -19 -13    0.12    0.10
  -7  19 -13    0.28    0.13
   9  19  -1    2.62    0.15
  -9 -19  -1    2.63    0.14
  -9  19   1    2.88    0.15
  -9 -19  -1    2.91    0.15
   9 -19   1    2.81    0.12
  -9  19   1    2.84    0.15
  -9  19  -1    2.50    0.14
  -9  19  -1    2.67    0.15
   9 -19  -1    2.73    0.10
   9  19   1    2.51    0.14
  -9 -19   1    2.84    0.16
  -9 -19   1    2.71    0.14
  -9  19   3   10.79    0.39
  -9 -19  -3   10.91    0.38
  -9 -19  -3   10.82    0.39
  -9  19   3   10.97    0.41
   9  19  -3   10.83    0.41
   9 -19   3   11.20    0.37
  -9 -19   3   10.72    0.38
  -9 -19   3   11.11    0.41
  -9  19  -3   10.82    0.39
   9  19   3   11.14    0.38
  -9  19  -3   11.31    0.37
  -9 -19  -5   10.35    0.36
  -9  19   5   10.05    0.38
  -9 -19  -5    9.70    0.37
   9 -19   5    9.79    0.36
  -9 -19   5   10.34    0.41
  -9 -19   5    9.92    0.36
  -9  19  -5   10.13    0.38
   9 -19   7    7.99    0.33
  -9  19   7    7.55    0.35
  -9  19   7    8.80    0.35
  -9 -19  -7    8.50    0.31
   9  19  -7    8.11    0.35
  -9 -19  -7    7.45    0.33
  -9  19  -7    7.99    0.35
  -9 -19   7    8.64    0.33
  -9 -19   7    8.28    0.38
   9  19  -9    1.87    0.18
  -9  19   9    2.45    0.19
  -9 -19  -9    1.76    0.16
  -9 -19  -9    2.14    0.15
  -9  19   9    2.24    0.18
  -9  19  -9    1.72    0.17
  -9 -19   9    2.02    0.15
   9  19 -11    0.36    0.12
  -9 -19 -11    0.45    0.11
  -9  19  11    0.48    0.12
  -9  19 -11    0.67    0.14
   9  19 -13    0.01    0.11
  -9 -19 -13    0.10    0.10
  -9  19 -13    0.21    0.13
   9 -19 -13    0.16    0.11
 -11  19   1    2.68    0.16
 -11 -19  -1    2.77    0.15
 -11  19   1    2.47    0.16
 -11 -19  -1    2.95    0.16
  11  19  -1    2.52    0.17
  11  19   1    2.41    0.15
 -11 -19   1    2.99    0.18
 -11  19  -1    2.85    0.17
 -11  19  -1    2.79    0.15
 -11 -19   1    2.72    0.15
  11  19  -3    4.67    0.23
 -11 -19  -3    4.09    0.20
 -11  19   3    4.49    0.23
 -11 -19  -3    4.16    0.21
 -11  19   3    4.16    0.22
 -11 -19   3    4.35    0.23
 -11  19  -3    4.70    0.19
  11  19   3    3.84    0.19
 -11 -19   3    4.38    0.20
 -11  19  -3    4.17    0.22
 -11 -19  -5    5.93    0.26
  11  19  -5    6.01    0.29
 -11  19   5    6.12    0.29
 -11  19   5    6.11    0.28
 -11 -19  -5    6.25    0.27
 -11  19  -5    5.83    0.27
 -11 -19   5    6.20    0.25
 -11 -19   5    5.59    0.29
 -11 -19  -7    0.59    0.11
 -11  19   7    0.58    0.11
 -11  19   7    0.63    0.12
 -11 -19  -7    0.73    0.10
  11  19  -7    0.38    0.11
 -11  19  -7    0.58    0.11
 -11 -19   7    0.81    0.14
  11  19  -9    0.15    0.10
 -11 -19  -9    0.09    0.08
 -11  19   9    0.19    0.10
 -11 -19  -9    0.20    0.08
 -11  19   9    0.20    0.10
 -11  19  -9    0.07    0.09
 -11 -19   9    0.24    0.11
 -11 -19 -11    0.66    0.13
 -11  19  11    0.57    0.14
  11  19 -11    0.75    0.14
 -11  19 -11    0.52    0.13
  11  19 -13    1.09    0.17
 -11 -19 -13    1.01    0.16
  11 -19 -13    0.69    0.14
 -11  19 -13    0.57    0.15
 -13 -19  -1    0.04    0.07
  13  19  -1   -0.01    0.07
 -13 -19  -1   -0.04    0.05
 -13  19   1   -0.03    0.06
 -13  19   1    0.03    0.07
  13  19   1   -0.04    0.06
 -13 -19   1    0.02    0.07
 -13 -19   1    0.20    0.06
 -13  19  -1    0.03    0.06
 -13  19  -1    0.03    0.07
 -13  19   3    0.42    0.09
  13  19  -3    0.16    0.09
 -13  19   3    0.27    0.09
 -13 -19  -3    0.46    0.09
 -13 -19  -3    0.29    0.08
 -13  19  -3    0.41    0.10
 -13 -19   3    0.34    0.10
 -13  19   5    0.49    0.11
 -13 -19  -5    0.43    0.09
 -13 -19  -5    0.34    0.09
  13  19  -5    0.29    0.10
 -13  19   5    0.19    0.09
 -13 -19   5    0.45    0.11
 -13  19  -5    0.36    0.10
 -13  19   7    3.09    0.22
  13  19  -7    2.86    0.21
 -13  19   7    2.70    0.21
 -13 -19  -7    2.70    0.19
 -13 -19  -7    2.46    0.18
 -13 -19   7    3.11    0.23
 -13  19  -7    2.56    0.20
 -13  19   9    1.31    0.17
 -13 -19  -9    1.20    0.14
  13  19  -9    1.23    0.17
 -13 -19  -9    1.07    0.14
 -13  19   9    1.35    0.18
 -13  19  -9    1.22    0.16
 -13 -19   9    1.41    0.20
  13  19 -11    0.57    0.14
 -13 -19 -11    0.61    0.13
 -13  19 -11    0.61    0.14
  15  19  -1    3.28    0.20
 -15 -19  -1    3.17    0.20
 -15  19   1    3.06    0.21
 -15  19   1    3.28    0.20
 -15  19  -1    3.42    0.20
  15  19   1    3.13    0.19
 -15 -19   1    3.02    0.20
 -15  19  -1    2.90    0.20
  15  19  -3    1.82    0.17
 -15 -19  -3    2.23    0.16
 -15 -19  -3    2.06    0.17
 -15  19   3    2.09    0.19
 -15  19   3    2.25    0.18
 -15 -19   3    1.82    0.19
 -15  19  -3    2.29    0.18
 -15  19   5    1.27    0.16
 -15 -19  -5    1.63    0.16
 -15 -19  -5    1.47    0.15
  15  19  -5    1.29    0.16
 -15  19   5    1.11    0.15
 -15  19  -5    1.28    0.16
 -15 -19   5    1.07    0.16
 -15 -19  -7    0.61    0.12
 -15 -19  -7    0.73    0.13
 -15  19   7    0.46    0.12
  15  19  -7    0.55    0.13
 -15  19   7    0.57    0.14
 -15 -19   7    0.55    0.14
 -15  19  -7    0.55    0.12
  15  19  -9    1.45    0.18
 -15 -19  -9    1.37    0.16
 -15  19   9    1.44    0.19
 -15  19   9    1.42    0.20
 -15  19  -9    1.41    0.18
 -15 -19   9    1.29    0.20
  15  19 -11    0.16    0.13
 -15 -19 -11    0.34    0.12
  15 -19 -11    0.25    0.12
 -15 -19  11    0.13    0.15
 -15  19 -11    0.40    0.14
 -17 -19  -1    1.72    0.17
  17  19  -1    1.65    0.16
 -17  19   1    1.34    0.17
 -17  19   1    1.48    0.16
 -17  19  -1    1.64    0.17
 -17 -19   1    1.55    0.17
  17  19  -3    0.13    0.09
 -17  19   3    0.24    0.10
 -17  19   3    0.18    0.10
 -17 -19  -3    0.08    0.09
 -17 -19   3    0.10    0.10
 -17  19  -3    0.15    0.10
  17  19  -5    1.31    0.17
 -17 -19  -5    1.66    0.17
 -17  19   5    1.37    0.17
 -17  19   5    1.16    0.17
 -17  19  -5    1.39    0.17
 -17 -19   5    1.44    0.20
 -17 -19  -7    0.28    0.11
 -17 -19  -7    0.26    0.11
 -17  19   7    0.62    0.14
 -17  19   7    0.23    0.12
  17  19  -7    0.14    0.12
 -17  19  -7    0.32    0.13
 -17 -19   7    0.63    0.16
 -17  19   9    0.07    0.13
 -17 -19  -9   -0.03    0.09
  17  19  -9   -0.07    0.10
  17 -19  -9    0.17    0.11
 -17  19  -9    0.21    0.13
 -17 -19   9    0.11    0.14
 -19 -19  -1    0.59    0.14
 -19  19   1    0.73    0.14
  19  19  -1    0.64    0.13
 -19 -19   1    0.56    0.14
 -19  19  -1    0.80    0.15
 -19  19   3    0.06    0.10
  19  19  -3    0.23    0.12
 -19 -19  -3    0.25    0.12
 -19  19  -3    0.18    0.11
 -19 -19   3    0.24    0.13
  19  19  -5    1.31    0.18
 -19  19   5    1.32    0.19
 -19 -19  -5    1.02    0.16
 -19 -19   5    0.97    0.18
 -19  19  -5    1.01    0.17
 -19  19   7    0.07    0.12
  19  19  -7   -0.09    0.10
 -19 -19  -7    0.09    0.11
 -19 -19   7    0.03    0.13
  19 -19  -7    0.20    0.11
 -19  19  -7   -0.04    0.11
 -19  19   9    0.40    0.16
 -21  19   1    0.45    0.14
 -21 -19  -1    0.29    0.13
 -21  19  -1    0.51    0.15
 -21 -19   1    0.28    0.13
 -21  19   3    0.13    0.13
  21  19  -3    0.36    0.13
 -21 -19  -3    0.62    0.14
 -21  19  -3    0.39    0.14
  21 -19  -3    0.33    0.11
 -21 -19   3    0.17    0.14
 -21 -19  -5    0.17    0.12
  21  19  -5    0.12    0.12
 -21  19   5   -0.01    0.13
 -21 -19   5    0.16    0.14
 -21  19  -5    0.10    0.13
  21 -19  -5    0.12    0.11
   0  20   0   21.56    0.63
   0 -20   0   21.59    0.66
   0 -20   2    0.01    0.03
   0  20  -2    0.05    0.03
   0  20   2    0.00    0.02
   0  20  -2    0.02    0.04
   0 -20  -2    0.05    0.03
   0  20   4   68.04    2.09
   0  20  -4   69.62    2.04
   0 -20  -4   69.94    2.02
   0  20  -4   69.43    2.09
   0 -20  -4   70.09    2.00
   0 -20   6    0.08    0.05
   0 -20  -6    0.04    0.04
   0  20   6   -0.02    0.04
   0 -20  -6    0.03    0.05
   0  20  -6    0.00    0.06
   0  20  -6   -0.04    0.05
   0  20   8   12.93    0.45
   0 -20  -8   12.54    0.45
   0 -20   8   12.61    0.46
   0 -20  -8   12.11    0.42
   0  20  -8   12.60    0.47
   0  20  -8   12.24    0.44
   0 -20 -10    0.09    0.09
   0 -20  10    0.17    0.08
   0  20 -10    0.12    0.08
   0  20 -10    0.08    0.10
   0 -20 -10    0.17    0.08
   0 -20  12    1.82    0.18
   0 -20 -12    2.21    0.19
   0  20 -12    1.90    0.20
   0 -20 -14   -0.04    0.09
   0  20 -14    0.26    0.12
  -2  20   0    0.24    0.03
  -2 -20   0    0.20    0.03
  -2  20   0    0.27    0.04
   2 -20   0    0.16    0.03
  -2 -20  -2   24.68    0.76
   2 -20   2   24.65    0.76
  -2  20   2   25.26    0.73
   2  20  -2   26.35    0.79
  -2 -20  -2   25.73    0.72
  -2  20   2   23.59    0.78
  -2  20  -2   26.10    0.78
   2 -20  -2   25.70    0.75
  -2 -20   2   24.35    0.76
  -2  20  -2   23.16    0.75
   2 -20   4    4.27    0.18
  -2 -20  -4    4.37    0.14
  -2  20   4    4.36    0.16
   2  20  -4    4.38    0.18
  -2 -20  -4    4.24    0.18
  -2  20   4    4.12    0.18
  -2  20  -4    4.02    0.18
  -2  20  -4    4.21    0.17
   2 -20  -4    4.25    0.17
  -2 -20   4    3.82    0.18
  -2 -20  -6   20.29    0.63
  -2 -20  -6   21.10    0.66
  -2  20   6   20.88    0.68
   2  20  -6   20.86    0.67
  -2 -20   6   20.13    0.67
  -2  20  -6   20.57    0.66
   2  20   6   20.61    0.66
  -2  20  -6   21.24    0.68
   2 -20  -6   20.46    0.65
  -2 -20  -8    0.28    0.07
  -2 -20  -8    0.42    0.09
   2 -20   8    0.40    0.09
   2  20  -8    0.28    0.08
  -2  20   8    0.27    0.08
   2  20   8    0.28    0.06
  -2  20  -8    0.29    0.07
  -2  20  -8    0.23    0.10
  -2 -20   8    0.44    0.09
   2 -20  -8    0.27    0.08
  -2  20  10    0.43    0.09
   2 -20  10    0.37    0.10
   2  20 -10    0.36    0.12
  -2 -20 -10    0.41    0.09
   2  20 -10    0.51    0.10
  -2 -20 -10    0.47    0.10
   2 -20 -10    0.54    0.10
  -2  20 -10    0.36    0.12
  -2 -20  10    0.35    0.10
   2 -20 -10    0.51    0.09
   2  20 -12   -0.02    0.09
   2 -20  12    0.02    0.08
  -2 -20 -12    0.08    0.09
  -2  20 -12    0.07    0.11
   2 -20 -12    0.04    0.08
  -2 -20  12    0.15    0.08
   2  20 -14    0.35    0.15
  -2 -20 -14    0.24    0.12
  -2  20 -14    0.32    0.13
   2 -20 -14    0.49    0.13
  -4  20   0  130.86    3.74
  -4 -20   0  131.35    3.75
  -4  20   0  127.21    3.87
   4  20   0  130.56    3.87
   4 -20   0  130.67    3.73
  -4 -20   0  129.83    3.74
  -4 -20  -2   35.07    1.06
  -4  20   2   36.48    1.04
  -4 -20  -2   35.01    1.03
   4 -20   2   34.69    1.05
  -4  20  -2   34.54    1.05
  -4  20  -2   35.22    1.08
  -4 -20   2   35.66    1.06
  -4 -20   2   34.65    1.06
   4 -20  -2   35.69    1.04
  -4  20   4   32.16    0.97
  -4  20   4   31.85    1.02
   4 -20   4   32.93    0.99
   4  20  -4   32.55    1.02
  -4 -20  -4   32.84    0.95
  -4  20  -4   32.20    1.00
  -4  20  -4   32.02    0.99
  -4 -20   4   32.18    1.01
   4 -20  -4   32.94    0.96
  -4 -20   4   32.69    0.99
  -4  20   6    0.06    0.05
   4  20  -6    0.06    0.06
  -4 -20  -6    0.03    0.02
  -4 -20  -6    0.04    0.04
   4 -20   6    0.09    0.06
  -4  20   6    0.03    0.05
   4 -20  -6    0.11    0.05
  -4 -20   6    0.11    0.06
   4  20   6    0.11    0.04
  -4  20  -6    0.11    0.05
  -4  20  -6    0.01    0.06
  -4 -20  -8   17.54    0.57
   4  20  -8   18.08    0.61
  -4 -20  -8   18.16    0.61
   4 -20   8   17.25    0.61
  -4  20   8   17.21    0.62
  -4 -20   8   18.43    0.61
  -4  20  -8   17.69    0.62
   4 -20  -8   17.30    0.58
  -4  20  10   -0.01    0.07
   4 -20  10    0.03    0.08
   4  20 -10   -0.09    0.07
  -4 -20 -10   -0.03    0.07
  -4 -20 -10    0.08    0.07
   4 -20 -10   -0.06    0.06
  -4  20 -10    0.00    0.09
  -4 -20  10    0.10    0.07
   4  20 -12    0.21    0.09
  -4 -20 -12    0.15    0.10
   4  20 -12    0.07    0.11
  -4  20  12    0.22    0.10
  -4  20 -12    0.15    0.11
   4 -20 -12    0.21    0.09
  -4 -20  12    0.22    0.09
   4  20 -14    0.37    0.14
  -4 -20 -14    0.02    0.10
  -4  20 -14    0.08    0.13
  -6  20   0    0.76    0.07
  -6 -20   0    0.77    0.07
   6  20   0    0.89    0.08
  -6 -20   0    0.90    0.07
  -6  20   0    0.67    0.07
   6 -20   0    0.69    0.06
  -6 -20  -2   23.05    0.67
  -6  20   2   21.73    0.71
   6  20  -2   22.63    0.71
  -6 -20  -2   22.66    0.69
   6 -20   2   22.27    0.68
  -6  20   2   18.74    0.67
  -6  20  -2   22.91    0.70
  -6 -20   2   22.22    0.69
   6  20   2   21.26    0.70
  -6  20  -2   23.01    0.69
  -6 -20   2   22.16    0.70
   6 -20  -2   22.41    0.66
   6  20  -4    0.96    0.10
  -6  20   4    1.01    0.09
  -6 -20  -4    1.01    0.07
   6 -20   4    0.90    0.09
  -6 -20  -4    1.16    0.09
  -6  20   4    1.12    0.10
  -6 -20   4    0.82    0.09
  -6 -20   4    1.01    0.10
  -6  20  -4    0.93    0.09
   6 -20  -4    1.10    0.07
  -6  20  -4    1.01    0.07
  -6  20   6   11.79    0.41
  -6  20   6   11.81    0.44
   6  20  -6   12.14    0.43
   6 -20   6   11.67    0.42
  -6 -20  -6   11.78    0.39
  -6 -20  -6   11.22    0.42
   6 -20  -6   11.63    0.38
  -6  20  -6   11.59    0.42
  -6 -20   6   11.08    0.44
  -6 -20   6   11.78    0.42
  -6  20  -6   11.86    0.38
   6 -20   8    7.94    0.33
   6  20  -8    8.23    0.34
  -6 -20  -8    7.62    0.30
  -6  20   8    8.00    0.33
  -6 -20  -8    7.97    0.33
  -6  20   8    7.57    0.34
  -6 -20   8    8.27    0.33
   6 -20  -8    7.75    0.30
  -6  20  -8    8.21    0.35
   6  20 -10    2.80    0.20
  -6 -20 -10    2.66    0.19
   6 -20  10    3.03    0.20
  -6  20  10    3.18    0.21
  -6 -20  10    2.52    0.18
  -6  20 -10    2.88    0.20
   6  20 -12   -0.01    0.09
  -6  20  12    0.06    0.09
  -6 -20 -12    0.07    0.09
  -6  20 -12   -0.04    0.10
  -6 -20  12    0.01    0.08
  -6 -20 -14    0.49    0.13
   6  20 -14    0.17    0.14
  -6  20 -14    0.13    0.12
   8 -20   0   46.63    1.38
  -8 -20   0   47.23    1.41
   8  20   0   47.86    1.46
  -8 -20   0   47.23    1.42
  -8  20   0   47.87    1.42
  -8  20   0   47.63    1.46
   8 -20   2    3.48    0.14
  -8  20   2    3.22    0.16
  -8  20   2    2.96    0.17
   8  20  -2    3.23    0.17
  -8 -20  -2    3.35    0.15
  -8 -20  -2    3.21    0.15
   8  20   2    3.00    0.15
  -8  20  -2    3.34    0.15
  -8  20  -2    2.99    0.15
  -8 -20   2    3.32    0.17
   8 -20  -2    3.41    0.11
  -8 -20   2    3.19    0.15
  -8 -20  -4    7.96    0.31
  -8  20   4    8.48    0.31
   8 -20   4    7.75    0.30
  -8 -20  -4    8.25    0.29
  -8  20  -4    7.87    0.28
  -8  20  -4    8.40    0.32
  -8 -20   4    8.29    0.33
  -8 -20   4    8.32    0.31
   8 -20  -4    8.06    0.26
  -8  20   6    8.15    0.32
  -8  20   6    7.94    0.33
  -8 -20  -6    7.50    0.32
  -8 -20  -6    7.75    0.29
   8 -20   6    7.66    0.31
   8  20  -6    7.50    0.32
  -8  20  -6    7.93    0.33
  -8 -20   6    7.66    0.30
  -8 -20   6    7.73    0.35
  -8 -20  -8    7.64    0.30
  -8  20   8    7.63    0.35
   8 -20   8    7.77    0.33
   8  20  -8    8.16    0.35
  -8 -20  -8    7.15    0.33
  -8  20   8    7.44    0.33
  -8 -20   8    7.88    0.37
  -8 -20   8    8.09    0.32
  -8  20  -8    7.40    0.34
   8  20 -10    0.17    0.09
  -8 -20 -10    0.07    0.08
  -8  20  10    0.19    0.09
  -8  20 -10    0.22    0.11
  -8 -20  10    0.17    0.08
  -8 -20 -12    0.57    0.13
   8  20 -12    0.70    0.14
  -8  20  12    0.78    0.15
  -8  20 -12    0.82    0.15
  -8 -20 -14    0.19    0.11
  -8  20 -14   -0.20    0.11
 -10 -20   0    0.94    0.09
 -10 -20   0    0.99    0.10
  10  20   0    1.01    0.10
 -10  20   0    0.69    0.08
  10 -20   0    0.94    0.06
 -10  20   0    0.87    0.10
 -10  20   2    5.27    0.24
  10 -20   2    5.50    0.21
 -10 -20  -2    5.34    0.23
 -10 -20  -2    5.23    0.23
  10  20  -2    5.67    0.25
 -10  20   2    5.52    0.25
 -10  20  -2    5.60    0.22
 -10 -20   2    5.38    0.23
 -10 -20   2    5.58    0.25
  10  20   2    5.79    0.23
 -10  20  -2    5.78    0.24
 -10  20   4    5.75    0.25
 -10  20   4    5.21    0.26
  10  20  -4    5.46    0.26
 -10 -20  -4    5.37    0.23
  10 -20   4    5.55    0.22
 -10 -20  -4    5.30    0.24
 -10  20  -4    5.12    0.20
 -10 -20   4    5.05    0.26
 -10  20  -4    5.05    0.24
 -10 -20   4    5.21    0.22
  10  20   4    5.34    0.21
 -10  20   6    4.65    0.25
  10  20  -6    4.36    0.23
 -10 -20  -6    3.81    0.21
 -10  20   6    4.37    0.23
 -10 -20  -6    4.00    0.20
 -10 -20   6    4.47    0.26
 -10 -20   6    4.39    0.21
 -10  20  -6    3.79    0.22
 -10 -20  -8    0.26    0.09
 -10 -20  -8    0.25    0.08
 -10  20   8    0.26    0.09
 -10  20   8    0.12    0.09
  10  20  -8    0.09    0.09
 -10 -20   8    0.23    0.08
 -10 -20   8    0.16    0.11
 -10  20  -8    0.19    0.09
  10  20 -10    0.06    0.09
 -10  20  10    0.13    0.10
 -10 -20 -10    0.12    0.09
 -10  20  10   -0.02    0.09
 -10  20 -10    0.00    0.09
 -10  20  12    0.49    0.14
  10  20 -12    0.79    0.15
 -10 -20 -12    0.51    0.13
 -10  20 -12    1.09    0.17
  10  20 -14   -0.02    0.12
  10 -20 -14    0.08    0.11
 -12 -20   0    7.50    0.29
 -12 -20   0    6.77    0.30
  12  20   0    7.28    0.30
 -12  20   0    7.83    0.31
 -12  20   0    7.33    0.31
 -12 -20  -2    7.76    0.32
 -12 -20  -2    8.16    0.32
 -12  20   2    8.37    0.34
  12  20  -2    8.14    0.33
 -12  20   2    7.51    0.33
 -12 -20   2    8.42    0.35
 -12  20  -2    7.97    0.33
 -12  20  -2    8.27    0.31
  12  20   2    8.18    0.31
 -12 -20   2    8.35    0.31
 -12 -20  -4    3.41    0.19
 -12 -20  -4    3.29    0.18
 -12  20   4    3.20    0.20
 -12  20   4    3.55    0.20
  12  20  -4    3.68    0.21
 -12 -20   4    3.72    0.22
 -12  20  -4    2.89    0.19
 -12 -20   4    3.04    0.16
  12  20  -6    0.97    0.13
 -12 -20  -6    0.99    0.12
 -12  20   6    0.82    0.13
 -12 -20  -6    0.90    0.12
 -12  20   6    1.10    0.14
 -12 -20   6    0.88    0.14
 -12  20  -6    0.94    0.13
 -12  20   8    1.85    0.19
 -12  20   8    1.75    0.18
  12  20  -8    1.84    0.18
 -12 -20  -8    2.02    0.18
 -12 -20  -8    2.02    0.16
 -12 -20   8    2.13    0.21
 -12  20  -8    2.09    0.17
 -12  20  10    0.44    0.13
 -12 -20 -10    0.27    0.11
  12  20 -10    0.45    0.13
 -12  20  10    0.46    0.13
 -12  20 -10    0.45    0.12
 -12 -20  10    0.13    0.12
  12  20 -12    0.18    0.12
 -12 -20 -12    0.21    0.11
  12 -20 -12    0.23    0.11
 -12  20 -12    0.17    0.12
 -14  20   0    0.42    0.09
 -14 -20   0    0.53    0.10
  14  20   0    0.34    0.08
 -14  20   0    0.58    0.10
 -14 -20   0    0.50    0.08
 -14  20   2    0.10    0.08
 -14 -20  -2    0.05    0.06
 -14  20   2    0.07    0.08
 -14 -20  -2    0.17    0.08
  14  20  -2    0.12    0.08
 -14  20  -2   -0.03    0.07
 -14  20  -2    0.20    0.07
  14  20   2   -0.05    0.06
 -14 -20   2    0.04    0.08
 -14  20   4    1.00    0.14
  14  20  -4    1.14    0.14
 -14 -20  -4    1.15    0.13
 -14 -20  -4    1.10    0.13
 -14  20   4    0.99    0.13
 -14  20  -4    1.01    0.13
 -14 -20   4    0.86    0.14
 -14 -20  -6    0.93    0.13
 -14  20   6    0.88    0.14
  14  20  -6    0.94    0.14
 -14 -20  -6    0.98    0.13
 -14  20   6    1.19    0.16
 -14  20  -6    0.91    0.14
 -14 -20   6    0.97    0.16
 -14 -20  -8    1.04    0.14
  14  20  -8    0.87    0.15
 -14 -20  -8    1.02    0.13
 -14  20   8    1.14    0.17
 -14  20   8    0.84    0.15
 -14 -20   8    1.06    0.18
 -14  20  -8    1.28    0.16
  14  20 -10    0.69    0.15
 -14  20  10    1.02    0.18
 -14 -20 -10    0.69    0.14
 -14  20  10    0.84    0.16
 -14  20 -10    0.78    0.16
 -14 -20  10    0.96    0.19
  14  20 -12    0.43    0.15
 -14 -20 -12    0.74    0.15
  14 -20 -12    0.28    0.12
 -16  20   0    0.57    0.11
  16  20   0    0.57    0.10
 -16 -20   0    0.65    0.12
 -16  20   0    0.87    0.12
 -16 -20  -2    0.68    0.12
  16  20  -2    1.03    0.13
 -16  20   2    0.89    0.14
 -16  20   2    0.75    0.12
 -16  20  -2    0.92    0.13
 -16 -20   2    0.64    0.13
 -16 -20  -4    0.23    0.10
 -16 -20  -4    0.54    0.10
  16  20  -4    0.46    0.12
 -16  20   4    0.37    0.12
 -16  20   4    0.35    0.11
 -16 -20   4    0.50    0.13
 -16  20  -4    0.40    0.11
 -16  20   6    0.01    0.10
 -16  20   6    0.04    0.09
  16  20  -6   -0.07    0.09
 -16 -20  -6    0.00    0.08
 -16 -20  -6    0.06    0.09
 -16  20  -6   -0.02    0.09
 -16 -20   6    0.16    0.12
  16  20  -8    1.12    0.18
 -16  20   8    1.35    0.18
 -16 -20  -8    1.60    0.17
 -16 -20  -8    1.83    0.19
 -16  20   8    1.36    0.19
 -16 -20   8    1.71    0.22
 -16  20  -8    1.43    0.18
 -16  20  10    0.48    0.15
 -16 -20 -10    0.32    0.12
  16  20 -10    0.28    0.12
  16 -20 -10    0.56    0.14
 -16 -20  10    0.45    0.16
 -16  20 -10    0.29    0.13
 -18 -20   0   -0.14    0.08
 -18  20   0    0.02    0.09
 -18 -20  -2    0.60    0.13
  18  20  -2    0.49    0.12
 -18  20   2    0.46    0.12
 -18  20   2    0.72    0.14
 -18 -20   2    0.60    0.14
 -18  20  -2    0.92    0.15
  18  20  -4    0.61    0.14
 -18  20   4    0.50    0.14
 -18  20   4    0.37    0.13
 -18 -20  -4    0.53    0.12
 -18 -20   4    0.45    0.14
 -18  20  -4    0.44    0.13
 -18  20   6    0.27    0.13
 -18  20   6    0.17    0.12
 -18 -20  -6    0.21    0.11
  18  20  -6    0.09    0.11
 -18  20  -6    0.07    0.11
 -18 -20   6    0.36    0.14
  18  20  -8    0.49    0.15
 -18  20   8    0.36    0.14
 -18  20  -8    0.44    0.14
 -18 -20   8    0.36    0.16
  18 -20  -8    0.32    0.13
 -20  20   0    0.12    0.12
 -20 -20   0    0.12    0.11
  20  20  -2    0.50    0.13
 -20  20   2    0.34    0.13
 -20 -20  -2    0.39    0.13
 -20  20  -2    0.29    0.13
  20 -20  -2    0.61    0.13
 -20 -20   2    0.63    0.15
  20  20  -4    0.14    0.12
 -20 -20  -4    0.30    0.12
 -20  20   4    0.31    0.14
  20 -20  -4    0.21    0.11
 -20 -20   4    0.30    0.14
 -20  20  -4    0.30    0.13
 -20  20   6    0.21    0.14
  20  20  -6    0.16    0.12
 -20 -20  -6    0.06    0.11
 -20 -20   6    0.15    0.13
  20 -20  -6    0.40    0.13
 -20  20  -6    0.10    0.12
 -22 -20   0   -0.03    0.12
 -22  20   0    0.09    0.13
 -22 -20  -2    0.36    0.14
 -22  20   2    0.22    0.14
 -22  20  -2    0.29    0.15
 -22 -20   2    0.38    0.15
  22  20  -4    0.27    0.14
 -22 -20  -4    0.45    0.14
  22 -20  -4    0.34    0.12
   1 -21   1   22.38    0.70
  -1 -21  -1   22.95    0.70
  -1  21   1   23.73    0.66
   1 -21  -1   22.98    0.69
  -1  21  -1   22.02    0.68
  -1  21  -1   23.08    0.72
   1 -21   3   18.08    0.58
  -1  21   3   17.82    0.59
   1  21  -3   18.25    0.59
  -1 -21  -3   18.83    0.57
  -1 -21   3   18.61    0.59
   1 -21  -3   18.89    0.57
  -1  21  -3   17.40    0.57
  -1  21  -3   18.58    0.59
   1  21   3   18.23    0.59
   1  21  -5    4.25    0.19
  -1 -21  -5    4.43    0.16
  -1  21   5    4.20    0.18
  -1 -21  -5    4.43    0.19
   1 -21  -5    4.61    0.19
  -1  21  -5    4.13    0.20
  -1 -21   5    4.06    0.19
   1  21   5    4.46    0.18
  -1  21  -5    4.49    0.18
  -1 -21  -7   15.91    0.54
   1  21  -7   15.71    0.54
  -1 -21  -7   15.68    0.50
  -1  21   7   15.81    0.54
   1  21   7   16.42    0.54
  -1 -21   7   15.98    0.55
   1 -21  -7   15.53    0.51
  -1  21  -7   16.70    0.56
  -1  21  -7   15.44    0.53
   1 -21  -7   15.92    0.53
   1 -21   9    1.16    0.13
  -1 -21  -9    1.11    0.13
   1  21  -9    1.48    0.16
  -1  21   9    1.09    0.12
  -1 -21  -9    1.21    0.11
   1  21  -9    1.24    0.12
  -1  21  -9    1.38    0.16
   1  21   9    1.57    0.12
  -1  21  -9    1.32    0.11
   1 -21  -9    1.38    0.12
   1 -21  -9    1.38    0.14
  -1 -21   9    1.15    0.14
   1  21 -11    0.93    0.15
  -1 -21 -11    0.69    0.11
   1 -21  11    0.54    0.11
   1 -21 -11    0.80    0.12
  -1  21 -11    0.85    0.14
  -1 -21  11    0.90    0.13
  -1 -21 -13    0.29    0.11
   1  21 -13    0.17    0.13
  -1  21 -13    0.41    0.13
  -1 -21  13    0.33    0.11
   1 -21 -13    0.50    0.11
   1  21 -15    0.36    0.15
  -1 -21 -15    0.38    0.13
   1 -21 -15    0.38    0.13
  -1  21 -15    0.38    0.16
  -3  21   1   58.92    1.82
  -3  21   1   62.33    1.74
  -3 -21  -1   55.67    1.76
   3 -21   1   62.02    1.76
  -3 -21  -1   61.00    1.74
   3  21  -1   54.13    1.81
  -3 -21   1   59.88    1.77
  -3 -21   1   61.62    1.76
  -3  21  -1   63.06    1.82
   3 -21  -1   60.07    1.75
  -3  21  -1   62.59    1.75
  -3  21   3    0.72    0.08
  -3  21   3    0.89    0.06
  -3 -21  -3    0.99    0.05
   3  21  -3    0.97    0.09
   3 -21   3    0.95    0.08
  -3 -21   3    0.90    0.08
  -3  21  -3    0.97    0.08
  -3 -21   3    0.85    0.08
  -3  21  -3    0.96    0.07
   3 -21  -3    0.88    0.07
   3  21  -5   25.00    0.81
  -3 -21  -5   26.09    0.79
  -3 -21  -5   25.19    0.75
  -3  21   5   25.51    0.77
  -3  21   5   24.70    0.81
   3 -21   5   24.98    0.80
  -3  21  -5   24.73    0.79
   3 -21  -5   26.01    0.77
   3  21   5   25.07    0.79
  -3  21  -5   25.45    0.79
  -3 -21   5   24.92    0.80
   3  21  -7    5.11    0.23
  -3 -21  -7    4.72    0.23
  -3 -21  -7    4.81    0.19
   3 -21   7    4.21    0.22
  -3  21   7    5.13    0.23
  -3  21  -7    4.76    0.24
  -3 -21   7    5.44    0.24
   3 -21  -7    4.64    0.21
  -3  21  -7    4.96    0.20
   3  21   7    5.09    0.20
   3 -21   9    5.61    0.28
   3  21  -9    5.65    0.26
  -3 -21  -9    5.63    0.27
  -3  21   9    6.15    0.27
  -3 -21  -9    5.63    0.24
  -3  21  -9    5.69    0.29
  -3 -21   9    5.01    0.27
   3 -21  -9    5.84    0.25
   3  21 -11    5.85    0.31
  -3 -21 -11    6.41    0.30
   3  21 -11    5.81    0.28
   3 -21  11    5.63    0.30
  -3  21  11    5.96    0.29
   3 -21 -11    6.11    0.28
  -3  21 -11    6.44    0.32
  -3 -21  11    5.86    0.30
  -3 -21 -13    0.10    0.10
   3  21 -13   -0.02    0.12
   3 -21 -13   -0.11    0.07
  -3 -21  13   -0.06    0.08
  -3  21 -13   -0.01    0.10
   3  21 -15    0.00    0.13
  -3 -21 -15   -0.09    0.08
  -3  21 -15    0.01    0.12
  -5 -21  -1   81.93    2.40
   5  21  -1   84.95    2.48
  -5  21   1   79.48    2.38
  -5 -21  -1   81.14    2.38
  -5  21   1   85.85    2.48
   5 -21   1   82.64    2.38
  -5  21  -1   79.56    2.39
   5  21   1   83.09    2.47
   5 -21  -1   82.72    2.37
  -5 -21   1   81.52    2.40
  -5 -21   1   82.19    2.40
  -5  21  -1   82.22    2.47
   5 -21   3   30.51    0.91
  -5 -21  -3   29.80    0.88
  -5 -21  -3   28.91    0.91
  -5 -21   3   30.20    0.92
  -5  21  -3   29.43    0.92
  -5  21  -3   29.79    0.91
  -5 -21   3   30.51    0.93
   5 -21  -3   30.19    0.89
   5 -21   5    5.81    0.24
  -5  21   5    5.52    0.23
   5  21  -5    6.39    0.25
  -5 -21  -5    5.75    0.21
  -5  21   5    5.71    0.25
  -5  21  -5    5.90    0.25
  -5  21  -5    5.74    0.22
  -5 -21   5    5.72    0.26
   5 -21  -5    5.76    0.21
  -5 -21   5    5.91    0.24
   5  21  -7    6.24    0.27
  -5  21   7    6.07    0.28
  -5 -21  -7    6.23    0.23
  -5 -21  -7    5.74    0.26
  -5  21   7    6.80    0.27
   5 -21   7    5.99    0.27
  -5 -21   7    6.26    0.27
   5  21   7    6.49    0.24
  -5  21  -7    6.33    0.23
  -5  21  -7    6.16    0.28
   5 -21  -7    6.24    0.24
  -5 -21  -9    0.64    0.11
   5 -21   9    0.69    0.11
  -5  21   9    0.45    0.10
  -5 -21  -9    0.61    0.09
   5  21  -9    0.54    0.10
  -5 -21   9    0.51    0.10
  -5  21  -9    0.57    0.12
   5 -21  -9    0.41    0.09
  -5  21  11    0.08    0.09
   5 -21  11   -0.05    0.07
   5  21 -11   -0.08    0.07
  -5 -21 -11   -0.01    0.08
   5 -21 -11    0.09    0.07
  -5  21 -11    0.21    0.11
  -5 -21  11    0.09    0.08
  -5 -21 -13    0.04    0.10
   5  21 -13    0.22    0.13
  -5  21 -13    0.22    0.12
  -5 -21  13    0.09    0.09
  -7  21   1   17.38    0.57
   7 -21   1   17.07    0.53
  -7 -21  -1   17.01    0.55
   7  21  -1   17.31    0.57
  -7  21   1   16.56    0.55
  -7 -21  -1   16.85    0.54
   7 -21  -1   17.46    0.52
  -7 -21   1   17.48    0.56
  -7  21  -1   17.00    0.55
  -7  21  -1   17.63    0.56
  -7 -21   1   17.14    0.56
   7  21   1   17.41    0.56
   7  21  -3    2.67    0.15
  -7  21   3    2.91    0.14
  -7 -21  -3    2.51    0.14
   7 -21   3    2.65    0.14
  -7  21   3    2.97    0.16
  -7 -21  -3    2.55    0.13
  -7 -21   3    2.80    0.14
   7  21   3    2.86    0.14
  -7  21  -3    2.63    0.15
  -7  21  -3    2.78    0.13
   7 -21  -3    2.63    0.11
  -7 -21   3    2.79    0.16
   7  21  -5    1.06    0.11
  -7  21   5    1.27    0.13
  -7  21   5    1.39    0.12
   7 -21   5    1.34    0.12
  -7 -21  -5    1.62    0.12
  -7 -21  -5    1.62    0.10
   7 -21  -5    1.63    0.09
  -7  21  -5    1.54    0.09
  -7 -21   5    1.67    0.12
  -7  21  -5    1.55    0.13
  -7 -21   5    1.31    0.14
  -7 -21  -7    3.60    0.20
  -7 -21  -7    3.49    0.17
  -7  21   7    3.71    0.21
   7  21  -7    3.76    0.21
  -7  21   7    3.60    0.20
   7 -21   7    3.47    0.20
  -7 -21   7    3.20    0.21
  -7 -21   7    3.29    0.18
   7 -21  -7    3.36    0.15
  -7  21  -7    3.04    0.19
   7  21  -9    0.41    0.10
  -7  21   9    0.38    0.10
   7 -21   9    0.36    0.10
  -7 -21  -9    0.43    0.08
  -7 -21  -9    0.36    0.10
  -7  21  -9    0.34    0.10
  -7 -21   9    0.49    0.09
  -7  21  11    1.93    0.19
  -7 -21 -11    1.58    0.17
   7  21 -11    1.93    0.18
  -7 -21  11    1.94    0.16
  -7  21 -11    1.45    0.17
  -7 -21 -13    0.41    0.12
   7  21 -13    0.18    0.11
  -7 -21  13    0.42    0.11
  -7  21 -13    0.38    0.14
  -9  21   1    7.80    0.30
   9 -21   1    7.74    0.26
  -9 -21  -1    7.64    0.29
  -9  21   1    7.60    0.29
   9  21  -1    7.60    0.30
  -9 -21  -1    7.39    0.29
  -9 -21   1    7.86    0.30
  -9  21  -1    7.24    0.29
   9  21   1    7.64    0.29
  -9 -21   1    7.43    0.29
  -9  21  -1    7.94    0.29
   9 -21  -1    7.59    0.24
   9  21  -3    5.01    0.23
  -9  21   3    4.77    0.22
  -9 -21  -3    4.85    0.21
  -9 -21  -3    4.98    0.20
   9 -21   3    4.83    0.20
  -9  21   3    4.73    0.23
   9  21   3    5.09    0.21
  -9 -21   3    4.59    0.21
  -9  21  -3    4.92    0.20
  -9  21  -3    4.94    0.22
  -9 -21   3    4.67    0.23
  -9  21   5    0.57    0.10
  -9 -21  -5    0.58    0.08
   9  21  -5    0.60    0.11
  -9 -21  -5    0.43    0.08
  -9  21   5    0.66    0.10
   9 -21   5    0.56    0.08
  -9  21  -5    0.45    0.09
  -9 -21   5    0.59    0.08
  -9 -21   5    0.61    0.11
  -9  21   7    8.50    0.35
   9 -21   7    8.30    0.34
  -9 -21  -7    8.45    0.35
  -9 -21  -7    8.40    0.32
  -9  21   7    8.40    0.37
   9  21  -7    8.91    0.37
  -9 -21   7    8.52    0.34
  -9 -21   7    8.54    0.39
  -9  21  -7    7.74    0.35
  -9  21   9    0.74    0.13
   9  21  -9    0.71    0.13
  -9  21   9    0.66    0.13
  -9 -21  -9    0.78    0.12
  -9 -21  -9    0.75    0.10
  -9  21  -9    0.57    0.12
  -9 -21   9    0.72    0.11
   9  21 -11    1.33    0.17
  -9  21  11    1.51    0.18
  -9 -21 -11    1.19    0.15
  -9  21 -11    0.88    0.15
   9  21 -13    0.46    0.14
  -9 -21 -13    0.51    0.13
  -9  21 -13    0.47    0.15
  11  21  -1   11.30    0.42
 -11  21   1   11.16    0.41
 -11 -21  -1   10.68    0.41
 -11  21   1   11.43    0.42
 -11 -21  -1   11.63    0.40
 -11 -21   1   11.60    0.42
 -11  21  -1   11.23    0.41
 -11  21  -1   11.51    0.41
 -11 -21   1   11.44    0.40
  11  21   1   11.05    0.41
  11  21  -3    0.84    0.11
 -11  21   3    0.91    0.12
 -11 -21  -3    0.83    0.10
 -11 -21  -3    0.92    0.10
 -11  21   3    0.73    0.10
 -11  21  -3    0.80    0.11
 -11  21  -3    0.84    0.09
 -11 -21   3    1.07    0.10
 -11 -21   3    0.96    0.13
  11  21   3    1.01    0.10
 -11 -21  -5    4.51    0.22
 -11  21   5    3.96    0.24
 -11 -21  -5    4.64    0.21
 -11  21   5    4.11    0.23
  11  21  -5    4.31    0.23
 -11 -21   5    4.44    0.25
 -11  21  -5    4.11    0.23
 -11 -21   5    4.29    0.20
 -11 -21  -7    3.39    0.19
 -11  21   7    3.32    0.21
  11  21  -7    3.11    0.22
 -11 -21  -7    3.15    0.20
 -11  21   7    3.38    0.22
 -11  21  -7    2.87    0.19
 -11 -21   7    3.65    0.24
 -11 -21  -9    0.00    0.08
 -11  21   9   -0.04    0.08
  11  21  -9   -0.11    0.08
 -11  21   9    0.02    0.09
 -11 -21   9    0.02    0.09
 -11  21  -9    0.03    0.09
  11  21 -11    0.44    0.13
 -11  21  11    0.63    0.14
 -11 -21 -11    0.57    0.13
 -11  21 -11    0.73    0.14
  11  21 -13    0.26    0.13
 -11 -21 -13    0.39    0.13
  11 -21 -13    0.32    0.11
 -11  21 -13    0.35    0.14
 -13 -21  -1    1.39    0.13
 -13 -21  -1    1.13    0.11
  13  21  -1    1.25    0.13
 -13  21   1    1.36    0.13
 -13  21   1    1.32    0.13
 -13  21  -1    1.10    0.11
 -13  21  -1    1.31    0.13
 -13 -21   1    1.28    0.14
 -13 -21   1    1.36    0.11
  13  21   1    1.32    0.12
 -13 -21  -3    1.97    0.15
 -13 -21  -3    1.74    0.15
 -13  21   3    1.81    0.15
  13  21  -3    1.45    0.15
 -13  21   3    2.12    0.16
 -13  21  -3    1.66    0.15
 -13 -21   3    1.91    0.18
 -13 -21  -5    0.30    0.09
  13  21  -5    0.28    0.10
 -13 -21  -5    0.24    0.08
 -13  21   5    0.41    0.10
 -13  21   5    0.39    0.10
 -13 -21   5    0.52    0.12
 -13  21  -5    0.23    0.09
 -13 -21  -7    0.46    0.10
 -13  21   7    0.54    0.12
  13  21  -7    0.61    0.13
 -13 -21  -7    0.71    0.11
 -13  21   7    0.45    0.12
 -13 -21   7    0.63    0.14
 -13  21  -7    0.42    0.10
  13  21  -9    0.60    0.14
 -13 -21  -9    0.38    0.11
 -13  21   9    1.05    0.17
 -13  21   9    0.49    0.13
 -13 -21   9    0.58    0.15
 -13  21  -9    0.44    0.13
 -13 -21 -11    0.11    0.10
  13  21 -11    0.07    0.11
 -13  21  11    0.19    0.12
 -13  21 -11    0.27    0.13
 -15  21   1    0.36    0.10
 -15 -21  -1    0.18    0.09
  15  21  -1    0.16    0.08
 -15  21   1    0.33    0.10
 -15 -21   1    0.38    0.10
 -15  21  -1    0.47    0.10
  15  21   1    0.41    0.09
 -15  21  -1    0.33    0.09
 -15 -21  -3    1.81    0.17
 -15  21   3    2.02    0.17
  15  21  -3    2.23    0.18
 -15  21   3    1.99    0.18
 -15 -21  -3    2.03    0.16
 -15  21  -3    1.93    0.18
 -15 -21   3    1.75    0.19
  15  21  -5   -0.05    0.09
 -15  21   5   -0.02    0.08
 -15 -21  -5   -0.04    0.07
 -15  21   5   -0.04    0.09
 -15 -21  -5    0.05    0.07
 -15 -21   5    0.07    0.10
 -15  21  -5    0.10    0.09
 -15 -21  -7    0.99    0.14
 -15  21   7    0.63    0.14
 -15  21   7    0.57    0.13
  15  21  -7    0.48    0.12
 -15 -21  -7    0.46    0.11
 -15  21  -7    0.48    0.12
 -15 -21   7    0.91    0.16
 -15  21   9    0.07    0.11
 -15 -21  -9    0.35    0.11
 -15  21   9    0.30    0.13
  15  21  -9    0.05    0.11
 -15 -21   9    0.01    0.12
 -15  21  -9    0.16    0.12
 -15 -21 -11    1.00    0.16
  15  21 -11    0.69    0.16
  15 -21 -11    0.92    0.16
 -15  21 -11    0.80    0.17
 -15 -21  11    0.84    0.19
 -17  21   1    0.25    0.11
 -17  21   1    0.44    0.11
  17  21  -1    0.43    0.11
 -17 -21  -1    0.31    0.10
 -17 -21   1    0.35    0.11
 -17  21  -1    0.45    0.12
 -17  21   3    0.25    0.11
 -17 -21  -3    0.44    0.12
  17  21  -3    0.11    0.10
 -17  21   3    0.50    0.12
 -17  21  -3    0.01    0.09
 -17 -21   3    0.34    0.11
 -17  21   5    0.53    0.13
 -17 -21  -5    0.46    0.11
  17  21  -5    0.59    0.13
 -17  21   5    0.56    0.14
 -17  21  -5    0.71    0.14
 -17 -21   5    0.57    0.15
 -17  21   7    0.16    0.12
 -17  21   7    0.07    0.11
 -17 -21  -7    0.14    0.10
 -17 -21  -7    0.08    0.10
  17  21  -7    0.02    0.11
 -17 -21   7    0.20    0.14
 -17  21  -7    0.17    0.11
  17  21  -9    0.00    0.11
 -17  21   9   -0.09    0.11
 -17 -21  -9   -0.02    0.10
 -17 -21   9    0.02    0.12
 -17  21  -9    0.02    0.11
 -19  21   1    1.15    0.17
  19  21  -1    1.12    0.15
 -19 -21  -1    1.26    0.16
 -19  21   1    0.90    0.14
 -19 -21   1    1.03    0.17
 -19  21  -1    0.83    0.15
 -19  21   3    0.76    0.16
 -19 -21  -3    0.84    0.15
 -19  21   3    0.69    0.14
  19  21  -3    0.65    0.14
 -19  21  -3    0.83    0.16
 -19 -21   3    1.18    0.18
 -19  21   5    0.28    0.13
  19  21  -5    0.44    0.13
 -19 -21  -5    0.25    0.12
 -19  21  -5    0.29    0.13
 -19 -21   5    0.35    0.15
  19  21  -7    0.26    0.13
 -19  21   7    0.13    0.13
 -19  21  -7    0.03    0.12
 -19 -21   7    0.11    0.14
  19 -21  -7    0.17    0.12
 -19  21   9   -0.01    0.14
 -21 -21  -1    0.68    0.15
 -21  21   1    0.50    0.15
 -21 -21   1    0.70    0.16
 -21  21  -1    0.65    0.16
 -21 -21  -3    0.22    0.12
  21  21  -3    0.15    0.12
 -21  21   3    0.12    0.13
 -21  21  -3    0.12    0.12
 -21 -21   3   -0.13    0.11
  21 -21  -3    0.13    0.11
  21  21  -5    0.06    0.12
 -21 -21  -5   -0.01    0.11
 -21  21   5    0.10    0.13
 -21 -21   5   -0.16    0.12
  21 -21  -5    0.20    0.11
   0 -22   0    0.06    0.03
   0  22   2  109.08    3.20
   0 -22   2  105.73    3.10
   0  22  -2  108.15    3.20
   0  22  -2  105.70    3.09
   0 -22  -2  106.67    3.09
   0 -22  -4    0.02    0.02
   0 -22   4   -0.02    0.02
   0 -22  -4    0.03    0.04
   0  22  -4    0.00    0.04
   0  22  -4   -0.03    0.05
   0  22   4    0.08    0.04
   0  22  -6    2.89    0.16
   0  22   6    2.72    0.15
   0 -22  -6    2.76    0.12
   0  22  -6    2.91    0.15
   0 -22  -6    3.04    0.16
   0 -22   6    3.04    0.17
   0 -22  -8    0.11    0.07
   0 -22   8    0.21    0.08
   0  22   8    0.09    0.07
   0  22  -8   -0.01    0.09
   0  22  -8    0.34    0.09
   0 -22  -8    0.14    0.08
   0  22 -10    6.93    0.33
   0  22 -10    6.08    0.28
   0 -22 -10    7.02    0.31
   0 -22  10    6.81    0.32
   0  22 -12   -0.02    0.10
   0 -22  12   -0.12    0.07
   0 -22 -12    0.14    0.09
   0  22 -14    0.85    0.17
   0 -22 -14    0.56    0.13
  -2 -22   0   30.94    0.89
   2  22   0   29.29    0.94
  -2  22   0   30.30    0.94
   2 -22   0   30.49    0.91
  -2  22   0   31.03    0.89
   2 -22   2   67.57    1.96
  -2  22   2   68.59    2.03
  -2 -22  -2   67.44    1.96
   2  22  -2   64.33    2.02
  -2  22   2   69.92    1.93
  -2  22  -2   65.91    2.02
   2  22   2   65.99    2.02
  -2 -22   2   66.87    1.97
   2 -22  -2   66.50    1.95
  -2 -22  -4    2.96    0.14
  -2  22   4    2.91    0.15
   2 -22   4    3.34    0.16
  -2 -22  -4    3.13    0.11
  -2  22   4    3.22    0.12
   2  22  -4    3.05    0.15
  -2  22  -4    3.02    0.15
   2 -22  -4    3.21    0.14
   2  22   4    3.11    0.14
  -2  22  -4    3.24    0.14
  -2 -22   4    3.04    0.15
  -2 -22  -6   19.09    0.59
   2  22  -6   19.19    0.64
  -2 -22  -6   19.98    0.63
  -2  22   6   19.69    0.64
  -2  22  -6   18.54    0.62
  -2 -22   6   19.45    0.64
  -2  22  -6   19.06    0.64
   2 -22  -6   19.00    0.61
   2  22   6   19.49    0.63
  -2 -22  -8    6.97    0.26
   2 -22   8    7.15    0.31
  -2  22   8    7.34    0.30
  -2 -22  -8    7.21    0.30
   2  22  -8    6.97    0.29
   2  22   8    7.12    0.28
  -2  22  -8    7.11    0.32
  -2  22  -8    7.01    0.28
   2 -22  -8    7.38    0.29
  -2 -22   8    6.99    0.30
   2  22 -10    0.84    0.11
   2 -22  10    0.82    0.12
  -2  22  10    0.76    0.11
   2  22 -10    0.78    0.14
  -2 -22 -10    0.90    0.12
  -2 -22  10    0.82    0.12
   2 -22 -10    0.74    0.11
  -2  22 -10    0.58    0.13
  -2 -22 -12   -0.02    0.08
   2 -22  12    0.12    0.09
   2  22 -12    0.04    0.11
  -2 -22  12    0.03    0.08
  -2  22 -12    0.07    0.10
   2 -22 -12    0.16    0.09
   2  22 -14    0.12    0.12
  -2 -22 -14    0.07    0.09
   2 -22 -14    0.07    0.10
  -2  22 -14   -0.03    0.12
   4 -22   0   10.96    0.36
  -4 -22   0   10.94    0.38
  -4  22   0   11.24    0.36
  -4 -22   0   11.05    0.36
  -4  22   0   11.36    0.38
   4  22   0   11.74    0.39
  -4  22   2   33.76    0.96
   4 -22   2   32.29    0.98
  -4 -22  -2   32.17    0.95
  -4 -22  -2   31.91    0.98
  -4  22  -2   32.35    0.97
  -4 -22   2   32.55    0.98
  -4 -22   2   31.77    0.98
   4  22   2   31.78    1.00
  -4  22  -2   33.04    1.00
   4 -22  -2   32.04    0.96
  -4  22   4    4.74    0.20
   4  22  -4    4.57    0.20
   4 -22   4    4.78    0.20
  -4  22   4    4.63    0.18
  -4 -22  -4    4.61    0.16
  -4 -22   4    4.60    0.20
   4  22   4    4.72    0.19
  -4  22  -4    4.83    0.19
  -4 -22   4    4.58    0.21
   4 -22  -4    4.46    0.18
  -4  22  -4    4.54    0.20
  -4  22   6    6.54    0.25
   4 -22   6    6.70    0.28
  -4  22   6    6.34    0.28
   4  22  -6    6.61    0.27
  -4 -22  -6    6.41    0.23
   4 -22  -6    6.38    0.24
  -4  22  -6    6.78    0.25
  -4 -22   6    6.69    0.27
  -4  22  -6    6.91    0.28
   4  22   6    6.64    0.25
  -4 -22  -8    2.61    0.17
  -4  22   8    2.52    0.18
   4  22  -8    2.29    0.17
  -4 -22  -8    2.43    0.14
   4 -22   8    2.52    0.18
  -4 -22   8    2.62    0.17
   4 -22  -8    2.17    0.15
  -4  22  -8    2.54    0.19
  -4 -22 -10    0.89    0.13
   4  22 -10    1.09    0.13
  -4  22  10    0.83    0.13
   4 -22  10    0.83    0.12
   4 -22 -10    0.90    0.11
  -4 -22  10    0.73    0.12
  -4  22 -10    0.69    0.13
  -4 -22 -12    0.03    0.08
   4  22 -12    0.28    0.12
   4  22 -12    0.12    0.09
  -4  22 -12    0.25    0.11
   4 -22 -12    0.19    0.09
  -4 -22  12    0.28    0.09
   4  22 -14    0.15    0.14
  -4 -22 -14   -0.15    0.09
  -4  22 -14   -0.02    0.12
   6 -22   0   18.76    0.56
   6  22   0   18.66    0.60
  -6  22   0   18.23    0.59
  -6 -22   0   18.26    0.58
  -6 -22   0   17.41    0.57
  -6  22   0   17.75    0.57
  -6 -22  -2    1.40    0.10
  -6 -22  -2    1.63    0.09
  -6  22   2    1.38    0.09
   6  22  -2    1.67    0.11
   6 -22   2    1.39    0.10
  -6  22   2    1.42    0.11
  -6  22  -2    1.72    0.10
   6  22   2    1.56    0.10
  -6 -22   2    1.78    0.12
   6 -22  -2    1.54    0.08
  -6 -22   2    1.61    0.11
  -6  22  -2    1.57    0.10
  -6  22   4    0.06    0.04
  -6  22   4    0.00    0.04
   6 -22   4    0.02    0.05
  -6 -22  -4    0.05    0.05
  -6 -22  -4    0.02    0.03
   6  22  -4    0.01    0.05
   6 -22  -4    0.04    0.03
  -6 -22   4    0.06    0.04
  -6 -22   4   -0.01    0.06
   6  22   4    0.14    0.04
  -6  22  -4   -0.03    0.03
  -6  22  -4    0.09    0.05
  -6 -22  -6    2.55    0.16
   6 -22   6    2.85    0.17
   6  22  -6    2.42    0.17
  -6 -22  -6    2.81    0.14
  -6  22   6    2.96    0.16
  -6  22   6    2.59    0.17
  -6 -22   6    2.68    0.16
  -6  22  -6    2.71    0.13
  -6 -22   6    2.79    0.19
   6 -22  -6    2.62    0.13
  -6  22  -6    2.66    0.16
   6  22   6    2.31    0.13
  -6 -22  -8    2.08    0.16
  -6 -22  -8    1.92    0.13
  -6  22   8    2.15    0.16
   6  22  -8    2.10    0.17
   6 -22   8    2.04    0.17
  -6  22   8    1.98    0.17
  -6 -22   8    1.61    0.15
  -6  22  -8    1.91    0.17
   6 -22  -8    1.80    0.13
  -6  22  10    0.22    0.09
  -6 -22 -10    0.35    0.10
   6  22 -10    0.44    0.11
   6 -22  10    0.24    0.10
  -6  22 -10    0.41    0.11
  -6 -22  10    0.53    0.10
   6  22 -12    1.00    0.14
  -6 -22 -12    0.98    0.14
  -6  22  12    0.82    0.14
  -6  22 -12    0.95    0.16
  -6 -22  12    0.88    0.13
   6  22 -14    0.16    0.13
  -6 -22 -14    0.02    0.10
  -6  22 -14   -0.09    0.11
  -8  22   0   11.61    0.43
  -8 -22   0   12.40    0.42
  -8  22   0   13.59    0.42
   8  22   0   12.33    0.43
   8 -22   0   11.84    0.38
  -8 -22   0   12.00    0.42
   8 -22   2    4.47    0.18
  -8  22   2    4.54    0.21
  -8  22   2    4.35    0.19
  -8 -22  -2    4.56    0.20
  -8 -22  -2    4.39    0.19
   8  22  -2    4.89    0.21
  -8 -22   2    4.15    0.20
  -8  22  -2    4.57    0.19
  -8 -22   2    4.31    0.19
   8 -22  -2    4.54    0.15
  -8  22  -2    4.38    0.20
   8  22   2    4.57    0.20
  -8 -22  -4    6.01    0.25
   8 -22   4    5.60    0.23
  -8  22   4    5.71    0.24
  -8 -22  -4    5.62    0.22
  -8  22  -4    5.55    0.22
   8 -22  -4    5.57    0.19
  -8  22  -4    5.58    0.25
  -8 -22   4    5.94    0.24
  -8 -22   4    5.94    0.26
   8  22   4    5.81    0.22
  -8  22   6    3.29    0.20
   8 -22   6    2.87    0.17
  -8  22   6    3.28    0.19
  -8 -22  -6    3.56    0.17
  -8 -22  -6    3.46    0.19
   8  22  -6    3.28    0.20
  -8  22  -6    3.09    0.19
  -8 -22   6    3.27    0.18
  -8 -22   6    3.23    0.21
   8 -22   8    1.46    0.15
  -8  22   8    1.56    0.16
  -8 -22  -8    1.80    0.13
  -8 -22  -8    1.51    0.15
   8  22  -8    1.42    0.15
  -8  22   8    1.64    0.16
  -8  22  -8    1.39    0.15
  -8 -22   8    1.96    0.15
  -8 -22 -10    0.37    0.10
  -8  22  10    0.35    0.11
   8  22 -10    0.25    0.10
  -8  22 -10    0.39    0.12
  -8 -22  10    0.33    0.09
  -8  22  12    0.29    0.12
  -8 -22 -12    0.38    0.11
   8  22 -12    0.18    0.11
  -8  22 -12    0.51    0.14
  -8 -22 -14    0.09    0.10
  -8  22 -14    0.28    0.14
  10 -22   0    4.12    0.14
 -10  22   0    3.94    0.19
 -10 -22   0    3.63    0.19
  10  22   0    3.60    0.19
 -10 -22   0    3.42    0.18
 -10  22   0    3.55    0.18
 -10  22   2   15.68    0.55
  10 -22   2   15.85    0.50
 -10  22   2   15.35    0.53
  10  22  -2   15.41    0.55
 -10 -22  -2   15.85    0.52
 -10 -22  -2   14.81    0.52
 -10 -22   2   15.30    0.54
 -10  22  -2   15.81    0.53
 -10  22  -2   16.06    0.54
 -10 -22   2   15.61    0.52
  10  22   2   16.21    0.53
 -10 -22  -4    7.28    0.27
 -10  22   4    6.82    0.31
 -10 -22  -4    6.71    0.28
  10  22  -4    6.57    0.30
  10 -22   4    6.54    0.26
 -10  22   4    6.90    0.29
 -10  22  -4    6.85    0.26
 -10 -22   4    6.94    0.31
 -10 -22   4    6.60    0.27
  10  22   4    6.62    0.26
 -10  22  -4    7.08    0.30
 -10  22   6    3.72    0.22
  10  22  -6    3.15    0.21
 -10 -22  -6    3.61    0.19
 -10 -22  -6    3.63    0.21
  10 -22   6    3.55    0.20
 -10  22   6    4.15    0.21
 -10 -22   6    3.44    0.22
 -10 -22   6    3.83    0.19
 -10  22  -6    3.64    0.21
 -10  22   8    0.79    0.13
 -10 -22  -8    0.74    0.10
  10  22  -8    0.59    0.12
 -10  22   8    0.70    0.12
 -10 -22  -8    0.93    0.13
 -10 -22   8    0.75    0.10
 -10 -22   8    0.79    0.15
 -10  22  -8    0.67    0.11
 -10 -22 -10    0.43    0.11
  10  22 -10    0.36    0.12
 -10  22  10    0.52    0.13
 -10  22 -10    0.43    0.12
 -10  22  12    0.04    0.11
  10  22 -12    0.15    0.12
 -10 -22 -12    0.04    0.09
 -10  22 -12    0.24    0.12
  10  22 -14    0.47    0.15
  10 -22 -14    0.72    0.15
 -12  22   0    9.39    0.37
 -12 -22   0    9.17    0.37
 -12  22   0    9.57    0.37
  12  22   0    9.40    0.37
 -12 -22   0    9.72    0.35
 -12 -22  -2    1.94    0.14
 -12  22   2    1.50    0.14
 -12 -22  -2    1.85    0.14
 -12  22   2    1.80    0.14
  12  22  -2    1.90    0.16
 -12  22  -2    1.87    0.15
 -12 -22   2    1.93    0.13
 -12  22  -2    1.71    0.13
 -12 -22   2    1.58    0.15
  12  22   2    1.71    0.14
 -12 -22  -4    0.93    0.11
  12  22  -4    0.87    0.12
 -12 -22  -4    1.00    0.12
 -12  22   4    1.33    0.14
 -12  22   4    1.19    0.14
 -12  22  -4    0.97    0.13
 -12 -22   4    1.11    0.14
 -12 -22   4    1.00    0.10
 -12 -22  -6    0.00    0.07
  12  22  -6   -0.07    0.07
 -12 -22  -6   -0.14    0.06
 -12  22   6    0.04    0.07
 -12  22   6    0.05    0.08
 -12 -22   6   -0.02    0.08
 -12  22  -6   -0.01    0.08
 -12  22   8    1.33    0.17
  12  22  -8    1.32    0.16
 -12 -22  -8    1.23    0.13
 -12  22   8    0.90    0.14
 -12 -22  -8    1.11    0.14
 -12  22  -8    1.09    0.15
 -12 -22   8    1.21    0.17
 -12  22  10    0.33    0.12
  12  22 -10    0.11    0.10
 -12 -22 -10    0.30    0.10
 -12  22 -10    0.28    0.11
 -12 -22  10    0.27    0.13
  12  22 -12    0.96    0.17
 -12 -22 -12    0.85    0.15
 -12  22 -12    1.06    0.17
 -14  22   0    0.75    0.11
 -14 -22   0    0.69    0.09
 -14  22   0    0.71    0.10
 -14 -22   0    0.55    0.11
  14  22   0    0.49    0.10
 -14  22   2    2.87    0.19
 -14  22   2    2.71    0.19
 -14 -22  -2    2.78    0.18
  14  22  -2    2.80    0.18
 -14 -22  -2    2.72    0.17
 -14  22  -2    2.93    0.17
  14  22   2    2.99    0.17
 -14  22  -2    2.36    0.17
 -14 -22   2    2.64    0.19
 -14  22   4    0.51    0.11
  14  22  -4    0.25    0.09
 -14 -22  -4    0.48    0.10
 -14 -22  -4    0.43    0.09
 -14  22   4    0.41    0.10
 -14  22  -4    0.51    0.11
 -14 -22   4    0.52    0.12
  14  22  -6    0.23    0.10
 -14 -22  -6    0.14    0.08
 -14  22   6    0.03    0.09
 -14 -22  -6    0.04    0.08
 -14  22   6    0.07    0.09
 -14  22  -6    0.26    0.10
 -14 -22   6    0.14    0.11
  14  22  -8    0.35    0.12
 -14  22   8    0.42    0.12
 -14 -22  -8    0.41    0.11
 -14  22   8    0.37    0.12
 -14 -22   8    0.47    0.14
 -14  22  -8    0.39    0.12
 -14 -22 -10    0.55    0.12
  14  22 -10    0.55    0.14
 -14  22  10    0.61    0.15
 -14  22 -10    0.56    0.14
 -14 -22  10    0.70    0.17
 -16  22   0    2.06    0.19
  16  22   0    1.77    0.16
 -16 -22   0    1.69    0.17
 -16  22   0    1.73    0.16
 -16  22   2    0.02    0.08
 -16  22   2    0.04    0.08
 -16 -22  -2   -0.05    0.08
  16  22  -2    0.02    0.08
 -16 -22   2   -0.08    0.08
 -16  22  -2    0.12    0.09
 -16 -22  -4    0.56    0.11
 -16  22   4    0.57    0.12
 -16  22   4    0.53    0.12
  16  22  -4    0.61    0.12
 -16 -22  -4    0.67    0.11
 -16 -22   4    0.56    0.13
 -16  22  -4    0.59    0.13
 -16 -22  -6    1.70    0.17
 -16  22   6    1.34    0.18
 -16  22   6    1.68    0.19
 -16 -22  -6    1.74    0.17
  16  22  -6    1.44    0.17
 -16  22  -6    1.36    0.17
 -16 -22   6    2.04    0.22
  16  22  -8    0.16    0.12
 -16  22   8    0.33    0.13
 -16 -22  -8    0.29    0.11
 -16  22   8    0.46    0.14
 -16  22  -8    0.24    0.12
 -16 -22   8    0.20    0.14
 -16 -22 -10    0.11    0.11
  16  22 -10    0.09    0.12
 -16  22 -10    0.34    0.14
 -16 -22  10    0.12    0.14
 -18  22   0    0.19    0.11
 -18 -22   0    0.36    0.11
 -18 -22  -2    1.24    0.16
 -18  22   2    0.95    0.15
  18  22  -2    1.08    0.15
 -18  22   2    1.04    0.16
 -18 -22   2    1.22    0.17
 -18  22  -2    0.98    0.15
 -18  22   4    1.30    0.18
 -18  22   4    1.40    0.18
  18  22  -4    1.06    0.16
 -18 -22  -4    1.38    0.17
 -18 -22   4    1.41    0.19
 -18  22  -4    1.36    0.18
 -18  22   6    1.04    0.17
  18  22  -6    0.89    0.15
 -18 -22  -6    0.95    0.15
 -18  22   6    1.28    0.19
 -18  22  -6    1.11    0.17
 -18 -22   6    1.41    0.21
 -18  22   8    0.56    0.16
  18  22  -8    0.62    0.15
 -18  22  -8    0.64    0.15
 -18 -22   8    0.83    0.18
 -20  22   0    0.71    0.15
 -20 -22   0    1.55    0.19
  20  22  -2    0.31    0.12
 -20  22   2    0.13    0.12
 -20 -22  -2    0.25    0.12
 -20  22  -2    0.45    0.14
 -20 -22   2    0.35    0.14
 -20  22   4    1.03    0.18
 -20 -22  -4    0.82    0.15
  20  22  -4    0.73    0.15
 -20 -22   4    0.73    0.17
 -20  22  -4    0.81    0.16
  20  22  -6    0.63    0.16
 -20  22   6    0.32    0.14
  20 -22  -6    0.26    0.12
 -20  22  -6    0.58    0.16
 -20 -22   6    0.34    0.15
 -22  22   0   -0.02    0.13
 -22 -22   0    0.16    0.13
 -22  22   2    0.92    0.19
 -22 -22  -2    1.12    0.19
 -22 -22   2    1.18    0.20
  22  22  -4    0.50    0.15
 -22 -22  -4    0.26    0.13
  22 -22  -4    0.27    0.13
   1 -23   1   13.49    0.45
  -1  23   1   14.14    0.41
  -1 -23  -1   14.50    0.46
  -1  23  -1   14.09    0.46
   1  23   1   14.28    0.41
   1  23   1   13.04    0.46
  -1  23  -1   14.71    0.43
   1 -23  -1   14.30    0.45
   1 -23   3   46.13    1.38
  -1 -23  -3   45.14    1.36
   1  23  -3   47.38    1.41
  -1  23   3   46.25    1.41
  -1 -23   3   45.12    1.38
   1  23   3   47.02    1.41
   1 -23  -3   45.46    1.36
  -1  23  -3   45.84    1.40
  -1  23  -3   45.80    1.36
  -1 -23  -5   40.98    1.18
  -1  23   5   40.52    1.26
  -1 -23  -5   41.27    1.22
   1  23  -5   40.96    1.26
   1 -23  -5   40.19    1.21
   1  23   5   40.05    1.25
  -1  23  -5   41.40    1.25
  -1  23  -5   39.29    1.23
  -1 -23   5   40.55    1.24
  -1 -23  -7   11.94    0.42
  -1 -23  -7   11.49    0.38
   1  23  -7   11.65    0.43
   1  23  -7   11.82    0.42
  -1  23   7   11.58    0.43
   1 -23  -7   12.11    0.42
   1  23   7   11.46    0.41
  -1  23  -7   11.73    0.41
  -1 -23   7   11.93    0.44
  -1  23  -7   12.12    0.44
   1 -23  -7   11.50    0.39
   1 -23   9    4.58    0.25
   1  23  -9    5.20    0.24
  -1  23   9    5.04    0.24
  -1 -23  -9    4.89    0.25
   1  23  -9    4.81    0.26
   1 -23  -9    4.60    0.21
   1  23   9    5.18    0.24
  -1 -23   9    4.87    0.26
   1 -23  -9    5.27    0.24
  -1  23  -9    5.17    0.23
  -1  23  -9    5.16    0.27
  -1 -23 -11    0.10    0.08
   1 -23  11    0.20    0.09
   1  23 -11    0.08    0.10
  -1  23 -11    0.15    0.10
   1 -23 -11    0.22    0.09
  -1 -23  11    0.21    0.09
  -1 -23 -13    0.71    0.13
   1 -23  13    0.68    0.13
   1  23 -13    1.01    0.17
   1 -23 -13    0.90    0.14
  -1  23 -13    0.87    0.16
  -1 -23  13    0.55    0.13
  -1 -23 -15    0.01    0.09
   1  23 -15    0.28    0.15
  -1  23 -15   -0.16    0.11
   1 -23 -15    0.21    0.12
  -3 -23  -1   12.93    0.38
  -3 -23  -1   11.11    0.41
   3  23  -1   12.53    0.42
   3 -23   1   12.59    0.41
  -3  23   1   12.74    0.38
  -3  23   1   12.50    0.42
  -3 -23   1   12.26    0.40
  -3 -23   1   12.27    0.41
  -3  23  -1   12.74    0.42
  -3  23  -1   12.57    0.39
   3  23   1   12.62    0.42
   3 -23  -1   12.42    0.40
  -3  23   3    0.05    0.03
   3 -23   3    0.06    0.04
  -3 -23  -3    0.05    0.03
  -3 -23  -3    0.07    0.02
   3  23  -3    0.13    0.05
  -3  23   3    0.05    0.04
   3  23   3    0.03    0.04
  -3 -23   3    0.06    0.04
  -3  23  -3    0.12    0.05
  -3  23  -3    0.10    0.04
   3 -23  -3    0.15    0.04
  -3  23   5    7.25    0.25
  -3 -23  -5    7.03    0.23
  -3  23   5    7.24    0.28
   3 -23   5    6.81    0.28
  -3 -23  -5    7.35    0.28
   3  23  -5    7.03    0.28
  -3  23  -5    6.88    0.26
   3  23   5    7.36    0.26
  -3  23  -5    6.65    0.27
   3 -23  -5    6.76    0.25
  -3 -23   5    6.68    0.28
  -3 -23  -7   10.94    0.39
  -3  23   7   10.66    0.39
   3 -23   7   10.30    0.40
  -3 -23  -7    9.94    0.34
   3  23  -7   10.12    0.39
  -3 -23   7   10.25    0.39
   3 -23  -7   10.18    0.37
   3  23   7   10.24    0.37
  -3  23  -7   10.45    0.36
  -3  23  -7   10.09    0.40
  -3  23   9    6.77    0.30
   3  23  -9    6.11    0.28
  -3 -23  -9    5.97    0.28
   3 -23   9    6.26    0.30
  -3  23  -9    6.23    0.30
   3 -23  -9    6.39    0.27
  -3 -23   9    5.62    0.28
  -3  23  11    0.39    0.10
  -3 -23 -11    0.44    0.11
   3 -23  11    0.33    0.10
   3  23 -11    0.50    0.13
   3  23 -11    0.47    0.11
   3 -23 -11    0.51    0.10
  -3 -23  11    0.71    0.12
  -3  23 -11    0.63    0.13
   3  23 -13    0.25    0.14
  -3 -23 -13    0.42    0.12
  -3 -23  13    0.15    0.10
   3 -23 -13    0.31    0.10
  -3  23 -13    0.17    0.13
  -3 -23 -15   -0.01    0.10
  -5  23   1    4.02    0.17
   5  23  -1    4.79    0.20
  -5  23   1    4.50    0.19
  -5 -23  -1    4.41    0.17
  -5 -23  -1    4.47    0.19
   5 -23   1    4.53    0.18
  -5  23  -1    4.66    0.19
  -5 -23   1    4.68    0.19
   5 -23  -1    4.80    0.17
  -5  23  -1    4.70    0.18
  -5 -23   1    4.59    0.19
   5  23   1    4.68    0.19
  -5 -23  -3   26.64    0.78
  -5 -23  -3   25.66    0.82
  -5  23   3   24.16    0.79
   5 -23   3   26.74    0.81
  -5  23  -3   27.01    0.83
  -5 -23   3   25.82    0.82
  -5  23  -3   27.30    0.82
   5  23   3   26.45    0.83
  -5 -23   3   27.54    0.83
   5 -23  -3   26.33    0.79
  -5 -23  -5    8.53    0.28
   5  23  -5    8.49    0.32
  -5  23   5    8.39    0.30
   5 -23   5    8.53    0.32
  -5  23   5    8.65    0.33
   5 -23  -5    8.31    0.29
  -5 -23   5    8.31    0.34
   5  23   5    8.30    0.30
  -5  23  -5    8.51    0.30
  -5  23  -5    8.18    0.32
  -5 -23   5    8.00    0.32
  -5  23   7    1.63    0.12
  -5 -23  -7    1.21    0.13
  -5 -23  -7    1.51    0.10
  -5  23   7    1.65    0.14
   5 -23   7    1.39    0.13
   5  23  -7    1.40    0.13
  -5  23  -7    1.45    0.14
  -5  23  -7    1.49    0.10
  -5 -23   7    1.59    0.13
   5 -23  -7    1.22    0.10
   5  23   7    1.69    0.10
   5  23  -9    2.25    0.17
   5 -23   9    2.44    0.18
  -5  23   9    2.16    0.17
  -5 -23  -9    1.96    0.17
  -5  23  -9    1.64    0.17
   5 -23  -9    2.05    0.14
  -5 -23   9    2.19    0.16
  -5  23  11    0.71    0.13
   5 -23  11    0.64    0.12
   5  23 -11    0.67    0.12
  -5 -23 -11    0.79    0.13
  -5  23 -11    0.82    0.14
  -5 -23  11    0.64    0.12
  -5 -23 -13    0.49    0.12
   5  23 -13    0.32    0.14
  -5 -23  13    0.54    0.12
  -5  23 -13    0.50    0.15
  -7 -23  -1    7.60    0.29
  -7 -23  -1    7.71    0.27
   7 -23   1    7.34    0.27
  -7  23   1    7.25    0.29
  -7  23   1    7.67    0.28
   7  23  -1    7.75    0.30
  -7  23  -1    7.85    0.29
   7  23   1    7.89    0.29
  -7  23  -1    7.94    0.28
  -7 -23   1    7.95    0.29
  -7 -23   1    7.58    0.29
   7 -23  -1    7.73    0.26
   7 -23   3    2.79    0.14
  -7 -23  -3    3.04    0.13
   7  23  -3    2.60    0.15
  -7  23   3    2.76    0.14
  -7  23   3    2.67    0.15
  -7 -23  -3    2.55    0.14
   7 -23  -3    2.78    0.11
  -7  23  -3    2.80    0.15
  -7 -23   3    2.60    0.16
  -7 -23   3    2.61    0.15
   7  23   3    2.72    0.14
  -7  23  -3    2.71    0.13
  -7 -23  -5   35.06    1.02
   7  23  -5   29.14    1.07
  -7  23   5   34.94    1.04
  -7 -23  -5   33.34    1.05
  -7  23   5   34.18    1.09
   7 -23   5   34.13    1.05
  -7  23  -5   33.64    1.04
  -7  23  -5   33.93    1.06
  -7 -23   5   34.09    1.08
   7  23   5   34.83    1.05
  -7 -23   5   34.04    1.05
   7 -23  -5   34.16    1.00
  -7 -23  -7    2.01    0.13
  -7  23   7    1.68    0.16
  -7 -23  -7    1.92    0.16
   7 -23   7    1.89    0.15
  -7  23   7    1.96    0.14
   7  23  -7    1.88    0.16
  -7 -23   7    1.93    0.18
   7 -23  -7    2.00    0.12
  -7  23  -7    1.98    0.15
  -7 -23   7    2.08    0.15
   7 -23   9    1.75    0.16
   7  23  -9    1.37    0.15
  -7 -23  -9    1.23    0.14
  -7  23   9    1.57    0.16
  -7  23  -9    1.44    0.15
  -7 -23   9    1.69    0.15
  -7 -23 -11    0.65    0.12
   7  23 -11    0.25    0.11
  -7  23 -11    0.54    0.13
  -7 -23  11    0.50    0.11
  -7 -23 -13    0.65    0.15
  -7  23  13    0.62    0.14
   7  23 -13    0.49    0.13
  -7 -23  13    1.06    0.15
  -7  23 -13    1.02    0.17
  -9  23   1   20.97    0.70
  -9 -23  -1   21.95    0.67
   9 -23   1   20.95    0.64
  -9 -23  -1   20.37    0.68
   9  23  -1   20.78    0.70
  -9  23   1   20.71    0.68
  -9 -23   1   21.18    0.68
  -9 -23   1   21.55    0.69
   9 -23  -1   20.36    0.63
  -9  23  -1   21.77    0.68
  -9  23  -1   21.75    0.69
   9  23   1   21.14    0.69
   9  23  -3   10.22    0.38
  -9 -23  -3    9.70    0.35
   9 -23   3   10.13    0.35
  -9  23   3   10.20    0.37
  -9 -23  -3    9.93    0.37
  -9  23   3   10.47    0.39
   9  23   3    9.63    0.36
  -9  23  -3    9.53    0.37
  -9  23  -3   10.02    0.35
  -9 -23   3    9.85    0.36
  -9 -23   3    9.93    0.38
  -9  23   5    0.74    0.10
   9 -23   5    0.78    0.10
  -9 -23  -5    0.90    0.11
  -9  23   5    0.92    0.12
   9  23  -5    0.79    0.11
  -9 -23  -5    0.89    0.09
  -9  23  -5    0.86    0.11
  -9 -23   5    0.86    0.13
  -9 -23   5    0.84    0.10
  -9 -23  -7    4.45    0.21
   9  23  -7    4.07    0.24
  -9  23   7    4.72    0.25
   9 -23   7    4.28    0.23
  -9 -23  -7    4.29    0.23
  -9  23   7    4.48    0.23
  -9  23  -7    3.86    0.23
  -9 -23   7    4.29    0.25
  -9 -23   7    4.33    0.22
  -9 -23  -9    1.80    0.17
  -9  23   9    1.82    0.18
  -9  23   9    1.92    0.17
   9  23  -9    1.76    0.17
  -9 -23   9    1.89    0.16
  -9  23  -9    1.95    0.18
  -9 -23 -11   -0.05    0.08
   9  23 -11   -0.08    0.09
  -9  23  11   -0.02    0.09
  -9  23 -11    0.09    0.10
  -9 -23 -13   -0.07    0.09
   9  23 -13   -0.06    0.10
  -9  23 -13   -0.17    0.10
 -11  23   1    1.73    0.13
 -11  23   1    1.79    0.14
 -11 -23  -1    1.68    0.13
 -11 -23  -1    1.69    0.13
  11  23  -1    1.99    0.14
 -11 -23   1    1.72    0.14
 -11  23  -1    1.90    0.13
 -11 -23   1    1.99    0.13
  11  23   1    1.77    0.14
 -11  23  -1    1.79    0.14
 -11  23   3    2.22    0.16
 -11 -23  -3    2.51    0.15
 -11  23   3    2.46    0.16
  11  23  -3    2.11    0.16
 -11 -23  -3    2.55    0.16
  11 -23   3    2.20    0.13
 -11 -23   3    2.24    0.14
 -11  23  -3    2.35    0.14
 -11  23  -3    2.21    0.15
 -11 -23   3    2.59    0.18
  11  23   3    2.31    0.14
 -11  23   5    2.15    0.17
 -11  23   5    2.11    0.16
  11  23  -5    1.95    0.17
 -11 -23  -5    2.13    0.14
  11 -23   5    2.35    0.15
 -11 -23  -5    2.23    0.16
 -11  23  -5    2.30    0.17
 -11 -23   5    2.60    0.19
 -11 -23   5    2.27    0.14
 -11 -23  -7    0.03    0.07
 -11  23   7    0.10    0.08
 -11  23   7    0.22    0.09
 -11 -23  -7    0.10    0.07
  11  23  -7    0.02    0.09
 -11 -23   7    0.08    0.09
 -11 -23   7    0.10    0.06
 -11  23  -7    0.16    0.09
 -11  23   9    0.34    0.11
 -11  23   9    0.11    0.09
  11  23  -9    0.07    0.09
 -11 -23  -9    0.27    0.10
 -11  23  -9    0.25    0.10
 -11 -23   9    0.31    0.12
  11  23 -11    0.15    0.12
 -11  23  11    0.43    0.13
 -11 -23 -11    0.27    0.11
 -11  23 -11    0.24    0.12
 -11 -23 -13    0.26    0.12
  11  23 -13    0.11    0.12
  11 -23 -13    0.28    0.12
 -11  23 -13    0.18    0.13
 -13  23   1    0.92    0.12
 -13 -23  -1    1.09    0.11
  13  23  -1    1.00    0.12
 -13 -23  -1    0.71    0.11
 -13  23   1    1.09    0.12
 -13 -23   1    1.06    0.11
 -13  23  -1    0.90    0.12
 -13 -23   1    0.84    0.12
  13  23   1    1.21    0.12
 -13  23  -1    0.88    0.10
 -13  23   3    1.45    0.15
 -13 -23  -3    1.73    0.14
 -13  23   3    1.26    0.14
 -13 -23  -3    1.40    0.13
  13  23  -3    1.34    0.14
 -13 -23   3    1.61    0.16
 -13 -23   3    1.42    0.12
 -13  23  -3    1.18    0.14
 -13  23   5    0.99    0.14
  13  23  -5    0.94    0.13
 -13  23   5    0.92    0.13
 -13 -23  -5    1.09    0.13
 -13 -23  -5    1.08    0.12
 -13  23  -5    0.98    0.13
 -13 -23   5    0.96    0.14
 -13 -23  -7   -0.13    0.07
 -13  23   7    0.12    0.09
 -13 -23  -7    0.06    0.08
 -13  23   7    0.14    0.10
  13  23  -7    0.06    0.09
 -13 -23   7    0.04    0.10
 -13  23  -7   -0.13    0.07
 -13  23   9    1.19    0.18
 -13 -23  -9    1.24    0.15
  13  23  -9    1.23    0.17
 -13  23   9    1.62    0.19
 -13 -23   9    1.39    0.20
 -13  23  -9    1.18    0.16
 -13 -23 -11    0.19    0.11
 -13  23  11    0.03    0.11
  13  23 -11    0.07    0.11
 -13  23 -11    0.22    0.13
 -15  23   1    0.97    0.14
 -15 -23  -1    0.94    0.11
  15  23  -1    0.99    0.12
 -15  23   1    0.84    0.12
 -15 -23  -1    0.85    0.12
 -15  23  -1    0.95    0.12
  15  23   1    0.89    0.12
 -15 -23   1    0.94    0.13
 -15  23  -1    0.93    0.13
 -15 -23  -3    0.91    0.12
 -15  23   3    0.64    0.12
 -15 -23  -3    0.80    0.12
 -15  23   3    0.52    0.11
  15  23  -3    0.59    0.12
 -15  23  -3    0.56    0.11
 -15 -23   3    0.51    0.12
 -15  23   5    1.59    0.18
 -15  23   5    1.31    0.17
  15  23  -5    1.55    0.17
 -15 -23  -5    1.74    0.16
 -15 -23  -5    1.78    0.16
 -15  23  -5    1.56    0.17
 -15 -23   5    1.83    0.20
 -15 -23  -7    0.89    0.13
 -15  23   7    0.45    0.13
  15  23  -7    0.37    0.12
 -15 -23  -7    0.59    0.11
 -15  23   7    0.32    0.12
 -15 -23   7    0.31    0.13
 -15  23  -7    0.80    0.14
 -15  23   9   -0.06    0.10
 -15  23   9   -0.06    0.11
  15  23  -9   -0.02    0.10
 -15 -23  -9    0.03    0.10
 -15 -23   9    0.15    0.13
 -15  23  -9    0.01    0.10
 -15 -23 -11    0.07    0.10
  15  23 -11    0.08    0.12
  17  23  -1    0.93    0.14
 -17  23   1    1.09    0.16
 -17 -23  -1    1.24    0.15
 -17  23   1    1.11    0.14
 -17 -23   1    1.27    0.17
 -17  23  -1    1.36    0.17
 -17 -23  -3    0.82    0.13
 -17  23   3    0.68    0.14
 -17  23   3    1.02    0.15
  17  23  -3    0.93    0.14
 -17 -23   3    0.86    0.15
 -17  23  -3    0.92    0.14
 -17  23   5    1.15    0.17
 -17  23   5    0.70    0.15
  17  23  -5    0.89    0.15
 -17 -23  -5    0.97    0.15
 -17 -23   5    1.07    0.18
 -17  23  -5    1.01    0.15
 -17  23   7    0.26    0.12
  17  23  -7    0.04    0.10
 -17 -23  -7    0.22    0.11
 -17  23   7    0.30    0.13
 -17 -23   7    0.13    0.13
 -17  23  -7    0.04    0.11
 -17 -23  -9    0.23    0.11
  17  23  -9    0.18    0.12
 -17 -23   9    0.05    0.14
 -17  23  -9    0.29    0.14
  19  23  -1    0.02    0.09
 -19  23   1    0.06    0.10
 -19  23   1   -0.03    0.09
 -19 -23  -1   -0.03    0.10
 -19  23  -1    0.39    0.13
 -19 -23   1   -0.20    0.09
 -19  23   3    0.26    0.12
  19  23  -3    0.27    0.12
 -19  23   3    0.16    0.11
 -19 -23  -3    0.22    0.11
 -19  23  -3    0.30    0.12
 -19 -23   3    0.24    0.13
 -19  23   5    0.09    0.12
  19  23  -5   -0.08    0.11
 -19  23   5    0.03    0.11
 -19 -23  -5    0.04    0.10
 -19 -23   5    0.12    0.13
 -19  23  -5   -0.11    0.11
 -19  23   7    0.57    0.16
  19  23  -7    0.51    0.15
 -19 -23   7    0.30    0.15
 -19  23  -7    0.41    0.14
 -21 -23  -1    2.03    0.22
 -21  23   1    1.49    0.20
 -21 -23   1    1.67    0.21
 -21  23  -1    1.35    0.20
 -21  23   3    0.91    0.18
  21  23  -3    0.59    0.15
 -21 -23  -3    0.68    0.15
  21 -23  -3    0.94    0.15
 -21 -23   3    0.72    0.17
 -21  23  -3    0.66    0.16
  21  23  -5    0.06    0.12
 -21 -23  -5    0.00    0.10
 -21  23   5    0.12    0.14
  21 -23  -5    0.07    0.11
   0  24   0   14.46    0.43
   0 -24   0   13.97    0.46
   0 -24  -2    0.06    0.04
   0  24  -2    0.01    0.04
   0  24  -2    0.07    0.04
   0 -24   2    0.09    0.04
   0  24   2    0.06    0.04
   0 -24  -4    8.08    0.24
   0 -24  -4    7.83    0.28
   0  24   4    7.65    0.29
   0  24  -4    8.08    0.29
   0  24  -4    7.96    0.29
   0  24   6   -0.01    0.04
   0 -24  -6    0.01    0.04
   0  24  -6    0.03    0.06
   0 -24  -6   -0.01    0.05
   0 -24   6    0.01    0.04
   0  24  -6   -0.16    0.06
   0  24   8   62.80    1.93
   0 -24  -8   64.00    1.88
   0  24  -8   65.59    1.92
   0 -24   8   60.61    1.90
   0 -24  -8   62.56    1.85
   0  24  -8   61.90    1.92
   0  24 -10    0.08    0.08
   0 -24 -10    0.04    0.08
   0  24 -10    0.09    0.11
   0 -24  10    0.14    0.09
   0  24 -12    0.22    0.12
   0 -24 -12    0.11    0.09
   0 -24  12    0.14    0.09
   0 -24 -14   -0.10    0.09
   0  24 -14   -0.17    0.11
   2 -24   0    0.17    0.04
  -2  24   0    0.16    0.04
   2  24   0    0.16    0.05
  -2  24   0    0.16    0.03
  -2  24   2   45.95    1.43
  -2 -24  -2   46.66    1.38
  -2  24   2   47.27    1.34
   2 -24   2   46.32    1.39
   2  24  -2   48.40    1.43
   2  24   2   43.81    1.42
  -2 -24   2   45.61    1.39
  -2  24  -2   47.69    1.42
   2 -24  -2   47.44    1.37
  -2  24   4    3.00    0.15
  -2 -24  -4    3.12    0.15
   2  24  -4    3.19    0.15
   2 -24   4    3.03    0.15
  -2 -24  -4    2.97    0.10
  -2  24  -4    2.84    0.14
  -2 -24   4    2.84    0.15
  -2  24  -4    2.85    0.15
   2  24   4    3.04    0.14
   2 -24  -4    3.02    0.14
  -2 -24  -6   47.45    1.40
  -2 -24  -6   45.32    1.36
  -2  24   6   46.99    1.45
   2  24  -6   46.26    1.44
  -2  24  -6   47.35    1.42
   2 -24  -6   45.46    1.39
   2  24   6   46.39    1.43
  -2  24  -6   46.64    1.43
  -2 -24   6   47.02    1.42
   2 -24   8    1.69    0.15
  -2  24   8    1.64    0.14
  -2 -24  -8    1.79    0.15
   2  24  -8    1.31    0.13
  -2 -24  -8    1.19    0.10
  -2 -24   8    1.32    0.14
   2 -24  -8    1.48    0.13
  -2  24  -8    1.14    0.15
   2  24   8    1.37    0.12
   2 -24  -8    1.35    0.12
  -2  24  -8    1.35    0.12
  -2  24  10    6.12    0.28
   2  24 -10    5.62    0.30
   2 -24  10    5.38    0.28
   2  24 -10    5.49    0.26
  -2 -24 -10    5.50    0.27
  -2  24 -10    5.61    0.30
  -2 -24  10    5.41    0.28
   2 -24 -10    5.38    0.26
   2 -24  12    0.19    0.10
  -2 -24 -12    0.15    0.09
   2  24 -12    0.30    0.12
   2 -24 -12    0.21    0.09
  -2 -24  12    0.31    0.11
  -2  24 -12    0.20    0.12
   2  24 -14    0.04    0.13
  -2 -24 -14    0.13    0.10
  -2 -24  14    0.04    0.09
   2 -24 -14    0.30    0.11
  -2  24 -14    0.05    0.13
   4 -24   0   37.44    1.13
  -4 -24   0   38.58    1.13
  -4 -24   0   38.65    1.15
  -4  24   0   38.31    1.12
  -4  24   0   37.91    1.18
   4  24   0   38.03    1.18
  -4 -24  -2   12.73    0.44
  -4  24   2   13.77    0.42
   4 -24   2   13.60    0.44
  -4 -24  -2   13.15    0.41
   4  24   2   13.38    0.45
  -4 -24   2   13.44    0.44
  -4  24  -2   12.93    0.44
   4 -24  -2   13.49    0.42
  -4 -24   2   13.32    0.45
  -4  24  -2   13.80    0.43
  -4  24   4    7.49    0.30
  -4  24   4    7.81    0.27
  -4 -24  -4    8.88    0.26
   4  24  -4    8.53    0.31
   4 -24   4    7.80    0.30
  -4  24  -4    8.22    0.29
   4  24   4    7.82    0.29
  -4  24  -4    7.94    0.30
  -4 -24   4    7.27    0.30
   4 -24  -4    8.40    0.28
   4  24  -6    1.57    0.13
   4 -24   6    1.54    0.12
  -4  24   6    1.51    0.13
  -4 -24  -6    1.39    0.09
  -4  24   6    1.54    0.11
   4  24   6    1.72    0.11
  -4 -24   6    1.28    0.12
  -4  24  -6    1.59    0.13
  -4  24  -6    1.35    0.10
   4 -24  -6    1.42    0.11
  -4  24   8    2.11    0.17
  -4 -24  -8    2.17    0.13
   4 -24   8    2.33    0.18
  -4 -24  -8    2.39    0.17
   4  24  -8    2.18    0.17
   4 -24  -8    1.98    0.14
  -4  24  -8    2.21    0.18
  -4 -24   8    2.57    0.17
   4  24 -10    0.18    0.09
  -4 -24 -10   -0.06    0.07
  -4  24  10    0.03    0.08
   4 -24  10    0.01    0.08
   4 -24 -10    0.06    0.07
  -4 -24  10    0.22    0.09
  -4  24 -10    0.09    0.09
   4 -24  12    0.26    0.10
   4  24 -12    0.11    0.09
   4  24 -12    0.46    0.13
  -4 -24 -12    0.18    0.10
  -4 -24  12    0.05    0.09
  -4  24 -12    0.20    0.12
   4 -24 -12    0.31    0.10
   4  24 -14   -0.16    0.12
  -4 -24 -14    0.05    0.09
  -4  24 -14   -0.04    0.11
  -4 -24  14   -0.06    0.09
  -6 -24   0    0.00    0.04
  -6  24   0   -0.01    0.04
   6 -24   0    0.01    0.03
  -6  24   0    0.03    0.04
  -6 -24   0    0.08    0.04
   6  24   0    0.02    0.05
   6 -24   2   84.14    2.42
  -6  24   2   83.49    2.51
  -6 -24  -2   83.64    2.43
   6  24  -2   86.61    2.51
  -6  24   2   74.25    2.41
  -6 -24  -2   83.80    2.40
   6 -24  -2   81.50    2.39
  -6 -24   2   84.19    2.44
  -6 -24   2   82.55    2.43
  -6  24  -2   84.67    2.43
   6  24   2   83.99    2.50
  -6  24  -2   82.95    2.49
   6  24  -4    7.86    0.34
   6 -24   4    9.84    0.35
  -6  24   4    9.44    0.33
  -6 -24  -4    9.88    0.31
  -6 -24  -4    9.64    0.35
  -6 -24   4    9.64    0.36
   6 -24  -4    9.87    0.31
  -6  24  -4    9.64    0.33
  -6 -24   4    9.28    0.35
  -6  24  -4    9.44    0.35
   6  24   4    9.53    0.33
   6 -24   6   13.35    0.48
  -6 -24  -6   13.22    0.48
  -6 -24  -6   13.92    0.44
  -6  24   6   13.93    0.50
   6  24  -6   14.16    0.50
  -6  24   6   13.57    0.47
  -6  24  -6   12.67    0.48
  -6  24  -6   13.78    0.45
   6 -24  -6   13.80    0.44
  -6 -24   6   13.46    0.50
  -6 -24   6   13.47    0.48
   6  24   6   13.53    0.45
   6  24  -8    1.66    0.16
  -6  24   8    1.62    0.16
  -6  24   8    1.65    0.14
  -6 -24  -8    1.55    0.15
   6 -24   8    1.63    0.16
  -6 -24   8    1.44    0.14
  -6  24  -8    1.35    0.15
   6 -24  -8    1.48    0.12
   6 -24  10    2.64    0.20
  -6  24  10    2.85    0.21
   6  24 -10    2.84    0.20
  -6 -24 -10    2.25    0.19
  -6  24 -10    2.57    0.20
  -6 -24  10    2.97    0.20
  -6 -24 -12    1.33    0.16
   6  24 -12    1.27    0.16
  -6  24  12    1.29    0.17
  -6 -24  12    1.24    0.15
  -6  24 -12    1.10    0.17
  -6 -24 -14    0.43    0.12
   6  24 -14    0.57    0.16
  -6  24 -14    0.34    0.15
  -6 -24  14    0.57    0.13
  -8 -24   0    2.84    0.15
  -8  24   0    2.53    0.15
   8  24   0    2.76    0.16
   8 -24   0    2.63    0.12
  -8  24   0    2.72    0.14
  -8 -24   0    2.77    0.14
  -8 -24  -2    0.69    0.08
   8 -24   2    0.60    0.07
  -8  24   2    0.74    0.08
   8  24  -2    0.55    0.08
  -8 -24  -2    0.77    0.08
  -8  24   2    0.58    0.08
  -8  24  -2    0.82    0.08
  -8 -24   2    0.62    0.08
  -8  24  -2    0.80    0.09
   8 -24  -2    0.58    0.05
   8  24   2    0.64    0.08
  -8 -24   2    0.70    0.09
  -8  24   4   10.52    0.37
  -8 -24  -4   10.18    0.35
   8 -24   4   10.12    0.36
  -8 -24  -4    9.82    0.37
  -8  24  -4   10.21    0.38
  -8 -24   4   10.52    0.40
  -8  24  -4   10.14    0.35
   8  24   4   10.04    0.36
  -8 -24   4    9.88    0.37
  -8 -24  -6    0.29    0.07
   8  24  -6    0.34    0.10
   8 -24   6    0.33    0.08
  -8  24   6    0.27    0.09
  -8  24   6    0.37    0.08
  -8 -24  -6    0.30    0.08
  -8  24  -6    0.41    0.09
  -8 -24   6    0.40    0.08
  -8 -24   6    0.43    0.11
   8  24  -8    7.26    0.33
  -8  24   8    7.36    0.32
   8 -24   8    7.30    0.32
  -8  24   8    6.93    0.33
  -8 -24  -8    6.99    0.32
  -8  24  -8    7.58    0.34
  -8 -24   8    7.61    0.32
  -8  24  10    1.05    0.15
   8  24 -10    0.68    0.13
  -8 -24 -10    0.86    0.13
  -8 -24  10    1.04    0.13
  -8  24 -10    1.18    0.15
   8  24 -12    0.68    0.14
  -8  24  12    0.87    0.15
  -8 -24 -12    0.55    0.13
  -8 -24  12    0.88    0.14
  -8  24 -12    0.73    0.15
  10  24   0   -0.02    0.06
  10 -24   0    0.05    0.03
 -10 -24   0    0.01    0.05
 -10  24   0    0.02    0.05
 -10 -24   0   -0.01    0.05
 -10  24   0   -0.06    0.05
 -10 -24  -2   15.73    0.55
  10  24  -2   16.30    0.58
 -10  24   2   17.01    0.58
 -10 -24  -2   16.39    0.55
 -10  24   2   17.45    0.57
  10 -24   2   16.22    0.53
 -10 -24   2   16.42    0.56
 -10 -24   2   16.75    0.58
 -10  24  -2   16.64    0.56
 -10  24  -2   17.25    0.56
  10  24   2   16.80    0.56
  10 -24   4    1.43    0.11
 -10  24   4    1.20    0.12
 -10 -24  -4    1.13    0.11
  10  24  -4    1.24    0.14
 -10  24   4    1.13    0.13
 -10 -24  -4    1.21    0.12
 -10 -24   4    1.19    0.11
 -10  24  -4    1.23    0.13
 -10 -24   4    1.08    0.13
 -10  24  -4    1.25    0.10
  10  24   4    1.39    0.11
 -10  24   6   11.01    0.41
 -10 -24  -6   10.33    0.38
  10 -24   6   10.53    0.40
 -10 -24  -6   10.49    0.40
 -10  24   6   10.52    0.43
  10  24  -6   10.62    0.43
 -10 -24   6    9.97    0.44
 -10  24  -6    9.88    0.41
 -10 -24   6   10.43    0.39
 -10  24   8    0.30    0.10
  10  24  -8    0.17    0.09
 -10  24   8    0.26    0.10
 -10 -24  -8    0.39    0.10
 -10  24  -8    0.36    0.10
 -10 -24   8    0.25    0.11
 -10 -24   8    0.39    0.09
 -10  24  10    0.42    0.12
 -10 -24 -10    0.51    0.12
  10  24 -10    0.44    0.12
 -10  24 -10    0.49    0.12
 -10  24  12   -0.17    0.09
  10  24 -12    0.32    0.12
 -10 -24 -12    0.00    0.09
 -10  24 -12    0.12    0.11
  10  24 -14   -0.05    0.12
  10 -24 -14   -0.02    0.10
 -12 -24   0    2.85    0.17
  12  24   0    3.26    0.19
 -12  24   0    3.10    0.18
 -12 -24   0    3.10    0.17
 -12  24   0    2.86    0.18
 -12  24   2    0.81    0.11
  12  24  -2    0.88    0.12
 -12 -24  -2    0.91    0.10
 -12 -24  -2    1.09    0.11
 -12  24   2    0.73    0.11
 -12 -24   2    0.77    0.12
  12  24   2    1.05    0.11
 -12  24  -2    0.76    0.11
 -12 -24   2    0.92    0.10
 -12  24  -2    0.77    0.09
 -12 -24  -4    0.26    0.08
 -12 -24  -4    0.11    0.07
 -12  24   4    0.21    0.09
 -12  24   4    0.28    0.08
  12  24  -4    0.21    0.09
 -12  24  -4    0.22    0.08
 -12 -24   4    0.29    0.07
 -12 -24   4    0.44    0.11
 -12  24   6    0.29    0.09
 -12  24   6    0.15    0.08
  12  24  -6    0.23    0.09
 -12 -24  -6    0.11    0.08
 -12 -24  -6    0.23    0.07
 -12  24  -6    0.07    0.08
 -12 -24   6    0.20    0.10
 -12  24   8    0.25    0.11
 -12  24   8    0.18    0.11
 -12 -24  -8    0.15    0.09
  12  24  -8    0.07    0.10
 -12 -24   8    0.29    0.12
 -12  24  -8    0.15    0.10
 -12 -24 -10    0.02    0.09
 -12  24  10    0.11    0.11
  12  24 -10    0.18    0.11
 -12  24 -10    0.28    0.12
  12  24 -12    0.45    0.14
 -12  24  12    0.43    0.15
 -12 -24 -12    0.54    0.14
 -12  24 -12    0.70    0.16
 -14 -24   0    0.49    0.09
 -14 -24   0    0.73    0.11
  14  24   0    0.49    0.09
 -14  24   0    0.49    0.10
 -14  24   0    0.62    0.10
  14  24  -2    1.09    0.13
 -14 -24  -2    1.18    0.12
 -14  24   2    0.81    0.12
 -14  24   2    1.10    0.14
 -14 -24  -2    0.92    0.12
 -14  24  -2    1.03    0.11
 -14  24  -2    1.13    0.13
 -14 -24   2    1.01    0.14
  14  24   2    1.13    0.12
 -14  24   4    0.03    0.08
 -14  24   4    0.03    0.08
 -14 -24  -4    0.21    0.08
 -14 -24  -4    0.09    0.07
  14  24  -4   -0.08    0.08
 -14  24  -4    0.05    0.07
 -14 -24   4    0.22    0.10
 -14  24   6    1.46    0.17
 -14 -24  -6    1.25    0.14
 -14 -24  -6    1.47    0.15
 -14  24   6    1.39    0.17
  14  24  -6    1.52    0.17
 -14 -24   6    1.21    0.17
 -14  24  -6    1.51    0.16
 -14  24   8    0.69    0.15
 -14  24   8    0.61    0.14
 -14 -24  -8    0.92    0.14
  14  24  -8    0.56    0.13
 -14 -24   8    0.57    0.15
 -14  24  -8    0.47    0.12
  14  24 -10    0.46    0.14
 -14  24  10    0.29    0.13
 -14 -24 -10    0.59    0.13
 -14  24 -10    0.37    0.13
 -14 -24  10    0.47    0.15
  16  24   0   -0.02    0.08
 -16  24   0    0.06    0.08
 -16  24   0    0.00    0.08
 -16 -24   0    0.05    0.09
 -16  24   2    0.16    0.09
 -16  24   2    0.19    0.10
  16  24  -2    0.11    0.09
 -16 -24  -2    0.16    0.09
 -16  24  -2    0.06    0.08
 -16 -24   2    0.19    0.10
 -16  24   4    2.39    0.20
 -16 -24  -4    2.66    0.19
 -16  24   4    2.72    0.21
  16  24  -4    2.45    0.20
 -16 -24  -4    2.48    0.19
 -16  24  -4    2.64    0.20
 -16 -24   4    2.61    0.23
 -16  24   6    0.21    0.11
 -16 -24  -6    0.39    0.11
  16  24  -6    0.25    0.12
 -16  24   6    0.29    0.12
 -16 -24  -6    0.17    0.10
 -16 -24   6    0.43    0.13
 -16  24  -6    0.24    0.11
 -16  24   8    0.05    0.12
  16  24  -8    0.09    0.10
 -16  24   8   -0.02    0.11
 -16 -24  -8    0.02    0.09
 -16  24  -8    0.05    0.10
 -16 -24   8   -0.03    0.12
 -16 -24 -10    0.18    0.11
  16  24 -10    0.29    0.13
 -16 -24  10    0.33    0.16
 -16  24 -10    0.51    0.15
 -18 -24   0    0.07    0.10
 -18  24   0    0.03    0.09
  18  24  -2    0.91    0.14
 -18  24   2    0.97    0.16
 -18 -24  -2    0.87    0.14
 -18  24   2    0.86    0.15
 -18 -24   2    0.94    0.16
 -18  24  -2    0.98    0.16
 -18 -24  -4    0.75    0.14
 -18  24   4    0.41    0.13
  18  24  -4    0.81    0.15
 -18  24   4    0.48    0.13
 -18 -24   4    0.63    0.15
 -18  24  -4    0.50    0.13
 -18  24   6    0.48    0.14
 -18  24   6    0.32    0.13
  18  24  -6    0.22    0.13
 -18  24  -6    0.07    0.11
 -18 -24   6    0.76    0.17
  18  24  -8    0.03    0.11
 -18  24   8    0.09    0.13
 -18  24   8    0.18    0.13
 -18 -24   8    0.06    0.13
 -18  24  -8    0.09    0.11
 -20 -24   0    0.18    0.12
 -20  24   0    0.11    0.12
 -20  24   2    0.04    0.11
 -20  24   2    0.08    0.12
 -20 -24  -2    0.16    0.11
  20  24  -2    0.07    0.11
 -20  24  -2    0.18    0.11
 -20 -24   2    0.22    0.13
  20  24  -4    1.16    0.17
 -20  24   4    0.90    0.18
 -20 -24  -4    1.13    0.17
 -20  24   4    1.18    0.18
 -20 -24   4    1.33    0.20
 -20  24  -4    1.09    0.18
 -20  24   6    0.14    0.14
  20  24  -6   -0.01    0.12
 -20  24  -6    0.24    0.13
 -20 -24   6    0.16    0.14
 -22 -24   0    0.01    0.13
 -22  24   0    0.02    0.13
 -22  24   2    0.18    0.14
 -22 -24  -2    0.10    0.12
 -22 -24   2    0.00    0.13
  22  24  -4    0.58    0.16
 -22 -24  -4    0.38    0.14
  22 -24  -4    0.50    0.14
   1 -25   1    5.16    0.21
  -1  25   1    4.33    0.20
  -1  25   1    5.54    0.17
   1  25  -1    4.27    0.20
  -1 -25  -1    5.53    0.21
   1 -25  -1    5.43    0.20
  -1  25  -1    5.56    0.21
   1  25   1    5.50    0.21
  -1 -25   1    5.12    0.21
  -1  25  -1    5.60    0.19
   1  25   1    5.99    0.16
   1 -25   3    1.61    0.10
  -1 -25  -3    1.47    0.10
   1  25  -3    1.41    0.10
  -1  25   3    1.49    0.10
  -1  25  -3    1.47    0.10
   1 -25  -3    1.42    0.10
   1  25   3    1.69    0.10
  -1 -25   3    1.28    0.10
  -1  25  -3    1.62    0.10
  -1 -25  -5    3.80    0.18
  -1 -25  -5    3.82    0.13
  -1  25   5    3.81    0.18
   1  25  -5    3.83    0.19
   1 -25   5    3.43    0.18
  -1  25  -5    4.04    0.18
  -1 -25   5    4.27    0.20
   1 -25  -5    3.91    0.18
   1  25   5    4.00    0.18
   1 -25  -5    3.94    0.14
  -1  25  -5    3.73    0.19
  -1 -25  -7    8.96    0.34
   1  25  -7    9.13    0.36
  -1  25   7    8.96    0.34
   1  25  -7    8.43    0.33
  -1 -25  -7    8.45    0.29
   1 -25  -7    8.46    0.32
  -1  25  -7    8.50    0.32
   1 -25  -7    8.27    0.29
  -1  25  -7    8.60    0.35
   1  25   7    8.93    0.33
  -1 -25   7    8.34    0.34
   1  25  -9    1.22    0.15
  -1  25   9    1.23    0.13
   1  25  -9    1.38    0.13
   1 -25   9    1.21    0.14
  -1 -25  -9    1.48    0.14
  -1 -25   9    1.17    0.14
  -1  25  -9    1.43    0.13
  -1  25  -9    1.23    0.16
   1 -25  -9    1.30    0.13
   1  25   9    1.17    0.12
  -1 -25 -11   -0.07    0.07
   1  25 -11    0.07    0.09
   1 -25  11    0.03    0.08
  -1  25 -11   -0.01    0.10
   1 -25 -11   -0.04    0.07
  -1 -25  11    0.04    0.08
  -1 -25 -13   -0.03    0.08
   1 -25  13    0.09    0.09
   1  25 -13    0.24    0.12
  -1  25 -13   -0.15    0.09
   1 -25 -13    0.03    0.08
  -1 -25  13    0.07    0.09
  -1 -25 -15   -0.08    0.10
   1 -25 -15    0.10    0.10
  -3 -25  -1    3.45    0.17
   3 -25   1    4.43    0.18
  -3 -25  -1    4.45    0.15
  -3  25   1    4.39    0.19
  -3  25   1    4.70    0.15
   3  25  -1    4.65    0.19
  -3 -25   1    4.40    0.17
  -3 -25   1    4.77    0.19
   3  25   1    4.38    0.18
   3 -25  -1    4.34    0.17
  -3  25  -1    4.50    0.18
  -3  25  -1    4.35    0.17
   3 -25   3    9.29    0.33
   3  25  -3    8.99    0.34
  -3 -25  -3    8.94    0.32
  -3  25   3    9.39    0.34
  -3  25   3    9.63    0.29
  -3 -25  -3    9.17    0.28
  -3  25  -3    8.75    0.32
  -3 -25   3    9.21    0.34
   3  25   3    9.52    0.33
   3 -25  -3    8.97    0.31
  -3  25  -3    9.14    0.32
   3 -25   5    2.53    0.15
  -3 -25  -5    2.51    0.14
   3  25  -5    2.59    0.15
  -3 -25  -5    2.57    0.10
  -3  25   5    2.79    0.12
  -3  25   5    2.52    0.15
   3  25   5    2.60    0.13
   3 -25  -5    2.47    0.13
  -3 -25   5    2.46    0.15
  -3  25  -5    2.50    0.14
  -3  25  -5    2.72    0.14
  -3  25   7    0.74    0.10
  -3 -25  -7    0.72    0.11
  -3 -25  -7    0.75    0.07
   3  25  -7    0.70    0.10
   3 -25   7    0.78    0.10
  -3 -25   7    0.98    0.11
   3 -25  -7    0.70    0.09
  -3  25  -7    0.68    0.11
   3  25   7    0.80    0.09
  -3  25  -7    0.65    0.09
  -3  25   9    9.27    0.37
  -3 -25  -9    9.09    0.37
   3  25  -9    9.03    0.36
   3 -25   9    8.28    0.37
   3 -25  -9    8.78    0.35
  -3 -25   9    8.41    0.37
  -3  25  -9    8.92    0.38
  -3 -25 -11    1.39    0.15
  -3  25  11    0.91    0.13
   3 -25  11    1.05    0.14
   3  25 -11    0.87    0.15
   3  25 -11    0.93    0.13
  -3 -25  11    1.10    0.14
   3 -25 -11    1.17    0.13
  -3  25 -11    1.31    0.16
   3  25 -13   -0.11    0.11
  -3 -25 -13   -0.12    0.07
  -3 -25  13   -0.08    0.08
  -3  25 -13    0.02    0.12
   3 -25 -13    0.07    0.08
  -3 -25 -15    0.10    0.10
   5 -25   1   16.28    0.52
  -5 -25  -1   16.85    0.53
  -5  25   1   16.18    0.54
   5  25  -1   15.69    0.54
  -5 -25  -1   16.12    0.50
  -5 -25   1   16.40    0.53
  -5 -25   1   16.08    0.52
   5 -25  -1   16.19    0.51
  -5  25  -1   16.62    0.54
  -5  25  -1   16.07    0.51
   5  25   1   16.24    0.54
  -5  25   3   11.90    0.41
  -5 -25  -3   12.67    0.43
  -5 -25  -3   12.59    0.39
   5 -25   3   12.92    0.43
   5  25   3   12.71    0.43
  -5  25  -3   12.92    0.43
   5 -25  -3   13.02    0.41
  -5 -25   3   12.99    0.44
  -5 -25   3   12.85    0.44
  -5  25  -3   12.81    0.43
  -5  25   5    1.27    0.11
  -5 -25  -5    1.02    0.07
  -5  25   5    1.18    0.09
   5 -25   5    1.14    0.11
   5  25  -5    1.24    0.11
  -5 -25   5    0.97    0.10
  -5  25  -5    1.09    0.11
   5 -25  -5    1.22    0.09
  -5  25  -5    1.14    0.09
   5  25   5    1.29    0.09
  -5  25   7    1.71    0.12
   5  25  -7    1.44    0.14
   5 -25   7    1.26    0.13
  -5  25   7    1.35    0.13
  -5 -25  -7    1.44    0.10
  -5 -25  -7    1.34    0.13
   5  25   7    1.44    0.10
  -5 -25   7    1.25    0.12
  -5  25  -7    1.41    0.14
   5 -25  -7    1.41    0.10
  -5  25  -7    1.40    0.10
  -5  25   9    0.18    0.08
   5  25  -9    0.05    0.08
  -5 -25  -9    0.26    0.09
   5 -25   9    0.10    0.08
   5 -25  -9    0.11    0.07
  -5  25  -9    0.10    0.10
  -5 -25   9   -0.02    0.06
  -5 -25 -11    0.57    0.12
   5 -25  11    0.41    0.11
   5  25 -11    0.49    0.11
  -5  25  11    0.39    0.11
  -5 -25  11    0.47    0.11
  -5  25 -11    0.47    0.13
   5  25 -13    0.55    0.15
  -5 -25 -13    0.46    0.13
  -5  25 -13    0.22    0.13
  -5 -25  13    0.49    0.12
  -7 -25  -1   22.16    0.71
   7  25  -1   21.95    0.72
  -7 -25  -1   21.61    0.68
  -7  25   1   21.97    0.72
  -7  25   1   21.79    0.69
   7 -25   1   22.35    0.68
  -7 -25   1   21.91    0.70
  -7  25  -1   22.74    0.71
   7  25   1   22.05    0.72
  -7  25  -1   22.12    0.69
   7 -25  -1   22.21    0.67
  -7 -25   1   22.15    0.71
   7 -25   3    6.63    0.25
  -7 -25  -3    6.53    0.23
  -7  25   3    5.61    0.26
  -7  25   3    6.67    0.25
   7  25  -3    5.84    0.26
  -7 -25  -3    6.83    0.26
  -7  25  -3    6.41    0.25
  -7 -25   3    6.56    0.26
   7 -25  -3    6.38    0.22
   7  25   3    6.27    0.25
  -7 -25   3    6.57    0.27
  -7  25  -3    6.57    0.26
  -7  25   5    6.09    0.24
   7  25  -5    5.62    0.27
  -7 -25  -5    5.91    0.22
  -7  25   5    5.71    0.27
  -7 -25  -5    5.64    0.25
   7 -25   5    5.86    0.25
   7  25   5    5.75    0.23
  -7 -25   5    6.11    0.26
   7 -25  -5    5.72    0.21
  -7 -25   5    6.09    0.28
  -7  25  -5    5.74    0.22
  -7  25  -5    5.64    0.26
  -7 -25  -7    2.13    0.16
   7 -25   7    2.15    0.17
   7  25  -7    2.43    0.18
  -7 -25  -7    2.49    0.14
  -7  25   7    2.36    0.16
  -7  25   7    2.27    0.17
  -7 -25   7    1.95    0.16
  -7  25  -7    2.19    0.17
  -7  25   9    1.52    0.16
   7 -25   9    1.16    0.14
   7  25  -9    1.25    0.14
  -7 -25  -9    1.53    0.15
  -7 -25   9    1.51    0.15
  -7  25  -9    1.45    0.16
  -7 -25 -11    0.59    0.12
   7  25 -11    0.44    0.12
  -7  25  11    0.31    0.11
  -7  25 -11    0.29    0.12
  -7 -25  11    0.44    0.11
  -7  25  13    0.42    0.13
  -7 -25 -13    0.19    0.11
   7  25 -13    0.09    0.11
  -7  25 -13    0.48    0.14
  -7 -25  13    0.52    0.13
  -9 -25  -1    2.57    0.14
  -9  25   1    2.52    0.15
  -9  25   1    2.53    0.14
  -9 -25  -1    2.54    0.14
   9 -25   1    2.51    0.12
   9  25  -1    2.55    0.16
  -9 -25   1    2.45    0.15
   9  25   1    2.52    0.15
   9 -25  -1    2.38    0.11
  -9  25  -1    2.54    0.14
  -9 -25   1    2.58    0.15
  -9  25  -1    2.47    0.15
   9  25  -3    1.58    0.14
  -9  25   3    1.82    0.13
   9 -25   3    1.72    0.11
  -9 -25  -3    1.80    0.12
  -9  25   3    1.88    0.15
  -9 -25  -3    2.13    0.14
  -9 -25   3    1.95    0.13
   9  25   3    1.90    0.13
  -9 -25   3    1.91    0.15
  -9  25  -3    1.74    0.11
  -9  25  -3    2.01    0.14
   9  25  -5    5.59    0.27
  -9  25   5    5.51    0.27
  -9 -25  -5    5.32    0.25
  -9 -25  -5    5.29    0.22
   9 -25   5    5.47    0.24
  -9  25   5    5.89    0.25
  -9 -25   5    5.60    0.28
  -9 -25   5    5.73    0.25
  -9  25  -5    5.30    0.26
  -9  25   7    1.21    0.13
   9 -25   7    1.30    0.13
  -9 -25  -7    1.20    0.11
   9  25  -7    1.34    0.15
  -9  25   7    1.42    0.15
  -9 -25  -7    1.10    0.13
  -9 -25   7    1.35    0.13
  -9  25  -7    1.27    0.14
  -9 -25   7    1.31    0.16
   9  25  -9    1.66    0.17
  -9  25   9    1.42    0.17
  -9 -25  -9    1.69    0.16
   9 -25   9    1.45    0.15
  -9 -25   9    1.56    0.15
  -9  25  -9    1.43    0.16
   9  25 -11   -0.01    0.10
  -9  25  11    0.04    0.10
  -9 -25 -11    0.03    0.09
  -9  25 -11    0.18    0.11
  -9 -25 -13   -0.01    0.10
   9  25 -13   -0.08    0.10
  -9  25  13    0.05    0.11
  -9  25 -13    0.06    0.12
 -11  25   1    0.50    0.09
 -11 -25  -1    0.47    0.08
 -11 -25  -1    0.53    0.09
 -11  25   1    0.47    0.09
  11  25  -1    0.37    0.09
  11  25   1    0.46    0.09
 -11  25  -1    0.44    0.09
 -11 -25   1    0.53    0.09
 -11 -25   1    0.47    0.08
 -11  25  -1    0.36    0.08
  11 -25   3    3.74    0.17
 -11 -25  -3    3.78    0.19
 -11 -25  -3    3.53    0.20
 -11  25   3    3.64    0.22
 -11  25   3    3.94    0.20
  11  25  -3    3.66    0.21
 -11 -25   3    3.92    0.22
 -11 -25   3    3.79    0.19
  11  25   3    3.46    0.19
 -11  25  -3    3.86    0.18
 -11  25  -3    3.81    0.20
  11  25  -5    0.36    0.10
 -11 -25  -5    0.47    0.09
 -11 -25  -5    0.29    0.08
  11 -25   5    0.27    0.08
 -11  25   5    0.23    0.09
 -11  25   5    0.27    0.09
 -11 -25   5    0.33    0.10
 -11  25  -5    0.36    0.09
 -11 -25   5    0.41    0.08
 -11 -25  -7    1.13    0.12
 -11  25   7    1.12    0.14
  11  25  -7    0.77    0.13
 -11 -25  -7    1.01    0.12
 -11  25   7    0.77    0.13
 -11 -25   7    0.99    0.11
 -11  25  -7    1.15    0.14
 -11 -25   7    1.02    0.15
 -11 -25  -9    1.19    0.15
  11  25  -9    1.38    0.17
 -11  25   9    0.85    0.14
 -11  25  -9    0.89    0.14
 -11 -25   9    1.09    0.17
 -11 -25 -11    0.29    0.11
 -11  25  11    0.31    0.13
  11  25 -11    0.33    0.12
 -11  25 -11    0.42    0.13
  11  25 -13    0.06    0.12
 -13  25   1    0.64    0.10
 -13 -25  -1    0.62    0.09
  13  25  -1    0.32    0.09
 -13  25   1    0.74    0.11
 -13 -25  -1    0.61    0.10
 -13 -25   1    0.68    0.11
 -13  25  -1    0.55    0.10
 -13  25  -1    0.52    0.09
  13  25   1    0.46    0.09
 -13 -25   1    0.66    0.09
 -13  25   3    0.59    0.10
  13  25  -3    0.36    0.10
 -13 -25  -3    0.37    0.08
 -13  25   3    0.53    0.11
 -13 -25  -3    0.34    0.08
 -13 -25   3    0.46    0.11
 -13 -25   3    0.50    0.08
 -13  25  -3    0.41    0.09
 -13  25   5    0.72    0.13
 -13 -25  -5    0.82    0.12
 -13  25   5    0.65    0.12
 -13 -25  -5    0.84    0.11
  13  25  -5    0.73    0.12
 -13  25  -5    0.67    0.11
 -13 -25   5    0.68    0.13
 -13  25   7    0.90    0.14
 -13 -25  -7    0.80    0.13
 -13  25   7    0.76    0.13
  13  25  -7    0.66    0.13
 -13  25  -7    0.81    0.13
 -13 -25   7    0.56    0.14
 -13 -25  -9    0.57    0.12
  13  25  -9    0.13    0.11
 -13  25   9    0.33    0.12
 -13  25  -9    0.35    0.12
 -13 -25   9    0.29    0.14
  13  25 -11    0.93    0.17
 -13  25  11    0.90    0.17
 -13 -25 -11    0.77    0.14
 -13  25 -11    0.87    0.17
 -15  25   1    1.66    0.16
  15  25  -1    1.57    0.16
 -15 -25  -1    1.71    0.14
 -15  25   1    1.62    0.16
 -15 -25  -1    1.73    0.17
 -15  25  -1    1.55    0.15
  15  25   1    1.78    0.15
 -15  25  -1    1.89    0.17
 -15 -25   1    1.94    0.18
 -15  25   3    1.92    0.18
 -15  25   3    2.20    0.18
 -15 -25  -3    1.91    0.16
  15  25  -3    1.95    0.18
 -15 -25  -3    2.19    0.17
 -15  25  -3    2.19    0.18
 -15 -25   3    1.49    0.17
 -15  25   5    1.44    0.17
  15  25  -5    1.04    0.15
 -15  25   5    1.13    0.16
 -15 -25  -5    0.87    0.13
 -15 -25  -5    0.91    0.13
 -15  25  -5    1.08    0.15
 -15 -25   5    1.36    0.17
 -15  25   7    0.39    0.12
 -15 -25  -7    0.40    0.11
 -15  25   7    0.47    0.14
  15  25  -7    0.28    0.12
 -15  25  -7    0.41    0.12
 -15 -25   7    0.26    0.12
 -15  25   9    0.44    0.14
 -15 -25  -9    0.15    0.11
  15  25  -9    0.37    0.13
 -15  25  -9    0.26    0.12
 -15 -25   9    0.13    0.13
 -15 -25 -11    0.30    0.12
 -17  25   1    0.95    0.14
  17  25  -1    0.84    0.13
 -17  25   1    1.09    0.16
 -17 -25  -1    1.10    0.15
 -17 -25   1    0.73    0.14
 -17  25  -1    0.96    0.15
  17  25  -3    0.62    0.13
 -17 -25  -3    0.64    0.13
 -17  25   3    0.52    0.13
 -17  25   3    0.55    0.13
 -17 -25   3    0.49    0.13
 -17  25  -3    0.74    0.14
 -17  25   5   -0.01    0.10
  17  25  -5    0.08    0.11
 -17 -25  -5    0.16    0.10
 -17  25   5    0.12    0.11
 -17  25  -5    0.48    0.13
 -17 -25   5    0.07    0.12
 -17  25   7    0.86    0.16
 -17  25   7    0.90    0.17
  17  25  -7    0.94    0.17
 -17 -25  -7    0.85    0.14
 -17  25  -7    0.88    0.15
 -17 -25   7    0.93    0.19
 -17  25   9    0.44    0.15
 -17 -25  -9    0.59    0.14
  17  25  -9    0.41    0.15
 -17 -25   9    0.70    0.18
 -17  25  -9    0.39    0.14
 -19  25   1    0.24    0.11
  19  25  -1    0.25    0.12
 -19  25   1    0.28    0.12
 -19 -25  -1    0.15    0.11
 -19 -25   1    0.34    0.12
 -19  25  -1    0.18    0.11
 -19  25   3    0.21    0.12
 -19 -25  -3    0.25    0.11
 -19  25   3    0.38    0.12
  19  25  -3   -0.04    0.10
 -19  25  -3    0.12    0.11
 -19 -25   3    0.44    0.14
 -19  25   5    0.08    0.11
 -19 -25  -5    0.02    0.10
 -19  25   5    0.08    0.12
  19  25  -5   -0.05    0.10
 -19  25  -5    0.20    0.12
 -19 -25   5    0.02    0.12
 -19  25   7    1.05    0.19
  19  25  -7    0.88    0.17
 -19  25   7    0.80    0.17
 -19  25  -7    0.86    0.17
 -19 -25   7    0.65    0.18
 -21 -25  -1    2.11    0.23
 -21  25   1    1.74    0.22
 -21 -25   1    2.18    0.24
 -21  25  -1    2.01    0.24
 -21  25   3    0.19    0.14
  21  25  -3    0.17    0.12
 -21 -25  -3    0.22    0.13
 -21 -25   3    0.08    0.13
 -21  25  -3    0.22    0.14
  21  25  -5    0.18    0.13
 -21  25   5    0.26    0.14
  21 -25  -5    0.19    0.11
   0  26   0    0.02    0.01
   0  26   0    0.14    0.03
   0 -26   0    0.07    0.03
   0  26   2   25.38    0.83
   0 -26  -2   27.45    0.81
   0  26  -2   26.71    0.83
   0 -26   2   25.31    0.81
   0  26  -4   -0.07    0.04
   0  26  -4    0.04    0.05
   0 -26   4    0.02    0.02
   0 -26  -4   -0.06    0.04
   0  26   4   -0.01    0.04
   0  26  -6    6.50    0.26
   0  26  -6    6.53    0.27
   0 -26  -6    6.34    0.26
   0 -26  -6    6.30    0.21
   0  26   6    6.35    0.26
   0 -26  -8    0.22    0.09
   0  26  -8    0.05    0.08
   0  26  -8    0.21    0.11
   0 -26   8    0.38    0.10
   0  26   8    0.12    0.07
   0  26 -10    5.44    0.29
   0 -26  10    4.59    0.26
   0 -26 -10    5.56    0.27
   0  26 -10    5.32    0.25
   0  26 -12   -0.01    0.10
   0 -26  12    0.06    0.08
   0 -26 -12   -0.02    0.08
   0  26 -14    0.52    0.16
   0 -26  14    0.47    0.13
   0 -26 -14    0.52    0.13
   2  26   0   50.27    1.57
   2 -26   0   50.79    1.52
  -2  26   0   52.73    1.50
  -2  26   0   52.56    1.58
   2 -26   2    7.36    0.28
  -2 -26  -2    7.31    0.27
  -2  26   2    7.47    0.23
  -2  26   2    7.33    0.28
   2  26  -2    7.78    0.28
   2  26   2    7.65    0.28
  -2  26  -2    7.67    0.28
  -2 -26   2    7.46    0.28
   2 -26  -2    7.18    0.26
   2  26  -4    3.70    0.19
  -2 -26  -4    3.74    0.18
  -2  26   4    3.78    0.18
   2 -26   4    4.09    0.19
  -2 -26  -4    3.92    0.12
   2 -26  -4    3.85    0.16
  -2 -26   4    4.04    0.19
   2  26   4    4.15    0.18
  -2  26  -4    4.14    0.18
  -2  26  -4    3.84    0.18
  -2 -26  -6    0.35    0.08
  -2  26   6    0.42    0.08
  -2 -26  -6    0.52    0.05
   2 -26   6    0.18    0.06
   2  26  -6    0.19    0.07
   2  26   6    0.38    0.07
  -2  26  -6    0.48    0.08
  -2 -26   6    0.48    0.09
   2 -26  -6    0.45    0.07
  -2  26  -6    0.45    0.09
  -2 -26  -8    2.72    0.17
   2  26  -8    2.50    0.17
  -2  26   8    2.52    0.17
   2 -26   8    2.69    0.19
   2  26   8    2.96    0.16
   2 -26  -8    2.41    0.16
  -2  26  -8    2.45    0.16
  -2 -26   8    2.55    0.17
  -2  26  -8    2.24    0.19
   2  26 -10    0.06    0.08
   2 -26  10   -0.06    0.07
  -2 -26 -10    0.08    0.08
   2  26 -10    0.00    0.09
  -2  26  10    0.11    0.08
  -2  26 -10    0.32    0.11
   2 -26 -10    0.00    0.07
  -2 -26  10    0.29    0.10
   2  26 -12    1.12    0.17
   2 -26  12    1.11    0.16
   2 -26 -12    1.21    0.14
  -2  26 -12    0.99    0.17
  -2 -26  12    0.94    0.14
  -2 -26 -14    0.33    0.12
   2  26 -14    0.13    0.13
  -2 -26  14    0.13    0.11
   2 -26 -14    0.30    0.11
  -2  26 -14    0.07    0.13
  -4 -26   0   39.29    1.16
  -4  26   0   39.43    1.16
  -4  26   0   38.09    1.21
   4 -26   0   38.93    1.17
  -4 -26   0   38.74    1.18
   4  26   0   40.79    1.22
  -4 -26  -2   29.56    0.93
  -4 -26  -2   29.63    0.89
   4 -26   2   29.92    0.92
  -4  26   2   31.49    0.90
  -4  26  -2   30.44    0.95
  -4 -26   2   30.96    0.93
  -4  26  -2   29.98    0.91
   4 -26  -2   29.92    0.91
  -4 -26   2   29.52    0.93
   4  26   2   30.54    0.95
  -4 -26  -4    3.16    0.12
  -4  26   4    3.23    0.16
   4  26  -4    3.25    0.17
   4 -26   4    3.08    0.16
  -4  26   4    3.08    0.13
  -4  26  -4    3.02    0.16
  -4 -26   4    3.13    0.17
  -4  26  -4    3.16    0.15
   4 -26  -4    3.22    0.14
   4  26   4    3.20    0.15
   4  26  -6   14.17    0.49
  -4  26   6   13.47    0.45
  -4 -26  -6   14.44    0.43
   4 -26   6   14.39    0.50
  -4  26   6   14.02    0.50
  -4 -26  -6   11.22    0.47
   4 -26  -6   14.13    0.46
  -4  26  -6   14.17    0.49
  -4  26  -6   13.98    0.47
  -4 -26   6   13.28    0.49
   4  26   6   14.27    0.47
   4  26  -8    0.08    0.08
   4 -26   8    0.11    0.08
  -4 -26  -8    0.31    0.09
  -4  26   8    0.17    0.08
   4 -26  -8    0.19    0.07
  -4  26  -8    0.17    0.09
  -4 -26   8    0.18    0.08
   4  26 -10    2.56    0.18
   4 -26  10    2.45    0.19
  -4 -26 -10    2.61    0.19
  -4  26  10    2.33    0.19
  -4  26 -10    2.66    0.21
   4 -26 -10    2.53    0.17
  -4 -26  10    2.27    0.18
  -4 -26 -12    0.08    0.09
   4 -26  12    0.06    0.09
   4  26 -12    0.05    0.10
  -4 -26  12   -0.07    0.08
  -4  26 -12   -0.02    0.11
  -4 -26 -14    0.50    0.13
   4  26 -14    0.55    0.16
  -4  26 -14    0.57    0.16
  -4 -26  14    0.52    0.13
  -6 -26   0   23.46    0.73
  -6 -26   0   23.67    0.75
  -6  26   0   23.90    0.77
  -6  26   0   24.09    0.73
   6 -26   0   23.97    0.73
   6  26   0   24.14    0.77
  -6  26   2    9.07    0.34
  -6  26   2    8.88    0.31
  -6 -26  -2    8.41    0.32
   6  26  -2    9.13    0.34
  -6 -26  -2    8.42    0.29
   6 -26   2    9.18    0.32
  -6 -26   2    8.97    0.33
  -6 -26   2    9.43    0.33
   6 -26  -2    8.68    0.30
   6  26   2    8.86    0.33
  -6  26  -2    8.63    0.32
  -6  26  -2    9.05    0.32
  -6  26   4    8.79    0.30
   6 -26   4    8.00    0.32
  -6 -26  -4    8.57    0.28
  -6 -26  -4    8.49    0.33
   6  26   4    8.01    0.31
   6 -26  -4    8.87    0.29
  -6  26  -4    8.52    0.31
  -6 -26   4    8.35    0.32
  -6  26  -4    8.44    0.32
  -6 -26   4    8.75    0.34
  -6  26   6    0.26    0.07
   6  26  -6    0.36    0.09
  -6 -26  -6    0.27    0.05
   6 -26   6    0.11    0.07
  -6  26   6    0.29    0.08
  -6 -26  -6    0.24    0.07
   6  26   6    0.32    0.06
  -6  26  -6    0.08    0.07
  -6  26  -6    0.27    0.06
  -6 -26   6    0.15    0.06
   6 -26  -6    0.30    0.06
  -6 -26  -8    2.59    0.18
  -6  26   8    2.77    0.20
   6 -26   8    2.65    0.19
   6  26  -8    2.72    0.19
   6 -26  -8    2.70    0.15
  -6  26  -8    2.88    0.20
  -6 -26   8    2.61    0.18
   6 -26  10    0.87    0.13
   6  26 -10    0.48    0.11
  -6  26  10    0.43    0.11
  -6 -26 -10    0.75    0.12
  -6  26 -10    0.74    0.13
  -6 -26  10    0.75    0.12
  -6  26  12    0.07    0.10
  -6 -26 -12    0.11    0.09
   6  26 -12   -0.03    0.09
  -6 -26  12   -0.03    0.08
  -6  26 -12    0.16    0.12
  -6 -26 -14    0.04    0.11
   6  26 -14    0.04    0.12
  -6  26 -14    0.07    0.13
  -6 -26  14    0.07    0.10
   8 -26   0    9.92    0.33
  -8  26   0    9.99    0.36
  -8 -26   0   10.01    0.36
   8  26   0    9.98    0.37
  -8  26   0    9.31    0.35
  -8 -26   0   10.03    0.35
   8 -26   2    3.06    0.15
   8  26  -2    3.15    0.17
  -8  26   2    3.16    0.15
  -8  26   2    2.93    0.17
  -8 -26  -2    3.12    0.15
  -8 -26  -2    2.60    0.16
   8 -26  -2    2.83    0.12
  -8 -26   2    2.80    0.17
  -8  26  -2    2.98    0.16
   8  26   2    2.72    0.15
  -8 -26   2    2.87    0.16
  -8  26  -2    2.97    0.15
  -8 -26  -4    6.01    0.23
  -8 -26  -4    5.50    0.25
   8 -26   4    5.82    0.24
  -8  26   4    6.28    0.25
  -8 -26   4    5.73    0.25
  -8  26  -4    5.59    0.25
  -8  26  -4    6.10    0.23
   8  26   4    5.90    0.24
  -8 -26   4    5.33    0.26
  -8  26   6    1.03    0.13
   8  26  -6    1.04    0.13
  -8 -26  -6    1.01    0.12
  -8 -26  -6    1.32    0.10
   8 -26   6    1.32    0.13
  -8  26   6    1.13    0.12
  -8 -26   6    1.41    0.15
  -8 -26   6    1.39    0.13
  -8  26  -6    1.12    0.13
  -8  26   8    2.16    0.18
  -8 -26  -8    2.50    0.18
   8  26  -8    2.49    0.19
   8 -26   8    2.30    0.18
  -8  26   8    2.30    0.17
  -8  26  -8    2.21    0.18
  -8 -26   8    2.35    0.17
  -8  26  10    0.11    0.10
  -8 -26 -10    0.07    0.09
   8  26 -10    0.03    0.09
   8 -26  10    0.13    0.09
  -8 -26  10    0.12    0.08
  -8  26 -10    0.23    0.10
   8  26 -12    0.16    0.11
  -8 -26 -12    0.14    0.09
  -8  26  12    0.15    0.11
  -8 -26  12    0.09    0.09
  -8  26 -12   -0.04    0.11
  10  26   0    6.70    0.28
 -10  26   0    6.85    0.28
 -10 -26   0    6.52    0.28
 -10  26   0    7.39    0.28
 -10 -26   0    6.81    0.28
  10  26  -2   13.21    0.49
 -10  26   2   13.48    0.49
  10 -26   2   13.71    0.44
 -10  26   2   13.77    0.47
 -10 -26  -2   13.60    0.46
 -10 -26  -2   13.11    0.47
 -10  26  -2   13.08    0.47
 -10 -26   2   13.18    0.47
  10  26   2   12.90    0.47
 -10 -26   2   13.41    0.48
 -10  26  -2   13.57    0.47
 -10 -26  -4    4.22    0.19
 -10 -26  -4    4.18    0.21
 -10  26   4    4.38    0.22
 -10  26   4    4.50    0.24
  10  26  -4    4.07    0.23
  10 -26   4    4.19    0.19
 -10  26  -4    3.92    0.21
 -10 -26   4    4.03    0.20
 -10  26  -4    3.95    0.18
 -10 -26   4    3.72    0.22
  10  26   4    4.18    0.19
  10 -26   6    0.87    0.11
 -10  26   6    1.15    0.13
  10  26  -6    1.04    0.13
 -10 -26  -6    1.15    0.13
 -10 -26  -6    1.34    0.12
 -10  26   6    1.03    0.14
 -10 -26   6    1.32    0.13
 -10 -26   6    0.98    0.14
 -10  26  -6    1.14    0.13
 -10  26   8    1.21    0.15
  10 -26   8    1.47    0.15
 -10  26   8    0.90    0.14
  10  26  -8    1.32    0.16
 -10 -26  -8    1.22    0.14
 -10  26  -8    1.18    0.14
 -10 -26   8    1.13    0.16
 -10 -26   8    1.41    0.14
 -10  26  10    0.08    0.10
 -10 -26 -10    0.01    0.09
  10  26 -10    0.05    0.10
 -10  26 -10    0.22    0.11
 -10  26  12    0.18    0.12
  10  26 -12    0.18    0.11
 -10 -26 -12    0.20    0.10
 -10  26 -12    0.13    0.12
 -12 -26   0    0.66    0.10
 -12  26   0    0.66    0.10
 -12 -26   0    0.69    0.09
 -12  26   0    0.70    0.10
  12  26   0    0.56    0.10
  12  26  -2    7.04    0.31
 -12 -26  -2    7.02    0.29
 -12  26   2    7.26    0.30
 -12 -26  -2    6.68    0.29
 -12  26   2    7.45    0.31
  12  26   2    6.93    0.29
 -12 -26   2    6.84    0.29
 -12  26  -2    6.92    0.31
 -12 -26   2    6.98    0.31
 -12  26  -2    6.75    0.29
 -12  26   4    2.57    0.18
  12  26  -4    2.15    0.18
 -12 -26  -4    2.25    0.17
 -12  26   4    2.17    0.17
 -12 -26  -4    2.55    0.15
  12 -26   4    2.24    0.14
 -12  26  -4    2.34    0.17
 -12 -26   4    2.13    0.15
 -12 -26   4    2.36    0.19
 -12 -26  -6    0.43    0.10
 -12 -26  -6    0.59    0.09
 -12  26   6    0.58    0.11
 -12  26   6    0.47    0.10
  12  26  -6    0.45    0.11
 -12 -26   6    0.45    0.11
 -12  26  -6    0.61    0.11
  12  26  -8    1.29    0.17
 -12  26   8    1.83    0.18
 -12 -26  -8    1.54    0.16
 -12  26   8    1.54    0.18
 -12  26  -8    1.34    0.16
 -12 -26   8    1.60    0.19
  12  26 -10   -0.01    0.10
 -12  26  10    0.06    0.11
 -12 -26 -10    0.04    0.09
 -12  26 -10    0.06    0.11
  12  26 -12    0.11    0.12
 -12  26  12    0.14    0.13
 -12 -26 -12    0.26    0.12
 -12  26 -12    0.19    0.13
 -14 -26   0    0.32    0.08
 -14  26   0    0.12    0.08
 -14  26   0    0.16    0.09
  14  26   0    0.23    0.09
 -14 -26   0    0.21    0.09
 -14  26   2    0.54    0.11
 -14 -26  -2    0.71    0.11
  14  26  -2    0.73    0.12
 -14  26   2    0.51    0.10
 -14 -26  -2    0.80    0.11
 -14  26  -2    0.61    0.11
  14  26   2    0.61    0.10
 -14  26  -2    0.66    0.10
 -14 -26   2    0.33    0.10
 -14  26   4    0.31    0.10
 -14 -26  -4    0.29    0.09
  14  26  -4    0.15    0.09
 -14 -26  -4    0.22    0.09
 -14  26   4    0.19    0.10
 -14 -26   4    0.27    0.11
 -14  26  -4    0.18    0.09
 -14 -26  -6    0.19    0.09
 -14  26   6    0.04    0.09
  14  26  -6    0.05    0.10
 -14 -26  -6    0.11    0.08
 -14  26   6    0.16    0.09
 -14  26  -6    0.12    0.09
 -14 -26   6    0.13    0.10
 -14  26   8    0.61    0.14
 -14 -26  -8    0.59    0.12
 -14  26   8    0.77    0.14
  14  26  -8    0.62    0.14
 -14 -26   8    0.67    0.15
 -14  26  -8    0.62    0.13
 -14 -26 -10    0.19    0.11
 -14  26  10    0.16    0.12
  14  26 -10    0.06    0.12
 -14  26 -10    0.23    0.13
 -14 -26  10    0.16    0.13
 -16  26   0    3.18    0.22
  16  26   0    2.98    0.20
 -16 -26   0    2.76    0.21
 -16  26   0    3.24    0.21
 -16 -26  -2    1.97    0.18
  16  26  -2    1.64    0.17
 -16  26   2    2.11    0.19
 -16  26   2    2.02    0.19
 -16 -26   2    1.69    0.19
 -16  26  -2    2.07    0.19
 -16 -26  -4    2.78    0.19
 -16  26   4    2.85    0.21
 -16  26   4    2.62    0.21
  16  26  -4    2.68    0.21
 -16 -26  -4    2.94    0.20
 -16 -26   4    2.57    0.21
 -16  26  -4    2.37    0.22
  16  26  -6    0.45    0.13
 -16 -26  -6    0.55    0.12
 -16  26   6    0.58    0.14
 -16  26   6    0.33    0.12
 -16  26  -6    0.35    0.12
 -16 -26   6    0.69    0.16
 -16 -26  -8    0.42    0.12
 -16  26   8    0.51    0.14
  16  26  -8    0.34    0.14
 -16 -26   8    0.39    0.15
 -16  26  -8    0.40    0.13
  16  26 -10    0.20    0.13
 -16 -26 -10    0.34    0.13
 -16  26  10    0.19    0.13
 -16 -26  10    0.28    0.15
 -18 -26   0    0.71    0.14
 -18  26   0    0.97    0.16
  18  26  -2    0.03    0.10
 -18  26   2    0.15    0.10
 -18 -26  -2    0.38    0.12
 -18  26   2    0.31    0.12
 -18  26  -2    0.44    0.13
 -18 -26   2    0.38    0.12
 -18 -26  -4    0.26    0.11
 -18  26   4    0.31    0.12
  18  26  -4    0.20    0.12
 -18  26   4    0.09    0.11
 -18 -26   4    0.17    0.12
 -18  26  -4    0.43    0.14
  18  26  -6    0.95    0.16
 -18  26   6    0.78    0.16
 -18  26   6    0.88    0.16
 -18 -26   6    0.91    0.18
 -18  26  -6    0.79    0.16
 -18  26   8   -0.12    0.11
  18  26  -8   -0.07    0.12
 -18  26  -8    0.02    0.12
 -18 -26   8   -0.07    0.12
 -20  26   0   -0.06    0.11
 -20 -26   0   -0.11    0.10
 -20  26   2    0.52    0.14
 -20  26   2    0.53    0.15
 -20 -26  -2    0.75    0.15
  20  26  -2    0.57    0.14
 -20 -26   2    0.39    0.14
 -20  26  -2    0.72    0.16
 -20  26   4    0.02    0.11
  20  26  -4   -0.02    0.12
 -20 -26  -4    0.33    0.12
 -20  26   4    0.06    0.12
 -20 -26   4    0.13    0.13
 -20  26  -4    0.17    0.12
  20  26  -6    0.10    0.12
 -20  26   6    0.28    0.15
 -20 -26   6    0.39    0.15
 -22  26   0    0.43    0.16
 -22 -26   0    0.18    0.13
 -22 -26  -2    0.23    0.13
 -22  26   2    0.15    0.14
 -22 -26   2    0.10    0.13
  -1  27   1    0.27    0.05
  -1  27   1    0.39    0.03
   1 -27   1    0.33    0.05
  -1 -27  -1    0.41    0.06
   1  27  -1    0.23    0.05
   1  27   1    0.34    0.06
  -1 -27   1    0.33    0.05
  -1  27  -1    0.60    0.07
   1  27   1    0.35    0.03
   1 -27  -1    0.49    0.06
  -1  27   3   11.77    0.42
  -1 -27  -3   12.06    0.41
   1  27  -3   12.05    0.42
   1 -27   3   12.02    0.42
  -1  27  -3   11.78    0.40
  -1  27  -3   12.03    0.41
   1 -27  -3   12.58    0.40
   1  27   3   11.96    0.42
  -1 -27  -5   10.26    0.30
  -1  27   5   10.09    0.37
  -1 -27  -5    9.85    0.36
   1  27  -5   10.52    0.37
   1 -27  -5    9.51    0.31
  -1 -27   5   10.47    0.38
   1 -27  -5   10.24    0.35
  -1  27  -5    9.54    0.36
  -1  27  -5    9.88    0.36
   1  27   5   10.29    0.36
   1  27  -7    7.06    0.29
   1  27  -7    6.84    0.30
   1 -27   7    7.15    0.31
  -1  27   7    7.03    0.29
  -1 -27  -7    7.30    0.29
  -1 -27   7    7.19    0.31
   1 -27  -7    7.26    0.29
  -1  27  -7    7.22    0.29
  -1  27  -7    7.07    0.30
   1  27   7    7.20    0.29
   1 -27   9    2.57    0.18
   1  27  -9    2.46    0.17
  -1  27   9    2.33    0.17
   1  27  -9    2.22    0.20
  -1 -27  -9    2.61    0.18
   1  27   9    2.41    0.16
   1 -27  -9    2.35    0.17
  -1 -27   9    2.10    0.19
  -1  27  -9    2.57    0.17
  -1  27  -9    2.40    0.20
   1  27 -11    0.57    0.13
   1 -27  11    0.57    0.12
  -1 -27 -11    0.77    0.12
  -1 -27  11    0.41    0.11
  -1  27 -11    0.71    0.14
   1 -27 -11    0.55    0.11
   1  27 -13    0.38    0.14
  -1 -27 -13    0.15    0.10
   1 -27  13    0.41    0.12
   1 -27 -13    0.14    0.10
  -1 -27  13    0.14    0.10
  -1  27 -13    0.50    0.14
  -1 -27 -15    0.19    0.12
   1 -27 -15    0.28    0.12
  -3  27   1   21.43    0.67
  -3 -27  -1   20.96    0.61
   3  27  -1   19.44    0.67
   3 -27   1   21.08    0.65
  -3  27   1   21.09    0.62
  -3  27  -1   21.05    0.67
   3 -27  -1   19.65    0.64
  -3 -27   1   20.69    0.66
   3  27   1   19.97    0.66
  -3 -27   1   20.76    0.63
  -3  27   3   11.28    0.40
   3 -27   3   11.09    0.39
  -3  27   3   11.62    0.35
  -3 -27  -3   11.42    0.33
  -3 -27  -3   10.89    0.39
   3  27  -3   11.08    0.40
  -3  27  -3   11.25    0.39
   3  27   3   10.70    0.39
   3 -27  -3   11.66    0.38
  -3  27  -3   11.43    0.38
  -3 -27   3   10.90    0.40
   3 -27   5    8.96    0.34
  -3 -27  -5    8.85    0.33
  -3  27   5    8.62    0.33
  -3 -27  -5    8.32    0.27
  -3  27   5    8.76    0.29
   3  27  -5    8.67    0.33
   3  27   5    8.22    0.31
  -3  27  -5    8.26    0.31
   3 -27  -5    9.51    0.31
  -3 -27   5    9.01    0.34
  -3  27  -5    7.88    0.32
  -3  27   7    8.90    0.36
   3  27  -7    8.89    0.35
   3 -27   7    8.95    0.36
  -3 -27  -7    9.21    0.35
  -3 -27   7    9.04    0.36
   3  27   7    9.23    0.33
  -3  27  -7    8.40    0.32
   3 -27  -7    8.42    0.33
  -3  27  -7    8.71    0.36
  -3 -27  -9    1.22    0.14
  -3  27   9    1.28    0.14
   3 -27   9    1.33    0.15
   3  27  -9    1.27    0.13
  -3 -27   9    1.00    0.13
  -3  27  -9    1.34    0.16
   3 -27  -9    1.28    0.13
   3  27 -11    2.02    0.17
  -3  27  11    1.88    0.18
  -3 -27 -11    2.35    0.19
   3  27 -11    2.31    0.21
  -3  27 -11    2.23    0.21
   3 -27 -11    2.10    0.17
  -3 -27  11    2.24    0.18
   3 -27  13    0.11    0.09
  -3 -27 -13    0.07    0.09
   3  27 -13    0.15    0.13
   3 -27 -13    0.17    0.09
  -3  27 -13    0.21    0.13
  -3 -27  13    0.25    0.10
   5 -27   1   37.51    1.12
  -5  27   1   37.14    1.17
  -5 -27  -1   37.45    1.14
  -5 -27  -1   37.21    1.10
   5  27  -1   37.04    1.17
  -5  27  -1   38.66    1.16
  -5  27  -1   37.47    1.11
   5 -27  -1   36.43    1.11
  -5 -27   1   37.60    1.12
   5  27   1   37.21    1.16
  -5 -27   1   36.80    1.14
  -5 -27  -3   16.26    0.50
   5 -27   3   16.26    0.54
  -5 -27  -3   16.01    0.54
  -5  27   3   16.90    0.51
  -5 -27   3   15.45    0.54
   5 -27  -3   15.72    0.51
  -5  27  -3   16.59    0.54
   5  27   3   16.43    0.54
  -5 -27   3   16.63    0.55
  -5  27  -3   16.35    0.53
   5  27  -5    3.09    0.18
  -5  27   5    2.95    0.18
   5 -27   5    2.87    0.17
  -5 -27  -5    3.15    0.13
  -5 -27   5    2.93    0.17
   5 -27  -5    3.22    0.15
  -5  27  -5    3.01    0.15
   5  27   5    3.02    0.15
  -5  27  -5    2.79    0.16
   5 -27   7    1.60    0.15
  -5 -27  -7    2.09    0.16
  -5  27   7    2.13    0.14
  -5  27   7    1.82    0.16
   5  27  -7    2.09    0.17
   5  27   7    2.09    0.13
  -5  27  -7    2.04    0.15
   5 -27  -7    2.04    0.13
  -5 -27   7    1.94    0.15
  -5  27  -7    2.29    0.13
   5 -27   9    2.10    0.17
   5  27  -9    2.10    0.17
  -5  27   9    2.32    0.18
  -5 -27  -9    1.89    0.17
  -5 -27   9    2.00    0.18
   5 -27  -9    1.98    0.15
  -5  27  -9    2.11    0.17
   5  27 -11   -0.02    0.09
  -5  27  11    0.13    0.09
   5 -27  11    0.09    0.08
  -5 -27 -11    0.07    0.09
  -5  27 -11   -0.05    0.09
  -5 -27  11    0.03    0.08
  -5 -27 -13    1.01    0.16
   5  27 -13    0.86    0.17
  -5 -27  13    0.89    0.15
  -5  27 -13    0.77    0.16
  -7 -27  -1    6.25    0.24
  -7 -27  -1    6.33    0.26
   7 -27   1    6.34    0.24
   7  27  -1    6.67    0.27
  -7  27   1    6.23    0.26
  -7  27   1    6.70    0.24
  -7 -27   1    6.64    0.26
  -7  27  -1    6.19    0.25
   7 -27  -1    6.19    0.23
  -7 -27   1    6.05    0.25
   7  27   1    5.97    0.25
  -7  27  -1    6.61    0.25
  -7 -27  -3    5.93    0.22
   7 -27   3    6.30    0.25
  -7 -27  -3    5.70    0.25
  -7  27   3    6.28    0.24
  -7  27  -3    6.11    0.25
  -7 -27   3    6.05    0.25
  -7 -27   3    5.97    0.26
   7 -27  -3    6.01    0.22
   7  27   3    5.93    0.24
  -7  27  -3    6.23    0.24
  -7 -27  -5    3.49    0.19
   7  27  -5    3.17    0.20
  -7  27   5    3.72    0.20
  -7  27   5    3.68    0.17
  -7 -27  -5    3.36    0.15
   7 -27   5    3.27    0.18
  -7 -27   5    3.37    0.18
  -7 -27   5    3.42    0.21
  -7  27  -5    3.55    0.16
  -7  27  -5    3.53    0.19
   7  27   5    3.49    0.16
   7 -27  -5    3.52    0.15
  -7 -27  -7    4.29    0.23
  -7  27   7    3.81    0.22
  -7  27   7    3.88    0.21
   7  27  -7    4.07    0.23
   7 -27   7    4.21    0.23
  -7  27  -7    3.88    0.22
  -7 -27   7    3.82    0.22
  -7 -27  -9    0.28    0.09
   7 -27   9    0.16    0.08
  -7  27   9    0.23    0.10
   7  27  -9    0.28    0.10
  -7 -27   9    0.14    0.08
  -7  27  -9    0.09    0.09
   7 -27  11    1.47    0.17
  -7 -27 -11    1.43    0.17
  -7  27  11    1.64    0.18
   7  27 -11    1.53    0.17
  -7 -27  11    1.37    0.16
  -7  27 -11    1.44    0.18
  -7  27  13    0.56    0.14
  -7 -27 -13    0.78    0.15
   7  27 -13    0.40    0.13
  -7  27 -13    0.66    0.16
  -7 -27  13    0.53    0.13
  -9 -27  -1    2.68    0.15
   9 -27   1    2.84    0.13
  -9  27   1    2.56    0.15
   9  27  -1    2.37    0.16
  -9 -27  -1    2.60    0.15
  -9  27   1    2.73    0.16
  -9  27  -1    2.63    0.15
  -9 -27   1    2.90    0.16
   9 -27  -1    2.55    0.12
  -9  27  -1    2.47    0.14
   9  27   1    2.91    0.16
  -9 -27   1    2.58    0.15
   9  27  -3    0.39    0.09
  -9  27   3    0.22    0.07
  -9 -27  -3    0.26    0.06
  -9  27   3    0.27    0.08
   9 -27   3    0.21    0.06
  -9 -27  -3    0.32    0.07
  -9 -27   3    0.30    0.07
  -9  27  -3    0.19    0.07
  -9  27  -3    0.31    0.06
  -9 -27   3    0.37    0.09
   9  27   3    0.36    0.07
  -9 -27  -5    1.15    0.10
  -9 -27  -5    1.31    0.13
   9 -27   5    0.96    0.11
  -9  27   5    1.18    0.13
   9  27  -5    1.06    0.13
  -9  27   5    1.33    0.13
  -9 -27   5    1.19    0.14
  -9 -27   5    1.19    0.12
  -9  27  -5    1.07    0.12
  -9 -27  -7    1.26    0.14
   9  27  -7    1.25    0.15
  -9  27   7    1.19    0.15
  -9  27   7    1.50    0.14
   9 -27   7    1.08    0.13
  -9 -27   7    1.25    0.13
  -9 -27   7    1.59    0.17
  -9  27  -7    1.08    0.14
  -9 -27  -9    0.68    0.12
   9 -27   9    0.78    0.13
  -9  27   9    0.61    0.13
   9  27  -9    0.91    0.14
  -9  27  -9    0.66    0.12
  -9 -27   9    0.71    0.11
  -9 -27 -11    0.47    0.11
  -9  27  11    0.45    0.13
   9  27 -11    0.34    0.12
  -9  27 -11    0.69    0.14
  -9  27  13    0.16    0.13
   9  27 -13    0.01    0.11
  -9 -27 -13    0.20    0.11
  -9  27 -13    0.33    0.14
 -11 -27  -1    2.49    0.16
  11  27  -1    2.51    0.17
 -11  27   1    2.76    0.16
 -11  27   1    2.36    0.17
 -11 -27  -1    2.75    0.16
 -11  27  -1    2.65    0.16
  11  27   1    2.31    0.16
 -11 -27   1    2.69    0.16
 -11 -27   1    2.64    0.17
 -11  27  -1    2.83    0.17
 -11 -27  -3   10.14    0.39
 -11 -27  -3   10.69    0.38
 -11  27   3   10.72    0.40
  11 -27   3   10.61    0.37
  11  27  -3   10.62    0.41
 -11  27   3   10.56    0.42
 -11 -27   3   10.69    0.39
 -11  27  -3   10.52    0.38
 -11 -27   3   10.92    0.42
 -11  27  -3   10.30    0.40
  11  27   3    9.96    0.38
 -11  27   5    4.60    0.25
  11 -27   5    4.46    0.21
 -11 -27  -5    4.54    0.21
  11  27  -5    4.26    0.24
 -11 -27  -5    4.11    0.23
 -11  27   5    4.73    0.24
 -11 -27   5    4.65    0.23
 -11 -27   5    4.63    0.26
 -11  27  -5    4.06    0.23
 -11  27   7    1.06    0.14
 -11 -27  -7    0.84    0.12
 -11  27   7    0.74    0.13
  11 -27   7    1.04    0.12
  11  27  -7    0.93    0.13
 -11 -27   7    0.83    0.14
 -11 -27   7    0.91    0.12
 -11  27  -7    0.76    0.13
  11  27  -9   -0.01    0.09
 -11 -27  -9    0.22    0.09
 -11  27   9    0.10    0.10
 -11  27  -9    0.00    0.10
  11  27 -11   -0.06    0.10
 -11  27  11    0.21    0.12
 -11 -27 -11   -0.01    0.10
 -11  27 -11    0.19    0.12
  11  27 -13   -0.06    0.12
 -11  27  13    0.06    0.12
 -13 -27  -1    3.47    0.19
 -13  27   1    3.45    0.20
 -13 -27  -1    3.28    0.19
 -13  27   1    3.23    0.20
  13  27  -1    3.10    0.20
 -13  27  -1    2.99    0.19
 -13 -27   1    3.19    0.20
 -13  27  -1    3.06    0.20
  13  27   1    3.52    0.20
 -13 -27   1    3.45    0.19
  13  27  -3    0.80    0.12
 -13 -27  -3    0.62    0.10
 -13 -27  -3    0.82    0.11
 -13  27   3    0.80    0.12
 -13  27   3    0.70    0.12
 -13  27  -3    0.76    0.12
 -13 -27   3    0.68    0.10
 -13 -27   3    0.76    0.13
 -13  27   5    0.24    0.09
 -13 -27  -5    0.27    0.08
  13  27  -5    0.20    0.10
 -13 -27  -5    0.22    0.08
 -13  27   5    0.17    0.09
 -13  27  -5    0.29    0.09
 -13 -27   5    0.21    0.10
 -13 -27  -7    0.17    0.09
 -13  27   7    0.23    0.11
  13  27  -7    0.29    0.11
 -13  27   7    0.09    0.09
 -13  27  -7    0.23    0.10
 -13 -27   7    0.28    0.12
  13  27  -9    0.15    0.10
 -13  27   9    0.18    0.11
 -13 -27  -9    0.04    0.09
 -13 -27   9    0.03    0.12
 -13  27  -9    0.10    0.10
 -13  27  11    0.60    0.16
 -13 -27 -11    0.51    0.13
  13  27 -11    0.66    0.15
 -13  27 -11    0.64    0.16
 -15  27   1    0.13    0.09
  15  27  -1    0.03    0.08
 -15 -27  -1    0.08    0.08
 -15  27   1   -0.01    0.08
 -15 -27  -1    0.08    0.07
 -15  27  -1   -0.02    0.07
  15  27   1    0.05    0.08
 -15 -27   1    0.04    0.08
 -15  27  -1   -0.03    0.07
 -15  27   3    0.40    0.10
 -15  27   3    0.37    0.11
  15  27  -3    0.06    0.09
 -15 -27  -3    0.26    0.09
 -15 -27  -3    0.28    0.09
 -15 -27   3    0.39    0.11
 -15  27  -3    0.28    0.11
  15  27  -5    0.32    0.11
 -15 -27  -5    0.20    0.09
 -15 -27  -5    0.21    0.09
 -15  27   5    0.12    0.09
 -15  27   5    0.13    0.10
 -15 -27   5    0.07    0.11
 -15  27  -5    0.09    0.10
 -15  27   7    0.01    0.10
 -15 -27  -7   -0.15    0.08
 -15  27   7    0.01    0.10
  15  27  -7   -0.02    0.10
 -15 -27   7   -0.08    0.11
 -15  27  -7    0.10    0.10
 -15 -27  -9    0.22    0.11
  15  27  -9    0.26    0.13
 -15  27   9   -0.05    0.10
 -15 -27   9    0.17    0.12
 -15  27  -9    0.08    0.10
 -15 -27 -11    0.14    0.12
 -17  27   1    0.17    0.10
 -17 -27  -1    0.16    0.10
  17  27  -1    0.22    0.10
 -17  27   1    0.16    0.11
 -17  27  -1    0.08    0.10
 -17 -27   1    0.22    0.11
 -17  27   3    0.46    0.13
 -17 -27  -3    0.59    0.12
 -17  27   3    0.33    0.11
  17  27  -3    0.38    0.11
 -17 -27   3    0.32    0.12
 -17  27  -3    0.46    0.13
 -17 -27  -5    0.51    0.12
  17  27  -5    0.38    0.12
 -17  27   5    0.41    0.13
 -17  27   5    0.46    0.13
 -17 -27   5    0.44    0.15
 -17  27  -5    0.49    0.14
 -17 -27  -7    0.42    0.12
 -17  27   7    0.11    0.11
 -17  27   7    0.12    0.12
  17  27  -7    0.10    0.11
 -17 -27   7    0.25    0.14
 -17  27  -7    0.15    0.11
 -17 -27  -9   -0.06    0.10
  17  27  -9   -0.08    0.12
 -17  27   9    0.04    0.12
 -17  27  -9    0.05    0.12
 -17 -27   9   -0.13    0.11
  19  27  -1    0.04    0.10
 -19  27   1    0.16    0.11
 -19 -27  -1   -0.01    0.10
 -19  27   1    0.01    0.10
 -19  27  -1    0.10    0.10
 -19 -27   1    0.13    0.12
 -19 -27  -3    0.56    0.13
  19  27  -3    0.50    0.13
 -19  27   3    0.56    0.14
 -19  27   3    0.45    0.14
 -19  27  -3    0.75    0.16
 -19 -27   3    0.39    0.14
 -19  27   5    0.14    0.12
  19  27  -5   -0.08    0.10
 -19  27   5    0.26    0.13
 -19  27  -5    0.18    0.13
 -19 -27   5    0.40    0.15
  19  27  -7    0.49    0.15
 -19  27   7    0.07    0.12
 -19 -27   7    0.34    0.15
 -19  27  -7    0.19    0.13
 -21 -27  -1    0.70    0.16
 -21  27   1    0.85    0.17
 -21  27  -1    0.70    0.17
 -21 -27   1    0.67    0.16
 -21  27   3    0.13    0.13
 -21  27   3    0.32    0.14
  21  27  -3    0.22    0.13
 -21 -27  -3   -0.03    0.11
 -21  27  -3    0.07    0.13
 -21 -27   3    0.06    0.13
 -21  27   5   -0.03    0.12
   0 -28   0    1.48    0.09
   0  28   0    1.43    0.07
   0 -28  -2    0.02    0.04
   0  28  -2    0.02    0.02
   0  28   2    0.00    0.03
   0  28  -2    0.02    0.04
   0 -28   2   -0.02    0.03
   0  28  -4    0.35    0.06
   0 -28   4    0.20    0.05
   0  28  -4    0.55    0.07
   0 -28  -4    0.41    0.06
   0  28   4    0.42    0.07
   0  28  -6   -0.01    0.06
   0  28   6    0.10    0.06
   0  28  -6    0.01    0.06
   0 -28   6    0.02    0.02
   0 -28  -6   -0.04    0.05
   0  28  -8    0.78    0.11
   0  28   8    0.93    0.11
   0  28  -8    0.87    0.13
   0 -28   8    0.76    0.11
   0 -28  -8    0.72    0.11
   0 -28 -10   -0.02    0.08
   0  28 -10    0.01    0.07
   0 -28  10    0.04    0.08
   0  28 -10    0.14    0.11
   0 -28  12    0.59    0.13
   0 -28 -12    0.35    0.11
   0  28 -12    0.24    0.12
   0 -28 -14    0.07    0.10
   0 -28  14   -0.02    0.09
   0  28 -14   -0.09    0.11
  -2  28   0    8.01    0.29
   2  28   0    7.33    0.29
   2 -28   0    7.68    0.28
  -2  28   0    7.98    0.25
  -2 -28  -2    6.39    0.24
   2  28  -2    6.39    0.25
  -2  28   2    6.39    0.19
  -2  28   2    6.14    0.25
   2 -28   2    6.43    0.25
   2 -28  -2    6.27    0.23
  -2  28  -2    6.28    0.24
  -2 -28   2    6.48    0.25
   2  28   2    6.01    0.24
  -2  28  -2    5.14    0.22
   2  28  -4    9.00    0.34
  -2  28   4    8.87    0.33
   2 -28   4    9.07    0.34
  -2 -28  -4    9.12    0.33
  -2 -28   4    8.70    0.34
   2  28   4    9.15    0.33
   2 -28  -4    8.62    0.31
  -2  28  -4    8.49    0.32
  -2  28  -4    8.68    0.32
   2 -28   6    4.62    0.23
  -2 -28  -6    4.84    0.22
  -2  28   6    4.93    0.23
   2  28  -6    4.73    0.23
  -2  28  -6    4.28    0.21
  -2  28  -6    4.41    0.22
  -2 -28   6    4.90    0.23
   2 -28  -6    4.61    0.21
   2  28   6    4.97    0.21
   2  28  -8    8.71    0.38
   2  28  -8    8.94    0.36
   2 -28   8    9.24    0.38
  -2 -28  -8    9.18    0.36
  -2  28   8    9.47    0.36
   2  28   8    9.39    0.35
  -2  28  -8    8.79    0.38
   2 -28  -8    9.09    0.35
  -2  28  -8    8.60    0.34
  -2 -28   8    8.35    0.37
  -2 -28 -10    0.55    0.11
  -2  28  10    0.55    0.10
   2 -28  10    0.52    0.11
   2  28 -10    0.45    0.10
   2  28 -10    0.31    0.12
  -2 -28  10    0.65    0.12
   2 -28 -10    0.40    0.10
  -2  28 -10    0.60    0.13
   2 -28  12    0.98    0.15
   2  28 -12    1.35    0.19
  -2 -28 -12    0.98    0.14
  -2 -28  12    1.28    0.16
  -2  28 -12    1.30    0.17
   2 -28 -12    1.16    0.14
   2  28 -14    0.64    0.16
  -2 -28 -14    0.46    0.13
  -2 -28  14    0.38    0.13
   2 -28 -14    0.41    0.12
  -2  28 -14    0.35    0.15
   4  28   0   21.50    0.68
  -4  28   0   21.13    0.68
   4 -28   0   21.15    0.65
  -4 -28   0   21.08    0.67
  -4  28   0   19.72    0.63
  -4 -28   0   21.08    0.64
  -4  28   2   17.22    0.51
   4 -28   2   16.42    0.54
  -4 -28  -2   16.22    0.50
  -4 -28  -2   15.53    0.54
   4 -28  -2   16.62    0.52
  -4 -28   2   16.50    0.55
  -4 -28   2   16.57    0.54
  -4  28  -2   17.22    0.53
  -4  28  -2   16.59    0.55
   4  28   2   16.88    0.55
  -4  28   4    5.10    0.22
   4 -28   4    4.95    0.22
  -4 -28  -4    4.74    0.16
  -4  28   4    4.80    0.18
   4  28  -4    4.36    0.21
   4  28   4    5.12    0.21
   4 -28  -4    4.48    0.19
  -4 -28   4    5.27    0.22
  -4  28  -4    4.44    0.20
  -4  28  -4    4.76    0.21
   4 -28   6    2.36    0.17
  -4  28   6    2.58    0.17
   4  28  -6    2.58    0.17
  -4 -28  -6    2.46    0.16
   4  28   6    2.64    0.14
  -4  28  -6    2.43    0.17
  -4 -28   6    2.20    0.16
  -4  28  -6    2.51    0.14
   4 -28  -6    2.65    0.14
   4  28  -8    6.62    0.30
   4 -28   8    6.48    0.31
  -4  28   8    6.72    0.31
  -4 -28  -8    7.17    0.31
  -4 -28   8    6.76    0.30
   4 -28  -8    6.63    0.27
  -4  28  -8    6.46    0.31
   4  28 -10    0.34    0.10
   4 -28  10    0.46    0.11
  -4  28  10    0.34    0.09
  -4 -28 -10    0.44    0.10
  -4  28 -10    0.28    0.11
   4 -28 -10    0.34    0.09
  -4 -28  10    0.31    0.10
   4 -28  12    0.77    0.14
  -4 -28 -12    0.84    0.14
   4  28 -12    0.70    0.15
  -4 -28  12    0.81    0.13
  -4  28 -12    0.63    0.15
  -4 -28 -14    0.21    0.11
   4  28 -14    0.33    0.14
  -4  28 -14    0.24    0.14
  -4 -28  14    0.40    0.13
  -6 -28   0   19.78    0.65
  -6  28   0   20.18    0.67
   6 -28   0   20.57    0.63
  -6 -28   0   20.12    0.63
   6  28   0   19.68    0.66
  -6  28   0   20.56    0.63
  -6  28   2    0.85    0.08
   6  28  -2    1.03    0.11
  -6 -28  -2    1.02    0.10
  -6  28   2    0.92    0.10
  -6 -28  -2    0.98    0.08
   6 -28   2    0.79    0.08
  -6 -28   2    0.92    0.10
   6  28   2    0.88    0.09
  -6  28  -2    0.87    0.09
   6 -28  -2    0.99    0.07
  -6 -28   2    0.96    0.10
  -6  28  -2    1.00    0.09
  -6 -28  -4    4.94    0.19
   6 -28   4    5.06    0.22
  -6  28   4    5.31    0.21
  -6 -28  -4    5.19    0.23
  -6 -28   4    4.77    0.23
  -6 -28   4    5.24    0.24
   6  28   4    4.95    0.21
   6 -28  -4    4.97    0.20
  -6  28  -4    5.10    0.21
  -6  28  -4    5.24    0.23
  -6  28   6    4.10    0.21
  -6  28   6    3.92    0.18
  -6 -28  -6    3.78    0.20
   6  28  -6    3.97    0.21
   6 -28   6    3.95    0.21
  -6 -28   6    3.93    0.21
   6 -28  -6    3.96    0.17
  -6  28  -6    3.84    0.17
   6  28   6    3.71    0.18
  -6  28  -6    3.50    0.20
   6  28  -8    3.53    0.21
  -6  28   8    3.29    0.21
   6 -28   8    3.52    0.22
  -6 -28  -8    3.37    0.21
   6 -28  -8    3.32    0.18
  -6 -28   8    3.06    0.20
  -6  28  -8    3.40    0.22
  -6 -28 -10    0.46    0.11
   6  28 -10    0.19    0.10
   6 -28  10    0.51    0.12
  -6  28  10    0.26    0.10
  -6  28 -10    0.46    0.12
  -6 -28  10    0.38    0.10
  -6  28  12    0.69    0.14
   6 -28  12    0.47    0.13
  -6 -28 -12    0.30    0.11
   6  28 -12    0.41    0.12
  -6  28 -12    0.33    0.13
  -6 -28  12    0.53    0.12
   6  28 -14    0.20    0.14
  -6 -28 -14    0.10    0.10
  -6  28 -14    0.23    0.13
  -6 -28  14    0.16    0.11
   8 -28   0    0.10    0.04
  -8  28   0    0.03    0.05
  -8  28   0    0.10    0.06
   8  28   0    0.00    0.06
  -8 -28   0    0.02    0.05
  -8 -28   0    0.05    0.05
  -8 -28  -2    3.52    0.16
  -8  28   2    3.68    0.17
   8  28  -2    3.76    0.20
  -8 -28  -2    3.43    0.18
  -8  28   2    3.70    0.19
   8 -28   2    3.63    0.17
  -8  28  -2    3.51    0.18
   8  28   2    3.35    0.17
  -8  28  -2    3.60    0.17
  -8 -28   2    3.78    0.19
  -8 -28   2    3.83    0.18
   8 -28  -2    3.45    0.14
   8  28  -4    0.70    0.11
  -8  28   4    0.81    0.09
   8 -28   4    0.66    0.09
  -8 -28  -4    0.83    0.08
  -8  28   4    0.65    0.10
  -8 -28  -4    1.01    0.11
  -8  28  -4    0.95    0.11
  -8 -28   4    0.87    0.12
   8  28   4    0.91    0.09
  -8  28  -4    0.80    0.08
  -8 -28   4    0.80    0.10
  -8 -28  -6   16.58    0.58
  -8  28   6   16.96    0.57
   8  28  -6   16.86    0.60
  -8  28   6   16.63    0.61
   8 -28   6   16.25    0.57
  -8  28  -6   16.36    0.58
  -8 -28   6   16.71    0.58
  -8 -28   6   16.64    0.61
   8  28  -8    2.71    0.19
  -8  28   8    2.58    0.19
  -8 -28  -8    2.75    0.19
   8 -28   8    2.37    0.18
  -8 -28   8    2.65    0.18
  -8  28  -8    2.46    0.18
  -8  28  10   -0.01    0.09
   8  28 -10    0.17    0.10
  -8 -28 -10    0.26    0.10
   8 -28  10    0.19    0.10
  -8  28 -10    0.15    0.10
  -8 -28  10    0.12    0.09
  -8  28  12   -0.06    0.10
   8  28 -12   -0.15    0.09
  -8 -28 -12   -0.03    0.09
  -8 -28  12   -0.03    0.08
  -8  28 -12   -0.04    0.10
  10  28   0    0.70    0.10
 -10  28   0    0.78    0.10
 -10  28   0    0.70    0.09
 -10 -28   0    0.76    0.09
 -10 -28   0    0.71    0.10
 -10 -28  -2    3.81    0.18
 -10  28   2    3.74    0.20
 -10  28   2    3.65    0.19
  10  28  -2    3.80    0.21
 -10 -28  -2    3.58    0.20
  10 -28   2    3.54    0.17
 -10  28  -2    3.45    0.18
 -10 -28   2    3.63    0.20
  10  28   2    3.83    0.20
 -10 -28   2    3.59    0.19
 -10  28  -2    3.83    0.20
 -10  28   4    0.12    0.08
  10  28  -4    0.23    0.08
 -10 -28  -4    0.24    0.07
  10 -28   4    0.06    0.06
 -10 -28  -4    0.26    0.08
 -10  28   4    0.20    0.08
 -10  28  -4    0.22    0.06
 -10  28  -4    0.23    0.08
  10  28   4    0.34    0.07
 -10 -28   4    0.22    0.07
 -10 -28   4    0.22    0.09
 -10 -28  -6    5.05    0.26
  10  28  -6    5.42    0.27
 -10  28   6    5.07    0.27
 -10  28   6    5.00    0.25
  10 -28   6    5.07    0.24
 -10 -28   6    5.23    0.25
 -10  28  -6    4.66    0.25
 -10 -28   6    5.28    0.28
  10  28  -8    0.56    0.12
 -10  28   8    0.73    0.13
  10 -28   8    0.61    0.11
 -10 -28  -8    0.54    0.11
 -10 -28   8    0.55    0.10
 -10 -28   8    0.44    0.12
 -10  28  -8    0.45    0.11
 -10  28  10    0.40    0.12
  10  28 -10    0.94    0.15
 -10 -28 -10    0.45    0.11
 -10  28 -10    0.54    0.13
 -10 -28 -12    0.14    0.10
 -10  28  12    0.14    0.12
  10  28 -12    0.02    0.11
 -10  28 -12    0.25    0.12
 -12  28   0    1.47    0.14
 -12 -28   0    1.23    0.13
 -12  28   0    1.12    0.12
 -12 -28   0    1.19    0.12
  12  28   0    1.63    0.14
 -12  28   2    0.19    0.08
 -12  28   2   -0.01    0.07
 -12 -28  -2    0.08    0.06
 -12 -28  -2    0.09    0.07
  12  28  -2   -0.02    0.07
  12  28   2    0.12    0.07
 -12  28  -2    0.01    0.07
 -12  28  -2    0.01    0.06
 -12 -28   2    0.11    0.07
 -12 -28   2    0.01    0.06
 -12 -28  -4    2.87    0.17
  12 -28   4    2.65    0.16
 -12 -28  -4    2.56    0.17
 -12  28   4    2.32    0.18
  12  28  -4    3.00    0.20
 -12  28   4    3.00    0.19
 -12  28  -4    2.87    0.19
 -12 -28   4    2.75    0.17
 -12 -28   4    3.11    0.21
 -12  28   6    0.86    0.12
 -12 -28  -6    0.81    0.12
  12  28  -6    0.76    0.13
 -12  28   6    0.72    0.12
 -12 -28   6    0.92    0.15
 -12  28  -6    0.71    0.12
  12  28  -8    0.89    0.15
 -12  28   8    1.07    0.16
 -12 -28  -8    1.19    0.15
 -12 -28   8    1.21    0.18
 -12  28  -8    1.38    0.17
 -12  28  10    0.66    0.15
 -12 -28 -10    0.66    0.13
  12  28 -10    0.42    0.13
 -12  28 -10    0.66    0.14
  12  28 -12   -0.01    0.11
 -12 -28 -12   -0.19    0.09
 -12  28  12    0.14    0.12
 -12  28 -12    0.02    0.11
 -14 -28   0    3.93    0.23
  14  28   0    4.29    0.23
 -14  28   0    4.09    0.23
 -14  28   0    3.65    0.22
 -14 -28   0    4.30    0.22
 -14  28   2    1.34    0.15
 -14 -28  -2    1.26    0.14
  14  28  -2    1.11    0.13
 -14 -28  -2    1.29    0.13
 -14  28   2    1.20    0.14
 -14  28  -2    1.15    0.14
 -14 -28   2    1.10    0.14
 -14  28  -2    1.19    0.12
  14  28   2    1.24    0.13
 -14  28   4    3.55    0.22
 -14  28   4    3.49    0.23
 -14 -28  -4    3.22    0.19
 -14 -28  -4    3.09    0.20
  14  28  -4    3.08    0.21
 -14 -28   4    3.36    0.23
 -14  28  -4    3.19    0.22
 -14  28   6    0.52    0.12
  14  28  -6    0.63    0.13
 -14 -28  -6    0.58    0.11
 -14  28   6    0.52    0.12
 -14 -28   6    0.38    0.13
 -14  28  -6    0.59    0.12
 -14 -28  -8    0.39    0.12
  14  28  -8    0.34    0.12
 -14  28   8    0.16    0.11
 -14  28  -8    0.11    0.10
 -14 -28   8    0.39    0.14
  14  28 -10    0.02    0.11
 -14  28  10    0.20    0.13
 -14 -28 -10    0.24    0.12
 -14  28 -10    0.28    0.13
 -14 -28  10   -0.19    0.10
 -16  28   0    2.48    0.20
  16  28   0    2.44    0.19
 -16 -28   0    2.38    0.19
 -16  28   0    2.37    0.19
 -16  28   2    1.73    0.18
 -16 -28  -2    1.48    0.16
  16  28  -2    1.24    0.15
 -16  28   2    1.33    0.16
 -16 -28   2    1.70    0.18
 -16  28  -2    1.47    0.17
 -16  28   4    0.26    0.11
 -16  28   4    0.21    0.11
 -16 -28  -4    0.41    0.10
  16  28  -4    0.37    0.12
 -16 -28  -4    0.24    0.09
 -16  28  -4    0.43    0.12
 -16 -28   4    0.22    0.12
 -16 -28  -6    1.68    0.18
 -16  28   6    1.43    0.19
 -16  28   6    1.90    0.20
  16  28  -6    1.63    0.19
 -16 -28   6    1.51    0.20
 -16  28  -6    1.74    0.19
 -16  28   8    0.09    0.12
 -16 -28  -8    0.27    0.11
  16  28  -8    0.00    0.10
 -16 -28   8    0.02    0.12
 -16  28  -8    0.16    0.12
 -16 -28 -10    0.06    0.11
 -18  28   0   -0.06    0.10
 -18 -28   0    0.17    0.11
 -18  28   2    1.26    0.17
  18  28  -2    1.01    0.15
 -18 -28  -2    1.11    0.16
 -18  28   2    1.04    0.16
 -18  28  -2    1.20    0.17
 -18 -28   2    1.09    0.17
 -18  28   4    0.02    0.10
  18  28  -4   -0.10    0.10
 -18  28   4    0.19    0.11
 -18 -28  -4    0.09    0.10
 -18 -28   4   -0.04    0.10
 -18  28  -4    0.21    0.12
  18  28  -6    0.42    0.13
 -18  28   6    0.53    0.15
 -18  28   6    0.78    0.16
 -18  28  -6    0.55    0.15
 -18 -28   6    0.65    0.17
  18  28  -8    0.60    0.15
 -18  28   8    0.68    0.17
 -18  28  -8    0.60    0.16
 -18 -28   8    0.73    0.19
 -20 -28   0    0.09    0.12
 -20  28   0   -0.06    0.11
 -20  28   2    0.09    0.11
  20  28  -2   -0.08    0.10
 -20  28   2    0.10    0.12
 -20 -28  -2    0.23    0.12
 -20 -28   2    0.11    0.12
 -20  28  -2    0.20    0.13
  20  28  -4    0.45    0.14
 -20  28   4    0.64    0.16
 -20  28   4    0.60    0.16
 -20 -28   4    0.82    0.18
 -20  28  -4    0.68    0.16
  20  28  -6    0.55    0.15
 -20  28   6    0.60    0.16
 -20  28   6    0.79    0.17
 -22 -28   0    0.78    0.17
 -22 -28  -2   -0.12    0.11
   1 -29   1    2.24    0.13
   1  29  -1    2.26    0.10
   1  29  -1    1.94    0.12
  -1  29   1    2.29    0.13
  -1  29   1    2.49    0.08
  -1 -29  -1    2.44    0.13
  -1  29  -1    2.59    0.11
  -1 -29   1    2.33    0.13
   1  29   1    2.46    0.13
   1 -29  -1    2.39    0.13
   1  29   1    2.49    0.08
  -1  29  -1    2.70    0.13
  -1 -29  -3    8.94    0.32
  -1  29   3    8.89    0.33
   1 -29   3    8.76    0.33
   1  29  -3    8.76    0.33
   1  29   3    8.58    0.32
  -1  29  -3    8.87    0.31
  -1  29  -3    9.05    0.32
   1 -29  -3    8.38    0.31
   1  29  -5    7.34    0.29
   1  29  -5    6.63    0.28
  -1 -29  -5    7.04    0.28
  -1  29   5    6.96    0.28
   1 -29  -5    7.19    0.27
   1  29   5    6.62    0.27
  -1  29  -5    7.51    0.29
   1 -29  -5    7.00    0.22
  -1  29  -5    6.86    0.27
  -1  29   7    5.72    0.26
   1  29  -7    5.73    0.27
   1  29  -7    6.03    0.27
  -1 -29  -7    5.76    0.26
   1 -29   7    6.05    0.28
   1  29   7    6.26    0.26
   1 -29  -7    6.11    0.26
  -1  29  -7    5.66    0.28
  -1  29  -7    6.11    0.26
  -1 -29   7    6.07    0.28
   1  29  -9    1.34    0.16
  -1  29   9    1.28    0.13
  -1 -29  -9    1.43    0.14
   1  29  -9    1.31    0.13
   1 -29   9    1.34    0.15
  -1  29  -9    1.29    0.13
  -1  29  -9    1.26    0.16
   1 -29  -9    1.17    0.13
   1  29   9    1.48    0.13
  -1 -29   9    1.29    0.15
   1  29 -11    1.01    0.16
  -1 -29 -11    0.95    0.13
   1 -29  11    0.67    0.13
   1 -29 -11    0.77    0.12
  -1 -29  11    0.64    0.12
  -1  29 -11    0.89    0.15
   1  29 -13   -0.01    0.13
  -1 -29 -13    0.09    0.10
   1 -29  13    0.12    0.10
  -1 -29  13   -0.04    0.09
   1 -29 -13    0.05    0.09
  -1  29 -13    0.05    0.12
  -1 -29 -15    0.11    0.11
   1 -29 -15    0.19    0.12
  -3 -29  -1   10.07    0.32
  -3  29   1   10.14    0.32
   3 -29   1   10.21    0.35
   3  29  -1   10.49    0.37
  -3  29   1    9.38    0.36
   3  29   1   10.66    0.37
  -3  29  -1   10.19    0.36
  -3 -29   1    9.81    0.36
   3 -29  -1   10.19    0.35
  -3  29   3    5.35    0.23
   3 -29   3    5.54    0.24
  -3 -29  -3    5.57    0.23
  -3  29   3    5.75    0.19
   3  29  -3    5.64    0.24
  -3  29  -3    5.86    0.23
   3  29   3    5.30    0.23
   3 -29  -3    5.56    0.22
  -3  29  -3    5.91    0.22
  -3 -29   3    5.59    0.24
   3 -29   5    6.10    0.26
  -3  29   5    5.79    0.25
   3  29  -5    5.83    0.25
  -3 -29  -5    5.40    0.24
  -3 -29   5    5.76    0.26
  -3  29  -5    5.48    0.24
   3 -29  -5    5.66    0.23
  -3  29  -5    5.47    0.23
   3  29   5    5.69    0.23
  -3  29   7    2.22    0.15
   3  29  -7    2.14    0.16
   3 -29   7    2.55    0.18
  -3 -29  -7    2.38    0.17
  -3  29  -7    1.97    0.17
  -3 -29   7    2.24    0.16
  -3  29  -7    1.96    0.13
   3 -29  -7    2.04    0.14
   3  29   7    2.27    0.14
   3  29  -9    0.79    0.12
   3 -29   9    1.02    0.13
  -3  29   9    0.75    0.11
  -3 -29  -9    0.84    0.12
  -3 -29   9    0.90    0.13
   3 -29  -9    0.80    0.11
  -3  29  -9    0.89    0.14
   3  29 -11    0.73    0.15
  -3  29  11    0.76    0.13
   3  29 -11    0.67    0.12
   3 -29  11    0.59    0.13
  -3 -29 -11    0.58    0.12
   3 -29 -11    0.82    0.12
  -3  29 -11    0.76    0.15
  -3 -29  11    0.96    0.14
   3  29 -13    0.04    0.12
   3 -29  13    0.18    0.10
  -3 -29 -13   -0.02    0.09
  -3  29 -13    0.03    0.11
  -3 -29  13    0.10    0.10
   5 -29   1    3.82    0.17
   5  29  -1    3.78    0.19
  -5 -29  -1    3.63    0.15
  -5  29   1    3.87    0.18
  -5 -29  -1    3.83    0.19
  -5 -29   1    3.56    0.18
   5 -29  -1    3.79    0.16
  -5  29  -1    3.88    0.16
  -5 -29   1    3.52    0.16
   5  29   1    3.66    0.18
  -5  29  -1    4.02    0.18
   5 -29   3    3.41    0.18
  -5 -29  -3    3.72    0.14
  -5  29   3    3.72    0.15
  -5 -29  -3    3.39    0.18
  -5  29  -3    3.71    0.17
   5  29   3    3.52    0.17
  -5 -29   3    3.61    0.18
   5 -29  -3    3.63    0.16
  -5 -29   3    3.52    0.18
  -5  29  -3    3.81    0.17
  -5 -29  -5   11.26    0.36
   5 -29   5   11.36    0.42
   5  29  -5   11.51    0.42
  -5  29   5   11.56    0.43
  -5  29  -5   11.13    0.41
  -5  29  -5   11.45    0.40
   5  29   5   10.98    0.40
  -5 -29   5   10.90    0.42
   5 -29  -5   11.52    0.38
  -5 -29  -7    2.17    0.17
   5  29  -7    2.38    0.18
   5 -29   7    2.01    0.16
  -5  29   7    2.11    0.16
  -5  29  -7    2.45    0.17
   5 -29  -7    2.08    0.14
  -5 -29   7    2.38    0.17
  -5  29  -7    2.41    0.14
   5  29   7    2.43    0.14
  -5  29   9    0.36    0.10
  -5 -29  -9    0.43    0.10
   5  29  -9    0.46    0.10
   5 -29   9    0.29    0.10
  -5 -29   9    0.31    0.09
  -5  29  -9    0.39    0.11
   5 -29  -9    0.41    0.08
   5 -29  11    1.17    0.16
  -5  29  11    1.87    0.19
   5  29 -11    1.58    0.17
  -5 -29 -11    1.95    0.18
  -5 -29  11    1.52    0.17
  -5  29 -11    1.73    0.19
  -5 -29 -13    0.47    0.13
   5  29 -13    0.13    0.12
  -5 -29  13    0.15    0.11
  -5  29 -13    0.38    0.14
  -7 -29  -1    1.74    0.11
   7  29  -1    1.79    0.14
  -7 -29  -1    1.75    0.12
  -7  29   1    1.91    0.11
  -7  29   1    1.95    0.13
   7 -29   1    1.91    0.12
   7 -29  -1    1.91    0.11
  -7  29  -1    1.80    0.12
   7  29   1    1.82    0.13
  -7  29  -1    1.93    0.12
  -7 -29   1    2.11    0.13
  -7 -29   1    1.88    0.12
  -7 -29  -3    8.49    0.32
   7 -29   3    8.07    0.31
  -7 -29  -3    8.09    0.29
  -7  29   3    8.66    0.30
  -7 -29   3    8.20    0.33
  -7  29  -3    8.52    0.32
  -7  29  -3    8.10    0.31
   7 -29  -3    8.15    0.28
   7  29   3    8.54    0.32
  -7 -29   3    8.29    0.33
   7 -29   5    1.67    0.14
  -7  29   5    1.87    0.13
  -7 -29  -5    1.78    0.14
  -7  29   5    1.68    0.14
   7  29  -5    1.92    0.16
  -7 -29  -5    1.86    0.11
   7 -29  -5    1.91    0.11
  -7  29  -5    1.96    0.12
  -7  29  -5    1.95    0.14
   7  29   5    1.58    0.12
  -7 -29   5    1.69    0.14
  -7 -29   5    1.86    0.17
   7 -29   7   10.04    0.39
  -7  29   7    9.26    0.40
  -7 -29  -7    9.47    0.38
   7  29  -7    9.69    0.39
  -7 -29   7    9.99    0.39
  -7  29  -7    9.28    0.39
   7  29  -9    1.75    0.17
  -7 -29  -9    1.67    0.16
   7 -29   9    1.49    0.16
  -7  29   9    1.18    0.15
  -7 -29   9    1.33    0.15
  -7  29  -9    1.49    0.16
  -7 -29 -11    0.22    0.10
   7 -29  11    0.47    0.12
   7  29 -11    0.23    0.11
  -7  29  11    0.18    0.10
  -7 -29  11    0.27    0.10
  -7  29 -11    0.11    0.11
   7  29 -13    0.10    0.12
  -7 -29 -13    0.10    0.10
  -7  29  13   -0.15    0.09
  -7  29 -13    0.01    0.12
  -7 -29  13    0.11    0.10
   9 -29   1    3.74    0.17
   9  29  -1    3.86    0.20
  -9  29   1    4.36    0.21
  -9 -29  -1    3.95    0.19
  -9 -29  -1    3.69    0.19
  -9  29   1    3.77    0.18
  -9 -29   1    4.12    0.20
  -9  29  -1    3.95    0.19
  -9 -29   1    4.16    0.20
  -9  29  -1    4.06    0.19
   9 -29  -1    3.77    0.16
   9  29   1    4.27    0.21
  -9  29   3    0.73    0.11
   9  29  -3    0.57    0.11
  -9  29   3    0.94    0.10
  -9 -29  -3    0.80    0.08
   9 -29   3    0.66    0.08
  -9 -29  -3    0.66    0.10
  -9 -29   3    0.66    0.10
  -9 -29   3    0.77    0.10
  -9  29  -3    0.81    0.09
  -9  29  -3    0.77    0.10
   9  29   3    0.87    0.10
  -9  29   5    2.65    0.16
   9  29  -5    2.59    0.18
  -9 -29  -5    2.08    0.16
  -9 -29  -5    2.75    0.15
  -9  29   5    2.60    0.18
   9 -29   5    2.39    0.16
  -9  29  -5    2.58    0.17
  -9 -29   5    2.66    0.17
  -9 -29   5    2.78    0.20
   9 -29   7    1.19    0.13
  -9 -29  -7    1.66    0.15
  -9  29   7    1.32    0.15
   9  29  -7    1.20    0.14
  -9 -29   7    1.58    0.14
  -9 -29   7    1.38    0.16
  -9  29  -7    1.28    0.15
   9  29  -9    0.31    0.10
  -9 -29  -9    0.11    0.09
  -9  29   9    0.11    0.09
   9 -29   9    0.16    0.09
  -9 -29   9    0.28    0.09
  -9  29  -9    0.24    0.10
   9  29 -11    0.20    0.11
  -9  29  11    0.20    0.12
  -9 -29 -11    0.22    0.11
  -9 -29  11    0.34    0.11
  -9  29 -11    0.20    0.12
  -9  29  13    0.16    0.12
   9  29 -13    0.03    0.12
  -9 -29 -13    0.06    0.10
  -9  29 -13    0.18    0.13
 -11 -29  -1    5.11    0.23
 -11  29   1    4.55    0.23
  11  29  -1    5.16    0.24
 -11 -29  -1    4.98    0.24
 -11  29   1    4.80    0.24
 -11  29  -1    4.68    0.23
  11  29   1    5.07    0.24
 -11 -29   1    4.97    0.23
 -11  29  -1    4.84    0.23
 -11 -29   1    4.95    0.24
  11 -29   3    0.19    0.06
 -11 -29  -3    0.32    0.08
  11  29  -3    0.44    0.10
 -11  29   3    0.29    0.09
 -11  29   3    0.25    0.08
 -11 -29  -3    0.30    0.08
  11  29   3    0.33    0.08
 -11  29  -3    0.25    0.09
 -11  29  -3    0.23    0.07
 -11 -29   3    0.34    0.08
 -11 -29   3    0.27    0.09
 -11  29   5    0.97    0.12
  11 -29   5    0.85    0.10
 -11  29   5    0.73    0.12
 -11 -29  -5    1.02    0.11
  11  29  -5    0.68    0.12
 -11 -29  -5    0.68    0.11
 -11  29  -5    0.61    0.11
 -11 -29   5    0.83    0.13
 -11 -29   5    0.80    0.11
 -11 -29  -7   -0.01    0.07
  11 -29   7    0.18    0.08
 -11  29   7    0.17    0.09
  11  29  -7   -0.05    0.08
 -11 -29   7    0.08    0.07
 -11  29  -7    0.12    0.09
 -11 -29   7    0.04    0.10
 -11 -29  -9    0.85    0.13
  11  29  -9    0.97    0.15
 -11  29   9    0.95    0.15
 -11  29  -9    0.97    0.15
 -11  29  11    0.46    0.14
  11  29 -11    0.48    0.14
 -11 -29 -11    0.42    0.12
 -11  29 -11    0.22    0.13
 -11  29  13    0.30    0.15
  11  29 -13   -0.05    0.12
 -13 -29  -1    5.68    0.26
 -13  29   1    5.20    0.27
 -13 -29  -1    5.82    0.27
  13  29  -1    5.26    0.27
 -13  29   1    5.61    0.27
 -13 -29   1    5.48    0.26
 -13  29  -1    5.73    0.26
 -13  29  -1    5.45    0.26
  13  29   1    5.65    0.26
 -13 -29   1    5.69    0.28
 -13 -29  -3    0.81    0.11
 -13 -29  -3    0.58    0.10
 -13  29   3    0.30    0.09
  13  29  -3    0.35    0.10
 -13  29   3    0.45    0.10
 -13 -29   3    0.52    0.11
 -13  29  -3    0.43    0.10
 -13 -29   3    0.66    0.10
 -13  29   5    0.62    0.11
 -13 -29  -5    0.58    0.11
  13  29  -5    0.39    0.11
 -13 -29  -5    0.55    0.09
 -13  29   5    0.47    0.11
 -13  29  -5    0.62    0.11
 -13 -29   5    0.36    0.11
 -13 -29  -7    1.50    0.17
 -13  29   7    1.27    0.17
  13  29  -7    1.16    0.16
 -13  29  -7    1.27    0.16
 -13 -29   7    1.39    0.19
 -13  29   9    0.56    0.14
  13  29  -9    0.51    0.14
 -13 -29  -9    0.61    0.13
 -13 -29   9    0.54    0.15
 -13  29  -9    0.46    0.13
 -13  29  11    1.49    0.21
 -13 -29 -11    1.44    0.18
  13  29 -11    1.31    0.19
 -13  29 -11    1.50    0.20
 -15 -29  -1    4.96    0.25
 -15 -29  -1    5.06    0.26
  15  29  -1    5.21    0.27
 -15  29   1    4.35    0.26
 -15  29   1    5.31    0.27
 -15  29  -1    5.05    0.25
 -15 -29   1    4.68    0.27
 -15  29  -1    4.88    0.27
  15  29   1    5.04    0.26
 -15 -29  -3    1.44    0.15
 -15  29   3    1.39    0.16
  15  29  -3    1.02    0.14
 -15  29   3    1.12    0.15
 -15 -29  -3    1.28    0.14
 -15  29  -3    1.25    0.16
 -15 -29   3    1.37    0.17
  15  29  -5   -0.10    0.09
 -15  29   5    0.02    0.10
 -15 -29  -5    0.06    0.08
 -15  29   5   -0.02    0.09
 -15 -29   5    0.13    0.10
 -15  29  -5    0.00    0.09
  15  29  -7    0.19    0.12
 -15  29   7    0.22    0.12
 -15 -29  -7   -0.01    0.09
 -15 -29   7    0.17    0.12
 -15  29  -7    0.20    0.11
 -15  29   9    0.34    0.13
 -15 -29  -9    0.29    0.12
  15  29  -9    0.34    0.13
 -15 -29   9    0.22    0.13
 -15  29  -9    0.29    0.12
 -17  29   1    2.47    0.20
 -17  29   1    2.11    0.21
  17  29  -1    2.37    0.20
 -17 -29  -1    2.07    0.20
 -17 -29   1    2.00    0.20
 -17  29  -1    1.91    0.20
 -17  29   3    0.53    0.12
 -17  29   3    0.76    0.14
 -17 -29  -3    0.85    0.14
  17  29  -3    0.58    0.13
 -17  29  -3    0.61    0.14
 -17 -29   3    0.54    0.13
 -17  29   5    0.89    0.16
 -17  29   5    0.49    0.14
 -17 -29  -5    0.89    0.14
  17  29  -5    0.56    0.14
 -17  29  -5    0.98    0.16
 -17 -29   5    0.88    0.16
 -17 -29  -7    0.32    0.12
 -17  29   7    0.32    0.13
  17  29  -7    0.36    0.13
 -17 -29   7    0.56    0.16
 -17  29  -7    0.34    0.13
 -17 -29  -9   -0.04    0.10
 -19  29   1    0.60    0.14
  19  29  -1    0.64    0.14
 -19  29   1    0.71    0.15
 -19 -29  -1    0.79    0.15
 -19 -29   1    0.43    0.14
 -19  29  -1    0.79    0.15
 -19  29   3    0.20    0.12
 -19 -29  -3    0.28    0.11
  19  29  -3    0.04    0.11
 -19  29   3    0.18    0.12
 -19  29  -3    0.24    0.12
 -19 -29   3    0.19    0.12
 -19  29   5    0.14    0.12
  19  29  -5    0.34    0.13
 -19  29   5    0.41    0.14
 -19 -29   5    0.10    0.13
 -19  29  -5    0.60    0.15
 -21 -29  -1    1.09    0.18
 -21  29   1    1.40    0.20
 -21 -29   1    1.39    0.20
 -21  29  -1    1.19    0.19
 -21  29   3    1.14    0.19
 -21  29   3    1.36    0.19
  21  29  -3    1.07    0.18
 -21 -29   3    1.19    0.20
 -21  29  -3    1.18    0.19
 -21  29   5    0.17    0.14
   0 -30   0    0.05    0.04
   0  30   0    0.01    0.01
   0  30   0   -0.01    0.02
   0 -30   2    4.88    0.22
   0  30   2    4.99    0.22
   0 -30  -2    5.20    0.21
   0  30  -2    5.77    0.23
   0  30   4   -0.06    0.03
   0  30  -4   -0.03    0.05
   0 -30  -4    0.04    0.05
   0 -30   4   -0.01    0.04
   0  30  -4    0.05    0.05
   0 -30  -6   11.46    0.41
   0  30  -6   10.85    0.41
   0  30   6   11.12    0.41
   0  30  -6   11.63    0.41
   0 -30  -8    0.03    0.07
   0  30   8    0.05    0.07
   0 -30   8    0.04    0.07
   0  30  -8   -0.12    0.09
   0  30  -8   -0.01    0.07
   0 -30  10    2.02    0.19
   0  30 -10    2.29    0.21
   0 -30 -10    1.80    0.16
   0  30 -10    2.02    0.16
   0 -30 -12   -0.05    0.08
   0 -30  12   -0.07    0.08
   0  30 -12    0.08    0.11
   0 -30  14    0.71    0.15
   0  30 -14    0.90    0.17
   0 -30 -14    0.61    0.14
  -2  30   0    4.12    0.19
   2  30   0    4.22    0.19
  -2  30   0    4.12    0.15
  -2 -30   0    3.80    0.18
   2 -30   0    4.28    0.18
  -2 -30  -2    4.75    0.20
  -2  30   2    4.24    0.20
   2 -30   2    4.59    0.20
  -2  30   2    4.66    0.15
   2  30  -2    4.25    0.20
  -2  30  -2    4.51    0.19
   2 -30  -2    4.52    0.19
   2  30   2    4.48    0.20
  -2  30  -2    4.55    0.18
  -2 -30  -4   10.55    0.38
  -2  30   4   10.36    0.39
   2  30  -4   11.15    0.39
   2 -30   4   10.66    0.39
  -2 -30   4   11.07    0.39
   2 -30  -4   10.50    0.37
   2  30   4   10.10    0.38
  -2  30  -4   10.35    0.38
  -2  30  -4   10.39    0.37
   2  30  -6    2.72    0.17
  -2 -30  -6    2.85    0.17
   2 -30   6    3.04    0.18
  -2  30   6    2.94    0.17
   2 -30  -6    2.66    0.16
  -2  30  -6    2.79    0.17
  -2  30  -6    2.79    0.16
  -2 -30   6    2.78    0.18
   2  30   6    2.95    0.16
  -2 -30  -8    6.99    0.31
   2  30  -8    7.09    0.31
  -2  30   8    7.62    0.32
   2  30  -8    7.09    0.32
   2 -30   8    7.51    0.33
  -2  30  -8    7.19    0.33
   2 -30  -8    7.36    0.30
  -2  30  -8    7.45    0.30
  -2 -30   8    6.83    0.32
   2  30   8    7.20    0.30
   2  30 -10    0.75    0.12
   2  30 -10    0.66    0.14
  -2 -30 -10    0.93    0.13
   2 -30  10    0.88    0.13
  -2  30  10    0.82    0.12
  -2 -30  10    0.80    0.13
   2 -30 -10    0.92    0.12
  -2  30 -10    0.90    0.14
   2  30 -12    1.50    0.19
   2 -30  12    1.32    0.17
  -2 -30 -12    1.44    0.17
   2 -30 -12    1.87    0.17
  -2  30 -12    1.52    0.19
  -2 -30  12    1.51    0.18
   2 -30  14    0.37    0.13
  -2 -30 -14    0.30    0.12
   2  30 -14    0.73    0.17
  -2 -30  14    0.41    0.13
  -2  30 -14    0.47    0.16
  -4 -30   0    0.30    0.05
  -4 -30   0    0.41    0.07
   4 -30   0    0.28    0.05
  -4  30   0    0.38    0.07
  -4  30   0    0.22    0.04
   4  30   0    0.51    0.08
  -4  30   2   10.02    0.32
  -4 -30  -2   10.22    0.31
   4 -30   2    9.84    0.36
  -4 -30   2    9.73    0.35
  -4  30  -2   10.61    0.35
   4  30   2    9.93    0.36
  -4  30  -2   10.28    0.36
  -4 -30   2    9.39    0.37
   4 -30  -2   10.32    0.34
   4  30  -4    1.67    0.13
  -4  30   4    1.56    0.12
  -4  30   4    1.52    0.09
  -4 -30  -4    1.63    0.07
   4 -30   4    1.44    0.12
  -4  30  -4    1.60    0.11
   4 -30  -4    1.44    0.10
  -4 -30   4    1.62    0.13
  -4  30  -4    1.55    0.12
   4  30   4    1.41    0.11
  -4  30   6    9.49    0.37
   4 -30   6    9.30    0.37
   4  30  -6    9.37    0.37
  -4 -30  -6    8.94    0.36
   4 -30  -6    9.07    0.33
  -4  30  -6    9.26    0.34
  -4 -30   6    9.26    0.37
  -4  30  -6    9.16    0.36
   4  30   6    9.65    0.35
   4  30  -8    1.23    0.14
  -4  30   8    1.16    0.14
   4 -30   8    1.22    0.14
  -4 -30  -8    1.04    0.13
   4 -30  -8    1.31    0.12
  -4 -30   8    1.36    0.15
  -4  30  -8    1.06    0.14
  -4 -30 -10    0.59    0.12
   4 -30  10    0.66    0.12
   4  30 -10    0.59    0.11
  -4  30  10    0.60    0.11
  -4 -30  10    0.70    0.13
   4 -30 -10    0.66    0.10
  -4  30 -10    0.62    0.13
   4  30 -12    0.31    0.13
  -4 -30 -12    0.47    0.12
   4 -30  12    0.44    0.12
  -4  30 -12    0.18    0.12
  -4 -30  12    0.28    0.11
   4  30 -14    0.23    0.14
  -4 -30 -14    0.09    0.11
  -4 -30  14    0.25    0.12
  -4  30 -14    0.25    0.14
  -6 -30   0    9.58    0.35
   6  30   0    9.24    0.35
  -6  30   0    9.13    0.32
  -6  30   0    8.88    0.34
  -6 -30   0    9.00    0.32
   6 -30   0    8.99    0.32
  -6 -30  -2    4.14    0.20
   6  30  -2    4.28    0.21
  -6  30   2    4.18    0.21
   6 -30   2    4.72    0.20
  -6 -30  -2    4.12    0.17
  -6  30   2    4.18    0.17
   6 -30  -2    4.07    0.17
  -6  30  -2    4.49    0.19
  -6 -30   2    4.31    0.21
  -6  30  -2    4.38    0.19
  -6 -30   2    4.22    0.20
   6  30   2    4.28    0.20
  -6  30   4   13.03    0.44
  -6 -30  -4   13.51    0.47
   6 -30   4   13.03    0.46
  -6 -30  -4   14.02    0.42
  -6 -30   4   12.78    0.47
  -6  30  -4   13.07    0.45
   6  30   4   13.26    0.46
  -6  30  -4   13.10    0.46
   6 -30  -4   13.41    0.43
  -6 -30   4   12.79    0.47
  -6 -30  -6    3.93    0.21
   6 -30   6    3.61    0.21
   6  30  -6    4.14    0.22
  -6  30   6    4.04    0.22
   6  30   6    3.89    0.18
  -6  30  -6    3.75    0.21
  -6 -30   6    3.61    0.21
   6 -30  -6    3.88    0.18
  -6  30  -6    3.86    0.18
   6  30  -8    8.59    0.37
   6 -30   8    8.55    0.37
  -6  30   8    8.44    0.38
  -6 -30  -8    9.08    0.37
  -6  30  -8    8.73    0.37
  -6 -30   8    8.87    0.37
   6 -30  10    0.67    0.12
  -6 -30 -10    0.73    0.12
  -6  30  10    0.49    0.12
   6  30 -10    0.63    0.12
  -6  30 -10    0.91    0.14
  -6 -30  10    0.64    0.12
  -6  30  12    0.00    0.10
  -6 -30 -12   -0.04    0.09
   6  30 -12    0.12    0.11
   6 -30  12    0.00    0.09
  -6  30 -12    0.00    0.11
  -6 -30  12    0.00    0.09
  -6 -30  14    0.20    0.11
   8  30   0    5.77    0.26
  -8  30   0    5.85    0.24
  -8 -30   0    6.10    0.24
   8 -30   0    5.51    0.22
  -8 -30   0    6.02    0.25
  -8  30   0    6.00    0.25
  -8  30   2    3.91    0.18
  -8 -30  -2    4.02    0.17
  -8  30   2    3.55    0.20
   8 -30   2    3.82    0.18
   8  30  -2    4.32    0.22
  -8 -30  -2    4.15    0.21
   8  30   2    3.38    0.19
  -8  30  -2    4.09    0.19
  -8  30  -2    4.04    0.19
   8 -30  -2    4.13    0.16
  -8 -30   2    3.62    0.19
  -8 -30   2    3.87    0.20
  -8 -30  -4    5.08    0.20
   8  30  -4    4.64    0.24
  -8  30   4    4.56    0.21
  -8 -30  -4    4.37    0.23
   8 -30   4    4.52    0.21
  -8  30   4    4.50    0.24
   8  30   4    4.67    0.21
  -8  30  -4    4.72    0.21
  -8 -30   4    4.55    0.23
  -8 -30   4    4.53    0.23
  -8  30  -4    4.53    0.22
  -8  30   6   15.72    0.52
   8  30  -6   15.64    0.56
  -8 -30  -6   14.92    0.53
  -8  30   6   14.51    0.56
   8 -30   6   14.86    0.53
  -8 -30   6   14.39    0.53
  -8 -30   6   14.40    0.56
  -8  30  -6   14.16    0.53
  -8  30   8    0.59    0.12
   8  30  -8    0.57    0.12
  -8 -30  -8    0.81    0.12
   8 -30   8    0.60    0.11
  -8 -30   8    0.54    0.10
  -8  30  -8    0.63    0.12
  -8 -30 -10    0.81    0.13
   8  30 -10    0.79    0.13
  -8  30  10    0.63    0.14
   8 -30  10    0.53    0.12
  -8 -30  10    0.46    0.11
  -8  30 -10    0.63    0.14
  -8  30  12    0.10    0.11
  -8 -30 -12    0.15    0.10
   8  30 -12    0.08    0.11
  -8 -30  12    0.05    0.09
  -8  30 -12    0.02    0.12
 -10 -30   0    8.12    0.33
 -10  30   0    8.16    0.34
  10  30   0    8.44    0.34
 -10 -30   0    8.65    0.33
 -10  30   0    8.43    0.33
 -10  30   2    1.88    0.15
 -10  30   2    1.81    0.13
  10 -30   2    1.98    0.12
 -10 -30  -2    1.95    0.13
  10  30  -2    1.81    0.15
 -10 -30  -2    1.90    0.14
 -10 -30   2    2.00    0.16
 -10 -30   2    1.84    0.14
 -10  30  -2    1.82    0.14
  10  30   2    1.96    0.15
 -10  30  -2    2.01    0.14
 -10 -30  -4    7.03    0.30
 -10 -30  -4    6.95    0.27
 -10  30   4    7.27    0.30
  10 -30   4    6.43    0.28
  10  30  -4    6.81    0.31
 -10  30   4    6.76    0.32
 -10  30  -4    6.71    0.30
 -10  30  -4    7.09    0.28
 -10 -30   4    6.38    0.29
  10  30   4    6.86    0.28
 -10 -30   4    7.44    0.32
  10  30  -6    1.31    0.15
 -10  30   6    1.38    0.14
  10 -30   6    1.55    0.14
 -10 -30  -6    1.31    0.14
 -10  30   6    1.27    0.15
 -10  30  -6    1.31    0.14
 -10 -30   6    1.33    0.14
 -10 -30   6    1.62    0.17
  10  30  -8    3.31    0.22
 -10 -30  -8    3.61    0.22
  10 -30   8    3.17    0.21
 -10  30   8    3.31    0.22
 -10 -30   8    2.92    0.23
 -10  30  -8    3.16    0.22
 -10 -30   8    3.14    0.20
  10  30 -10    0.21    0.11
 -10  30  10    0.12    0.11
 -10 -30 -10    0.10    0.09
 -10  30 -10   -0.08    0.10
 -10 -30 -12    0.01    0.10
 -10  30  12   -0.06    0.10
  10  30 -12   -0.04    0.10
 -10  30 -12    0.00    0.12
  12  30   0    0.55    0.10
 -12  30   0    0.55    0.10
 -12 -30   0    0.57    0.09
 -12  30   0    0.63    0.10
 -12 -30   0    0.50    0.10
 -12  30   2    1.16    0.13
 -12 -30  -2    1.25    0.13
  12  30  -2    1.10    0.13
 -12 -30  -2    1.13    0.12
 -12  30   2    1.37    0.13
  12  30   2    1.22    0.12
 -12 -30   2    1.27    0.13
 -12  30  -2    1.05    0.13
 -12 -30   2    1.34    0.14
 -12  30  -2    1.29    0.12
  12 -30   4    0.12    0.07
 -12  30   4    0.03    0.08
 -12  30   4    0.01    0.07
 -12 -30  -4    0.19    0.07
  12  30  -4    0.14    0.09
 -12 -30  -4    0.16    0.08
 -12 -30   4    0.06    0.06
 -12  30  -4    0.06    0.08
 -12 -30   4    0.48    0.11
  12 -30   6    0.27    0.08
 -12  30   6    0.34    0.11
  12  30  -6    0.27    0.10
 -12 -30  -6    0.33    0.10
 -12  30   6    0.33    0.10
 -12 -30   6    0.39    0.09
 -12 -30   6    0.40    0.11
 -12  30  -6    0.39    0.10
 -12 -30  -8    0.20    0.10
  12  30  -8    0.14    0.10
 -12  30   8    0.29    0.12
 -12  30  -8    0.27    0.11
 -12 -30   8    0.25    0.12
  12  30 -10    0.12    0.10
 -12 -30 -10   -0.03    0.09
 -12  30  10   -0.02    0.11
 -12  30 -10    0.18    0.11
 -12  30  12    0.30    0.14
 -12 -30 -12    0.28    0.12
  12  30 -12   -0.09    0.12
 -14  30   0    2.11    0.17
  14  30   0    2.24    0.18
 -14 -30   0    2.14    0.17
 -14 -30   0    2.39    0.17
 -14  30   0    1.79    0.17
 -14  30   2    3.88    0.24
 -14 -30  -2    4.47    0.23
 -14  30   2    3.67    0.23
 -14 -30  -2    3.87    0.22
  14  30  -2    4.15    0.24
 -14  30  -2    4.17    0.22
  14  30   2    4.13    0.22
 -14 -30   2    4.06    0.24
 -14  30  -2    3.99    0.23
 -14 -30   2    4.02    0.22
 -14 -30  -4    0.66    0.11
  14  30  -4    0.49    0.12
 -14  30   4    0.52    0.11
 -14  30   4    0.55    0.11
 -14 -30  -4    0.69    0.11
 -14 -30   4    0.69    0.13
 -14  30  -4    0.83    0.13
 -14  30   6    1.31    0.17
 -14  30   6    1.20    0.16
  14  30  -6    1.35    0.17
 -14 -30  -6    1.55    0.16
 -14  30  -6    1.39    0.17
 -14 -30   6    1.26    0.18
  14  30  -8    0.67    0.15
 -14  30   8    1.00    0.17
 -14 -30  -8    1.06    0.15
 -14 -30   8    0.76    0.16
 -14  30  -8    0.90    0.15
  14  30 -10    0.02    0.12
 -14  30  10    0.12    0.13
 -14 -30 -10    0.16    0.11
 -14  30 -10   -0.02    0.10
 -16  30   0    2.58    0.20
  16  30   0    2.53    0.20
 -16  30   0    2.86    0.20
 -16 -30   0    2.40    0.20
 -16  30   2    1.04    0.15
 -16  30   2    1.15    0.15
 -16 -30  -2    1.06    0.14
 -16 -30  -2    1.09    0.14
  16  30  -2    1.05    0.15
 -16  30  -2    0.94    0.15
 -16 -30   2    1.17    0.16
 -16  30   4    0.11    0.10
 -16 -30  -4    0.41    0.11
  16  30  -4    0.34    0.12
 -16  30   4    0.46    0.13
 -16  30  -4    0.34    0.12
 -16 -30   4    0.40    0.13
  16  30  -6    0.32    0.13
 -16  30   6    0.33    0.12
 -16  30   6    0.37    0.12
 -16 -30  -6    0.29    0.11
 -16  30  -6    0.43    0.13
 -16 -30   6    0.28    0.14
  16  30  -8    0.49    0.14
 -16  30   8    0.37    0.14
 -16 -30  -8    0.36    0.12
 -16 -30   8    0.58    0.16
 -16  30  -8    0.69    0.15
 -16 -30 -10   -0.08    0.10
 -18  30   0    0.30    0.12
 -18 -30   0    0.45    0.13
 -18  30   2    0.01    0.09
 -18  30   2    0.11    0.11
 -18 -30  -2   -0.09    0.09
  18  30  -2    0.03    0.10
 -18 -30   2    0.34    0.12
 -18  30  -2    0.08    0.10
  18  30  -4    0.44    0.13
 -18  30   4    0.60    0.14
 -18  30   4    0.56    0.14
 -18 -30   4    0.40    0.14
 -18  30  -4    0.56    0.14
  18  30  -6   -0.16    0.10
 -18  30   6   -0.03    0.11
 -18  30  -6    0.04    0.11
 -18 -30   6    0.05    0.13
 -18 -30  -8   -0.06    0.10
 -20  30   0    0.09    0.12
 -20 -30   0    0.09    0.12
 -20  30   2    0.16    0.12
 -20 -30  -2    0.13    0.11
 -20  30   2   -0.10    0.11
  20  30  -2    0.19    0.12
 -20 -30   2    0.18    0.13
 -20  30  -2    0.18    0.13
 -20  30   4   -0.04    0.11
 -20  30   4   -0.12    0.11
  20  30  -4   -0.09    0.11
 -20  30  -4    0.03    0.11
 -20 -30   4    0.19    0.13
 -22 -30   0   -0.11    0.12
   1  31  -1   16.19    0.49
  -1  31   1   14.88    0.54
  -1 -31  -1   16.28    0.53
  -1  31   1   15.69    0.47
   1 -31   1   15.64    0.53
   1 -31  -1   16.17    0.52
   1  31   1   16.52    0.47
  -1 -31   1   15.91    0.53
   1  31   1   15.27    0.54
  -1  31  -1   16.78    0.50
  -1  31  -1   16.79    0.54
  -1 -31  -3    3.98    0.18
   1  31  -3    4.28    0.19
  -1  31   3    4.08    0.19
   1 -31   3    4.09    0.19
   1  31  -3    3.89    0.17
  -1  31  -3    4.10    0.18
  -1  31  -3    4.35    0.19
   1  31   3    3.87    0.18
   1 -31  -3    4.36    0.19
   1  31  -5   11.11    0.41
  -1  31   5   10.87    0.40
   1  31  -5   11.40    0.40
  -1 -31  -5   10.45    0.39
   1 -31  -5   10.77    0.39
  -1  31  -5   10.91    0.40
   1  31   5   11.10    0.40
  -1  31  -5   11.27    0.40
   1  31  -7    4.15    0.23
   1 -31   7    4.29    0.23
  -1  31   7    4.14    0.21
  -1 -31  -7    4.04    0.22
   1  31  -7    3.91    0.21
  -1  31  -7    4.10    0.22
  -1  31  -7    3.85    0.21
  -1 -31   7    4.38    0.23
   1  31   7    4.37    0.21
   1 -31  -7    4.21    0.21
  -1 -31  -9    0.87    0.12
   1 -31   9    0.97    0.13
   1  31  -9    0.89    0.12
   1  31  -9    0.73    0.13
  -1  31   9    0.82    0.11
   1  31   9    1.07    0.12
   1 -31  -9    0.74    0.11
  -1  31  -9    0.97    0.14
  -1  31  -9    1.00    0.12
  -1 -31   9    0.90    0.13
  -1 -31 -11    1.60    0.16
   1  31 -11    0.96    0.16
   1 -31  11    1.13    0.15
  -1  31 -11    1.23    0.17
  -1 -31  11    1.29    0.16
   1 -31 -11    1.29    0.15
   1  31 -13    0.23    0.13
   1 -31  13    0.04    0.10
  -1 -31 -13    0.21    0.11
  -1 -31  13    0.08    0.10
  -1  31 -13    0.24    0.14
   1 -31 -13    0.09    0.09
   3 -31   1   25.83    0.81
  -3  31   1   26.71    0.77
   3  31  -1   25.97    0.84
  -3  31   1   27.08    0.84
   3 -31  -1   26.06    0.81
  -3  31  -1   25.21    0.83
   3  31   1   26.18    0.84
  -3 -31   1   25.47    0.82
  -3 -31  -3    8.54    0.33
   3 -31   3    9.01    0.33
   3  31  -3    9.18    0.34
  -3  31   3    9.00    0.28
  -3  31   3    8.20    0.34
  -3  31  -3    8.98    0.33
   3  31   3    8.48    0.33
  -3  31  -3    9.27    0.32
   3 -31  -3    9.10    0.32
  -3 -31   3    8.77    0.34
   3  31  -5    0.33    0.09
  -3  31   5    0.48    0.08
  -3 -31  -5    0.47    0.08
   3 -31   5    0.49    0.08
  -3  31  -5    0.63    0.09
  -3 -31   5    0.49    0.08
  -3  31  -5    0.50    0.08
   3 -31  -5    0.48    0.07
   3  31   5    0.47    0.07
   3  31  -7   17.77    0.61
   3 -31   7   17.36    0.61
  -3 -31  -7   16.92    0.59
  -3  31   7   17.52    0.61
  -3  31  -7   16.85    0.58
   3  31   7   17.22    0.59
  -3  31  -7   16.50    0.60
   3 -31  -7   17.37    0.58
  -3 -31   7   18.16    0.62
  -3  31   9    0.22    0.08
   3  31  -9    0.32    0.11
   3  31  -9    0.25    0.09
  -3 -31  -9    0.40    0.10
   3 -31   9    0.33    0.10
  -3 -31   9    0.33    0.10
  -3  31  -9    0.37    0.11
   3 -31  -9    0.26    0.08
  -3  31  11    0.77    0.13
   3 -31  11    0.86    0.14
  -3 -31 -11    0.94    0.14
   3  31 -11    0.83    0.15
   3  31 -11    0.81    0.13
  -3 -31  11    0.77    0.13
   3 -31 -11    0.92    0.12
  -3  31 -11    0.86    0.15
   3  31 -13    0.34    0.14
  -3 -31 -13    0.43    0.12
   3 -31  13    0.28    0.11
  -3  31 -13    0.32    0.14
  -3 -31  13    0.15    0.10
  -5  31   1   10.78    0.39
   5 -31   1   10.71    0.37
  -5 -31  -1   10.66    0.39
   5  31  -1   10.91    0.40
  -5 -31  -1   10.64    0.35
  -5  31  -1   10.91    0.36
   5  31   1   10.67    0.39
   5 -31  -1   10.71    0.37
  -5  31  -1   10.73    0.39
  -5 -31   1   10.83    0.37
  -5 -31   1   10.52    0.39
  -5 -31  -3    3.89    0.14
   5 -31   3    3.67    0.19
  -5  31   3    3.66    0.15
  -5 -31   3    4.05    0.19
  -5  31  -3    3.89    0.18
  -5  31  -3    3.85    0.18
   5 -31  -3    4.05    0.17
   5  31   3    3.56    0.17
  -5 -31   3    3.62    0.19
  -5  31   5    9.77    0.38
   5 -31   5    9.70    0.37
   5  31  -5    9.41    0.37
  -5 -31   5    9.17    0.37
   5  31   5    9.56    0.35
  -5  31  -5    9.34    0.35
  -5  31  -5    9.37    0.36
   5 -31  -5    9.55    0.34
  -5 -31  -7   12.94    0.47
   5 -31   7   12.50    0.48
   5  31  -7   13.03    0.48
  -5  31   7   12.06    0.48
  -5 -31   7   12.16    0.48
  -5  31  -7   12.55    0.47
   5 -31  -7   12.70    0.44
   5  31   7   12.89    0.45
  -5  31  -7   12.82    0.44
   5 -31   9    0.66    0.12
  -5  31   9    0.60    0.12
   5  31  -9    0.67    0.12
  -5 -31  -9    0.55    0.11
  -5 -31   9    0.76    0.12
  -5  31  -9    0.26    0.11
   5 -31  -9    0.77    0.10
   5  31 -11    1.37    0.16
   5 -31  11    0.91    0.15
  -5 -31 -11    1.15    0.15
  -5  31  11    1.54    0.17
  -5  31 -11    1.13    0.16
  -5 -31  11    1.33    0.16
  -5 -31 -13    0.41    0.13
   5 -31  13    0.11    0.10
   5  31 -13    0.07    0.12
  -5  31 -13    0.03    0.11
  -5 -31  13    0.11    0.10
  -7  31   1    0.27    0.07
  -7 -31  -1    0.27    0.07
  -7  31   1    0.33    0.06
   7  31  -1    0.36    0.08
   7 -31   1    0.35    0.06
  -7 -31  -1    0.33    0.06
   7  31   1    0.45    0.08
  -7  31  -1    0.35    0.07
  -7 -31   1    0.40    0.08
  -7 -31   1    0.41    0.07
  -7  31  -1    0.20    0.06
   7 -31  -1    0.30    0.05
   7 -31   3    5.60    0.24
  -7 -31  -3    5.18    0.25
  -7 -31  -3    5.54    0.21
  -7  31   3    6.03    0.23
  -7 -31   3    5.61    0.26
   7 -31  -3    5.67    0.22
  -7  31  -3    5.74    0.24
  -7  31  -3    6.06    0.24
   7  31   3    5.70    0.24
  -7 -31   3    5.89    0.25
   7 -31   5    2.24    0.16
   7  31  -5    2.12    0.17
  -7  31   5    1.99    0.16
  -7  31   5    2.20    0.13
  -7 -31  -5    1.94    0.15
   7  31   5    1.92    0.13
  -7  31  -5    1.95    0.13
  -7 -31   5    1.96    0.15
  -7 -31   5    2.06    0.17
  -7  31  -5    2.14    0.15
   7 -31  -5    2.12    0.12
   7 -31   7    4.24    0.24
  -7 -31  -7    4.94    0.24
  -7  31   7    4.49    0.25
   7  31  -7    4.57    0.25
  -7  31  -7    4.13    0.23
  -7 -31   7    4.74    0.24
   7  31  -9    1.18    0.15
   7 -31   9    1.11    0.15
  -7 -31  -9    1.19    0.15
  -7  31   9    1.13    0.15
  -7  31  -9    1.17    0.15
  -7 -31   9    1.12    0.14
  -7 -31 -11    0.66    0.13
   7  31 -11    0.47    0.13
   7 -31  11    0.47    0.12
  -7  31  11    0.61    0.13
  -7 -31  11    0.57    0.12
  -7  31 -11    0.45    0.13
   7  31 -13    0.09    0.12
  -7  31  13    0.12    0.11
  -7 -31 -13    0.00    0.11
  -7  31 -13    0.03    0.12
  -7 -31  13    0.09    0.10
  -9  31   1    3.15    0.17
  -9  31   1    3.28    0.19
  -9 -31  -1    3.19    0.17
   9  31  -1    3.41    0.20
   9 -31   1    3.57    0.16
  -9 -31  -1    3.55    0.19
   9  31   1    3.06    0.18
  -9  31  -1    3.39    0.18
  -9 -31   1    3.16    0.18
  -9 -31   1    3.24    0.18
  -9  31  -1    3.18    0.18
   9 -31  -1    3.33    0.15
  -9 -31  -3    3.04    0.18
  -9  31   3    2.87    0.16
   9 -31   3    2.78    0.16
  -9  31   3    3.27    0.19
   9  31  -3    3.08    0.20
  -9 -31  -3    3.10    0.15
   9  31   3    3.04    0.17
  -9  31  -3    2.93    0.17
  -9  31  -3    2.97    0.16
  -9 -31   3    3.23    0.19
  -9 -31   3    2.98    0.18
  -9  31   5    6.66    0.27
  -9  31   5    6.41    0.30
   9 -31   5    6.13    0.27
   9  31  -5    6.20    0.29
  -9 -31  -5    5.65    0.28
   9  31   5    5.98    0.25
  -9  31  -5    6.00    0.28
  -9 -31   5    6.38    0.28
  -9  31  -5    6.10    0.25
  -9 -31   5    6.00    0.30
   9 -31   7    0.24    0.08
  -9  31   7    0.35    0.10
   9  31  -7    0.32    0.10
  -9 -31  -7    0.34    0.09
  -9 -31   7    0.21    0.08
  -9 -31   7    0.15    0.10
  -9  31  -7    0.32    0.09
   9 -31   9    0.38    0.10
  -9  31   9    0.46    0.12
  -9 -31  -9    0.60    0.11
   9  31  -9    0.34    0.11
  -9 -31   9    0.38    0.10
  -9  31  -9    0.64    0.13
  -9  31  11    0.66    0.15
   9  31 -11    0.44    0.13
  -9 -31 -11    0.94    0.14
  -9 -31  11    0.70    0.13
  -9  31 -11    0.62    0.14
  -9  31  13    0.10    0.12
  -9 -31 -13    0.42    0.13
   9  31 -13    0.27    0.14
  11  31  -1    1.43    0.14
 -11 -31  -1    1.56    0.14
 -11 -31  -1    1.36    0.13
 -11  31   1    1.75    0.13
 -11  31   1    1.56    0.14
 -11  31  -1    1.38    0.13
 -11 -31   1    1.50    0.14
 -11  31  -1    1.41    0.13
  11  31   1    1.61    0.14
 -11 -31   1    1.69    0.14
 -11  31   3    2.31    0.15
 -11  31   3    2.09    0.16
 -11 -31  -3    2.28    0.15
  11 -31   3    2.07    0.14
 -11 -31  -3    1.91    0.15
  11  31  -3    2.17    0.18
  11  31   3    2.27    0.15
 -11  31  -3    2.18    0.16
 -11  31  -3    2.12    0.14
 -11 -31   3    2.22    0.17
 -11 -31   3    2.26    0.16
  11 -31   5    1.68    0.14
 -11  31   5    1.58    0.16
  11  31  -5    1.73    0.16
 -11 -31  -5    1.57    0.15
 -11  31   5    1.79    0.16
 -11 -31   5    1.85    0.18
 -11 -31   5    1.76    0.15
 -11  31  -5    1.50    0.15
 -11  31   7    0.10    0.09
 -11 -31  -7    0.11    0.09
  11 -31   7    0.03    0.07
  11  31  -7   -0.07    0.08
 -11  31  -7   -0.07    0.07
 -11 -31   7    0.03    0.07
 -11 -31   7    0.11    0.10
 -11  31   9    0.52    0.13
 -11 -31  -9    0.35    0.11
  11  31  -9    0.37    0.12
 -11  31  -9    0.23    0.11
 -11 -31 -11    0.76    0.14
  11  31 -11    1.04    0.16
 -11  31  11    0.87    0.17
 -11  31 -11    0.91    0.16
 -13 -31  -1    1.79    0.15
 -13  31   1    1.54    0.15
  13  31  -1    1.30    0.14
 -13  31   1    1.64    0.15
 -13 -31  -1    1.60    0.15
 -13  31  -1    1.64    0.16
  13  31   1    1.64    0.15
 -13  31  -1    1.59    0.15
 -13 -31   1    1.74    0.15
 -13 -31   1    1.66    0.16
  13  31  -3    4.49    0.25
 -13 -31  -3    4.53    0.22
 -13  31   3    4.60    0.24
 -13 -31  -3    4.82    0.24
 -13  31   3    4.05    0.25
 -13  31  -3    4.38    0.24
 -13 -31   3    3.99    0.25
 -13 -31   3    4.30    0.23
 -13  31   5    0.50    0.12
 -13  31   5    0.59    0.11
 -13 -31  -5    0.47    0.10
  13  31  -5    0.63    0.12
 -13  31  -5    0.42    0.10
 -13 -31   5    0.40    0.12
 -13 -31  -7    1.51    0.17
  13  31  -7    1.18    0.16
 -13  31   7    1.48    0.18
 -13  31  -7    1.27    0.16
 -13 -31   7    1.13    0.17
 -13  31   9    0.31    0.13
 -13 -31  -9    0.55    0.13
  13  31  -9    0.32    0.13
 -13  31  -9    0.29    0.12
 -13 -31   9    0.42    0.15
 -13 -31 -11    0.49    0.13
  13  31 -11    0.46    0.15
 -13  31  11    0.67    0.17
 -13  31 -11    0.60    0.15
 -15 -31  -1    0.99    0.13
 -15 -31  -1    1.01    0.13
 -15  31   1    0.88    0.13
 -15  31   1    0.81    0.13
  15  31  -1    0.89    0.13
 -15  31  -1    1.10    0.13
  15  31   1    0.81    0.12
 -15 -31   1    0.64    0.12
 -15  31  -1    0.90    0.13
 -15  31   3    0.11    0.09
 -15 -31  -3    0.16    0.09
  15  31  -3    0.04    0.10
 -15  31   3    0.23    0.09
 -15 -31  -3    0.10    0.08
 -15  31  -3    0.06    0.09
 -15 -31   3    0.04    0.10
  15  31  -5    0.02    0.10
 -15  31   5    0.22    0.10
 -15 -31  -5    0.33    0.10
 -15  31   5    0.25    0.11
 -15  31  -5    0.15    0.10
 -15 -31   5    0.19    0.11
  15  31  -7   -0.06    0.10
 -15  31   7    0.07    0.10
 -15 -31  -7    0.16    0.10
 -15  31  -7    0.11    0.11
 -15 -31   7    0.11    0.12
 -15 -31  -9   -0.03    0.10
  15  31  -9   -0.04    0.11
 -15  31   9    0.23    0.13
 -15  31  -9    0.05    0.11
 -15 -31   9    0.22    0.14
 -17 -31  -1    0.40    0.11
  17  31  -1    0.31    0.11
 -17  31   1    0.23    0.11
 -17  31   1    0.30    0.11
 -17 -31   1    0.22    0.11
 -17  31  -1    0.22    0.11
 -17  31   3    0.72    0.14
  17  31  -3    0.57    0.13
 -17 -31  -3    0.76    0.13
 -17 -31   3    0.57    0.14
 -17  31  -3    0.48    0.13
 -17  31   5    0.10    0.11
  17  31  -5    0.10    0.11
 -17  31   5    0.11    0.11
 -17 -31  -5    0.10    0.10
 -17 -31   5    0.26    0.13
 -17  31  -5    0.20    0.12
 -17  31   7    0.44    0.14
 -17 -31  -7    0.29    0.12
  17  31  -7    0.52    0.15
 -17  31  -7    0.46    0.14
 -17 -31   7    0.56    0.16
 -17 -31  -9    0.36    0.13
 -19  31   1    0.06    0.11
  19  31  -1    0.10    0.11
 -19 -31  -1   -0.08    0.09
 -19  31   1    0.07    0.10
 -19 -31   1    0.08    0.11
 -19  31  -1    0.09    0.11
 -19  31   3    0.72    0.15
 -19  31   3    0.27    0.13
  19  31  -3    0.61    0.14
 -19 -31   3    0.39    0.14
 -19  31  -3    0.62    0.15
 -19  31   5    0.08    0.12
  19  31  -5    0.12    0.12
 -19  31   5    0.23    0.13
 -19  31  -5    0.30    0.13
 -21  31   1    1.17    0.19
 -21 -31  -1    0.89    0.17
 -21  31  -1    0.75    0.17
 -21 -31   1    0.98    0.18
 -21  31   3    0.66    0.16
 -21  31   3    0.43    0.15
  21  31  -3    0.51    0.15
 -21 -31   3    0.77    0.17
 -21  31  -3    0.91    0.17
   0  32   0   27.77    0.80
   0 -32   0   26.67    0.85
   0  32  -2    0.05    0.04
   0  32  -2    0.03    0.05
   0 -32   2    0.04    0.04
   0  32   2    0.00    0.04
   0 -32  -2   -0.04    0.04
   0  32  -4    2.05    0.13
   0  32  -4    1.98    0.12
   0 -32  -4    2.12    0.13
   0  32   4    1.97    0.13
   0  32   6    0.01    0.05
   0 -32   6    0.04    0.06
   0 -32  -6   -0.09    0.05
   0  32  -6    0.15    0.07
   0  32  -6    0.06    0.07
   0 -32  -8    7.41    0.31
   0  32  -8    7.01    0.32
   0 -32   8    7.92    0.34
   0  32  -8    6.97    0.31
   0  32   8    8.05    0.32
   0 -32  10   -0.09    0.08
   0 -32 -10    0.00    0.07
   0  32 -10    0.29    0.11
   0  32 -12    0.12    0.11
   0 -32  12    0.18    0.11
   0 -32 -12    0.51    0.12
   0 -32 -14    0.08    0.10
   0  32 -14   -0.10    0.11
   0 -32  14   -0.01    0.09
  -2  32   0    2.98    0.15
  -2  32   0    3.12    0.12
   2  32   0    3.09    0.16
  -2 -32   0    2.98    0.16
   2 -32   0    3.34    0.16
   2  32  -2    5.59    0.24
  -2 -32  -2    5.64    0.23
  -2  32   2    5.55    0.17
   2 -32   2    4.91    0.23
  -2  32   2    6.14    0.24
   2  32   2    5.04    0.22
  -2  32  -2    5.60    0.23
   2 -32  -2    5.57    0.22
  -2  32  -2    5.69    0.21
   2  32  -4   -0.01    0.06
  -2  32   4   -0.03    0.05
  -2 -32  -4   -0.08    0.05
   2 -32   4    0.04    0.05
   2 -32  -4   -0.03    0.04
  -2 -32   4   -0.09    0.04
   2  32   4   -0.01    0.04
  -2  32  -4    0.02    0.05
  -2  32  -4    0.02    0.05
   2 -32   6    1.79    0.16
  -2  32   6    1.95    0.14
   2  32  -6    1.98    0.15
  -2 -32  -6    1.78    0.14
   2  32   6    2.13    0.14
   2 -32  -6    1.82    0.13
  -2  32  -6    1.66    0.13
  -2  32  -6    1.78    0.13
  -2 -32   6    1.75    0.15
   2  32  -8    0.68    0.11
  -2 -32  -8    0.73    0.11
   2  32  -8    0.63    0.12
  -2  32   8    0.69    0.11
   2 -32   8    0.73    0.12
  -2 -32   8    0.91    0.12
   2  32   8    0.65    0.10
  -2  32  -8    0.58    0.11
   2 -32  -8    0.61    0.10
  -2  32  -8    0.61    0.10
   2  32 -10   -0.17    0.07
  -2 -32 -10    0.10    0.08
   2  32 -10    0.15    0.10
   2 -32  10    0.02    0.08
  -2  32  10    0.16    0.08
   2 -32 -10    0.09    0.08
  -2  32 -10    0.03    0.10
  -2 -32  10    0.08    0.09
  -2 -32 -12   -0.10    0.08
   2 -32  12    0.07    0.09
   2  32 -12    0.13    0.11
  -2 -32  12   -0.05    0.08
  -2  32 -12    0.10    0.12
   2 -32 -12    0.06    0.08
   2  32 -14    0.37    0.15
   2 -32  14    0.08    0.11
  -2 -32 -14    0.23    0.11
  -2  32 -14    0.30    0.15
  -2 -32  14    0.13    0.11
   4  32   0    0.08    0.06
  -4  32   0    0.01    0.02
  -4  32   0    0.17    0.05
  -4 -32   0    0.07    0.04
  -4 -32   0    0.12    0.05
   4 -32   0    0.07    0.04
  -4 -32  -2    7.74    0.25
   4 -32   2    7.62    0.30
  -4  32   2    8.09    0.26
   4  32   2    7.87    0.30
  -4 -32   2    7.47    0.31
  -4  32  -2    7.92    0.30
   4 -32  -2    7.84    0.29
  -4  32  -2    7.69    0.28
  -4  32   4    0.22    0.04
   4  32  -4    0.15    0.07
  -4  32   4    0.13    0.06
   4 -32   4    0.20    0.06
   4  32   4    0.20    0.06
  -4 -32   4    0.12    0.06
  -4  32  -4    0.09    0.05
   4 -32  -4    0.16    0.05
  -4  32  -4    0.20    0.06
  -4 -32  -6    2.46    0.16
  -4  32   6    2.20    0.16
   4 -32   6    2.60    0.17
   4  32  -6    2.23    0.17
  -4  32  -6    2.47    0.16
  -4 -32   6    2.08    0.17
   4 -32  -6    2.14    0.14
   4  32   6    2.57    0.15
  -4  32  -6    2.28    0.14
  -4  32   8    2.87    0.19
   4 -32   8    2.68    0.20
  -4 -32  -8    2.95    0.19
   4  32  -8    2.67    0.19
  -4  32  -8    2.81    0.20
  -4 -32   8    2.78    0.20
   4 -32  -8    2.63    0.17
   4 -32  10    0.40    0.11
  -4 -32 -10    0.20    0.09
   4  32 -10    0.28    0.10
  -4  32  10    0.29    0.10
  -4  32 -10    0.36    0.11
  -4 -32  10    0.22    0.09
   4 -32 -10    0.38    0.09
   4  32 -12   -0.09    0.11
  -4 -32 -12    0.11    0.10
   4 -32  12   -0.05    0.08
  -4 -32  12   -0.12    0.09
  -4  32 -12   -0.04    0.11
   4  32 -14    0.05    0.12
  -4 -32 -14   -0.09    0.10
  -4 -32  14   -0.04    0.10
  -4  32 -14   -0.01    0.12
  -6  32   0    3.65    0.16
   6  32   0    3.53    0.19
  -6 -32   0    3.45    0.18
  -6  32   0    3.72    0.19
   6 -32   0    3.70    0.17
  -6 -32   0    3.68    0.17
  -6  32   2   21.96    0.70
   6  32  -2   23.80    0.76
   6 -32   2   22.83    0.72
  -6  32   2   23.32    0.76
  -6 -32  -2   23.30    0.74
  -6 -32  -2   22.48    0.69
  -6 -32   2   22.85    0.73
  -6  32  -2   22.76    0.71
  -6  32  -2   23.36    0.75
   6  32   2   21.81    0.74
  -6 -32   2   21.97    0.74
   6 -32  -2   22.16    0.70
  -6 -32  -4    7.76    0.31
  -6  32   4    7.82    0.28
   6 -32   4    7.52    0.31
   6 -32  -4    8.06    0.28
   6  32   4    7.52    0.30
  -6 -32   4    7.61    0.32
  -6 -32   4    7.87    0.32
  -6  32  -4    7.65    0.30
  -6  32  -4    7.89    0.30
   6 -32   6    2.65    0.17
  -6 -32  -6    2.48    0.17
   6  32  -6    2.44    0.19
  -6  32   6    2.55    0.19
  -6  32  -6    2.69    0.15
  -6  32  -6    2.50    0.17
  -6 -32   6    2.65    0.18
   6 -32  -6    2.51    0.14
   6  32   6    2.44    0.15
   6  32  -8    2.24    0.18
  -6 -32  -8    2.74    0.19
   6 -32   8    2.67    0.19
  -6  32   8    2.14    0.19
  -6 -32   8    2.50    0.18
  -6  32  -8    2.38    0.18
  -6  32  10    0.11    0.09
  -6 -32 -10    0.08    0.09
   6  32 -10   -0.08    0.09
   6 -32  10    0.19    0.10
  -6  32 -10    0.17    0.11
  -6 -32  10   -0.01    0.07
  -6 -32 -12    0.19    0.11
   6  32 -12    0.12    0.11
   6 -32  12    0.23    0.11
  -6  32  12    0.09    0.10
  -6 -32  12    0.36    0.12
  -6  32 -12    0.31    0.13
  -6 -32  14    0.31    0.13
  -8  32   0    0.94    0.10
   8 -32   0    0.93    0.08
   8  32   0    0.71    0.10
  -8  32   0    0.94    0.09
  -8 -32   0    0.78    0.10
  -8 -32   0    0.83    0.09
  -8 -32  -2   11.68    0.39
   8 -32   2   11.52    0.40
  -8  32   2   12.09    0.41
  -8  32   2   11.83    0.44
  -8 -32  -2   11.29    0.43
   8  32  -2   12.20    0.44
  -8 -32   2   11.95    0.43
  -8  32  -2   11.28    0.41
  -8  32  -2   11.73    0.42
   8 -32  -2   11.40    0.38
  -8 -32   2   11.13    0.42
   8  32   2   11.87    0.43
  -8  32   4    7.26    0.32
   8  32  -4    7.73    0.32
  -8  32   4    7.35    0.29
  -8 -32  -4    7.94    0.32
   8 -32   4    7.21    0.30
  -8  32  -4    7.19    0.30
   8  32   4    7.27    0.29
  -8 -32   4    7.72    0.33
  -8 -32   4    6.97    0.31
  -8  32  -4    7.23    0.29
  -8  32   6    3.12    0.21
   8 -32   6    2.81    0.18
  -8 -32  -6    2.90    0.19
   8  32  -6    2.85    0.20
  -8  32  -6    3.07    0.19
  -8 -32   6    2.81    0.19
  -8 -32   6    2.89    0.21
  -8 -32  -8    0.38    0.10
   8 -32   8    0.27    0.09
  -8  32   8    0.21    0.10
   8  32  -8    0.49    0.11
  -8  32  -8    0.44    0.10
  -8 -32   8    0.42    0.10
   8 -32  10    0.33    0.10
  -8  32  10    0.52    0.13
  -8 -32 -10    0.24    0.10
   8  32 -10    0.50    0.12
  -8 -32  10    0.50    0.12
  -8  32 -10    0.44    0.12
   8  32 -12    0.08    0.11
  -8 -32 -12    0.10    0.10
  -8  32  12    0.11    0.12
  -8 -32  12    0.04    0.09
  -8  32 -12    0.13    0.11
  10  32   0    9.99    0.40
 -10  32   0   10.23    0.38
 -10 -32   0   10.75    0.39
 -10  32   0   10.42    0.40
 -10 -32   0   10.57    0.40
 -10  32   2    8.07    0.32
 -10 -32  -2    8.31    0.31
 -10 -32  -2    8.30    0.33
  10 -32   2    8.06    0.30
 -10  32   2    8.11    0.35
  10  32  -2    8.05    0.34
  10  32   2    7.79    0.33
 -10  32  -2    7.94    0.32
 -10  32  -2    8.01    0.33
 -10 -32   2    8.22    0.34
 -10 -32   2    7.81    0.33
  10 -32   4    6.82    0.28
  10  32  -4    6.44    0.31
 -10  32   4    6.52    0.28
 -10  32   4    7.07    0.32
 -10 -32  -4    6.51    0.30
 -10 -32   4    7.05    0.30
 -10 -32   4    6.93    0.32
 -10  32  -4    7.33    0.28
 -10  32  -4    6.63    0.30
  10  32   4    6.78    0.28
 -10 -32  -6    1.21    0.14
  10 -32   6    0.88    0.12
  10  32  -6    0.98    0.14
 -10  32   6    0.77    0.13
 -10 -32   6    0.95    0.12
 -10  32  -6    0.79    0.12
 -10 -32   6    1.10    0.14
 -10  32   8    1.07    0.16
 -10 -32  -8    1.29    0.15
  10 -32   8    1.23    0.15
  10  32  -8    1.31    0.16
 -10  32  -8    1.11    0.14
 -10 -32   8    1.23    0.14
  10 -32  10    0.20    0.10
  10  32 -10    0.00    0.10
 -10 -32 -10    0.02    0.09
 -10  32  10    0.20    0.11
 -10  32 -10    0.14    0.10
 -10 -32 -12    0.23    0.10
 -10  32  12    0.05    0.11
  10  32 -12    0.09    0.12
 -10  32 -12    0.08    0.12
 -12 -32   0    0.08    0.07
 -12  32   0    0.06    0.06
 -12 -32   0    0.08    0.07
  12  32   0    0.00    0.07
 -12  32   0   -0.10    0.06
 -12  32   2    5.44    0.25
  12  32  -2    4.89    0.26
 -12 -32  -2    5.11    0.25
 -12 -32  -2    5.30    0.24
 -12  32   2    5.39    0.26
 -12  32  -2    5.21    0.25
 -12 -32   2    4.80    0.25
 -12  32  -2    5.15    0.26
  12  32   2    5.44    0.26
 -12 -32   2    5.00    0.26
 -12  32   4    1.52    0.16
  12  32  -4    1.38    0.15
 -12 -32  -4    1.52    0.15
 -12  32   4    1.77    0.16
 -12  32  -4    1.42    0.15
 -12 -32   4    1.61    0.17
 -12 -32   4    1.70    0.15
  12  32  -6    1.65    0.17
 -12 -32  -6    1.90    0.17
 -12  32   6    1.59    0.18
  12 -32   6    1.74    0.15
 -12  32  -6    1.79    0.17
 -12 -32   6    1.73    0.19
 -12 -32   6    1.50    0.15
  12  32  -8    0.30    0.12
 -12  32   8    0.14    0.11
 -12 -32  -8    0.27    0.11
 -12 -32   8    0.09    0.11
 -12  32  -8    0.21    0.10
  12  32 -10    0.23    0.12
 -12  32  10    0.35    0.13
 -12 -32 -10    0.40    0.12
 -12  32 -10    0.43    0.13
  12  32 -12    0.13    0.13
 -12  32  12    0.27    0.14
 -14  32   0    7.93    0.34
  14  32   0    7.47    0.33
 -14  32   0    7.81    0.34
 -14 -32   0    7.32    0.33
 -14 -32   0    7.40    0.33
 -14 -32  -2    0.59    0.10
 -14  32   2    0.24    0.09
  14  32  -2    0.32    0.11
 -14 -32  -2    0.40    0.09
 -14  32   2    0.34    0.10
  14  32   2    0.33    0.09
 -14 -32   2    0.43    0.09
 -14 -32   2    0.48    0.11
 -14  32  -2    0.36    0.10
 -14  32  -2    0.13    0.08
  14  32  -4    0.07    0.09
 -14  32   4    0.07    0.10
 -14 -32  -4    0.06    0.07
 -14  32   4    0.07    0.08
 -14  32  -4    0.18    0.10
 -14 -32   4    0.21    0.10
 -14  32   6    0.58    0.14
 -14 -32  -6    0.39    0.11
 -14 -32   6    0.40    0.12
 -14  32  -6    0.36    0.11
 -14 -32  -8    0.66    0.14
  14  32  -8    0.36    0.13
 -14  32   8    0.50    0.14
 -14  32  -8    0.36    0.12
 -14 -32   8    0.25    0.12
  14  32 -10    0.10    0.11
 -14  32  10    0.28    0.13
 -14 -32 -10    0.23    0.12
 -14  32 -10    0.34    0.13
 -16  32   0    0.47    0.12
 -16 -32   0    0.62    0.13
 -16  32   0    0.49    0.11
  16  32   0    0.55    0.12
  16  32  -2    4.82    0.28
 -16  32   2    5.09    0.29
 -16  32   2    4.75    0.28
 -16 -32  -2    5.02    0.27
 -16 -32  -2    5.47    0.28
 -16 -32   2    4.92    0.29
 -16  32  -2    5.48    0.29
 -16  32   4    0.91    0.15
 -16  32   4    0.74    0.14
 -16 -32  -4    0.75    0.13
  16  32  -4    0.73    0.14
 -16 -32   4    0.76    0.15
 -16  32  -4    0.96    0.15
 -16  32   6    0.44    0.13
 -16 -32  -6    0.53    0.13
  16  32  -6    0.30    0.13
 -16 -32   6    0.38    0.14
 -16  32  -6    0.68    0.14
 -16 -32  -8    0.65    0.14
  16  32  -8    0.42    0.14
 -16  32   8    0.47    0.15
 -16  32  -8    0.50    0.14
 -16 -32   8    0.45    0.16
 -18  32   0    1.25    0.18
 -18 -32   0    1.31    0.17
  18  32  -2    0.30    0.12
 -18 -32  -2    0.41    0.12
 -18  32   2    0.27    0.12
 -18  32   2    0.32    0.12
 -18 -32   2    0.32    0.13
 -18  32  -2    0.53    0.13
 -18  32   4    0.75    0.16
 -18  32   4    0.99    0.17
  18  32  -4    0.96    0.16
 -18 -32   4    1.30    0.19
 -18  32  -4    1.20    0.17
 -18  32   6   -0.01    0.11
  18  32  -6    0.29    0.12
 -18  32  -6    0.15    0.12
 -18 -32   6    0.24    0.14
 -18 -32  -8    0.10    0.12
 -20 -32   0    0.25    0.13
 -20  32   0    0.35    0.14
  20  32  -2    0.03    0.11
 -20  32   2    0.30    0.13
 -20  32   2    0.16    0.13
 -20 -32   2    0.21    0.13
 -20  32  -2    0.17    0.13
  20  32  -4    0.73    0.16
 -20  32   4    1.19    0.19
 -20  32   4    0.56    0.15
 -20  32  -4    0.92    0.17
 -20 -32   4    0.78    0.17
 -22 -32   0    0.01    0.12
   1  33  -1    4.80    0.18
  -1  33   1    4.35    0.20
  -1  33   1    4.77    0.15
   1  33  -1    3.86    0.20
  -1 -33  -1    4.78    0.21
   1 -33   1    4.70    0.21
   1  33   1    5.16    0.15
  -1  33  -1    4.60    0.20
  -1  33  -1    4.82    0.18
   1  33   1    4.55    0.21
  -1 -33   1    5.05    0.21
   1 -33  -1    5.26    0.21
  -1 -33  -3    9.61    0.34
   1  33  -3    9.20    0.32
   1  33  -3    8.96    0.35
  -1  33   3    9.19    0.35
   1 -33   3    9.10    0.35
   1  33   3    9.24    0.35
   1 -33  -3    9.21    0.33
  -1  33  -3    9.51    0.34
  -1  33  -3    8.96    0.32
  -1  33   5    1.26    0.12
   1  33  -5    1.38    0.12
   1  33  -5    1.30    0.12
   1 -33   5    1.02    0.11
  -1 -33  -5    0.98    0.11
  -1  33  -5    1.25    0.11
   1  33   5    1.19    0.11
   1 -33  -5    1.25    0.11
  -1  33  -5    1.23    0.11
   1 -33   7    2.74    0.19
  -1 -33  -7    2.97    0.19
  -1  33   7    3.13    0.19
   1  33  -7    3.23    0.20
   1  33  -7    2.78    0.18
  -1  33  -7    3.07    0.18
  -1  33  -7    3.50    0.21
   1  33   7    2.94    0.18
   1 -33  -7    3.02    0.18
  -1 -33   7    3.38    0.20
   1  33  -9    3.37    0.21
  -1  33   9    3.77    0.22
   1  33  -9    3.65    0.23
   1 -33   9    4.10    0.23
  -1 -33  -9    3.28    0.21
  -1  33  -9    3.78    0.21
  -1  33  -9    4.02    0.24
  -1 -33   9    3.61    0.23
   1  33   9    3.82    0.21
   1 -33  -9    3.89    0.21
   1  33 -11    0.90    0.16
  -1 -33 -11    0.79    0.13
   1 -33  11    0.80    0.14
  -1  33 -11    0.65    0.15
   1 -33 -11    0.74    0.13
  -1 -33  11    0.86    0.14
  -1 -33 -13    1.30    0.17
   1 -33  13    1.31    0.18
   1  33 -13    0.99    0.18
   1 -33 -13    1.58    0.18
  -1  33 -13    1.28    0.19
  -1 -33  13    1.47    0.18
  -3  33   1    5.52    0.19
   3 -33   1    5.53    0.23
   3  33  -1    5.47    0.24
  -3  33   1    5.71    0.24
   3  33   1    5.73    0.24
  -3 -33   1    5.78    0.24
   3 -33  -1    5.79    0.23
  -3  33  -1    5.98    0.24
  -3  33   3    4.47    0.15
  -3  33   3    4.41    0.21
   3  33  -3    4.10    0.21
   3 -33   3    4.19    0.20
  -3 -33  -3    4.45    0.21
   3 -33  -3    4.12    0.19
  -3  33  -3    4.24    0.19
  -3  33  -3    4.05    0.19
   3  33   3    4.79    0.21
  -3 -33   3    4.16    0.21
  -3  33   5    2.95    0.17
   3 -33   5    2.74    0.17
  -3 -33  -5    2.80    0.17
   3  33  -5    2.86    0.17
  -3 -33   5    2.82    0.17
  -3  33  -5    2.99    0.16
   3  33   5    3.14    0.16
  -3  33  -5    2.82    0.16
   3 -33  -5    2.79    0.15
   3  33  -7    1.21    0.13
  -3 -33  -7    1.29    0.13
   3 -33   7    1.50    0.15
  -3  33   7    1.31    0.14
  -3 -33   7    1.25    0.14
   3  33   7    1.30    0.12
  -3  33  -7    1.18    0.11
  -3  33  -7    1.05    0.13
   3 -33  -7    1.16    0.12
  -3  33   9    0.65    0.11
  -3 -33  -9    0.51    0.11
   3  33  -9    0.55    0.12
   3  33  -9    0.51    0.11
   3 -33   9    0.57    0.12
   3 -33  -9    0.58    0.10
  -3 -33   9    0.56    0.11
  -3  33  -9    0.69    0.13
  -3  33  11    0.17    0.09
   3  33 -11    0.11    0.09
  -3 -33 -11    0.14    0.09
   3 -33  11    0.10    0.10
   3  33 -11    0.17    0.11
  -3 -33  11    0.09    0.09
   3 -33 -11    0.10    0.08
  -3  33 -11    0.08    0.11
  -3 -33 -13    0.47    0.13
   3  33 -13    0.34    0.14
   3 -33  13    0.42    0.13
  -3 -33  13    0.32    0.12
  -3  33 -13    0.46    0.15
  -5 -33  -1    6.58    0.23
   5 -33   1    6.56    0.26
   5  33  -1    6.63    0.28
  -5  33   1    6.73    0.28
  -5 -33  -1    6.35    0.27
  -5 -33   1    6.27    0.27
  -5  33  -1    6.84    0.27
  -5 -33   1    6.43    0.25
   5  33   1    6.70    0.28
  -5  33  -1    6.72    0.24
   5 -33  -1    6.49    0.25
   5 -33   3    2.60    0.15
  -5  33   3    2.72    0.12
  -5  33  -3    2.48    0.14
   5  33   3    2.36    0.15
  -5 -33   3    2.61    0.16
  -5  33  -3    2.53    0.15
   5 -33  -3    2.72    0.14
  -5 -33  -5    0.47    0.08
  -5  33   5    0.40    0.09
   5 -33   5    0.58    0.10
   5  33  -5    0.40    0.09
   5 -33  -5    0.65    0.08
   5  33   5    0.66    0.08
  -5  33  -5    0.58    0.08
  -5  33  -5    0.65    0.10
  -5 -33   5    0.55    0.10
  -5 -33  -7    2.11    0.16
   5 -33   7    1.48    0.16
   5  33  -7    1.88    0.16
  -5  33   7    1.63    0.16
  -5 -33   7    1.50    0.15
  -5  33  -7    1.86    0.16
  -5  33  -7    1.46    0.12
   5 -33  -7    1.67    0.13
   5  33   7    1.82    0.13
   5  33  -9    0.10    0.09
  -5 -33  -9    0.31    0.10
  -5  33   9    0.10    0.08
   5 -33   9    0.12    0.08
  -5  33  -9    0.22    0.10
  -5 -33   9    0.18    0.09
   5 -33  -9    0.25    0.08
   5  33 -11    0.42    0.12
  -5 -33 -11    0.34    0.11
   5 -33  11    0.38    0.12
  -5  33  11    0.37    0.12
  -5 -33  11    0.50    0.12
  -5  33 -11    0.36    0.12
  -5 -33 -13    0.22    0.11
   5 -33  13    0.14    0.11
   5  33 -13    0.04    0.12
  -5  33 -13    0.14    0.13
  -5 -33  13    0.07    0.10
  -7 -33  -1   17.42    0.56
  -7  33   1   17.43    0.56
  -7  33   1   17.83    0.61
  -7 -33  -1   16.74    0.59
   7 -33   1   17.89    0.57
   7  33  -1   17.62    0.61
  -7 -33   1   17.76    0.58
   7  33   1   17.33    0.60
  -7  33  -1   17.48    0.60
   7 -33  -1   17.59    0.56
  -7 -33   1   18.28    0.60
  -7  33  -1   17.12    0.57
   7 -33   3    4.76    0.22
  -7 -33  -3    4.87    0.23
  -7 -33  -3    5.00    0.19
  -7  33   3    4.87    0.20
   7  33  -3    5.03    0.24
  -7  33   3    4.90    0.24
  -7 -33   3    4.87    0.23
  -7 -33   3    5.03    0.24
  -7  33  -3    5.07    0.22
  -7  33  -3    4.86    0.22
   7 -33  -3    4.78    0.20
   7  33   3    4.80    0.22
  -7 -33  -5    2.48    0.17
   7 -33   5    2.48    0.17
   7  33  -5    2.53    0.18
  -7  33   5    2.21    0.17
  -7  33  -5    2.70    0.17
   7  33   5    2.46    0.15
  -7  33  -5    2.67    0.15
  -7 -33   5    2.33    0.17
   7 -33  -5    2.61    0.13
  -7 -33   5    2.33    0.18
   7 -33   7    0.05    0.07
   7  33  -7   -0.03    0.08
  -7  33   7   -0.05    0.07
  -7 -33  -7    0.07    0.08
  -7  33  -7   -0.03    0.08
  -7 -33   7    0.06    0.07
  -7 -33  -9    3.04    0.20
   7  33  -9    2.88    0.21
  -7  33   9    2.46    0.20
   7 -33   9    2.85    0.21
  -7  33  -9    2.90    0.21
  -7 -33   9    2.88    0.21
   7  33 -11    0.68    0.14
  -7  33  11    0.46    0.13
   7 -33  11    0.41    0.12
  -7 -33 -11    0.60    0.12
  -7  33 -11    0.44    0.14
  -7 -33  11    0.61    0.12
  -7  33  13    0.69    0.16
   7  33 -13    0.63    0.15
  -7 -33 -13    0.44    0.12
   7  33 -13    0.44    0.14
  -7 -33  13    0.48    0.13
  -7  33 -13    0.57    0.15
  -9  33   1    1.47    0.14
  -9 -33  -1    1.61    0.14
   9 -33   1    1.47    0.11
  -9  33   1    1.41    0.12
   9  33  -1    1.51    0.14
  -9 -33  -1    1.63    0.12
  -9 -33   1    1.61    0.14
   9  33   1    1.54    0.13
  -9  33  -1    1.63    0.13
  -9 -33   1    1.72    0.14
  -9  33  -1    1.91    0.14
  -9  33   3    5.81    0.24
  -9 -33  -3    5.71    0.26
  -9 -33  -3    5.56    0.23
   9  33  -3    5.38    0.27
  -9  33   3    5.70    0.27
   9 -33   3    5.44    0.24
  -9 -33   3    5.51    0.26
  -9  33  -3    5.76    0.25
  -9  33  -3    5.51    0.25
  -9 -33   3    5.41    0.27
   9  33   3    5.44    0.25
   9 -33   5    8.81    0.35
  -9 -33  -5    8.41    0.36
  -9  33   5    9.15    0.38
   9  33  -5    8.45    0.37
  -9  33  -5    8.63    0.33
  -9  33  -5    8.96    0.36
  -9 -33   5    8.77    0.38
  -9 -33   5    8.80    0.36
   9  33   5    8.78    0.33
  -9  33   7    0.25    0.09
   9 -33   7    0.45    0.10
   9  33  -7    0.37    0.11
  -9 -33  -7    0.59    0.11
  -9  33  -7    0.39    0.10
  -9 -33   7    0.53    0.10
   9 -33   9    0.32    0.10
  -9 -33  -9    0.22    0.10
   9  33  -9    0.30    0.11
  -9  33   9    0.23    0.11
  -9  33  -9    0.32    0.11
  -9 -33   9    0.31    0.10
   9  33 -11    1.23    0.18
   9 -33  11    1.13    0.17
  -9 -33 -11    1.47    0.17
  -9  33  11    1.29    0.19
  -9 -33  11    1.51    0.18
  -9  33 -11    1.32    0.18
  -9  33  13    0.78    0.17
   9  33 -13    0.34    0.14
 -11  33   1    4.42    0.22
  11  33  -1    4.38    0.23
 -11 -33  -1    4.66    0.23
 -11  33   1    4.19    0.23
 -11 -33  -1    4.50    0.22
 -11 -33   1    4.64    0.23
 -11  33  -1    4.21    0.22
 -11 -33   1    4.17    0.22
  11  33   1    4.49    0.23
 -11  33  -1    4.48    0.22
 -11 -33  -3    3.33    0.20
 -11  33   3    3.54    0.22
  11 -33   3    3.35    0.18
  11  33  -3    3.40    0.21
 -11  33   3    3.51    0.20
 -11 -33  -3    3.47    0.18
 -11 -33   3    3.58    0.21
 -11 -33   3    3.69    0.21
  11  33   3    3.49    0.20
 -11  33  -3    3.49    0.20
 -11  33  -3    3.40    0.18
 -11  33   5    0.35    0.09
  11 -33   5    0.21    0.08
 -11  33   5    0.34    0.10
  11  33  -5    0.31    0.10
 -11 -33  -5    0.35    0.09
 -11 -33   5    0.15    0.07
 -11  33  -5    0.33    0.10
 -11 -33   5    0.28    0.10
 -11 -33  -7    0.75    0.13
 -11  33   7    0.54    0.13
  11  33  -7    0.72    0.13
  11 -33   7    0.79    0.12
 -11 -33   7    0.53    0.13
 -11 -33   7    0.51    0.10
 -11  33  -7    0.73    0.13
  11 -33   9    1.17    0.15
  11  33  -9    1.23    0.17
 -11 -33  -9    1.34    0.17
 -11  33   9    1.71    0.19
 -11  33  -9    1.46    0.17
  11  33 -11    0.71    0.16
 -11  33  11    0.61    0.16
 -11 -33 -11    0.63    0.14
 -11  33 -11    0.70    0.15
 -13  33   1    2.44    0.17
  13  33  -1    2.38    0.18
 -13  33   1    2.32    0.17
 -13 -33  -1    2.50    0.17
 -13 -33  -1    2.49    0.18
 -13 -33   1    2.13    0.17
 -13  33  -1    2.51    0.18
 -13 -33   1    2.38    0.18
 -13  33  -1    2.16    0.17
  13  33   1    2.53    0.18
 -13 -33  -3    1.75    0.16
 -13  33   3    1.36    0.14
 -13 -33  -3    1.42    0.13
  13  33  -3    1.47    0.16
 -13  33   3    1.43    0.16
 -13  33  -3    1.47    0.15
 -13 -33   3    1.35    0.14
 -13 -33   3    1.31    0.16
 -13 -33  -5    1.74    0.17
 -13  33   5    1.26    0.16
 -13  33   5    1.49    0.16
  13  33  -5    1.67    0.17
 -13 -33   5    1.44    0.18
 -13  33  -5    1.63    0.17
 -13  33   7    0.06    0.10
  13  33  -7    0.08    0.10
 -13 -33  -7    0.07    0.09
 -13 -33   7    0.00    0.11
 -13  33  -7   -0.05    0.08
 -13 -33  -9    0.18    0.11
  13  33  -9    0.26    0.12
 -13  33   9   -0.10    0.10
 -13  33  -9    0.22    0.12
 -13  33  11    0.03    0.13
 -13 -33 -11    0.04    0.10
  13  33 -11    0.05    0.13
 -13  33 -11    0.17    0.12
  15  33  -1    1.12    0.15
 -15 -33  -1    1.61    0.16
 -15  33   1    1.50    0.16
 -15 -33  -1    1.30    0.15
 -15  33   1    1.78    0.17
  15  33   1    1.62    0.16
 -15  33  -1    1.21    0.15
 -15  33  -1    1.64    0.15
 -15 -33   1    1.57    0.17
 -15  33   3    1.35    0.16
 -15  33   3    1.51    0.17
  15  33  -3    1.18    0.16
 -15 -33  -3    1.37    0.15
 -15 -33   3    1.17    0.17
 -15  33  -3    1.32    0.16
 -15  33   5    0.64    0.13
  15  33  -5    0.58    0.13
 -15 -33  -5    0.93    0.14
 -15  33   5    0.55    0.12
 -15 -33   5    0.80    0.15
 -15  33  -5    0.75    0.14
 -15 -33  -7    0.38    0.12
 -15  33   7    0.37    0.13
  15  33  -7    0.28    0.11
 -15  33  -7    0.36    0.12
 -15 -33   7    0.26    0.13
 -15  33   9   -0.04    0.11
  15  33  -9    0.26    0.11
 -15 -33  -9    0.11    0.11
 -15 -33   9   -0.02    0.12
 -15  33  -9   -0.08    0.11
 -17  33   1    2.08    0.20
  17  33  -1    2.23    0.20
 -17  33   1    2.17    0.20
 -17 -33  -1    2.10    0.20
 -17  33  -1    2.05    0.20
 -17 -33   1    2.08    0.21
 -17  33   3    0.13    0.10
 -17  33   3    0.10    0.10
  17  33  -3    0.15    0.11
 -17  33  -3    0.01    0.10
 -17 -33   3    0.05    0.11
 -17 -33  -5    0.62    0.13
 -17  33   5    0.60    0.14
  17  33  -5    0.47    0.14
 -17  33  -5    0.49    0.14
 -17 -33   5    0.82    0.16
 -17  33   7    0.29    0.13
 -17 -33  -7    0.37    0.13
  17  33  -7    0.28    0.12
 -17  33  -7    0.28    0.12
 -17 -33   7    0.21    0.14
 -17 -33  -9    0.05    0.11
 -19 -33  -1    2.39    0.23
 -19  33   1    2.65    0.25
 -19 -33   1    2.58    0.24
 -19  33  -1    2.07    0.22
  19  33  -3    0.13    0.12
 -19  33   3    0.15    0.11
 -19  33   3    0.01    0.11
 -19 -33   3    0.14    0.12
  19  33  -5    0.09    0.12
 -19  33   5    0.25    0.13
 -19 -33   5    0.22    0.13
 -19  33  -5    0.19    0.13
 -21  33   1    0.03    0.12
 -21 -33   1   -0.01    0.12
 -21  33  -1   -0.03    0.12
 -21  33   3    0.13    0.12
  21  33  -3    0.14    0.13
 -21  33   3    0.44    0.15
 -21 -33   3    0.11    0.13
   0 -34   0    0.34    0.06
   0  34   0    0.42    0.04
   0  34  -2    8.07    0.28
   0 -34   2    7.95    0.32
   0  34   2    8.27    0.32
   0 -34  -2    8.27    0.31
   0  34  -2    7.88    0.31
   0 -34   4   -0.01    0.02
   0  34  -4    0.00    0.05
   0  34   4    0.00    0.05
   0 -34  -4   -0.01    0.04
   0  34  -4    0.03    0.06
   0 -34   6   20.32    0.71
   0  34  -6   21.02    0.70
   0 -34  -6   21.10    0.69
   0  34   6   20.57    0.70
   0  34  -6   21.34    0.69
   0  34   8    0.15    0.07
   0 -34  -8    0.00    0.07
   0  34  -8   -0.04    0.07
   0  34  -8    0.05    0.09
   0 -34   8    0.18    0.08
   0 -34 -10    6.83    0.31
   0 -34  10    6.81    0.34
   0  34 -10    6.90    0.34
   0  34 -12   -0.16    0.09
   0 -34  12   -0.05    0.09
   0 -34 -12    0.14    0.09
   0  34 -14    0.93    0.18
   0 -34 -14    0.72    0.14
   0 -34  14    0.79    0.16
  -2  34   0    0.42    0.07
  -2 -34   0    0.48    0.07
   2  34   0    0.65    0.08
  -2  34   0    0.47    0.05
   2  34   0    0.66    0.05
   2 -34   0    0.43    0.07
  -2  34   2    7.18    0.30
   2 -34   2    7.54    0.30
   2  34  -2    7.64    0.31
  -2 -34  -2    7.19    0.29
  -2  34   2    7.76    0.23
   2  34   2    7.72    0.30
  -2  34  -2    7.36    0.29
   2 -34  -2    7.35    0.28
  -2  34  -2    7.87    0.27
   2  34  -4    0.57    0.09
  -2  34   4    0.60    0.09
   2 -34   4    0.56    0.09
  -2 -34  -4    0.39    0.07
   2 -34  -4    0.61    0.08
  -2  34  -4    0.55    0.08
   2  34   4    0.48    0.08
  -2  34  -4    0.57    0.08
  -2 -34   4    0.22    0.06
   2  34  -6    2.08    0.15
   2 -34   6    2.02    0.15
  -2 -34  -6    2.10    0.15
  -2  34   6    2.16    0.15
  -2  34  -6    2.16    0.16
  -2 -34   6    2.35    0.16
   2  34   6    2.14    0.14
   2 -34  -6    1.82    0.14
  -2  34  -6    2.07    0.14
  -2 -34  -8    7.69    0.33
   2  34  -8    7.44    0.33
   2  34  -8    7.47    0.34
  -2  34   8    7.92    0.34
   2 -34   8    7.44    0.35
   2 -34  -8    7.49    0.32
  -2 -34   8    7.49    0.35
   2  34   8    8.26    0.32
  -2  34  -8    7.90    0.34
  -2  34  -8    7.53    0.31
   2 -34  10    0.26    0.10
   2  34 -10    0.18    0.12
   2  34 -10    0.16    0.09
  -2 -34 -10    0.24    0.09
  -2  34  10    0.14    0.09
   2 -34 -10    0.43    0.09
  -2 -34  10    0.22    0.10
  -2  34 -10    0.11    0.11
   2  34 -12    0.15    0.12
  -2 -34 -12    0.25    0.10
   2 -34  12    0.29    0.11
  -2  34 -12    0.29    0.13
   2 -34 -12    0.19    0.09
  -2 -34  12    0.26    0.11
   2 -34  14    0.13    0.12
   2  34 -14    0.18    0.14
  -2 -34 -14    0.13    0.11
  -2  34 -14    0.06    0.14
  -2 -34  14    0.02    0.11
   4  34   0    0.61    0.09
  -4 -34   0    0.65    0.08
  -4  34   0    0.49    0.08
   4 -34   0    0.55    0.07
   4 -34   2   11.32    0.41
  -4 -34  -2   11.74    0.35
  -4  34   2   11.80    0.37
   4  34   2   10.84    0.42
  -4  34  -2   11.59    0.42
  -4 -34   2   11.65    0.42
   4 -34  -2   11.77    0.40
  -4  34  -2   11.80    0.39
  -4  34   4    2.50    0.16
   4  34  -4    2.33    0.16
   4 -34   4    2.30    0.15
  -4  34  -4    2.28    0.14
   4  34   4    2.42    0.15
   4 -34  -4    2.53    0.14
  -4  34  -4    2.28    0.14
  -4 -34   4    2.59    0.16
   4 -34   6   20.00    0.68
   4  34  -6   19.66    0.68
  -4 -34  -6   19.97    0.67
  -4  34   6   19.84    0.69
   4 -34  -6   19.94    0.64
  -4  34  -6   18.98    0.66
  -4  34  -6   19.91    0.66
   4  34   6   19.71    0.66
  -4 -34   6   19.01    0.68
   4 -34   8    1.01    0.14
  -4 -34  -8    1.06    0.13
  -4  34   8    1.26    0.14
   4  34  -8    1.06    0.14
  -4  34  -8    0.91    0.13
  -4 -34   8    1.21    0.15
   4 -34  -8    1.03    0.11
  -4  34  10    1.66    0.18
  -4 -34 -10    1.66    0.17
   4 -34  10    1.46    0.17
   4  34 -10    1.72    0.18
   4  34 -10    1.50    0.16
  -4 -34  10    1.44    0.17
   4 -34 -10    1.43    0.14
  -4  34 -10    1.60    0.18
   4 -34  12    0.27    0.11
   4  34 -12    0.40    0.14
  -4 -34 -12    0.35    0.11
  -4 -34  12    0.31    0.11
  -4  34 -12    0.32    0.14
  -4 -34 -14    0.13    0.11
  -4 -34  14    0.06    0.11
  -6  34   0    1.11    0.11
  -6 -34   0    1.05    0.09
   6 -34   0    0.93    0.09
  -6  34   0    1.07    0.09
  -6 -34   0    0.92    0.11
   6  34   0    0.96    0.11
  -6  34   2    0.45    0.06
  -6 -34  -2    0.58    0.06
  -6 -34  -2    0.50    0.08
   6 -34   2    0.60    0.08
   6  34  -2    0.50    0.09
  -6  34   2    0.47    0.09
  -6  34  -2    0.57    0.08
  -6 -34   2    0.44    0.09
  -6 -34   2    0.49    0.08
   6 -34  -2    0.49    0.07
  -6  34  -2    0.48    0.07
   6  34   2    0.52    0.08
  -6 -34  -4    3.47    0.20
   6 -34   4    3.91    0.20
   6  34  -4    3.70    0.21
  -6  34   4    3.81    0.21
  -6  34  -4    3.83    0.19
   6 -34  -4    3.85    0.17
  -6 -34   4    3.99    0.21
   6  34   4    4.28    0.20
  -6  34  -4    3.69    0.19
  -6  34   6   11.12    0.43
   6 -34   6   10.07    0.41
  -6 -34  -6    9.59    0.40
   6  34  -6   10.40    0.41
   6 -34  -6   10.08    0.37
   6  34   6   10.82    0.39
  -6  34  -6   10.46    0.40
  -6 -34   6   10.43    0.41
  -6  34  -6   10.41    0.38
  -6  34   8    3.99    0.24
  -6 -34  -8    3.74    0.23
   6 -34   8    4.17    0.24
   6  34  -8    4.14    0.24
  -6  34  -8    3.84    0.23
  -6 -34   8    4.09    0.24
   6  34 -10    0.26    0.11
   6 -34  10    0.28    0.11
  -6 -34 -10    0.21    0.10
  -6  34  10    0.17    0.10
  -6 -34  10    0.20    0.09
  -6  34 -10    0.26    0.12
  -6  34  12    0.16    0.11
   6  34 -12    0.07    0.11
   6 -34  12    0.09    0.11
   6  34 -12    0.16    0.13
  -6 -34 -12   -0.01    0.09
  -6  34 -12    0.25    0.13
  -6 -34  12    0.14    0.10
  -6 -34  14    0.22    0.12
  -8  34   0    0.64    0.08
  -8 -34   0    0.77    0.10
  -8 -34   0    0.64    0.08
  -8  34   0    0.58    0.09
   8 -34   0    0.54    0.07
   8  34   0    0.68    0.10
  -8 -34  -2   11.58    0.40
   8 -34   2   11.66    0.42
  -8 -34  -2   11.40    0.43
  -8  34   2   11.63    0.45
   8  34  -2   12.06    0.45
  -8  34   2   11.73    0.41
  -8  34  -2   12.46    0.44
   8 -34  -2   11.93    0.40
  -8 -34   2   11.86    0.43
  -8  34  -2   11.97    0.42
   8  34   2   11.87    0.44
  -8 -34   2   11.75    0.44
  -8 -34  -4   16.19    0.57
   8  34  -4   16.12    0.58
  -8  34   4   16.53    0.54
  -8  34   4   15.97    0.59
   8 -34   4   16.66    0.56
  -8  34  -4   15.42    0.55
  -8  34  -4   15.84    0.55
  -8 -34   4   15.26    0.57
   8  34   4   15.78    0.55
  -8 -34   4   16.17    0.57
  -8  34   6    4.14    0.23
  -8 -34  -6    3.67    0.22
   8  34  -6    4.71    0.25
   8 -34   6    3.82    0.22
  -8 -34   6    4.33    0.23
  -8  34  -6    4.10    0.23
   8 -34   8    0.72    0.12
  -8  34   8    0.77    0.13
  -8 -34  -8    0.87    0.13
   8  34  -8    0.95    0.14
  -8  34  -8    0.83    0.13
  -8 -34   8    0.77    0.12
  -8 -34 -10    0.93    0.14
   8  34 -10    1.09    0.15
  -8  34  10    0.91    0.15
   8 -34  10    0.93    0.14
  -8  34 -10    1.09    0.16
  -8 -34  10    1.26    0.16
  -8 -34 -12    0.03    0.09
  -8  34  12    0.10    0.11
   8  34 -12    0.05    0.11
  -8  34 -12   -0.04    0.11
  -8 -34  12    0.07    0.10
 -10  34   0    6.72    0.28
 -10 -34   0    6.25    0.29
  10  34   0    6.38    0.29
 -10 -34   0    6.12    0.27
 -10  34   0    6.49    0.28
 -10  34   2    1.93    0.16
 -10 -34  -2    2.28    0.17
  10  34  -2    2.13    0.17
 -10 -34  -2    2.22    0.14
 -10  34   2    1.91    0.14
  10 -34   2    1.68    0.13
  10  34   2    2.10    0.16
 -10 -34   2    2.01    0.16
 -10 -34   2    1.98    0.16
 -10  34  -2    2.00    0.15
 -10  34  -2    2.10    0.16
 -10  34   4    2.28    0.16
  10 -34   4    2.48    0.16
  10  34  -4    2.62    0.19
 -10 -34  -4    2.30    0.17
 -10  34   4    2.12    0.18
  10  34   4    2.21    0.15
 -10  34  -4    2.39    0.17
 -10  34  -4    2.35    0.15
 -10 -34   4    2.30    0.16
 -10 -34   4    2.15    0.18
 -10  34   6    0.48    0.11
  10  34  -6    0.26    0.10
 -10 -34  -6    0.26    0.09
  10 -34   6    0.47    0.10
 -10 -34   6    0.36    0.09
 -10 -34   6    0.24    0.10
 -10  34  -6    0.32    0.10
 -10  34   8    0.95    0.15
  10 -34   8    1.07    0.14
  10  34  -8    1.04    0.15
 -10 -34  -8    0.99    0.14
 -10  34  -8    0.73    0.13
 -10 -34   8    0.88    0.13
 -10 -34 -10    0.57    0.12
 -10  34  10    0.40    0.13
  10  34 -10    0.37    0.13
  10 -34  10    0.26    0.11
 -10  34 -10    0.35    0.13
 -10 -34  10    0.25    0.11
 -10 -34 -12    0.10    0.11
 -10  34  12    0.22    0.12
  10  34 -12   -0.13    0.11
 -10  34 -12    0.22    0.13
 -12  34   0    0.05    0.07
  12  34   0    0.05    0.08
 -12  34   0    0.15    0.07
 -12 -34   0    0.01    0.07
 -12 -34   0    0.12    0.07
 -12  34   2    6.29    0.29
 -12 -34  -2    6.37    0.30
  12  34  -2    6.53    0.31
 -12  34   2    6.50    0.31
 -12 -34  -2    5.99    0.27
 -12 -34   2    6.24    0.29
  12  34   2    6.47    0.29
 -12  34  -2    6.51    0.29
 -12  34  -2    6.36    0.29
 -12 -34   2    6.03    0.30
 -12  34   4    0.59    0.11
  12  34  -4    0.65    0.12
 -12 -34  -4    0.54    0.11
 -12  34   4    0.53    0.11
 -12 -34   4    0.63    0.11
 -12 -34   4    0.58    0.12
 -12  34  -4    0.84    0.11
  12  34  -6    1.01    0.14
 -12  34   6    1.08    0.15
  12 -34   6    1.03    0.12
 -12 -34  -6    1.17    0.14
 -12 -34   6    1.14    0.14
 -12 -34   6    1.20    0.16
 -12  34  -6    1.03    0.14
  12  34  -8    0.42    0.13
 -12 -34  -8    0.54    0.13
 -12  34   8    0.53    0.13
  12 -34   8    0.57    0.11
 -12 -34   8    0.42    0.14
 -12  34  -8    0.53    0.13
  12  34 -10    0.06    0.12
 -12  34  10    0.12    0.12
 -12 -34 -10    0.38    0.12
 -12  34 -10    0.03    0.11
 -14 -34   0    0.53    0.10
  14  34   0    0.34    0.11
 -14  34   0    0.47    0.10
 -14 -34   0    0.30    0.10
 -14  34   0    0.46    0.10
 -14  34   2    0.47    0.11
 -14 -34  -2    0.49    0.10
 -14  34   2    0.62    0.12
  14  34  -2    0.76    0.13
 -14 -34  -2    0.72    0.12
 -14 -34   2    0.59    0.12
  14  34   2    0.77    0.12
 -14 -34   2    0.71    0.11
 -14  34  -2    0.84    0.12
 -14  34  -2    0.69    0.11
 -14  34   4    1.50    0.16
 -14 -34  -4    1.49    0.16
 -14  34   4    1.21    0.16
  14  34  -4    1.28    0.16
 -14 -34   4    1.13    0.16
 -14  34  -4    1.36    0.16
 -14  34   6    0.56    0.13
  14  34  -6    0.59    0.13
 -14 -34  -6    0.80    0.13
 -14 -34   6    0.96    0.16
 -14  34  -6    1.11    0.16
  14  34  -8    0.33    0.13
 -14 -34  -8    0.18    0.11
 -14  34   8    0.30    0.12
 -14  34  -8    0.36    0.13
 -14 -34   8    0.45    0.15
 -14  34  10    0.25    0.13
  14  34 -10   -0.02    0.12
 -14 -34 -10    0.19    0.12
 -14  34 -10    0.20    0.13
 -16 -34   0   -0.01    0.09
 -16  34   0    0.13    0.10
  16  34   0    0.05    0.09
 -16  34   0    0.12    0.09
 -16 -34  -2    1.00    0.13
  16  34  -2    0.82    0.14
 -16  34   2    0.98    0.15
 -16  34   2    0.92    0.14
 -16 -34  -2    0.93    0.14
 -16  34  -2    1.08    0.15
 -16 -34   2    0.93    0.15
 -16  34   4    1.48    0.17
 -16 -34  -4    1.57    0.17
 -16  34   4    1.41    0.18
  16  34  -4    1.57    0.18
 -16  34  -4    1.34    0.18
 -16 -34   4    1.08    0.17
  16  34  -6    1.26    0.18
 -16 -34  -6    1.60    0.18
 -16  34   6    1.77    0.21
 -16  34  -6    1.78    0.19
 -16 -34   6    1.55    0.20
 -16  34   8    0.59    0.16
 -16 -34  -8    0.40    0.13
  16  34  -8    0.26    0.13
 -16  34  -8    0.69    0.15
 -16 -34   8    0.54    0.16
 -18 -34   0    0.21    0.11
 -18  34   0    0.14    0.11
 -18  34   2    0.43    0.13
 -18  34   2    0.46    0.13
  18  34  -2    0.28    0.12
 -18  34  -2    0.40    0.13
 -18 -34   2    0.28    0.13
 -18  34   4    0.11    0.11
 -18  34   4    0.40    0.14
  18  34  -4    0.33    0.13
 -18  34  -4    0.37    0.14
 -18 -34   4    0.21    0.13
 -18  34   6    0.19    0.13
  18  34  -6    0.16    0.13
 -18 -34   6    0.17    0.13
 -18  34  -6    0.19    0.13
 -18 -34  -8    0.18    0.12
 -20  34   0    0.65    0.16
 -20 -34   0    0.54    0.15
  20  34  -2    0.22    0.13
 -20  34   2    0.22    0.13
 -20  34   2    0.37    0.14
 -20 -34   2    0.33    0.14
 -20  34  -2    0.31    0.14
 -20  34   4    0.16    0.13
  20  34  -4    0.03    0.11
 -20  34  -4    0.03    0.12
 -20 -34   4    0.03    0.13
   1  35  -1   11.40    0.36
  -1  35   1   10.96    0.41
  -1 -35  -1   11.67    0.40
   1  35  -1   10.07    0.40
   1 -35   1   10.83    0.40
  -1  35   1   11.37    0.33
   1  35   1   11.35    0.40
   1  35   1   11.66    0.33
  -1  35  -1   11.26    0.40
  -1  35  -1    9.69    0.35
  -1 -35   1   12.04    0.41
   1 -35  -1   11.08    0.39
  -1 -35  -3    2.47    0.15
   1  35  -3    2.65    0.14
   1  35  -3    2.49    0.16
   1 -35   3    2.69    0.16
  -1  35   3    2.72    0.16
   1  35   3    2.67    0.15
  -1  35  -3    2.50    0.13
  -1  35  -3    2.39    0.15
   1 -35  -3    2.47    0.14
   1  35  -5    0.59    0.09
  -1  35   5    0.64    0.09
   1 -35   5    0.53    0.09
   1  35  -5    0.63    0.09
  -1 -35  -5    0.51    0.09
   1 -35  -5    0.31    0.07
  -1  35  -5    0.71    0.09
  -1  35  -5    0.52    0.09
   1  35   5    0.54    0.08
  -1 -35   5    0.48    0.08
  -1  35   7    6.24    0.29
  -1 -35  -7    6.47    0.29
   1  35  -7    6.59    0.29
   1 -35   7    6.04    0.30
   1  35  -7    6.42    0.30
  -1 -35   7    6.42    0.30
  -1  35  -7    6.52    0.28
   1  35   7    6.29    0.28
  -1  35  -7    6.21    0.29
   1 -35  -7    6.46    0.28
  -1  35   9    0.87    0.12
   1  35  -9    0.81    0.12
   1 -35   9    1.01    0.14
   1  35  -9    0.67    0.13
  -1 -35  -9    0.71    0.12
  -1  35  -9    1.04    0.12
   1  35   9    0.87    0.12
   1 -35  -9    1.03    0.12
  -1 -35   9    0.98    0.14
  -1  35  -9    0.93    0.14
   1 -35  11   -0.09    0.08
   1  35 -11    0.22    0.12
  -1 -35 -11    0.00    0.08
  -1  35 -11   -0.05    0.10
   1 -35 -11    0.17    0.09
  -1 -35  11    0.02    0.09
   1  35 -13    0.23    0.13
   1 -35  13    0.30    0.12
  -1 -35 -13    0.13    0.11
  -1  35 -13    0.21    0.13
   1 -35 -13    0.14    0.10
  -1 -35  13    0.39    0.13
  -3  35   1    0.54    0.05
   3  35  -1    0.44    0.08
  -3  35   1    0.34    0.07
   3 -35   1    0.51    0.07
  -3  35  -1    0.51    0.06
  -3  35  -1    0.47    0.07
   3 -35  -1    0.47    0.07
   3  35   1    0.47    0.07
   3  35  -3    5.79    0.26
  -3 -35  -3    5.91    0.25
   3 -35   3    5.98    0.26
  -3  35   3    5.44    0.25
  -3 -35   3    6.03    0.26
  -3  35  -3    5.64    0.24
  -3  35  -3    5.96    0.23
   3  35   3    5.74    0.25
   3 -35  -3    5.72    0.24
   3  35  -5    2.90    0.19
  -3  35   5    3.14    0.18
  -3 -35  -5    2.78    0.17
   3 -35   5    3.10    0.19
  -3  35  -5    3.13    0.17
   3  35   5    2.64    0.16
   3 -35  -5    2.93    0.16
  -3 -35   5    2.80    0.18
  -3  35  -5    2.96    0.16
   3  35  -7    1.96    0.17
   3 -35   7    2.30    0.17
  -3  35   7    2.34    0.16
  -3 -35  -7    2.14    0.16
  -3 -35   7    2.25    0.18
   3  35   7    2.34    0.15
   3 -35  -7    2.11    0.15
  -3  35  -7    2.18    0.17
  -3  35  -7    1.95    0.15
   3 -35   9    1.97    0.19
  -3 -35  -9    1.98    0.18
   3  35  -9    2.11    0.19
   3  35  -9    2.01    0.17
  -3  35   9    2.33    0.18
   3 -35  -9    1.98    0.16
  -3 -35   9    1.87    0.18
  -3  35  -9    1.99    0.18
   3  35 -11    1.00    0.14
  -3  35  11    1.07    0.15
   3  35 -11    0.82    0.16
  -3 -35 -11    0.93    0.13
   3 -35  11    0.93    0.15
  -3  35 -11    1.04    0.17
   3 -35 -11    1.14    0.14
  -3 -35  11    1.07    0.15
   3  35 -13    0.19    0.13
   3 -35  13    0.15    0.11
  -3 -35 -13   -0.06    0.06
  -3  35 -13   -0.10    0.11
  -3 -35  13   -0.05    0.09
   5 -35   1    4.03    0.19
  -5 -35  -1    3.85    0.16
  -5 -35  -1    3.68    0.19
   5  35  -1    3.66    0.20
  -5  35   1    3.48    0.19
  -5 -35   1    3.79    0.17
  -5  35  -1    4.15    0.17
   5  35   1    4.04    0.20
  -5  35  -1    3.81    0.19
   5 -35  -1    3.82    0.18
  -5 -35   1    4.04    0.20
   5 -35   3    1.20    0.11
  -5  35   3    1.17    0.08
   5 -35  -3    1.28    0.10
   5  35   3    0.99    0.10
  -5  35  -3    1.21    0.11
  -5 -35   3    1.03    0.11
  -5  35  -3    1.21    0.11
   5  35  -5    4.26    0.23
   5 -35   5    4.16    0.22
  -5  35   5    4.09    0.22
  -5 -35  -5    3.90    0.21
  -5 -35   5    4.04    0.23
  -5  35  -5    4.00    0.20
   5 -35  -5    4.47    0.20
  -5  35  -5    4.09    0.21
   5  35   5    4.29    0.20
  -5 -35  -7    1.31    0.14
   5 -35   7    1.27    0.14
   5  35  -7    0.93    0.13
  -5  35   7    0.94    0.13
  -5  35  -7    1.13    0.13
  -5 -35   7    0.85    0.12
   5 -35  -7    1.33    0.12
  -5  35  -7    1.25    0.11
   5  35   7    1.09    0.11
  -5  35   9    1.23    0.16
  -5 -35  -9    1.29    0.15
   5  35  -9    1.18    0.15
   5 -35   9    1.14    0.15
  -5  35  -9    1.16    0.15
  -5 -35   9    1.43    0.16
  -5 -35 -11    0.06    0.09
   5  35 -11    0.12    0.12
  -5  35  11    0.10    0.10
   5  35 -11   -0.09    0.09
   5 -35  11    0.04    0.09
  -5  35 -11   -0.01    0.10
  -5 -35  11    0.06    0.09
   5  35 -13    0.00    0.12
  -5 -35 -13    0.01    0.10
   5 -35  13   -0.01    0.11
  -5  35 -13    0.09    0.13
  -5 -35  13    0.20    0.11
   7  35  -1    2.00    0.16
  -7 -35  -1    1.95    0.12
  -7  35   1    1.98    0.14
   7 -35   1    2.20    0.14
  -7 -35  -1    2.14    0.16
  -7  35   1    2.06    0.12
  -7  35  -1    2.03    0.14
  -7 -35   1    1.84    0.14
  -7 -35   1    2.04    0.15
  -7  35  -1    2.14    0.13
   7 -35  -1    1.88    0.12
   7  35   1    2.25    0.16
   7  35  -3    0.97    0.12
  -7 -35  -3    0.96    0.11
  -7  35   3    1.14    0.10
  -7  35   3    0.81    0.11
   7 -35   3    0.78    0.10
   7  35   3    1.02    0.11
  -7 -35   3    0.68    0.10
  -7  35  -3    1.13    0.11
   7 -35  -3    1.01    0.09
  -7 -35   3    0.95    0.11
  -7  35  -3    0.95    0.10
  -7  35   5    1.33    0.14
  -7 -35  -5    1.56    0.14
   7 -35   5    1.36    0.14
   7  35  -5    1.36    0.15
  -7  35  -5    1.27    0.13
   7  35   5    1.56    0.12
  -7 -35   5    1.12    0.14
  -7  35  -5    1.60    0.12
  -7  35   7    1.68    0.17
   7 -35   7    1.62    0.16
  -7 -35  -7    2.08    0.17
   7  35  -7    1.97    0.18
  -7 -35   7    1.93    0.18
  -7  35  -7    1.68    0.16
  -7 -35  -9    0.29    0.10
   7  35  -9    0.13    0.10
   7 -35   9    0.06    0.09
  -7  35   9    0.11    0.10
  -7 -35   9    0.06    0.09
  -7  35  -9    0.17    0.10
  -7 -35 -11    0.72    0.13
   7 -35  11    0.63    0.14
  -7  35  11    0.42    0.13
   7  35 -11    0.48    0.13
  -7  35 -11    0.50    0.14
  -7 -35  11    0.68    0.13
   7  35 -13    0.30    0.14
  -7 -35 -13    0.15    0.11
  -7  35  13    0.24    0.13
  -7  35 -13    0.09    0.12
  -7 -35  13    0.19    0.12
  -9 -35  -1   11.55    0.40
  -9 -35  -1   10.95    0.42
   9  35  -1   11.84    0.44
  -9  35   1   10.77    0.43
  -9  35   1   10.96    0.39
   9 -35   1   10.80    0.39
   9  35   1   10.64    0.42
  -9  35  -1   11.21    0.42
  -9 -35   1   11.47    0.41
  -9  35  -1   11.15    0.40
  -9 -35   1   10.91    0.42
  -9 -35  -3    1.81    0.16
  -9  35   3    1.81    0.17
   9  35  -3    1.73    0.17
  -9  35   3    1.65    0.13
   9 -35   3    1.69    0.14
  -9  35  -3    2.13    0.15
  -9 -35   3    1.99    0.16
  -9  35  -3    2.09    0.15
   9  35   3    1.93    0.14
  -9 -35   3    1.72    0.14
  -9 -35  -5    1.89    0.15
   9 -35   5    1.71    0.15
  -9  35   5    1.35    0.15
   9  35  -5    1.61    0.16
  -9  35  -5    1.53    0.12
  -9 -35   5    1.56    0.15
  -9 -35   5    1.21    0.15
   9  35   5    1.60    0.12
  -9  35  -5    1.55    0.14
   9  35  -7    1.22    0.15
  -9 -35  -7    1.25    0.15
  -9  35   7    1.09    0.15
   9 -35   7    1.08    0.13
  -9 -35   7    1.20    0.15
  -9  35  -7    1.40    0.15
  -9  35   9    1.21    0.17
   9 -35   9    0.94    0.14
   9  35  -9    0.95    0.15
  -9 -35  -9    0.73    0.13
  -9 -35   9    1.11    0.15
  -9  35  -9    0.92    0.15
  -9  35  11    0.37    0.13
   9 -35  11    0.22    0.12
  -9 -35 -11    0.48    0.12
   9  35 -11    0.45    0.13
  -9 -35  11    0.69    0.14
  -9  35 -11    0.33    0.13
  -9  35  13    0.21    0.14
   9  35 -13    0.18    0.14
 -11 -35  -1    1.44    0.13
 -11  35   1    0.95    0.12
 -11 -35  -1    1.20    0.13
 -11  35   1    1.49    0.13
  11  35  -1    1.39    0.14
 -11 -35   1    1.39    0.14
  11  35   1    1.34    0.14
 -11  35  -1    1.30    0.13
 -11  35  -1    1.12    0.12
 -11 -35   1    1.39    0.14
 -11  35   3   12.73    0.46
  11 -35   3   12.97    0.45
 -11  35   3   12.93    0.51
 -11 -35  -3   12.80    0.48
  11  35  -3   12.74    0.50
  11  35   3   12.70    0.47
 -11 -35   3   12.26    0.49
 -11 -35   3   12.47    0.48
 -11  35  -3   13.47    0.48
 -11  35  -3   13.46    0.48
 -11  35   5    0.62    0.12
 -11 -35  -5    0.80    0.12
  11 -35   5    0.67    0.10
  11  35  -5    0.57    0.12
 -11  35  -5    0.58    0.11
 -11 -35   5    0.62    0.11
 -11 -35   5    0.68    0.13
  11 -35   7    2.69    0.19
 -11 -35  -7    2.51    0.19
  11  35  -7    2.65    0.21
 -11  35   7    2.52    0.21
 -11 -35   7    2.68    0.22
 -11  35  -7    2.62    0.20
 -11 -35   7    2.44    0.19
  11  35  -9    1.83    0.20
 -11  35   9    2.14    0.22
  11 -35   9    2.11    0.20
 -11 -35  -9    1.91    0.19
 -11  35  -9    1.83    0.20
 -11  35  11    0.23    0.13
  11  35 -11    0.35    0.14
 -11 -35 -11    0.31    0.12
 -11  35 -11    0.39    0.14
 -13 -35  -1    1.15    0.13
 -13  35   1    0.92    0.12
 -13 -35  -1    0.92    0.12
 -13  35   1    0.67    0.12
  13  35  -1    0.82    0.13
 -13  35  -1    0.81    0.11
 -13 -35   1    0.94    0.12
 -13 -35   1    1.02    0.13
  13  35   1    0.67    0.12
 -13  35  -1    0.86    0.12
 -13  35   3   -0.08    0.07
 -13  35   3   -0.02    0.08
 -13 -35  -3    0.13    0.08
  13  35  -3   -0.02    0.08
 -13 -35   3   -0.09    0.08
 -13 -35   3    0.13    0.08
 -13  35  -3    0.01    0.07
 -13 -35  -5    0.94    0.14
  13  35  -5    0.92    0.14
 -13  35   5    0.63    0.13
 -13 -35   5    0.80    0.12
 -13 -35   5    0.78    0.14
 -13  35  -5    0.80    0.13
 -13 -35  -7    2.17    0.20
 -13  35   7    1.67    0.19
  13  35  -7    1.92    0.20
 -13  35  -7    1.98    0.19
 -13 -35   7    1.88    0.21
 -13 -35  -9    0.72    0.15
  13  35  -9    0.40    0.13
 -13  35   9    0.75    0.16
 -13  35  -9    0.73    0.15
 -13  35  11   -0.05    0.12
  13  35 -11   -0.12    0.11
 -13 -35 -11    0.02    0.10
  15  35  -1    0.38    0.11
 -15  35   1    0.36    0.11
 -15 -35  -1    0.51    0.11
 -15  35   1    0.36    0.10
 -15 -35  -1    0.43    0.11
 -15 -35   1    0.33    0.09
  15  35   1    0.20    0.10
 -15  35  -1    0.46    0.11
 -15 -35   1    0.27    0.11
 -15  35  -1    0.32    0.10
  15  35  -3    1.51    0.17
 -15  35   3    1.60    0.18
 -15  35   3    1.84    0.18
 -15 -35  -3    1.75    0.17
 -15  35  -3    1.70    0.18
 -15 -35   3    1.96    0.20
 -15  35   5    1.02    0.16
 -15 -35  -5    1.29    0.16
  15  35  -5    1.15    0.16
 -15  35  -5    1.09    0.16
 -15 -35   5    1.49    0.19
  15  35  -7    0.56    0.14
 -15 -35  -7    0.40    0.12
 -15  35   7    0.34    0.13
 -15 -35   7    0.21    0.14
 -15  35  -7    0.45    0.13
 -15  35   9    0.30    0.13
  15  35  -9    0.31    0.14
 -15 -35  -9    0.28    0.12
 -15  35  -9    0.44    0.14
 -15 -35   9    0.22    0.13
 -17 -35  -1    0.12    0.09
 -17  35   1    0.46    0.12
  17  35  -1    0.23    0.11
 -17  35   1    0.26    0.11
 -17 -35   1    0.22    0.11
 -17  35  -1    0.36    0.12
  17  35  -3    1.46    0.18
 -17  35   3    1.81    0.19
 -17  35   3    1.48    0.19
 -17 -35   3    1.76    0.20
 -17  35  -3    1.89    0.20
  17  35  -5    0.82    0.16
 -17 -35  -5    1.09    0.16
 -17  35   5    1.19    0.18
 -17 -35   5    1.01    0.18
 -17  35  -5    0.91    0.16
 -17 -35  -7    0.74    0.15
 -17  35   7    0.60    0.16
  17  35  -7    0.58    0.16
 -17 -35   7    0.83    0.18
 -17  35  -7    0.40    0.14
 -19  35   1    1.40    0.19
 -19  35  -1    1.58    0.20
 -19 -35   1    1.48    0.19
 -19  35   3    0.55    0.15
  19  35  -3    0.42    0.14
 -19  35   3    0.55    0.15
 -19  35  -3    0.73    0.16
 -19 -35   3    0.56    0.15
  19  35  -5    0.14    0.12
 -19  35   5    0.14    0.13
 -19 -35   5    0.10    0.13
 -19  35  -5    0.39    0.14
 -21  35   1    0.59    0.16
 -21 -35   1    0.58    0.15
 -21  35  -1    0.85    0.18
  21  35  -3    0.14    0.13
 -21  35   3    0.32    0.14
 -21  35   3    0.08    0.14
 -21 -35   3    0.35    0.15
   0  36   0    0.01    0.01
   0 -36   0   -0.06    0.04
   0  36   0    0.02    0.03
   0 -36   2   -0.01    0.05
   0  36  -2    0.08    0.04
   0  36   2    0.05    0.05
   0  36  -2    0.03    0.06
   0 -36  -2   -0.02    0.04
   0 -36  -4    4.85    0.22
   0  36  -4    4.42    0.20
   0  36  -4    4.76    0.22
   0  36   4    4.86    0.22
   0  36   6    0.11    0.07
   0 -36  -6   -0.09    0.06
   0 -36   6    0.01    0.07
   0  36  -6   -0.01    0.07
   0  36  -6    0.01    0.07
   0  36  -8    0.52    0.10
   0 -36   8    0.26    0.09
   0 -36  -8    0.43    0.09
   0  36   8    0.35    0.08
   0  36  -8    0.54    0.11
   0 -36 -10    0.08    0.08
   0  36 -10    0.09    0.10
   0 -36  10    0.11    0.09
   0  36 -12    0.83    0.17
   0 -36 -12    0.84    0.14
   0 -36  12    0.91    0.16
   0 -36 -14    0.10    0.10
  -2 -36   0    0.79    0.09
  -2  36   0    0.76    0.09
   2  36   0    1.00    0.10
   2  36   0    0.81    0.06
   2 -36   0    0.78    0.09
  -2  36   0    0.86    0.06
   2 -36   2    5.02    0.22
  -2 -36  -2    4.73    0.21
  -2  36   2    3.96    0.21
   2  36  -2    4.44    0.22
  -2  36  -2    5.02    0.22
   2 -36  -2    4.71    0.21
   2  36   2    4.75    0.22
  -2  36  -2    5.17    0.19
  -2  36   4    0.16    0.06
   2  36  -4    0.10    0.07
  -2 -36  -4    0.11    0.06
   2 -36   4    0.15    0.06
  -2  36  -4    0.35    0.07
   2  36   4    0.19    0.06
  -2 -36   4    0.05    0.05
  -2  36  -4    0.13    0.07
   2 -36  -4    0.19    0.06
  -2  36   6    1.23    0.12
   2 -36   6    1.20    0.13
   2  36  -6    1.01    0.12
  -2 -36  -6    1.18    0.12
   2  36  -6    1.07    0.12
  -2  36  -6    1.01    0.11
   2  36   6    0.97    0.11
   2 -36  -6    1.05    0.11
  -2  36  -6    1.09    0.12
  -2 -36   6    1.06    0.13
   2 -36   8    1.47    0.16
  -2 -36  -8    1.94    0.16
  -2  36   8    1.57    0.16
   2  36  -8    1.75    0.16
   2  36  -8    1.82    0.17
   2  36   8    1.91    0.15
  -2 -36   8    1.84    0.18
  -2  36  -8    1.87    0.17
   2 -36  -8    1.68    0.15
  -2  36  -8    1.91    0.15
   2  36 -10    0.09    0.09
   2 -36  10    0.23    0.10
   2  36 -10    0.02    0.10
  -2 -36 -10    0.31    0.10
  -2  36  10    0.02    0.08
  -2  36 -10    0.19    0.11
  -2 -36  10   -0.01    0.09
   2 -36 -10    0.50    0.10
  -2 -36 -12    0.04    0.09
   2  36 -12   -0.13    0.11
   2 -36  12    0.07    0.10
   2 -36 -12    0.15    0.10
  -2  36 -12   -0.11    0.11
  -2 -36  12    0.06    0.09
  -2 -36 -14    0.14    0.11
  -2 -36  14    0.27    0.13
  -4  36   0    9.31    0.35
   4  36   0    9.56    0.36
   4 -36   0    8.86    0.34
  -4  36   2    1.83    0.09
   4 -36   2    1.76    0.13
   4  36   2    1.69    0.13
  -4  36  -2    1.90    0.13
  -4  36  -2    1.97    0.11
  -4 -36   2    1.95    0.14
   4 -36  -2    1.76    0.12
  -4  36   4    5.46    0.25
  -4 -36  -4    5.16    0.24
   4  36  -4    5.58    0.26
   4 -36   4    5.27    0.24
  -4 -36   4    5.28    0.25
   4 -36  -4    5.25    0.22
  -4  36  -4    5.12    0.23
  -4  36  -4    4.75    0.23
   4  36   4    5.26    0.24
   4 -36   6    0.65    0.11
  -4  36   6    0.73    0.12
   4  36  -6    0.70    0.11
  -4 -36  -6    0.81    0.12
  -4 -36   6    0.74    0.11
  -4  36  -6    0.93    0.10
  -4  36  -6    1.00    0.12
   4  36   6    0.80    0.10
   4 -36  -6    0.77    0.10
   4  36  -8    2.32    0.19
  -4  36   8    2.61    0.18
   4 -36   8    2.46    0.19
  -4 -36  -8    2.76    0.19
  -4  36  -8    2.76    0.19
   4 -36  -8    3.04    0.18
  -4 -36   8    2.56    0.20
   4 -36  10    0.77    0.14
   4  36 -10    0.60    0.14
  -4 -36 -10    0.46    0.11
   4  36 -10    0.44    0.12
  -4  36  10    0.58    0.12
   4 -36 -10    0.81    0.12
  -4 -36  10    0.65    0.12
  -4  36 -10    0.62    0.13
  -4 -36 -12    0.46    0.12
   4 -36  12    0.35    0.13
   4  36 -12    0.31    0.14
  -4 -36  12    0.34    0.12
  -4  36 -12    0.28    0.13
  -4 -36  14    0.11    0.11
   6  36   0    3.99    0.21
  -6 -36   0    4.03    0.18
  -6  36   0    4.06    0.17
   6 -36   0    3.80    0.18
  -6 -36   0    3.98    0.21
  -6  36   0    3.69    0.20
  -6  36   2    0.75    0.11
   6 -36   2    0.89    0.10
  -6 -36  -2    0.79    0.10
  -6  36   2    0.89    0.08
   6  36  -2    1.10    0.12
  -6  36  -2    0.83    0.10
   6  36   2    0.88    0.10
  -6 -36   2    0.87    0.11
  -6  36  -2    0.98    0.10
   6 -36  -2    0.79    0.08
  -6 -36   2    1.07    0.11
   6  36  -4    3.31    0.20
  -6  36   4    2.86    0.18
   6 -36   4    3.11    0.18
  -6 -36  -4    2.74    0.17
   6 -36  -4    3.26    0.16
   6  36   4    3.00    0.17
  -6 -36   4    2.67    0.18
  -6  36  -4    3.29    0.17
  -6  36  -4    3.02    0.17
   6  36  -6    0.00    0.09
  -6  36   6    0.02    0.08
   6 -36   6    0.20    0.08
  -6 -36  -6    0.02    0.07
   6  36   6    0.03    0.06
  -6 -36   6    0.19    0.08
   6 -36  -6    0.05    0.06
  -6  36  -6    0.18    0.08
  -6  36  -6    0.04    0.06
  -6 -36  -8    0.54    0.11
   6 -36   8    0.48    0.12
   6  36  -8    0.54    0.12
  -6  36   8    0.46    0.11
  -6 -36   8    0.65    0.11
  -6  36  -8    0.35    0.10
   6 -36  10    0.30    0.11
   6  36 -10    0.18    0.11
  -6  36  10    0.30    0.11
  -6 -36 -10    0.34    0.10
  -6  36 -10    0.22    0.11
  -6 -36  10    0.32    0.10
  -6 -36 -12    0.13    0.11
   6 -36  12    0.04    0.10
   6  36 -12    0.01    0.11
   6  36 -12    0.17    0.13
  -6  36  12    0.18    0.12
  -6 -36  12    0.29    0.12
  -6  36 -12    0.04    0.11
   8 -36   0    9.50    0.34
  -8 -36   0   10.08    0.39
  -8  36   0    9.43    0.38
   8  36   0    9.29    0.38
  -8  36   0    9.79    0.35
  -8 -36   0    9.24    0.35
  -8  36   2   23.87    0.82
  -8 -36  -2   25.49    0.81
  -8 -36  -2   24.10    0.76
  -8  36   2   25.16    0.77
   8  36  -2   23.66    0.82
   8 -36   2   24.11    0.78
   8  36   2   24.01    0.81
   8 -36  -2   24.44    0.76
  -8  36  -2   24.51    0.81
  -8 -36   2   24.09    0.79
  -8  36  -2   24.57    0.78
  -8 -36   2   24.90    0.81
  -8 -36  -4    1.98    0.16
  -8  36   4    2.13    0.18
   8 -36   4    1.99    0.16
   8  36  -4    2.13    0.17
  -8 -36   4    1.94    0.16
  -8  36  -4    2.41    0.16
  -8 -36   4    1.95    0.16
   8  36   4    2.01    0.15
  -8  36  -4    2.24    0.15
   8 -36   6    0.43    0.10
  -8  36   6    0.43    0.10
   8  36  -6    0.41    0.11
  -8 -36  -6    0.39    0.09
  -8  36  -6    0.30    0.09
  -8 -36   6    0.36    0.09
   8 -36   8    0.55    0.12
   8  36  -8    0.34    0.11
  -8 -36  -8    0.39    0.10
  -8  36   8    0.32    0.10
  -8 -36   8    0.45    0.11
  -8  36  -8    0.44    0.11
   8  36 -10   -0.04    0.10
  -8  36  10    0.19    0.11
   8 -36  10    0.04    0.09
  -8 -36 -10    0.04    0.09
  -8  36 -10    0.02    0.10
  -8 -36  10    0.00    0.09
  -8 -36 -12    0.07    0.10
   8 -36  12    0.04    0.11
  -8  36  12    0.07    0.11
   8  36 -12   -0.18    0.10
  -8  36 -12    0.03    0.11
  -8 -36  12   -0.01    0.09
 -10  36   0    1.54    0.13
 -10 -36   0    1.68    0.14
 -10  36   0    1.62    0.14
 -10 -36   0    1.84    0.15
  10  36   0    1.66    0.15
  10 -36   2    2.83    0.16
 -10 -36  -2    2.62    0.18
 -10 -36  -2    2.87    0.16
 -10  36   2    2.91    0.17
  10  36  -2    3.21    0.20
 -10  36   2    2.97    0.20
 -10 -36   2    2.58    0.19
 -10 -36   2    3.15    0.19
 -10  36  -2    2.97    0.18
  10  36   2    3.00    0.18
 -10  36  -2    3.07    0.18
  10  36  -4    0.78    0.13
 -10 -36  -4    0.83    0.12
  10 -36   4    0.67    0.10
 -10  36   4    0.82    0.13
 -10  36  -4    0.60    0.09
 -10 -36   4    0.68    0.12
 -10 -36   4    0.75    0.12
 -10  36  -4    0.81    0.12
  10  36   4    0.61    0.09
 -10  36   6    0.18    0.09
 -10 -36  -6    0.15    0.08
  10 -36   6    0.08    0.07
  10  36  -6    0.14    0.09
 -10 -36   6    0.03    0.09
 -10  36  -6    0.15    0.08
 -10 -36   6    0.14    0.08
  10  36  -8    1.99    0.20
  10 -36   8    1.86    0.18
 -10 -36  -8    1.99    0.19
 -10  36   8    2.36    0.20
 -10  36  -8    2.36    0.18
 -10 -36   8    2.44    0.19
 -10  36  10    0.05    0.11
  10 -36  10    0.01    0.09
 -10 -36 -10   -0.10    0.08
  10  36 -10    0.05    0.11
 -10  36 -10    0.05    0.10
 -10 -36  10   -0.09    0.08
 -10  36  12    0.25    0.13
  10  36 -12    0.21    0.13
 -10 -36 -12    0.08    0.11
 -10  36 -12    0.30    0.14
  12  36   0    0.85    0.13
 -12 -36   0    0.64    0.11
 -12  36   0    0.93    0.11
 -12  36   0    1.19    0.13
 -12 -36   0    0.80    0.12
  12  36  -2    1.15    0.14
 -12  36   2    1.29    0.13
 -12 -36  -2    1.15    0.14
 -12 -36  -2    1.10    0.12
 -12  36   2    1.27    0.14
 -12 -36   2    1.40    0.15
 -12  36  -2    1.27    0.13
 -12 -36   2    1.43    0.15
  12  36   2    1.39    0.14
 -12  36  -2    1.23    0.14
 -12 -36  -4    1.27    0.14
 -12  36   4    1.59    0.17
  12  36  -4    1.24    0.15
 -12 -36   4    1.33    0.14
 -12 -36   4    1.30    0.16
 -12  36  -4    1.21    0.14
 -12 -36  -6    0.36    0.11
 -12  36   6    0.34    0.11
  12 -36   6    0.27    0.09
  12  36  -6    0.26    0.11
 -12 -36   6    0.34    0.09
 -12 -36   6    0.29    0.11
 -12  36  -6    0.29    0.10
 -12 -36  -8    0.18    0.10
  12  36  -8    0.08    0.11
  12 -36   8    0.13    0.09
 -12  36   8    0.18    0.11
 -12  36  -8    0.05    0.10
 -12 -36   8    0.15    0.11
 -12 -36 -10    0.43    0.13
  12  36 -10    0.46    0.14
 -12  36  10    0.21    0.13
 -12  36 -10    0.40    0.13
  14  36   0    1.26    0.15
 -14  36   0    1.24    0.14
 -14  36   0    1.39    0.15
 -14 -36   0    1.18    0.14
 -14 -36   0    1.08    0.14
 -14  36   2    0.18    0.09
 -14  36   2    0.06    0.08
  14  36  -2    0.10    0.09
 -14 -36  -2    0.16    0.09
 -14  36  -2    0.02    0.08
 -14 -36   2    0.06    0.09
 -14 -36   2    0.03    0.08
  14  36   2    0.08    0.08
 -14  36  -2    0.23    0.09
 -14 -36  -4    2.83    0.20
  14  36  -4    2.80    0.21
 -14  36   4    3.08    0.22
 -14  36  -4    2.78    0.20
 -14 -36   4    2.88    0.23
 -14 -36  -6    1.27    0.16
  14  36  -6    1.46    0.18
 -14  36   6    1.20    0.17
 -14  36  -6    1.26    0.16
 -14 -36   6    1.13    0.17
 -14  36   8    0.46    0.14
  14  36  -8    0.41    0.14
 -14 -36   8    0.59    0.15
 -14  36  -8    0.51    0.14
 -14 -36 -10   -0.01    0.10
 -14  36  10    0.27    0.14
  14  36 -10    0.13    0.11
 -14  36 -10    0.12    0.12
 -16 -36   0    0.18    0.10
 -16  36   0    0.25    0.11
  16  36   0    0.18    0.10
 -16  36   0    0.14    0.10
  16  36  -2    1.24    0.17
 -16 -36  -2    1.29    0.16
 -16  36   2    1.29    0.16
 -16  36   2    1.42    0.17
 -16 -36   2    1.40    0.17
 -16  36  -2    1.25    0.16
  16  36  -4    0.38    0.13
 -16 -36  -4    0.51    0.12
 -16  36   4    0.50    0.13
 -16 -36   4    0.39    0.13
 -16  36  -4    0.37    0.12
 -16 -36  -6    0.92    0.15
  16  36  -6    0.96    0.16
 -16  36   6    0.98    0.17
 -16 -36   6    0.96    0.18
 -16  36  -6    0.95    0.16
 -16  36   8    0.31    0.15
 -16 -36  -8    0.40    0.13
  16  36  -8    0.21    0.13
 -16 -36   8    0.32    0.14
 -16  36  -8    0.46    0.14
 -18 -36   0    0.66    0.14
 -18  36   0    0.85    0.16
 -18  36   2    0.59    0.14
 -18  36   2    0.36    0.13
  18  36  -2    0.08    0.11
 -18 -36   2    0.54    0.14
 -18  36  -2    0.52    0.14
  18  36  -4    1.19    0.18
 -18  36   4    1.52    0.20
 -18  36  -4    1.26    0.19
 -18 -36   4    1.17    0.18
 -18  36   6   -0.06    0.11
  18  36  -6   -0.01    0.10
 -18 -36   6    0.03    0.12
 -18  36  -6    0.29    0.13
 -18 -36  -8    0.22    0.12
 -20  36   0   -0.11    0.11
  20  36  -2   -0.11    0.11
 -20  36   2    0.32    0.13
 -20  36   2    0.14    0.12
 -20 -36   2    0.30    0.14
 -20  36  -2    0.05    0.13
  20  36  -4    0.08    0.12
 -20  36   4    0.14    0.13
 -20  36  -4    0.41    0.14
 -20 -36   4    0.16    0.13
  -1 -37  -1    7.61    0.30
   1  37  -1    6.89    0.26
   1 -37   1    7.78    0.30
  -1 -37   1    8.05    0.31
   1 -37  -1    7.88    0.30
  -1  37  -1    7.77    0.31
   1  37   1    7.99    0.31
  -1  37   3    4.98    0.23
   1  37  -3    5.15    0.21
   1 -37   3    5.24    0.24
   1  37  -3    5.19    0.24
  -1 -37  -3    5.42    0.24
  -1  37  -3    4.98    0.23
   1 -37  -3    5.37    0.23
   1  37   3    4.88    0.23
  -1  37  -3    5.13    0.21
   1  37  -5    3.57    0.20
   1  37  -5    3.27    0.18
  -1  37   5    3.73    0.19
  -1 -37  -5    3.24    0.18
   1 -37   5    3.21    0.20
  -1  37  -5    3.34    0.18
  -1  37  -5    3.36    0.19
  -1 -37   5    3.28    0.19
   1  37   5    3.71    0.19
   1 -37  -5    3.37    0.18
  -1 -37  -7    6.56    0.29
   1 -37   7    6.33    0.31
   1  37  -7    7.00    0.31
  -1  37   7    6.95    0.30
   1  37  -7    6.29    0.29
   1  37   7    6.66    0.29
  -1  37  -7    6.45    0.30
   1 -37  -7    6.47    0.28
  -1 -37   7    6.39    0.31
  -1  37  -7    6.27    0.28
   1  37  -9    0.55    0.11
   1 -37   9    0.46    0.11
  -1 -37  -9    0.70    0.11
   1  37  -9    0.50    0.12
  -1  37   9    0.87    0.12
   1 -37  -9    0.63    0.11
  -1  37  -9    0.71    0.11
  -1 -37   9    0.54    0.12
  -1  37  -9    0.50    0.12
   1  37   9    0.66    0.11
   1  37 -11    0.55    0.14
  -1 -37 -11    0.54    0.12
   1 -37  11    0.30    0.11
   1 -37 -11    0.43    0.11
  -1  37 -11    0.46    0.13
  -1 -37  11    0.26    0.10
  -1 -37 -13    0.22    0.11
   1 -37  13    0.26    0.12
   1  37 -13    0.45    0.14
  -1 -37  13    0.15    0.12
   1 -37 -13    0.27    0.11
  -1  37 -13    0.44    0.15
  -3  37   1    5.44    0.19
   3 -37   1    5.23    0.24
  -3  37  -1    5.45    0.21
  -3  37  -1    5.56    0.24
   3 -37  -1    5.56    0.23
   3  37   1    5.31    0.24
  -3 -37  -3   17.75    0.60
   3  37  -3   18.01    0.61
   3 -37   3   17.32    0.60
  -3  37   3   18.26    0.62
   3 -37  -3   17.68    0.58
   3  37   3   17.46    0.60
  -3 -37   3   16.75    0.60
  -3  37  -3   17.34    0.60
  -3  37  -3   18.39    0.58
  -3  37   5    4.33    0.23
   3 -37   5    4.34    0.23
  -3 -37  -5    4.52    0.23
   3  37  -5    4.66    0.23
   3 -37  -5    4.38    0.21
  -3  37  -5    4.28    0.21
   3  37   5    4.93    0.22
  -3  37  -5    4.58    0.22
  -3 -37   5    4.51    0.23
   3  37  -7    0.70    0.11
  -3 -37  -7    0.83    0.12
  -3  37   7    0.54    0.10
   3 -37   7    0.75    0.12
  -3  37  -7    0.82    0.12
   3  37   7    0.86    0.11
  -3  37  -7    0.85    0.10
   3 -37  -7    0.67    0.10
  -3 -37   7    0.48    0.10
  -3  37   9    0.61    0.11
   3  37  -9    0.48    0.11
   3  37  -9    0.52    0.12
   3 -37   9    0.59    0.13
  -3 -37  -9    0.68    0.12
   3 -37  -9    0.49    0.10
  -3 -37   9    0.36    0.11
  -3  37  -9    0.50    0.12
  -3  37  11    0.68    0.13
  -3 -37 -11    0.46    0.11
   3  37 -11    0.86    0.14
   3  37 -11    0.77    0.15
   3 -37  11    0.57    0.14
  -3  37 -11    0.78    0.15
  -3 -37  11    0.73    0.15
   3 -37 -11    0.89    0.13
   3  37 -13    0.15    0.14
  -3 -37 -13    0.45    0.12
   3 -37  13    0.46    0.14
  -3  37 -13    0.43    0.15
  -3 -37  13    0.30    0.12
  -5 -37  -1   16.62    0.61
   5 -37   1   18.27    0.60
   5  37  -1   19.08    0.64
  -5  37   1   18.64    0.63
  -5 -37  -1   18.15    0.56
   5  37   1   18.85    0.63
  -5 -37   1   17.75    0.62
  -5  37  -1   18.65    0.58
  -5 -37   1   18.26    0.58
  -5  37  -1   18.63    0.62
   5 -37  -1   17.20    0.59
   5 -37   3    4.21    0.21
  -5 -37  -3    3.03    0.19
  -5 -37   3    4.17    0.22
   5 -37  -3    4.18    0.19
  -5  37  -3    4.03    0.20
  -5  37  -3    4.50    0.19
   5  37   3    4.03    0.20
  -5  37   5   12.78    0.48
   5  37  -5   13.08    0.48
   5 -37   5   12.86    0.47
  -5 -37  -5   12.83    0.47
  -5  37  -5   12.61    0.45
  -5 -37   5   11.89    0.47
   5  37   5   12.67    0.46
   5 -37  -5   12.39    0.43
  -5  37  -5   12.29    0.45
  -5  37   7    0.89    0.13
  -5 -37  -7    0.73    0.12
   5 -37   7    0.85    0.13
   5  37  -7    1.05    0.14
  -5 -37   7    0.86    0.13
   5  37   7    0.66    0.10
   5 -37  -7    0.93    0.11
  -5  37  -7    0.90    0.12
  -5  37  -7    0.98    0.11
   5  37  -9    0.40    0.11
  -5  37   9    0.30    0.10
  -5 -37  -9    0.39    0.10
   5 -37   9    0.22    0.10
  -5  37  -9    0.60    0.12
  -5 -37   9    0.33    0.10
  -5  37  11    1.81    0.19
   5  37 -11    1.41    0.19
   5  37 -11    1.33    0.17
   5 -37  11    1.23    0.17
  -5 -37 -11    1.65    0.18
  -5  37 -11    1.45    0.19
  -5 -37  11    1.43    0.18
  -5 -37 -13    0.33    0.12
   5  37 -13    0.23    0.14
   5 -37  13    0.34    0.13
  -5  37 -13    0.49    0.16
  -5 -37  13    0.22    0.12
  -7  37   1    3.45    0.16
   7  37  -1    3.40    0.20
  -7 -37  -1    3.43    0.16
   7 -37   1    3.68    0.18
  -7  37   1    3.41    0.20
  -7 -37  -1    3.22    0.19
   7 -37  -1    3.13    0.17
   7  37   1    3.51    0.19
  -7 -37   1    3.32    0.19
  -7  37  -1    3.52    0.17
  -7 -37   1    3.69    0.18
  -7  37  -1    3.76    0.20
   7  37  -3    2.37    0.17
   7 -37   3    2.14    0.15
  -7 -37  -3    2.18    0.16
  -7  37   3    2.55    0.17
  -7 -37   3    1.92    0.17
   7 -37  -3    2.16    0.13
   7  37   3    2.24    0.16
  -7 -37   3    2.18    0.16
  -7  37  -3    2.18    0.15
  -7  37  -3    2.19    0.15
   7  37  -5    0.68    0.12
   7 -37   5    0.74    0.11
  -7 -37  -5    0.75    0.11
  -7  37   5    0.54    0.11
  -7  37  -5    0.85    0.10
  -7 -37   5    0.68    0.11
  -7  37  -5    0.93    0.11
   7  37   5    0.73    0.10
  -7  37   7    0.32    0.11
  -7 -37  -7    0.45    0.10
   7 -37   7    0.28    0.09
   7  37  -7    0.15    0.10
  -7 -37   7    0.45    0.10
  -7  37  -7    0.30    0.10
   7  37  -9    0.60    0.13
   7 -37   9    0.51    0.12
  -7 -37  -9    0.55    0.12
  -7  37   9    0.65    0.13
  -7 -37   9    0.62    0.13
  -7  37  -9    0.64    0.12
  -7 -37 -11    0.54    0.12
   7 -37  11    0.33    0.12
  -7  37  11    0.38    0.13
   7  37 -11    0.27    0.12
  -7 -37  11    0.52    0.12
  -7  37 -11    0.43    0.13
   7 -37  13    0.28    0.13
   7  37 -13    0.28    0.14
  -7 -37 -13    0.32    0.12
  -7 -37  13    0.26    0.12
   9  37  -1    0.09    0.08
  -9 -37  -1   -0.03    0.07
  -9  37   1    0.00    0.07
  -9  37   1    0.01    0.06
  -9 -37  -1   -0.08    0.05
   9 -37   1   -0.03    0.06
  -9  37  -1   -0.01    0.06
  -9 -37   1   -0.04    0.06
   9  37   1    0.02    0.08
  -9 -37   1    0.11    0.08
  -9  37  -1   -0.05    0.06
  -9  37   3    4.72    0.26
   9 -37   3    4.74    0.23
   9  37  -3    4.83    0.26
  -9 -37  -3    4.96    0.25
  -9  37   3    4.89    0.22
  -9 -37   3    4.63    0.25
  -9  37  -3    5.23    0.24
  -9 -37   3    4.73    0.25
   9  37   3    5.22    0.24
  -9  37  -3    5.31    0.24
   9 -37   5    1.50    0.14
  -9  37   5    1.41    0.16
  -9 -37  -5    1.49    0.15
   9  37  -5    1.34    0.15
  -9  37  -5    1.49    0.13
   9  37   5    1.35    0.12
  -9 -37   5    1.64    0.16
  -9  37  -5    1.85    0.16
  -9 -37   5    1.63    0.16
  -9  37   7    0.08    0.10
   9 -37   7    0.16    0.09
  -9 -37  -7    0.25    0.09
   9  37  -7    0.23    0.10
  -9 -37   7    0.29    0.09
  -9  37  -7    0.31    0.10
  -9  37   9    0.23    0.12
   9  37  -9    0.49    0.12
   9 -37   9    0.27    0.11
  -9 -37  -9    0.23    0.10
  -9  37  -9    0.25    0.11
  -9 -37   9    0.37    0.11
   9 -37  11    0.72    0.15
  -9 -37 -11    0.77    0.14
  -9  37  11    0.61    0.15
   9  37 -11    0.62    0.14
  -9  37 -11    0.85    0.16
  -9 -37  11    0.49    0.13
  -9  37  13    0.28    0.15
   9  37 -13   -0.01    0.13
  11  37  -1    1.35    0.14
 -11 -37  -1    1.34    0.14
 -11  37   1    1.18    0.12
 -11 -37  -1    1.08    0.12
 -11  37   1    1.10    0.13
 -11  37  -1    1.14    0.13
 -11  37  -1    1.03    0.12
 -11 -37   1    1.21    0.13
 -11 -37   1    1.35    0.14
  11  37   1    1.32    0.14
 -11 -37  -3    0.63    0.11
 -11  37   3    0.69    0.10
  11  37  -3    0.58    0.12
 -11  37   3    0.68    0.12
 -11 -37   3    0.68    0.11
 -11  37  -3    0.68    0.10
 -11 -37   3    0.83    0.13
  11  37   3    0.81    0.11
 -11  37  -3    0.78    0.11
  11 -37   5   -0.06    0.06
 -11  37   5   -0.09    0.08
 -11 -37  -5    0.06    0.08
  11  37  -5    0.14    0.09
 -11 -37   5    0.10    0.09
 -11  37  -5   -0.02    0.07
 -11 -37   5    0.11    0.08
 -11  37   7    1.15    0.16
  11  37  -7    1.06    0.15
 -11 -37  -7    1.01    0.14
  11 -37   7    1.42    0.15
 -11 -37   7    1.18    0.15
 -11 -37   7    1.37    0.17
 -11  37  -7    1.37    0.16
  11  37  -9    0.50    0.13
  11 -37   9    0.41    0.12
 -11  37   9    0.19    0.11
 -11 -37  -9    0.25    0.11
 -11  37  -9    0.30    0.12
  11  37 -11    0.56    0.14
 -11 -37 -11    0.47    0.13
 -11  37  11    0.25    0.14
 -11  37 -11    0.98    0.17
 -13 -37  -1    1.02    0.13
 -13  37   1    0.93    0.13
  13  37  -1    1.26    0.15
 -13  37   1    1.23    0.13
 -13 -37  -1    1.28    0.15
 -13  37  -1    1.30    0.14
 -13  37  -1    1.23    0.13
 -13 -37   1    1.26    0.14
 -13 -37   1    1.05    0.13
  13  37   1    1.15    0.14
 -13  37   3    0.08    0.09
 -13  37   3    0.33    0.09
  13  37  -3    0.24    0.10
 -13 -37  -3    0.25    0.09
 -13  37  -3    0.41    0.11
 -13 -37   3   -0.03    0.08
 -13 -37   3    0.40    0.10
 -13 -37  -5    2.16    0.18
 -13  37   5    1.70    0.19
  13  37  -5    1.78    0.19
 -13  37  -5    2.19    0.19
 -13 -37   5    2.09    0.17
 -13 -37   5    2.06    0.21
 -13  37   7    0.16    0.11
  13  37  -7    0.34    0.11
 -13 -37  -7    0.08    0.10
 -13 -37   7    0.29    0.12
 -13  37  -7    0.20    0.11
  13  37  -9    1.03    0.18
 -13 -37  -9    1.13    0.17
 -13  37   9    1.19    0.19
 -13  37  -9    1.13    0.17
 -15 -37  -1   -0.07    0.07
  15  37  -1   -0.09    0.09
 -15  37   1    0.02    0.08
 -15  37   1   -0.08    0.08
 -15  37  -1    0.03    0.08
 -15 -37   1    0.01    0.09
 -15 -37   1    0.13    0.09
 -15  37  -1    0.09    0.09
  15  37   1    0.09    0.09
 -15  37   3    0.19    0.10
 -15  37   3    0.19    0.10
  15  37  -3    0.22    0.11
 -15 -37  -3    0.20    0.09
 -15  37  -3    0.11    0.10
 -15 -37   3    0.00    0.10
 -15 -37  -5    0.24    0.10
  15  37  -5    0.48    0.13
 -15  37   5    0.40    0.12
 -15  37  -5    0.36    0.12
 -15 -37   5    0.47    0.14
  15  37  -7    0.26    0.13
 -15  37   7    0.36    0.13
 -15 -37  -7    0.24    0.11
 -15  37  -7    0.09    0.11
 -15 -37   7    0.31    0.14
 -15 -37  -9    0.03    0.11
 -15  37   9    0.12    0.12
  15  37  -9   -0.03    0.09
 -15  37  -9    0.16    0.12
  17  37  -1    0.13    0.11
 -17  37   1    0.29    0.11
 -17  37   1    0.10    0.10
 -17  37  -1    0.07    0.11
 -17 -37   1    0.13    0.11
  17  37  -3    0.52    0.14
 -17  37   3    0.72    0.14
 -17  37   3    0.64    0.15
 -17  37  -3    0.45    0.13
 -17 -37   3    0.44    0.13
 -17  37   5    0.21    0.12
  17  37  -5    0.26    0.12
 -17 -37  -5    0.00    0.09
 -17  37  -5    0.23    0.11
 -17 -37   5   -0.07    0.11
 -17 -37  -7   -0.11    0.09
  17  37  -7   -0.08    0.09
 -17  37   7    0.11    0.12
 -17 -37   7   -0.01    0.11
 -17  37  -7    0.02    0.11
 -19  37   1    0.38    0.13
 -19 -37   1    0.10    0.12
 -19  37  -1   -0.06    0.11
 -19  37   3    0.55    0.15
  19  37  -3    0.42    0.14
 -19  37  -3    0.41    0.14
 -19 -37   3    0.79    0.17
  19  37  -5   -0.08    0.11
 -19  37   5    0.12    0.12
 -19  37  -5    0.16    0.12
 -19 -37   5   -0.01    0.13
 -21  37   1    0.05    0.12
 -21  37   3    0.43    0.15
   0  38   0   -0.04    0.03
   0 -38   0    0.09    0.05
   0  38   0    0.01    0.01
   0 -38   2   11.88    0.45
   0  38  -2   12.64    0.41
   0  38   2   12.19    0.45
   0  38  -2   12.52    0.45
   0 -38  -2   12.45    0.44
   0 -38   4   -0.05    0.05
   0  38  -4    0.01    0.06
   0  38  -4    0.01    0.05
   0 -38  -4    0.03    0.05
   0  38   4   -0.03    0.05
   0  38  -6   13.37    0.49
   0 -38   6   13.60    0.51
   0 -38  -6   13.06    0.48
   0  38  -6   13.57    0.48
   0  38   6   13.52    0.50
   0 -38   8    0.02    0.07
   0  38  -8   -0.03    0.07
   0  38   8    0.00    0.07
   0  38  -8   -0.08    0.08
   0 -38  -8    0.01    0.07
   0  38 -10    0.33    0.12
   0 -38 -10    0.14    0.09
   0 -38  10    0.27    0.10
   0 -38  12    0.17    0.11
   0 -38 -12   -0.07    0.08
   0  38 -12    0.01    0.11
   0 -38 -14    0.02    0.10
  -2 -38   0   20.71    0.74
   2  38   0   24.20    0.69
  -2  38   0   24.28    0.69
  -2  38   0   24.04    0.77
   2  38   0   20.64    0.75
   2 -38   0   23.71    0.74
   2  38  -2    0.68    0.07
  -2 -38  -2    0.78    0.10
   2 -38   2    0.71    0.10
   2  38   2    0.59    0.09
  -2  38  -2    0.63    0.09
  -2  38  -2    0.78    0.08
   2 -38  -2    0.69    0.09
   2 -38   4    7.32    0.31
   2  38  -4    7.73    0.29
   2  38  -4    7.32    0.31
  -2  38   4    7.42    0.31
  -2 -38  -4    7.67    0.31
   2  38   4    7.23    0.30
  -2 -38   4    7.16    0.31
  -2  38  -4    6.92    0.29
  -2  38  -4    7.28    0.28
   2 -38  -4    6.78    0.28
   2  38  -6    0.06    0.07
  -2  38   6    0.16    0.08
  -2 -38  -6    0.14    0.07
   2 -38   6    0.16    0.08
   2  38  -6    0.07    0.08
   2 -38  -6    0.13    0.07
  -2  38  -6    0.19    0.07
  -2 -38   6    0.15    0.07
  -2  38  -6    0.14    0.08
   2  38   6    0.18    0.07
   2 -38   8    3.10    0.21
  -2  38   8    3.23    0.20
   2  38  -8    2.95    0.19
   2  38  -8    2.97    0.21
  -2 -38  -8    3.14    0.20
   2 -38  -8    3.18    0.19
  -2 -38   8    3.01    0.21
  -2  38  -8    2.85    0.20
  -2  38  -8    2.87    0.18
   2  38   8    3.30    0.19
  -2  38  10    0.35    0.10
   2  38 -10    0.43    0.12
   2 -38  10    0.28    0.10
   2  38 -10    0.23    0.10
  -2 -38 -10    0.30    0.10
  -2 -38  10    0.48    0.12
  -2  38 -10    0.65    0.13
   2 -38 -10    0.52    0.11
   2 -38  12    0.12    0.11
   2  38 -12    0.10    0.11
  -2 -38 -12    0.30    0.11
   2 -38 -12    0.06    0.09
  -2 -38  12   -0.04    0.10
  -2  38 -12    0.09    0.11
  -2 -38 -14    0.22    0.10
  -4  38   0    0.05    0.02
   4 -38   0    0.01    0.05
   4  38   0    0.19    0.07
  -4 -38   0   -0.01    0.02
  -4  38   0   -0.01    0.06
   4 -38   2    5.21    0.24
  -4 -38   2    5.19    0.25
  -4  38  -2    5.73    0.25
   4  38   2    5.04    0.24
   4 -38  -2    5.61    0.23
  -4  38  -2    5.61    0.22
  -4 -38  -4    3.57    0.20
  -4  38   4    3.70    0.20
   4  38  -4    3.85    0.22
   4 -38   4    3.35    0.20
  -4  38  -4    3.51    0.18
   4  38   4    3.47    0.19
  -4  38  -4    3.78    0.19
  -4 -38   4    3.70    0.21
   4 -38  -4    3.67    0.18
  -4  38   6    0.72    0.11
  -4 -38  -6    0.80    0.11
   4 -38   6    0.66    0.11
   4  38  -6    0.78    0.12
  -4  38  -6    0.88    0.11
  -4 -38   6    0.87    0.12
   4  38   6    0.85    0.10
  -4  38  -6    0.69    0.10
   4 -38  -6    0.76    0.10
   4 -38   8    0.73    0.13
  -4 -38  -8    0.69    0.12
  -4  38   8    0.68    0.12
   4  38  -8    0.49    0.11
   4 -38  -8    0.76    0.11
  -4 -38   8    0.70    0.12
  -4  38  -8    0.80    0.13
  -4 -38 -10    0.23    0.10
   4  38 -10    0.37    0.11
   4 -38  10    0.26    0.11
   4  38 -10    0.04    0.11
  -4  38  10    0.30    0.10
  -4 -38  10    0.29    0.11
  -4  38 -10    0.24    0.11
  -4 -38 -12    0.60    0.13
   4 -38  12    0.52    0.14
   4  38 -12    0.44    0.14
  -4 -38  12    0.45    0.13
  -4  38 -12    0.64    0.16
  -6  38   0    6.82    0.29
  -6 -38   0    6.62    0.30
   6  38   0    6.81    0.29
   6 -38   0    6.90    0.27
  -6 -38   0    6.49    0.25
  -6  38   0    6.85    0.25
  -6 -38  -2   13.35    0.47
  -6  38   2   12.51    0.41
  -6  38   2   12.55    0.47
   6 -38   2   12.16    0.44
   6  38  -2   12.99    0.47
  -6  38  -2   12.49    0.46
  -6 -38   2   12.41    0.47
   6 -38  -2   12.49    0.43
  -6  38  -2   12.54    0.43
   6  38   2   12.26    0.46
  -6 -38   2   11.71    0.43
   6 -38   4    1.24    0.13
   6  38  -4    1.07    0.13
  -6  38   4    1.04    0.13
  -6 -38  -4    1.04    0.12
   6 -38  -4    1.14    0.11
  -6  38  -4    1.25    0.12
  -6  38  -4    1.36    0.12
   6  38   4    1.29    0.12
  -6 -38   4    1.22    0.13
   6 -38   6    5.77    0.28
   6  38  -6    5.83    0.29
  -6  38   6    5.90    0.29
  -6 -38  -6    6.07    0.28
  -6  38  -6    6.12    0.28
   6 -38  -6    5.89    0.25
   6  38   6    5.85    0.26
  -6  38  -6    6.50    0.27
  -6 -38   6    5.72    0.29
   6 -38   8    0.99    0.14
  -6 -38  -8    0.83    0.13
   6  38  -8    0.89    0.14
  -6  38   8    0.93    0.14
  -6  38  -8    0.85    0.13
  -6 -38   8    0.84    0.13
  -6 -38 -10    0.48    0.11
  -6  38  10    0.66    0.13
   6  38 -10    0.86    0.14
   6 -38  10    0.72    0.14
  -6 -38  10    0.79    0.14
  -6  38 -10    0.59    0.13
   6  38 -12    0.31    0.13
  -6 -38 -12    0.47    0.12
  -6  38  12    0.31    0.13
   6  38 -12    0.41    0.14
   6 -38  12    0.29    0.13
  -6 -38  12    0.41    0.13
  -6  38 -12    0.56    0.14
  -8 -38   0   26.81    0.82
  -8  38   0   26.47    0.87
   8 -38   0   26.28    0.82
  -8  38   0   25.73    0.82
  -8 -38   0   25.87    0.86
   8  38   0   25.33    0.87
   8 -38   2    4.77    0.22
  -8  38   2    4.03    0.19
  -8  38   2    4.13    0.24
  -8 -38  -2    4.51    0.24
   8  38  -2    4.89    0.25
  -8  38  -2    5.00    0.22
  -8 -38   2    4.60    0.22
   8 -38  -2    4.39    0.20
  -8  38  -2    4.14    0.22
  -8 -38   2    4.30    0.24
   8  38   2    4.42    0.23
  -8 -38  -4    5.58    0.27
  -8  38   4    5.51    0.28
   8  38  -4    6.02    0.29
   8 -38   4    5.30    0.26
  -8  38  -4    5.35    0.25
  -8 -38   4    5.80    0.28
  -8  38  -4    5.86    0.26
  -8 -38   4    5.61    0.27
   8  38   4    5.66    0.25
   8 -38   6    1.76    0.17
   8  38  -6    1.96    0.18
  -8 -38  -6    1.71    0.16
  -8  38   6    1.78    0.17
  -8 -38   6    1.45    0.15
  -8  38  -6    1.59    0.15
  -8 -38  -8    0.47    0.11
   8 -38   8    0.44    0.11
   8  38  -8    0.47    0.12
  -8  38   8    0.54    0.12
  -8 -38   8    0.49    0.11
  -8  38  -8    0.56    0.12
  -8 -38 -10    0.20    0.10
   8 -38  10    0.34    0.11
  -8  38  10    0.39    0.13
   8  38 -10    0.14    0.11
  -8  38 -10    0.09    0.10
  -8 -38  10    0.16    0.10
   8  38 -12   -0.09    0.11
  -8 -38 -12    0.17    0.09
  -8  38  12    0.14    0.12
   8 -38  12    0.06    0.11
  -8  38 -12   -0.01    0.12
  -8 -38  12   -0.06    0.09
 -10  38   0    0.13    0.07
 -10 -38   0    0.00    0.07
  10  38   0    0.04    0.08
 -10  38   0    0.03    0.07
 -10 -38   0    0.00    0.06
 -10 -38  -2    1.13    0.13
  10 -38   2    0.90    0.10
  10  38  -2    1.06    0.13
 -10  38   2    1.02    0.11
 -10  38   2    0.97    0.13
  10  38   2    0.95    0.12
 -10  38  -2    0.98    0.12
 -10 -38   2    0.98    0.12
 -10  38  -2    1.07    0.12
 -10 -38   2    0.89    0.12
  10 -38   4    0.43    0.09
 -10  38   4    0.13    0.09
 -10 -38  -4    0.24    0.08
  10  38  -4    0.13    0.09
 -10 -38   4    0.31    0.10
 -10 -38   4    0.36    0.09
  10  38   4    0.20    0.08
 -10  38  -4    0.28    0.08
 -10  38  -4    0.34    0.08
  10  38  -6    1.08    0.15
 -10  38   6    1.29    0.16
 -10 -38  -6    1.38    0.15
  10 -38   6    1.34    0.14
 -10  38  -6    1.53    0.15
 -10 -38   6    1.21    0.15
 -10 -38   6    1.39    0.17
 -10  38   8    2.27    0.22
 -10 -38  -8    2.53    0.20
  10  38  -8    2.27    0.21
  10 -38   8    2.19    0.18
 -10 -38   8    2.15    0.20
 -10  38  -8    2.41    0.20
  10  38 -10    0.05    0.11
  10 -38  10    0.04    0.09
 -10 -38 -10    0.11    0.10
 -10  38  10   -0.03    0.10
 -10  38 -10   -0.09    0.10
 -10 -38  10    0.07    0.10
 -10  38  12    0.16    0.12
  10  38 -12    0.04    0.12
 -12  38   0    0.03    0.08
 -12  38   0    0.11    0.07
  12  38   0   -0.09    0.08
 -12 -38   0    0.02    0.07
 -12 -38   0    0.02    0.07
  12  38  -2    1.15    0.14
 -12  38   2    1.27    0.15
 -12 -38  -2    1.31    0.14
 -12  38   2    1.23    0.13
 -12 -38   2    1.51    0.16
 -12  38  -2    1.35    0.14
  12  38   2    1.20    0.13
 -12 -38   2    1.16    0.14
 -12  38  -2    1.16    0.13
  12  38  -4    3.64    0.24
 -12 -38  -4    3.33    0.22
 -12  38   4    3.64    0.23
 -12  38  -4    3.72    0.22
 -12 -38   4    3.93    0.24
 -12 -38   4    3.81    0.23
  12 -38   6    0.59    0.11
 -12 -38  -6    0.65    0.12
  12  38  -6    0.83    0.14
 -12  38   6    0.58    0.13
 -12 -38   6    0.76    0.12
 -12  38  -6    0.63    0.12
 -12 -38   6    0.62    0.13
 -12 -38  -8    0.33    0.11
  12  38  -8    0.40    0.12
  12 -38   8    0.30    0.11
 -12  38   8    0.36    0.13
 -12  38  -8    0.26    0.12
 -12  38  10    0.44    0.14
  12  38 -10    0.39    0.14
 -12 -38 -10    0.82    0.15
 -12  38 -10    0.66    0.15
 -14  38   0    0.40    0.11
 -14 -38   0    0.40    0.10
 -14  38   0    0.39    0.10
  14  38   0    0.37    0.10
 -14 -38   0    0.45    0.10
 -14  38   2    1.84    0.18
 -14 -38  -2    2.07    0.17
 -14  38   2    1.94    0.18
  14  38  -2    1.96    0.19
 -14 -38   2    2.07    0.19
 -14  38  -2    1.64    0.16
 -14 -38   2    1.77    0.18
 -14  38  -2    1.92    0.18
  14  38   2    1.61    0.16
 -14 -38  -4    1.23    0.15
 -14  38   4    1.11    0.15
  14  38  -4    0.78    0.14
 -14  38  -4    0.96    0.14
 -14 -38   4    1.15    0.17
 -14  38   6    3.70    0.26
 -14 -38  -6    3.43    0.24
  14  38  -6    3.47    0.25
 -14 -38   6    3.76    0.27
 -14  38  -6    4.10    0.25
 -14 -38  -8    0.16    0.11
  14  38  -8    0.14    0.12
 -14  38   8    0.01    0.11
 -14  38  -8    0.16    0.11
 -14 -38   8    0.10    0.12
 -14 -38 -10    0.12    0.11
  16  38   0    0.19    0.11
 -16  38   0    0.44    0.12
 -16  38   0    0.39    0.11
 -16 -38   0    0.25    0.10
 -16  38   2    0.52    0.12
 -16 -38  -2    0.14    0.10
 -16  38   2    0.43    0.12
  16  38  -2    0.42    0.12
 -16 -38   2    0.14    0.10
 -16  38  -2    0.40    0.12
 -16 -38  -4    1.58    0.18
 -16  38   4    1.42    0.19
  16  38  -4    1.49    0.18
 -16 -38   4    1.17    0.18
 -16  38  -4    1.25    0.17
 -16  38   6    0.44    0.14
  16  38  -6    0.54    0.15
 -16 -38  -6    0.38    0.12
 -16  38  -6    0.46    0.14
 -16 -38   6    0.23    0.13
  16  38  -8    0.17    0.13
 -16 -38  -8    0.17    0.12
 -16  38   8    0.16    0.13
 -16  38  -8    0.40    0.14
 -16 -38   8    0.27    0.14
 -18  38   0    0.13    0.11
 -18  38   2    0.21    0.12
 -18  38   2    0.21    0.12
  18  38  -2    0.07    0.12
 -18 -38   2    0.36    0.14
 -18  38  -2    0.06    0.11
 -18  38   4    0.07    0.12
  18  38  -4   -0.01    0.11
 -18  38  -4    0.15    0.12
 -18 -38   4    0.18    0.12
  18  38  -6    0.01    0.12
 -18  38   6   -0.08    0.10
 -18  38  -6    0.08    0.12
 -18 -38   6   -0.15    0.11
 -20  38   0    0.03    0.12
  20  38  -2    0.21    0.13
 -20  38   2    0.16    0.13
 -20  38  -2    0.29    0.14
 -20 -38   2   -0.05    0.11
 -20  38   4   -0.06    0.12
  20  38  -4   -0.19    0.11
 -20 -38   4   -0.04    0.12
   1 -39   1    2.11    0.15
  -1 -39  -1    2.31    0.15
   1  39   1    1.96    0.14
   1 -39  -1    2.21    0.14
  -1 -39   1    2.30    0.15
  -1  39  -1    2.01    0.14
   1  39  -3    1.55    0.11
  -1  39   3    1.43    0.12
   1  39  -3    1.26    0.12
  -1 -39  -3    1.54    0.12
   1 -39   3    1.24    0.12
  -1  39  -3    1.46    0.11
  -1  39  -3    1.49    0.13
   1 -39  -3    1.52    0.12
   1  39   3    1.26    0.12
  -1  39   5    0.49    0.09
   1  39  -5    0.50    0.10
   1  39  -5    0.64    0.09
   1 -39   5    0.50    0.09
  -1 -39  -5    0.74    0.10
   1 -39  -5    0.55    0.09
   1  39   5    0.46    0.09
  -1 -39   5    0.43    0.09
  -1  39  -5    0.54    0.09
  -1  39  -5    0.59    0.09
  -1  39   7    0.35    0.08
   1  39  -7    0.14    0.09
   1 -39   7    0.15    0.08
   1  39  -7    0.15    0.08
  -1 -39  -7    0.33    0.09
  -1 -39   7    0.21    0.09
   1 -39  -7    0.38    0.09
   1  39   7    0.35    0.08
  -1  39  -7    0.28    0.09
  -1  39  -7    0.20    0.08
  -1 -39  -9    0.39    0.10
   1  39  -9    0.37    0.11
  -1  39   9    0.34    0.10
   1 -39   9    0.21    0.09
   1  39  -9    0.41    0.10
  -1 -39   9    0.30    0.10
   1 -39  -9    0.35    0.09
  -1  39  -9    0.34    0.09
  -1  39  -9    0.44    0.11
   1  39   9    0.23    0.09
   1  39 -11    0.61    0.15
   1 -39  11    0.60    0.13
  -1 -39 -11    0.46    0.11
   1 -39 -11    0.44    0.11
  -1 -39  11    0.60    0.13
  -1  39 -11    0.41    0.14
   1  39 -13    0.22    0.13
   1 -39  13    0.14    0.12
  -1 -39 -13    0.15    0.11
  -1  39 -13    0.24    0.14
  -1 -39  13    0.00    0.10
   1 -39 -13   -0.04    0.09
   3 -39   1   13.53    0.47
  -3  39  -1   14.15    0.43
  -3  39  -1   12.16    0.47
   3 -39  -1   12.89    0.46
   3  39   1   13.80    0.48
  -3  39   3    2.43    0.17
   3  39  -3    2.18    0.17
  -3 -39  -3    2.63    0.16
   3 -39   3    2.42    0.17
   3 -39  -3    2.59    0.15
  -3  39  -3    3.10    0.15
  -3  39  -3    2.77    0.16
   3  39   3    2.86    0.17
  -3 -39   3    2.47    0.17
  -3 -39  -5    2.26    0.17
   3 -39   5    2.31    0.16
  -3  39   5    2.40    0.16
   3  39  -5    2.37    0.18
  -3 -39   5    2.31    0.17
  -3  39  -5    2.29    0.15
  -3  39  -5    2.06    0.15
   3  39   5    2.52    0.16
   3 -39  -5    2.44    0.15
  -3  39   7    0.10    0.08
   3  39  -7    0.18    0.09
  -3 -39  -7    0.17    0.09
   3 -39   7    0.11    0.09
   3  39  -7   -0.03    0.08
   3 -39  -7    0.08    0.07
  -3  39  -7    0.18    0.09
  -3 -39   7    0.18    0.09
  -3  39  -7    0.20    0.07
   3  39   7    0.12    0.07
   3  39  -9    0.74    0.12
   3  39  -9    0.84    0.14
  -3  39   9    0.72    0.13
  -3 -39  -9    0.44    0.11
   3 -39   9    0.56    0.13
  -3  39  -9    0.78    0.14
   3 -39  -9    0.81    0.11
  -3 -39   9    0.68    0.13
  -3  39  11    0.35    0.11
   3  39 -11    0.66    0.15
  -3 -39 -11    0.50    0.11
   3 -39  11    0.35    0.11
   3  39 -11    0.48    0.12
  -3 -39  11    0.61    0.13
  -3  39 -11    0.49    0.14
   3 -39 -11    0.32    0.10
   3  39 -13   -0.05    0.12
  -3 -39 -13   -0.03    0.10
   3 -39  13   -0.04    0.10
  -3  39 -13   -0.06    0.12
  -3 -39  13   -0.02    0.10
  -5  39   1    3.65    0.20
   5 -39   1    3.76    0.19
  -5 -39  -1    3.39    0.19
   5  39  -1    3.59    0.20
   5  39   1    3.50    0.19
   5 -39  -1    3.43    0.18
  -5  39  -1    3.71    0.17
  -5  39  -1    3.52    0.19
  -5 -39   1    3.88    0.21
  -5  39   3    5.18    0.25
   5  39  -3    4.92    0.25
  -5 -39  -3    4.99    0.24
   5 -39   3    5.48    0.25
  -5  39  -3    5.08    0.22
  -5 -39   3    5.12    0.26
  -5  39  -3    5.13    0.24
   5 -39  -3    5.22    0.23
   5  39   3    4.96    0.24
   5 -39   5    0.46    0.10
  -5 -39  -5    0.34    0.08
   5  39  -5    0.21    0.09
  -5  39   5    0.34    0.10
  -5  39  -5    0.38    0.08
  -5 -39   5    0.25    0.08
   5 -39  -5    0.24    0.07
  -5  39  -5    0.39    0.09
   5  39   5    0.38    0.08
  -5 -39  -7    5.28    0.27
   5  39  -7    5.54    0.28
  -5  39   7    5.31    0.28
   5 -39   7    5.62    0.29
  -5  39  -7    4.96    0.24
  -5  39  -7    5.51    0.27
   5 -39  -7    5.37    0.24
   5  39   7    5.49    0.26
  -5 -39   7    5.61    0.28
   5 -39   9    0.09    0.09
  -5 -39  -9    0.20    0.09
  -5  39   9    0.13    0.10
   5  39  -9    0.18    0.10
  -5  39  -9    0.24    0.10
  -5 -39   9    0.21    0.09
  -5  39  11    0.38    0.13
  -5 -39 -11    0.25    0.11
   5  39 -11    0.34    0.13
   5  39 -11    0.40    0.12
   5 -39  11    0.44    0.12
  -5  39 -11    0.39    0.13
  -5 -39  11    0.52    0.13
  -5 -39 -13    0.12    0.10
   5 -39  13   -0.06    0.10
   5  39 -13    0.15    0.13
  -5  39 -13    0.18    0.13
  -5 -39  13    0.04    0.11
  -7 -39  -1    2.10    0.16
   7  39  -1    2.00    0.16
   7 -39   1    2.36    0.15
  -7  39   1    2.17    0.16
  -7  39   1    2.05    0.13
   7 -39  -1    2.17    0.13
  -7  39  -1    2.12    0.13
   7  39   1    1.86    0.15
  -7 -39   1    2.09    0.17
  -7  39  -1    2.01    0.15
  -7 -39   1    1.96    0.14
   7 -39   3    2.99    0.18
   7  39  -3    2.94    0.19
  -7  39   3    3.24    0.20
  -7 -39  -3    2.89    0.18
  -7 -39   3    3.15    0.20
  -7 -39   3    2.75    0.18
  -7  39  -3    2.93    0.17
   7  39   3    2.88    0.18
   7 -39  -3    2.82    0.16
  -7  39  -3    3.29    0.18
   7  39  -5    1.01    0.13
   7 -39   5    1.14    0.13
  -7  39   5    1.01    0.13
  -7 -39  -5    0.87    0.12
   7  39   5    0.90    0.11
  -7  39  -5    0.90    0.12
  -7  39  -5    1.01    0.11
  -7 -39   5    0.85    0.12
   7 -39   7    0.05    0.09
   7  39  -7    0.17    0.10
  -7 -39  -7    0.16    0.08
  -7  39   7    0.26    0.10
  -7  39  -7    0.10    0.08
  -7 -39   7    0.03    0.08
  -7  39   9    0.96    0.15
  -7 -39  -9    1.00    0.14
   7 -39   9    1.05    0.15
   7  39  -9    0.83    0.14
  -7 -39   9    0.79    0.13
  -7  39  -9    0.74    0.13
  -7  39  11    0.16    0.11
  -7 -39 -11    0.19    0.11
   7 -39  11    0.19    0.11
   7  39 -11    0.18    0.12
  -7  39 -11    0.22    0.12
  -7 -39  11   -0.02    0.09
  -7 -39  13    0.49    0.14
  -9 -39  -1    2.01    0.16
   9 -39   1    2.24    0.14
  -9  39   1    2.02    0.16
  -9  39   1    1.95    0.14
   9  39  -1    2.42    0.18
  -9 -39   1    2.36    0.17
  -9  39  -1    2.40    0.16
  -9  39  -1    2.25    0.15
   9  39   1    1.95    0.15
  -9 -39   1    2.22    0.16
   9  39  -3    3.63    0.22
  -9  39   3    3.60    0.22
   9 -39   3    3.65    0.20
  -9 -39  -3    3.21    0.20
  -9 -39   3    3.74    0.22
  -9 -39   3    3.60    0.22
  -9  39  -3    3.86    0.20
  -9  39  -3    3.84    0.20
   9  39   3    3.82    0.21
   9 -39   5    0.11    0.08
   9  39  -5    0.04    0.09
  -9  39   5    0.12    0.08
  -9 -39  -5    0.29    0.09
  -9  39  -5    0.13    0.07
  -9 -39   5    0.03    0.08
  -9 -39   5    0.19    0.08
  -9  39  -5   -0.05    0.07
   9  39   5    0.17    0.07
  -9 -39  -7    0.07    0.08
   9  39  -7   -0.06    0.09
   9 -39   7    0.00    0.08
  -9  39   7    0.04    0.09
  -9 -39   7    0.11    0.08
  -9  39  -7    0.05    0.08
  -9  39   9    0.45    0.13
   9  39  -9    0.38    0.12
   9 -39   9    0.53    0.13
  -9 -39  -9    0.55    0.13
  -9 -39   9    0.45    0.12
  -9  39  -9    0.62    0.13
  -9  39  11   -0.01    0.11
   9  39 -11    0.21    0.12
  -9 -39 -11    0.11    0.10
   9 -39  11    0.21    0.11
  -9 -39  11    0.29    0.12
  -9  39 -11    0.15    0.12
 -11  39   1    2.04    0.16
 -11 -39  -1    2.01    0.16
  11  39  -1    2.12    0.18
 -11  39   1    2.34    0.16
 -11 -39   1    2.20    0.17
  11  39   1    2.24    0.18
 -11 -39   1    2.18    0.16
 -11  39  -1    2.56    0.17
 -11  39  -1    2.30    0.16
 -11 -39  -3    0.06    0.08
 -11  39   3    0.07    0.08
  11  39  -3   -0.03    0.08
 -11 -39   3    0.01    0.08
  11  39   3    0.06    0.07
 -11 -39   3    0.12    0.08
 -11  39  -3    0.03    0.07
 -11  39  -3   -0.01    0.07
 -11 -39  -5    0.50    0.11
  11  39  -5    0.46    0.11
  11 -39   5    0.33    0.09
 -11  39   5    0.36    0.11
 -11 -39   5    0.45    0.10
 -11  39  -5    0.39    0.10
 -11 -39   5    0.23    0.11
 -11  39   7    2.40    0.22
  11  39  -7    2.09    0.20
  11 -39   7    2.23    0.18
 -11 -39  -7    2.04    0.19
 -11 -39   7    2.24    0.19
 -11  39  -7    1.88    0.18
  11  39  -9    0.32    0.12
  11 -39   9    0.22    0.11
 -11  39   9    0.04    0.10
 -11 -39  -9    0.18    0.10
 -11  39  -9    0.15    0.11
  11  39 -11    0.15    0.14
 -11  39  11    0.29    0.14
 -11 -39 -11    0.41    0.13
 -11  39 -11    0.37    0.13
 -13  39   1    0.90    0.13
 -13  39   1    1.12    0.13
  13  39  -1    0.83    0.14
 -13 -39  -1    1.25    0.14
 -13  39  -1    1.09    0.13
 -13 -39   1    1.02    0.13
 -13  39  -1    1.09    0.14
 -13 -39   1    1.09    0.14
  13  39   1    0.96    0.13
  13  39  -3    3.89    0.24
 -13  39   3    3.96    0.25
 -13 -39  -3    3.77    0.23
 -13 -39   3    3.57    0.24
 -13 -39   3    3.47    0.22
 -13  39  -3    3.93    0.23
 -13  39   5    0.50    0.12
 -13 -39  -5    0.29    0.10
  13  39  -5    0.50    0.12
 -13  39  -5    0.56    0.12
 -13 -39   5    0.35    0.10
 -13 -39   5    0.51    0.13
 -13  39   7    0.61    0.14
 -13 -39  -7    0.86    0.14
  13  39  -7    0.60    0.14
 -13  39  -7    0.51    0.13
 -13 -39   7    0.87    0.16
  13  39  -9   -0.04    0.09
 -13  39   9   -0.07    0.11
 -13 -39  -9    0.03    0.10
 -13  39  -9   -0.16    0.10
 -15  39   1    1.51    0.18
 -15 -39  -1    2.18    0.20
 -15  39   1    2.11    0.19
  15  39  -1    1.95    0.19
 -15  39  -1    2.15    0.19
 -15  39  -1    2.03    0.18
  15  39   1    1.85    0.18
 -15 -39   1    2.25    0.20
 -15 -39   1    2.22    0.20
 -15 -39  -3    1.27    0.16
 -15  39   3    1.10    0.15
  15  39  -3    1.21    0.17
 -15 -39   3    1.18    0.16
 -15  39  -3    1.22    0.16
 -15  39   5    2.93    0.23
 -15 -39  -5    3.20    0.22
  15  39  -5    3.00    0.23
 -15  39  -5    2.56    0.23
 -15 -39   5    3.03    0.24
 -15  39   7    0.74    0.16
  15  39  -7    0.54    0.13
 -15 -39  -7    0.44    0.13
 -15  39  -7    0.55    0.14
 -15 -39   7    0.72    0.16
 -15 -39  -9    0.07    0.11
  15  39  -9   -0.03    0.12
 -15  39  -9    0.25    0.13
 -17  39   1    2.01    0.20
 -17  39   1    2.47    0.21
  17  39  -1    2.68    0.22
 -17  39  -1    2.09    0.21
 -17 -39   1    2.31    0.22
  17  39  -3    0.30    0.13
 -17  39   3    0.56    0.14
 -17  39  -3    0.34    0.12
 -17 -39   3    0.14    0.11
 -17  39   5    0.15    0.12
  17  39  -5    0.09    0.12
 -17 -39  -5    0.12    0.10
 -17  39  -5    0.10    0.11
 -17 -39   5    0.24    0.13
 -17  39   7    0.21    0.13
  17  39  -7    0.24    0.14
 -17 -39  -7    0.26    0.12
 -17 -39   7    0.15    0.13
 -17  39  -7    0.31    0.13
 -19  39   1    1.49    0.20
 -19  39  -1    1.52    0.19
  19  39  -3    0.21    0.13
 -19  39   3    0.60    0.15
 -19  39  -3    0.31    0.13
 -19 -39   3    0.40    0.15
  19  39  -5    0.07    0.12
 -19  39   5    0.02    0.11
 -19 -39   5    0.24    0.13
 -19  39  -5    0.04    0.12
 -21  39   1    0.25    0.13
   0  40   2    0.11    0.07
   0 -40  -2    0.14    0.06
   0 -40   2    0.05    0.06
   0  40  -2    0.03    0.05
   0  40  -4    0.50    0.08
   0  40  -4    0.55    0.09
   0  40   4    0.57    0.09
   0 -40   4    0.50    0.09
   0 -40  -4    0.63    0.09
   0  40  -6    0.02    0.07
   0  40   6   -0.04    0.06
   0  40  -6    0.04    0.07
   0 -40   6   -0.08    0.06
   0 -40  -6    0.07    0.07
   0  40  -8    0.37    0.10
   0 -40   8    0.44    0.11
   0  40  -8    0.40    0.10
   0  40   8    0.22    0.08
   0 -40  -8    0.22    0.08
   0  40 -10   -0.06    0.10
   0 -40  10    0.01    0.09
   0 -40 -10   -0.03    0.07
   0 -40  12    1.72    0.20
   0  40 -12    1.67    0.20
   0 -40 -12    1.64    0.18
   0 -40 -14   -0.05    0.09
  -2  40   0    2.44    0.16
  -2 -40   0    3.15    0.18
  -2  40   0    3.06    0.12
   2  40   0    2.82    0.17
   2 -40   0    2.76    0.17
  -2 -40  -2    6.66    0.28
   2 -40   2    6.62    0.29
   2  40  -2    6.59    0.25
   2  40   2    7.00    0.29
   2 -40  -2    6.22    0.27
  -2  40  -2    6.72    0.29
  -2  40  -2    7.10    0.25
  -2  40   4    0.81    0.10
   2 -40   4    0.65    0.10
  -2 -40  -4    0.85    0.11
   2  40  -4    0.70    0.11
   2  40  -4    0.78    0.09
  -2 -40   4    0.73    0.11
  -2  40  -4    0.74    0.10
   2 -40  -4    0.64    0.09
  -2  40  -4    0.83    0.09
   2  40   4    0.72    0.10
  -2  40   6    1.39    0.14
  -2 -40  -6    1.42    0.14
   2 -40   6    1.51    0.15
   2  40  -6    1.85    0.15
   2  40  -6    1.76    0.15
   2 -40  -6    1.60    0.14
  -2  40  -6    1.73    0.15
  -2  40  -6    1.43    0.14
   2  40   6    1.65    0.14
  -2 -40   6    1.65    0.16
   2  40  -8    0.26    0.10
  -2 -40  -8    0.40    0.10
   2  40  -8    0.23    0.10
  -2  40   8    0.49    0.11
   2 -40   8    0.35    0.11
   2  40   8    0.31    0.09
  -2 -40   8    0.30    0.10
   2 -40  -8    0.43    0.09
  -2  40  -8    0.31    0.09
  -2  40  -8    0.53    0.11
  -2 -40 -10    0.17    0.09
   2 -40  10    0.49    0.13
  -2  40  10    0.60    0.12
   2  40 -10    0.44    0.11
   2  40 -10    0.43    0.12
  -2 -40  10    0.34    0.11
   2 -40 -10    0.56    0.11
  -2  40 -10    0.19    0.11
  -2 -40 -12    0.02    0.09
   2  40 -12    0.14    0.13
   2 -40  12    0.03    0.10
  -2  40 -12   -0.22    0.09
  -2 -40  12    0.11    0.11
   2 -40 -12    0.04    0.09
   4  40   0   16.68    0.59
   4 -40   0   17.07    0.57
  -4  40   0   16.67    0.59
   4 -40   2    1.14    0.12
  -4 -40  -2    1.19    0.12
  -4  40   2    0.79    0.10
  -4  40  -2    1.20    0.10
  -4  40  -2    1.18    0.12
   4  40   2    1.27    0.12
   4 -40  -2    1.22    0.11
  -4 -40   2    1.04    0.12
   4 -40   4    8.61    0.36
  -4 -40  -4    8.43    0.35
  -4  40   4    8.33    0.37
   4  40  -4    9.51    0.38
  -4  40  -4    9.69    0.34
  -4  40  -4    8.68    0.35
   4  40   4    8.46    0.35
   4 -40  -4    9.34    0.34
  -4 -40   4    8.98    0.37
  -4  40   6    0.60    0.11
  -4 -40  -6    0.64    0.11
   4 -40   6    0.59    0.11
   4  40  -6    0.55    0.11
  -4  40  -6    0.55    0.09
  -4 -40   6    0.55    0.11
  -4  40  -6    0.81    0.11
   4 -40  -6    0.62    0.09
   4  40   6    0.77    0.10
   4  40  -8    5.80    0.30
  -4  40   8    5.74    0.30
   4 -40   8    6.26    0.31
  -4 -40  -8    6.63    0.30
   4 -40  -8    5.78    0.27
  -4 -40   8    5.75    0.31
  -4  40  -8    5.78    0.29
  -4 -40 -10    0.11    0.09
   4  40 -10   -0.01    0.09
   4  40 -10    0.33    0.12
   4 -40  10    0.00    0.09
  -4  40  10   -0.01    0.09
  -4  40 -10    0.26    0.11
  -4 -40  10    0.16    0.10
   4  40 -12    0.24    0.14
   4 -40  12    0.24    0.12
  -4 -40 -12    0.23    0.11
  -4  40 -12    0.47    0.14
  -4 -40  12    0.34    0.12
   6 -40   0    1.78    0.14
  -6 -40   0    1.80    0.16
  -6  40   0    1.97    0.12
  -6  40   0    1.89    0.14
   6  40   0    1.55    0.15
  -6 -40   0    1.75    0.12
  -6  40   2    0.50    0.10
   6  40  -2    0.58    0.11
  -6 -40  -2    0.53    0.10
   6 -40   2    0.46    0.09
  -6 -40   2    0.61    0.10
   6  40   2    0.69    0.10
  -6  40  -2    0.53    0.08
   6 -40  -2    0.48    0.08
  -6  40  -2    0.44    0.09
  -6 -40  -4    2.82    0.19
  -6  40   4    2.64    0.18
   6  40  -4    2.61    0.19
   6 -40   4    2.99    0.18
  -6  40  -4    2.63    0.17
  -6  40  -4    2.97    0.17
   6  40   4    2.94    0.17
   6 -40  -4    2.91    0.16
  -6 -40   4    2.90    0.19
   6  40  -6   11.60    0.45
  -6 -40  -6   10.37    0.44
  -6  40   6   11.15    0.46
   6 -40   6   11.41    0.45
  -6  40  -6   11.37    0.43
   6  40   6   11.75    0.43
  -6 -40   6   11.19    0.45
  -6  40  -6   11.37    0.43
   6 -40  -6   11.17    0.41
   6 -40   8    0.53    0.12
   6  40  -8    0.37    0.11
  -6 -40  -8    0.39    0.10
  -6  40   8    0.42    0.11
  -6 -40   8    0.58    0.11
  -6  40  -8    0.39    0.11
  -6  40  10    0.86    0.15
  -6 -40 -10    0.80    0.14
   6 -40  10    0.48    0.13
   6  40 -10    0.87    0.15
  -6 -40  10    0.81    0.15
  -6  40 -10    0.89    0.15
  -6  40  12    0.21    0.12
   6  40 -12   -0.17    0.10
  -6 -40 -12    0.06    0.10
   6 -40  12    0.06    0.10
   6  40 -12    0.08    0.13
  -6 -40  12    0.04    0.10
  -6  40 -12   -0.02    0.10
   8 -40   0    0.09    0.06
  -8 -40   0    0.06    0.06
  -8  40   0    0.02    0.05
  -8  40   0   -0.03    0.07
   8  40   0   -0.03    0.08
  -8 -40   0    0.00    0.07
  -8 -40  -2    7.70    0.33
   8  40  -2    7.47    0.33
   8 -40   2    7.54    0.30
  -8  40   2    6.88    0.32
  -8 -40   2    7.33    0.33
   8  40   2    7.27    0.32
  -8  40  -2    7.19    0.31
  -8 -40   2    7.59    0.31
  -8  40  -2    7.33    0.30
  -8  40   4    2.59    0.18
  -8 -40  -4    2.13    0.17
   8  40  -4    2.41    0.19
   8 -40   4    2.64    0.17
  -8  40  -4    2.42    0.16
  -8 -40   4    2.31    0.17
  -8 -40   4    2.49    0.18
  -8  40  -4    2.69    0.16
   8  40   4    2.58    0.16
   8  40  -6   -0.02    0.09
  -8  40   6    0.06    0.08
   8 -40   6    0.01    0.08
  -8 -40  -6   -0.03    0.07
  -8  40  -6    0.17    0.08
  -8 -40   6   -0.01    0.07
  -8 -40  -8    1.08    0.14
  -8  40   8    1.20    0.16
   8 -40   8    1.01    0.15
   8  40  -8    1.14    0.16
  -8  40  -8    1.06    0.14
  -8 -40   8    0.96    0.15
   8 -40  10    0.29    0.11
  -8 -40 -10    0.30    0.11
  -8  40  10    0.35    0.13
   8  40 -10    0.32    0.13
  -8 -40  10    0.34    0.12
  -8  40 -10    0.21    0.11
   8  40 -12   -0.06    0.11
  -8  40  12    0.04    0.11
   8 -40  12    0.05    0.10
  -8 -40 -12   -0.06    0.10
  -8  40 -12    0.09    0.12
  -8 -40  12   -0.04    0.10
 -10 -40   0    0.13    0.07
 -10  40   0    0.19    0.07
  10  40   0    0.22    0.09
 -10  40   0    0.17    0.08
 -10 -40   0    0.14    0.07
  10 -40   2    1.39    0.12
 -10 -40  -2    1.37    0.15
  10  40  -2    1.38    0.15
 -10  40   2    1.67    0.16
 -10 -40   2    1.57    0.15
 -10 -40   2    1.51    0.16
  10  40   2    1.49    0.15
 -10  40  -2    1.47    0.14
 -10  40  -2    1.71    0.15
 -10  40   4    0.54    0.12
 -10 -40  -4    0.60    0.11
  10  40  -4    0.45    0.11
  10 -40   4    0.47    0.10
  10  40   4    0.61    0.10
 -10  40  -4    0.30    0.09
 -10  40  -4    0.41    0.08
 -10 -40   4    0.29    0.09
 -10 -40   4    0.31    0.10
  10  40  -6    0.49    0.12
 -10 -40  -6    0.42    0.11
 -10  40   6    0.49    0.12
  10 -40   6    0.37    0.10
 -10  40  -6    0.30    0.10
 -10 -40   6    0.31    0.10
 -10 -40   6    0.47    0.12
 -10  40   8   -0.04    0.09
  10 -40   8   -0.03    0.08
 -10 -40  -8   -0.09    0.08
  10  40  -8    0.14    0.11
 -10  40  -8    0.07    0.10
 -10 -40   8   -0.03    0.09
  10  40 -10    0.23    0.13
  10 -40  10    0.27    0.12
 -10 -40 -10    0.33    0.11
 -10  40  10    0.40    0.13
 -10  40 -10    0.38    0.13
 -10 -40  10    0.33    0.12
  10  40 -12    0.12    0.13
 -10  40  12    0.23    0.14
 -12  40   0    3.68    0.22
  12  40   0    3.04    0.21
 -12 -40   0    3.19    0.21
 -12 -40   0    3.32    0.20
 -12  40   0    3.20    0.19
 -12  40   2    0.93    0.14
  12  40  -2    1.05    0.14
 -12  40   2    1.16    0.13
 -12 -40  -2    1.13    0.14
 -12 -40   2    1.02    0.13
  12  40   2    1.26    0.14
 -12 -40   2    1.17    0.15
 -12  40  -2    1.03    0.13
 -12  40  -2    1.30    0.14
 -12 -40  -4    2.62    0.20
  12  40  -4    2.41    0.20
 -12  40   4    2.24    0.19
 -12 -40   4    2.56    0.20
 -12 -40   4    2.53    0.19
 -12  40  -4    3.05    0.20
 -12 -40  -6    0.98    0.14
 -12  40   6    0.73    0.14
  12  40  -6    0.63    0.13
 -12 -40   6    0.97    0.14
 -12  40  -6    0.89    0.13
 -12 -40   6    0.85    0.15
 -12 -40  -8    1.50    0.18
  12 -40   8    1.95    0.19
  12  40  -8    1.35    0.18
 -12  40   8    1.49    0.20
 -12  40  -8    1.38    0.17
  12  40 -10   -0.02    0.10
 -12 -40 -10    0.12    0.11
 -12  40  10    0.25    0.12
 -12  40 -10    0.13    0.12
  14  40   0    2.04    0.19
 -14 -40   0    2.26    0.19
 -14  40   0    2.01    0.19
 -14  40   0    2.20    0.18
 -14 -40  -2    0.59    0.12
  14  40  -2    0.52    0.12
 -14  40   2    0.56    0.11
 -14  40   2    0.53    0.12
  14  40   2    0.74    0.12
 -14  40  -2    0.50    0.11
 -14 -40   2    0.37    0.11
 -14  40  -2    0.67    0.11
 -14 -40   2    0.54    0.12
 -14  40   4    0.10    0.10
  14  40  -4    0.00    0.10
 -14 -40  -4    0.16    0.10
 -14 -40   4   -0.04    0.09
 -14  40  -4    0.17    0.10
 -14 -40  -6    1.00    0.15
 -14  40   6    1.02    0.17
  14  40  -6    0.72    0.15
 -14 -40   6    0.70    0.15
 -14  40  -6    0.74    0.14
  14  40  -8    0.28    0.13
 -14  40   8    0.26    0.13
 -14 -40  -8    0.41    0.13
 -14 -40   8    0.35    0.15
 -14  40  -8    0.41    0.13
 -16  40   0    0.19    0.10
 -16  40   0    0.09    0.10
  16  40   0    0.26    0.11
  16  40  -2    0.00    0.10
 -16  40   2    0.00    0.10
 -16 -40  -2    0.08    0.09
 -16  40  -2    0.03    0.09
 -16 -40   2   -0.11    0.09
 -16  40   4    0.07    0.10
 -16 -40  -4    0.04    0.10
  16  40  -4   -0.02    0.11
 -16  40  -4    0.09    0.11
 -16 -40   4    0.03    0.11
 -16 -40  -6    0.34    0.12
  16  40  -6    0.28    0.12
 -16  40   6    0.16    0.12
 -16  40  -6    0.37    0.13
 -16 -40   6    0.46    0.14
 -16  40   8    0.09    0.12
 -16 -40  -8    0.22    0.12
 -16  40  -8    0.14    0.11
 -16 -40   8    0.05    0.12
 -18  40   0    1.09    0.17
  18  40  -2    0.00    0.11
 -18  40   2    0.00    0.11
 -18 -40   2    0.13    0.12
 -18  40  -2    0.04    0.11
 -18  40   4    0.08    0.12
  18  40  -4   -0.01    0.12
 -18  40  -4    0.11    0.12
 -18 -40   4    0.35    0.14
 -18 -40   6    0.00    0.12
 -18  40  -6    0.01    0.11
 -20  40   0    0.95    0.17
 -20  40  -2    0.69    0.17
 -20 -40   4    0.07    0.13
  -1 -41  -1    7.85    0.32
   1 -41   1    7.96    0.33
  -1 -41   1    7.89    0.33
   1 -41  -1    8.00    0.32
   1  41   1    8.22    0.33
  -1  41  -1    8.21    0.33
  -1  41   3    8.88    0.37
   1  41  -3    9.52    0.37
  -1 -41  -3    9.54    0.37
   1 -41   3    9.15    0.37
   1  41  -3    9.92    0.34
  -1  41  -3    9.46    0.37
  -1 -41   3    9.08    0.37
   1 -41  -3    9.08    0.36
  -1  41  -3    9.73    0.34
   1  41   3    9.46    0.37
  -1 -41  -5    6.35    0.29
  -1  41   5    6.12    0.29
   1 -41   5    6.62    0.30
   1  41  -5    6.41    0.27
   1  41  -5    6.58    0.29
   1 -41  -5    6.56    0.28
  -1  41  -5    6.82    0.28
  -1  41  -5    6.46    0.29
   1  41   5    6.50    0.29
  -1 -41   5    6.42    0.30
   1  41  -7    2.39    0.18
  -1  41   7    2.30    0.17
   1 -41   7    2.28    0.18
   1  41  -7    2.21    0.17
  -1 -41  -7    2.23    0.17
  -1 -41   7    2.18    0.18
   1  41   7    2.47    0.17
   1 -41  -7    2.30    0.17
  -1  41  -7    2.14    0.16
  -1  41  -7    2.26    0.16
  -1 -41  -9    0.27    0.09
   1 -41   9    0.31    0.11
  -1  41   9    0.05    0.08
   1  41  -9    0.18    0.10
   1  41  -9    0.23    0.10
   1 -41  -9    0.36    0.10
  -1  41  -9    0.44    0.10
  -1  41  -9    0.26    0.10
   1  41   9    0.41    0.10
  -1 -41   9    0.19    0.10
  -1 -41 -11    0.00    0.09
   1  41 -11    0.28    0.13
   1 -41  11    0.06    0.09
  -1 -41  11    0.35    0.12
   1 -41 -11    0.12    0.09
  -1  41 -11    0.40    0.13
  -1 -41 -13    0.15    0.10
   1 -41  13   -0.04    0.10
   1  41 -13    0.10    0.13
  -1  41 -13    0.22    0.14
  -1 -41  13    0.13    0.11
   1 -41 -13   -0.01    0.09
   3 -41   1   11.43    0.42
  -3 -41  -1   10.53    0.42
   3 -41  -1   11.73    0.41
  -3  41  -1   11.35    0.43
   3  41   1   11.34    0.43
  -3  41  -1   11.33    0.37
  -3  41   3    4.71    0.24
   3  41  -3    4.71    0.24
  -3 -41  -3    4.91    0.24
   3 -41   3    4.57    0.24
   3  41   3    4.94    0.23
  -3  41  -3    4.86    0.23
  -3  41  -3    4.77    0.21
  -3 -41   3    4.43    0.24
   3 -41  -3    4.32    0.21
   3  41  -5    5.66    0.27
  -3  41   5    5.32    0.26
   3 -41   5    5.47    0.27
  -3 -41  -5    5.56    0.26
  -3  41  -5    5.92    0.25
   3 -41  -5    5.54    0.25
  -3 -41   5    5.35    0.27
   3  41   5    4.89    0.24
  -3  41  -5    5.44    0.25
   3 -41   7    6.09    0.30
   3  41  -7    5.79    0.28
  -3 -41  -7    6.03    0.28
   3  41  -7    5.40    0.29
  -3  41   7    5.73    0.29
   3  41   7    5.83    0.27
  -3  41  -7    5.67    0.26
  -3 -41   7    5.75    0.30
   3 -41  -7    5.84    0.27
  -3  41  -7    6.06    0.28
   3  41  -9    1.05    0.15
   3 -41   9    0.83    0.14
  -3 -41  -9    1.05    0.14
   3  41  -9    0.99    0.14
  -3  41   9    0.92    0.14
   3 -41  -9    1.02    0.13
  -3 -41   9    0.92    0.15
  -3  41  -9    0.86    0.14
   3  41 -11    0.34    0.12
   3 -41  11    0.47    0.13
   3  41 -11    0.45    0.14
  -3 -41 -11    0.51    0.11
  -3  41  11    0.28    0.11
  -3 -41  11    0.32    0.12
  -3  41 -11    0.30    0.13
   3  41 -13   -0.02    0.12
  -3 -41 -13   -0.06    0.09
   3 -41  13   -0.13    0.10
  -3 -41  13   -0.01    0.11
  -3  41 -13   -0.08    0.12
   5  41  -1    9.47    0.38
  -5 -41  -1    8.86    0.36
  -5  41   1    9.28    0.37
   5 -41   1    9.19    0.35
  -5 -41   1    9.07    0.37
   5  41   1    8.76    0.36
  -5  41  -1    8.92    0.36
  -5  41  -1    9.38    0.32
   5 -41  -1    9.05    0.34
   5 -41   3    0.52    0.10
  -5  41   3    0.56    0.10
  -5 -41  -3    0.68    0.10
   5  41  -3    0.38    0.10
  -5 -41   3    0.70    0.11
  -5  41  -3    0.71    0.10
  -5  41  -3    0.73    0.09
   5  41   3    0.62    0.10
   5 -41  -3    0.70    0.09
  -5 -41  -5    1.34    0.14
  -5  41   5    1.18    0.13
   5 -41   5    1.15    0.13
   5  41  -5    0.84    0.13
  -5  41  -5    1.28    0.12
   5 -41  -5    1.24    0.12
   5  41   5    1.18    0.12
  -5  41  -5    1.42    0.13
  -5 -41   5    1.04    0.14
   5 -41   7    3.17    0.22
   5  41  -7    3.07    0.21
  -5  41   7    3.03    0.21
  -5 -41  -7    3.22    0.21
  -5 -41   7    2.93    0.21
  -5  41  -7    3.03    0.18
   5  41   7    3.13    0.18
  -5  41  -7    3.07    0.20
   5 -41  -7    2.65    0.17
  -5 -41  -9    0.27    0.10
   5 -41   9    0.38    0.11
  -5  41   9    0.40    0.11
   5  41  -9    0.25    0.11
  -5 -41   9    0.28    0.11
  -5  41  -9    0.56    0.12
   5  41 -11    0.24    0.12
  -5  41  11    0.26    0.12
   5 -41  11    0.20    0.12
  -5 -41 -11    0.24    0.11
   5  41 -11    0.19    0.13
  -5  41 -11    0.28    0.13
  -5 -41  11    0.35    0.12
  -5 -41 -13    0.44    0.13
  -5 -41  13    0.30    0.12
   7  41  -1    1.93    0.17
  -7  41   1    1.87    0.15
  -7 -41  -1    2.08    0.17
   7 -41   1    1.89    0.14
  -7 -41   1    1.90    0.15
   7 -41  -1    2.03    0.14
  -7  41  -1    2.13    0.13
   7  41   1    2.06    0.16
  -7 -41   1    1.80    0.14
  -7  41  -1    1.79    0.14
  -7 -41  -3    1.42    0.14
   7 -41   3    1.49    0.14
  -7  41   3    1.50    0.15
   7  41  -3    1.39    0.15
  -7  41  -3    1.43    0.13
   7  41   3    1.54    0.14
  -7  41  -3    1.41    0.13
  -7 -41   3    1.41    0.15
   7 -41  -3    1.41    0.12
   7  41  -5    1.27    0.15
  -7  41   5    1.50    0.16
   7 -41   5    1.50    0.15
  -7 -41  -5    1.41    0.14
   7  41   5    1.72    0.14
  -7  41  -5    1.30    0.14
  -7  41  -5    1.51    0.13
  -7 -41   5    1.69    0.17
  -7  41   7    0.89    0.14
   7  41  -7    0.91    0.14
  -7 -41  -7    0.85    0.13
   7 -41   7    0.81    0.13
  -7  41  -7    0.93    0.13
  -7 -41   7    0.96    0.14
  -7  41   9    0.10    0.10
  -7 -41  -9   -0.03    0.08
   7  41  -9    0.11    0.10
   7 -41   9    0.09    0.10
  -7 -41   9    0.00    0.09
  -7  41  -9    0.16    0.10
  -7  41  11    0.13    0.11
   7  41 -11    0.05    0.11
  -7 -41 -11    0.17    0.11
   7 -41  11    0.21    0.11
  -7  41 -11    0.07    0.10
  -7 -41  11    0.05    0.10
  -7 -41  13    0.26    0.13
  -9  41   1    0.15    0.06
   9 -41   1    0.20    0.07
  -9 -41  -1    0.16    0.08
   9  41  -1    0.25    0.09
  -9  41   1    0.14    0.08
  -9  41  -1    0.18    0.07
  -9 -41   1    0.35    0.08
   9  41   1    0.29    0.09
  -9 -41   1    0.25    0.09
  -9  41  -1    0.16    0.07
   9  41  -3    1.78    0.17
  -9  41   3    1.92    0.16
   9 -41   3    2.01    0.16
  -9 -41  -3    1.90    0.16
   9  41   3    2.29    0.16
  -9 -41   3    2.50    0.17
  -9  41  -3    1.85    0.15
  -9  41  -3    2.28    0.16
  -9 -41   3    2.31    0.17
   9  41  -5    0.81    0.13
  -9 -41  -5    0.74    0.12
  -9  41   5    0.57    0.12
   9 -41   5    0.69    0.11
  -9 -41   5    0.93    0.13
  -9  41  -5    0.77    0.12
   9  41   5    1.06    0.11
  -9 -41  -7    0.57    0.12
   9  41  -7    0.78    0.14
  -9  41   7    0.56    0.12
   9 -41   7    0.87    0.13
  -9 -41   7    0.71    0.13
  -9  41  -7    0.80    0.13
   9  41  -9    0.61    0.14
  -9 -41  -9    0.34    0.11
  -9  41   9    0.38    0.12
   9 -41   9    0.61    0.14
  -9 -41   9    0.31    0.11
  -9  41  -9    0.62    0.13
   9 -41  11    0.59    0.14
   9  41 -11    0.14    0.12
  -9  41  11    0.39    0.14
  -9 -41 -11    0.21    0.12
  -9 -41  11    0.33    0.12
  -9  41 -11    0.34    0.14
  11  41  -1    0.37    0.11
 -11  41   1    0.28    0.08
 -11 -41  -1    0.35    0.09
 -11  41   1    0.27    0.10
 -11  41  -1    0.35    0.09
 -11 -41   1    0.38    0.09
 -11 -41   1    0.34    0.09
 -11  41  -1    0.39    0.09
  11  41   1    0.33    0.10
  11  41  -3    3.35    0.22
 -11  41   3    3.30    0.22
 -11 -41  -3    2.97    0.21
 -11 -41   3    3.43    0.22
 -11  41  -3    3.46    0.21
  11  41   3    3.34    0.20
 -11 -41   3    3.33    0.21
 -11  41  -3    3.21    0.19
  11  41  -5    2.78    0.21
  11 -41   5    2.84    0.19
 -11 -41  -5    2.56    0.19
 -11  41   5    2.83    0.22
 -11 -41   5    3.04    0.22
 -11 -41   5    2.75    0.20
 -11  41  -5    2.88    0.20
  11  41  -7    2.54    0.21
 -11  41   7    2.16    0.22
 -11 -41  -7    2.22    0.21
  11 -41   7    2.36    0.19
 -11 -41   7    2.70    0.20
 -11  41  -7    2.24    0.20
  11 -41   9    1.29    0.16
 -11  41   9    1.38    0.19
  11  41  -9    1.40    0.19
 -11 -41  -9    1.27    0.17
 -11 -41   9    1.23    0.17
 -11  41  -9    1.51    0.19
  11  41 -11    1.11    0.18
 -11 -41 -11    1.02    0.17
 -11  41  11    1.43    0.20
 -11  41 -11    1.44    0.19
 -13  41   1    0.20    0.08
  13  41  -1    0.13    0.09
 -13 -41  -1    0.16    0.09
 -13  41   1    0.14    0.09
 -13  41  -1    0.14    0.08
 -13 -41   1    0.24    0.10
 -13 -41   1    0.16    0.09
  13  41   1    0.22    0.10
 -13  41  -1    0.23    0.09
 -13  41   3    0.16    0.10
  13  41  -3    0.20    0.11
 -13 -41  -3    0.27    0.10
 -13 -41   3    0.26    0.10
 -13  41  -3    0.09    0.08
 -13 -41   3    0.17    0.10
  13  41  -5    0.57    0.13
 -13  41   5    0.45    0.12
 -13 -41  -5    0.47    0.12
 -13 -41   5    0.54    0.11
 -13  41  -5    0.40    0.11
 -13 -41   5    0.50    0.13
 -13  41   7    0.02    0.11
 -13 -41  -7    0.12    0.10
  13  41  -7    0.16    0.11
 -13 -41   7   -0.08    0.10
 -13  41  -7   -0.03    0.09
 -13 -41  -9   -0.06    0.09
  13  41  -9   -0.12    0.11
 -13  41   9    0.18    0.13
 -13  41  -9   -0.01    0.11
 -15  41   1    0.53    0.13
  15  41  -1    0.26    0.12
 -15  41   1    0.53    0.11
 -15 -41  -1    0.37    0.11
 -15 -41   1    0.66    0.13
 -15  41  -1    0.37    0.11
 -15  41  -1    0.57    0.12
  15  41   1    0.41    0.11
 -15 -41   1    0.41    0.12
 -15  41   3    0.42    0.12
 -15 -41  -3    0.52    0.12
  15  41  -3    0.14    0.11
 -15  41  -3    0.31    0.11
 -15 -41   3    0.24    0.11
 -15  41   5    0.36    0.13
 -15 -41  -5    0.15    0.10
  15  41  -5    0.08    0.11
 -15  41  -5    0.26    0.12
 -15 -41   5    0.09    0.11
 -15 -41  -7   -0.08    0.09
 -15  41   7    0.21    0.13
  15  41  -7    0.23    0.13
 -15  41  -7    0.19    0.12
 -15 -41   7    0.30    0.14
  17  41  -1    0.49    0.14
 -17  41   1    0.30    0.12
 -17  41   1    0.57    0.13
 -17  41  -1    0.76    0.14
 -17 -41  -3    0.67    0.14
 -17  41   3    0.58    0.14
  17  41  -3    0.56    0.14
 -17  41  -3    0.53    0.14
 -17 -41   3    0.51    0.14
 -17  41   5    0.08    0.12
 -17 -41  -5   -0.06    0.10
  17  41  -5    0.00    0.10
 -17 -41   5    0.08    0.12
 -17  41  -5   -0.16    0.09
 -17 -41  -7    0.12    0.11
 -17  41  -7    0.08    0.12
 -17 -41   7   -0.01    0.12
 -19  41  -1    1.14    0.18
 -19  41   3    1.37    0.20
  19  41  -3    0.76    0.17
 -19 -41   3    0.91    0.18
 -19  41  -3    1.08    0.18
 -19 -41   5    0.33    0.15
   0 -42   0    0.34    0.08
   0  42  -2    1.58    0.10
   0 -42   2    1.52    0.14
   0  42  -2    1.27    0.13
   0 -42  -2    1.61    0.13
   0  42   2    1.36    0.13
   0  42  -4   -0.04    0.06
   0  42  -4    0.07    0.06
   0  42   4    0.00    0.06
   0 -42   4   -0.03    0.06
   0 -42  -4   -0.02    0.05
   0  42  -6    1.20    0.13
   0  42   6    1.24    0.14
   0 -42  -6    1.32    0.13
   0 -42   6    1.07    0.14
   0  42  -6    1.15    0.13
   0 -42  -8    0.00    0.07
   0 -42   8   -0.10    0.06
   0  42  -8    0.03    0.08
   0  42  -8    0.03    0.08
   0  42   8   -0.01    0.07
   0 -42 -10    0.23    0.09
   0  42 -10    0.26    0.12
   0 -42  10    0.23    0.10
   0 -42  12    0.08    0.10
   0 -42 -12   -0.13    0.08
   0  42 -12    0.03    0.12
   0 -42 -14    1.09    0.17
  -2  42   0    0.00    0.06
   2  42   0   -0.09    0.07
   2 -42   0    0.05    0.06
  -2 -42   0    0.03    0.06
  -2  42   2    1.34    0.13
   2 -42   2    1.17    0.12
   2  42  -2    1.42    0.14
   2  42  -2    1.62    0.11
  -2 -42  -2    1.39    0.13
  -2 -42   2    1.46    0.14
   2 -42  -2    1.27    0.12
  -2  42  -2    1.76    0.11
  -2  42  -2    1.56    0.13
   2  42   2    1.72    0.14
   2 -42   4    2.97    0.19
  -2  42   4    2.70    0.18
   2  42  -4    3.18    0.20
  -2 -42  -4    3.32    0.19
   2  42  -4    3.20    0.17
  -2  42  -4    3.63    0.18
   2 -42  -4    3.16    0.18
  -2 -42   4    3.12    0.20
  -2  42  -4    2.94    0.18
   2  42   4    3.27    0.18
  -2  42   6    1.53    0.15
  -2 -42  -6    1.63    0.15
   2  42  -6    1.71    0.16
   2  42  -6    1.89    0.15
   2 -42   6    1.29    0.15
  -2  42  -6    1.58    0.15
   2  42   6    1.55    0.13
  -2 -42   6    1.46    0.15
  -2  42  -6    1.65    0.13
   2 -42  -6    1.85    0.15
   2  42  -8    1.20    0.15
   2  42  -8    1.49    0.16
  -2 -42  -8    1.39    0.15
   2 -42   8    1.42    0.17
  -2  42   8    1.14    0.14
  -2 -42   8    1.46    0.16
  -2  42  -8    1.27    0.13
  -2  42  -8    1.17    0.15
   2 -42  -8    1.49    0.15
   2  42   8    1.03    0.13
   2  42 -10    0.32    0.11
  -2  42  10    0.06    0.09
   2 -42  10    0.22    0.11
  -2 -42 -10    0.12    0.09
   2  42 -10    0.05    0.10
  -2  42 -10    0.18    0.10
   2 -42 -10    0.12    0.09
  -2 -42  10    0.22    0.11
   2  42 -12    0.13    0.12
   2 -42  12    0.13    0.11
  -2 -42 -12    0.13    0.09
   2 -42 -12    0.11    0.10
  -2 -42  12    0.11    0.11
  -2  42 -12    0.09    0.12
   4 -42   0    0.56    0.09
  -4  42   0    0.53    0.10
   4  42   0    0.68    0.11
   4  42  -2    1.60    0.15
  -4 -42  -2    1.68    0.14
  -4  42   2    1.58    0.14
   4 -42   2    1.70    0.14
   4 -42  -2    1.85    0.13
  -4 -42   2    1.74    0.16
  -4  42  -2    1.77    0.12
   4  42   2    1.76    0.15
  -4  42  -2    1.77    0.14
  -4 -42  -4    0.46    0.09
  -4  42   4    0.44    0.10
   4 -42   4    0.33    0.09
   4  42  -4    0.36    0.10
  -4  42  -4    0.29    0.08
   4 -42  -4    0.34    0.08
  -4 -42   4    0.45    0.10
  -4  42  -4    0.60    0.09
   4  42   4    0.25    0.07
   4 -42   6    4.05    0.24
   4  42  -6    4.44    0.24
  -4  42   6    4.30    0.24
  -4 -42  -6    4.08    0.23
   4 -42  -6    4.04    0.21
  -4  42  -6    4.12    0.22
   4  42   6    4.35    0.22
  -4 -42   6    4.13    0.24
  -4  42  -6    4.20    0.21
  -4 -42  -8    0.15    0.09
   4 -42   8    0.18    0.09
   4  42  -8    0.14    0.10
   4  42  -8    0.26    0.10
  -4  42   8    0.08    0.08
   4 -42  -8    0.33    0.09
  -4 -42   8    0.12    0.09
  -4  42  -8    0.05    0.09
   4  42 -10    0.12    0.10
   4 -42  10    0.17    0.10
  -4  42  10    0.11    0.09
   4  42 -10    0.26    0.12
  -4 -42 -10    0.13    0.10
  -4  42 -10   -0.05    0.10
  -4 -42  10    0.07    0.10
   4  42 -12    0.32    0.14
  -4 -42 -12    0.60    0.14
   4 -42  12    0.40    0.14
  -4 -42  12    0.29    0.12
  -4  42 -12    0.44    0.14
  -6  42   0   17.38    0.62
   6 -42   0   17.77    0.59
  -6  42   0   17.32    0.56
  -6 -42   0   17.27    0.62
   6  42   0   18.10    0.63
   6 -42   2    2.12    0.15
   6  42  -2    2.03    0.17
  -6  42   2    2.35    0.17
  -6 -42  -2    2.37    0.17
   6  42   2    1.88    0.15
  -6  42  -2    1.87    0.15
  -6 -42   2    1.96    0.16
   6 -42  -2    1.97    0.14
  -6  42  -2    2.01    0.13
  -6  42   4    3.46    0.22
   6 -42   4    2.94    0.20
  -6 -42  -4    3.71    0.21
   6  42  -4    3.70    0.22
  -6 -42   4    3.30    0.22
  -6  42  -4    3.83    0.20
  -6  42  -4    3.80    0.20
   6 -42  -4    3.74    0.19
   6  42   4    3.48    0.19
  -6  42   6    1.42    0.16
   6  42  -6    0.97    0.14
   6 -42   6    0.96    0.14
  -6 -42  -6    0.82    0.12
  -6 -42   6    1.28    0.15
  -6  42  -6    1.25    0.12
  -6  42  -6    1.08    0.13
   6  42   6    1.12    0.12
  -6 -42  -8    0.79    0.13
   6  42  -8    0.62    0.13
   6 -42   8    1.00    0.14
  -6  42   8    0.70    0.13
  -6  42  -8    0.52    0.12
  -6 -42   8    0.60    0.13
  -6 -42 -10    0.16    0.10
  -6  42  10    0.15    0.10
   6  42 -10    0.22    0.11
   6 -42  10    0.24    0.11
  -6 -42  10    0.32    0.12
  -6  42 -10    0.22    0.12
  -6 -42 -12    0.32    0.12
   6 -42  12    0.07    0.12
   6  42 -12    0.06    0.13
  -6  42  12    0.34    0.13
   6  42 -12    0.05    0.12
  -6  42 -12    0.05    0.11
  -6 -42  12    0.28    0.12
   8  42   0    0.30    0.09
  -8 -42   0    0.29    0.09
  -8  42   0    0.40    0.10
   8 -42   0    0.23    0.07
  -8  42   0    0.45    0.08
  -8 -42  -2    3.14    0.19
   8 -42   2    2.83    0.17
   8  42  -2    2.52    0.19
  -8  42   2    2.58    0.18
  -8 -42   2    3.15    0.20
  -8 -42   2    2.84    0.18
  -8  42  -2    3.01    0.17
  -8  42  -2    2.86    0.18
   8  42   2    2.85    0.19
   8  42  -4    2.80    0.20
  -8  42   4    2.47    0.19
  -8 -42  -4    2.76    0.19
   8 -42   4    2.53    0.18
  -8  42  -4    2.70    0.17
  -8 -42   4    2.43    0.18
  -8  42  -4    2.43    0.17
   8  42   4    2.62    0.17
  -8  42   6    0.32    0.11
  -8 -42  -6    0.37    0.10
   8 -42   6    0.34    0.10
   8  42  -6    0.44    0.12
  -8  42  -6    0.23    0.09
  -8 -42   6    0.28    0.10
   8  42  -8    1.25    0.16
  -8  42   8    1.34    0.17
   8 -42   8    1.29    0.16
  -8 -42  -8    1.24    0.15
  -8 -42   8    1.73    0.18
  -8  42  -8    1.33    0.16
  -8  42  10    0.12    0.11
   8  42 -10    0.17    0.12
  -8 -42 -10    0.32    0.11
   8 -42  10    0.37    0.12
  -8  42 -10    0.20    0.11
  -8 -42  10    0.20    0.11
  -8 -42 -12    0.03    0.10
  -8  42  12    0.07    0.12
   8 -42  12    0.25    0.13
   8  42 -12   -0.10    0.11
  -8 -42  12   -0.02    0.10
  -8  42 -12    0.05    0.13
 -10 -42   0    2.02    0.16
  10  42   0    2.28    0.18
 -10  42   0    2.19    0.15
 -10  42   0    2.51    0.17
  10  42  -2    0.08    0.09
 -10 -42  -2    0.05    0.07
 -10  42   2   -0.11    0.07
 -10  42  -2    0.10    0.07
 -10 -42   2    0.12    0.08
 -10 -42   2   -0.03    0.07
 -10  42  -2    0.01    0.07
  10  42   2    0.11    0.08
  10  42  -4    0.15    0.10
 -10  42   4    0.20    0.09
 -10 -42  -4    0.21    0.09
  10 -42   4    0.19    0.08
 -10 -42   4    0.09    0.08
  10  42   4    0.18    0.08
 -10  42  -4    0.11    0.08
 -10  42  -4    0.10    0.07
 -10 -42   4    0.26    0.09
  10  42  -6    1.84    0.19
  10 -42   6    2.49    0.18
 -10 -42  -6    2.26    0.20
 -10  42   6    1.90    0.20
 -10 -42   6    2.33    0.19
 -10  42  -6    2.85    0.19
  10  42  -8    0.06    0.10
  10 -42   8    0.20    0.11
 -10 -42  -8    0.23    0.11
 -10  42   8    0.15    0.12
 -10 -42   8    0.17    0.10
 -10  42  -8    0.37    0.12
  10 -42  10    0.32    0.13
  10  42 -10    0.25    0.13
 -10 -42 -10    0.31    0.13
 -10  42  10    0.24    0.13
 -10 -42  10    0.26    0.11
 -10  42 -10    0.45    0.12
 -12  42   0    0.41    0.10
 -12 -42   0    0.39    0.10
 -12  42   0    0.22    0.08
  12  42   0    0.33    0.10
 -12  42   2    0.12    0.09
 -12 -42  -2    0.27    0.09
  12  42  -2    0.26    0.11
 -12  42  -2    0.36    0.09
 -12 -42   2    0.23    0.09
 -12 -42   2    0.34    0.10
  12  42   2    0.48    0.10
 -12  42  -2    0.35    0.09
 -12 -42  -4    0.43    0.11
  12  42  -4    0.63    0.13
 -12  42   4    0.65    0.13
 -12 -42   4    0.81    0.13
 -12  42  -4    0.70    0.12
 -12 -42   4    0.56    0.13
  12  42  -6    0.46    0.13
 -12 -42  -6    0.84    0.14
 -12  42   6    0.42    0.12
 -12 -42   6    0.79    0.13
 -12 -42   6    0.49    0.13
 -12  42  -6    0.55    0.12
  12  42  -8    0.79    0.15
  12 -42   8    0.72    0.13
 -12  42   8    0.86    0.17
 -12 -42  -8    0.70    0.14
 -12  42  -8    0.55    0.14
 -12  42  10    0.01    0.11
 -12 -42 -10   -0.01    0.09
  12  42 -10   -0.05    0.12
 -12  42 -10    0.09    0.12
 -14  42   0    1.68    0.17
  14  42   0    1.43    0.17
 -14 -42   0    1.32    0.16
 -14  42   0    1.32    0.16
  14  42  -2    3.21    0.24
 -14 -42  -2    3.94    0.24
 -14  42   2    3.16    0.23
 -14 -42   2    3.20    0.23
 -14  42  -2    3.65    0.23
  14  42   2    3.51    0.22
 -14 -42   2    3.66    0.24
 -14  42  -2    3.63    0.22
 -14 -42  -4    0.12    0.10
 -14  42   4    0.25    0.12
  14  42  -4    0.22    0.11
 -14 -42   4    0.24    0.11
 -14  42  -4    0.50    0.12
  14  42  -6    0.44    0.13
 -14 -42  -6    0.27    0.11
 -14  42   6    0.44    0.14
 -14  42  -6    0.57    0.14
 -14 -42   6    0.51    0.14
 -14  42   8    0.46    0.14
 -14 -42  -8    0.35    0.13
  14  42  -8    0.34    0.12
 -14  42  -8    0.24    0.12
 -16  42   0    3.03    0.22
  16  42   0    2.68    0.22
 -16  42   0    2.66    0.21
 -16 -42  -2    0.01    0.09
  16  42  -2    0.07    0.11
 -16  42   2    0.14    0.11
 -16 -42   2    0.06    0.10
 -16  42  -2    0.25    0.11
 -16 -42  -4    1.01    0.16
  16  42  -4    1.02    0.17
 -16  42   4    1.06    0.17
 -16 -42   4    0.94    0.17
 -16  42  -4    1.12    0.16
 -16 -42  -6    0.28    0.12
  16  42  -6    0.40    0.14
 -16  42   6    0.29    0.13
 -16 -42   6    0.65    0.16
 -16  42  -6    0.40    0.13
 -16 -42  -8    0.39    0.13
 -16 -42   8    0.24    0.13
 -18  42   0   -0.03    0.10
 -18  42   2    0.70    0.16
  18  42  -2    0.85    0.16
 -18  42  -2    0.98    0.17
 -18  42   4    0.06    0.12
  18  42  -4    0.09    0.12
 -18  42  -4    0.01    0.11
 -18 -42   4    0.02    0.11
 -18 -42  -6    0.19    0.12
 -18 -42   6    0.33    0.14
 -20  42  -2    0.30    0.14
  -1 -43  -1   23.09    0.75
   1 -43   1   22.59    0.75
   1 -43  -1   22.71    0.74
  -1 -43   1   22.65    0.75
   1  43   1   21.80    0.76
  -1  43  -1   21.79    0.75
  -1 -43  -3    4.23    0.22
  -1  43   3    4.36    0.23
   1 -43   3    4.36    0.23
   1  43  -3    4.12    0.22
   1  43  -3    4.27    0.19
  -1 -43   3    4.32    0.23
  -1  43  -3    4.24    0.22
   1 -43  -3    4.18    0.21
   1  43   3    3.85    0.21
  -1  43  -3    4.51    0.20
   1 -43   5    1.90    0.16
  -1  43   5    1.82    0.15
   1  43  -5    2.19    0.15
  -1 -43  -5    2.49    0.17
   1  43  -5    2.00    0.15
   1 -43  -5    1.85    0.15
  -1 -43   5    2.09    0.17
  -1  43  -5    2.13    0.15
   1  43   5    2.08    0.16
  -1  43  -5    2.06    0.15
   1  43  -7    0.46    0.10
   1 -43   7    0.44    0.11
  -1 -43  -7    0.39    0.10
  -1  43   7    0.53    0.11
   1  43  -7    0.50    0.11
  -1  43  -7    0.62    0.11
   1  43   7    0.38    0.09
  -1  43  -7    0.46    0.10
  -1 -43   7    0.53    0.11
   1 -43  -7    0.57    0.10
   1  43  -9    0.71    0.12
   1  43  -9    0.93    0.14
  -1  43   9    0.84    0.13
  -1 -43  -9    1.09    0.14
   1 -43   9    0.87    0.15
  -1  43  -9    0.97    0.13
  -1 -43   9    0.87    0.14
   1  43   9    0.91    0.13
   1 -43  -9    0.66    0.12
  -1  43  -9    0.94    0.14
   1 -43  11    0.26    0.12
  -1 -43 -11    0.28    0.11
   1  43 -11    0.36    0.12
   1 -43 -11    0.53    0.12
  -1 -43  11    0.26    0.12
  -1  43 -11    0.52    0.14
   1 -43  13    0.29    0.13
   1  43 -13    0.55    0.15
  -1 -43 -13    0.42    0.12
  -1 -43  13    0.21    0.12
  -1  43 -13    0.36    0.15
   1 -43 -13    0.26    0.12
   3  43  -1    2.85    0.19
   3 -43   1    2.92    0.18
  -3 -43  -1    3.07    0.19
  -3  43   1    2.72    0.17
   3  43   1    3.17    0.19
  -3  43  -1    2.77    0.14
  -3 -43   1    2.98    0.19
   3 -43  -1    2.90    0.17
  -3  43  -1    3.11    0.18
   3  43  -3   19.88    0.66
  -3 -43  -3   18.40    0.64
   3 -43   3   18.69    0.64
  -3  43   3   17.63    0.66
   3  43   3   18.80    0.65
   3 -43  -3   18.83    0.62
  -3  43  -3   18.81    0.61
  -3  43  -3   18.35    0.64
  -3 -43   3   18.12    0.65
  -3  43   5    0.56    0.11
   3  43  -5    0.80    0.12
   3 -43   5    0.82    0.12
  -3 -43  -5    0.59    0.10
   3  43  -5    0.60    0.10
  -3  43  -5    0.64    0.10
   3  43   5    0.81    0.11
   3 -43  -5    0.50    0.09
  -3 -43   5    0.70    0.11
  -3  43  -5    0.58    0.10
  -3  43   7    1.74    0.17
   3  43  -7    1.52    0.16
   3  43  -7    1.69    0.16
   3 -43   7    1.48    0.17
  -3 -43  -7    1.68    0.16
   3 -43  -7    2.13    0.16
   3  43   7    2.25    0.16
  -3  43  -7    1.83    0.15
  -3 -43   7    1.81    0.18
  -3  43  -7    2.01    0.17
  -3  43   9    0.43    0.11
   3  43  -9    0.68    0.13
  -3 -43  -9    0.62    0.12
   3  43  -9    0.56    0.13
   3 -43   9    0.58    0.13
  -3 -43   9    0.65    0.13
   3 -43  -9    0.74    0.12
  -3  43  -9    0.69    0.13
   3  43 -11    0.02    0.10
   3  43 -11    0.09    0.11
  -3  43  11    0.29    0.12
   3 -43  11    0.02    0.09
  -3 -43 -11    0.23    0.10
  -3 -43  11    0.18    0.11
  -3  43 -11   -0.04    0.10
   3  43 -13    0.48    0.15
  -3 -43 -13    0.44    0.14
  -3 -43  13    0.52    0.15
  -3  43 -13    0.42    0.15
  -5 -43  -1    7.98    0.34
   5  43  -1    8.18    0.35
  -5  43   1    7.84    0.35
   5 -43   1    8.17    0.33
  -5 -43   1    8.26    0.35
  -5  43  -1    8.55    0.30
  -5  43  -1    8.10    0.34
   5 -43  -1    8.59    0.33
   5  43   1    8.33    0.35
   5 -43   3    4.97    0.24
  -5 -43  -3    4.65    0.24
   5  43  -3    4.61    0.24
  -5  43   3    4.09    0.23
  -5  43  -3    4.39    0.23
   5  43   3    4.91    0.23
  -5  43  -3    4.97    0.22
  -5 -43   3    5.04    0.25
   5 -43  -3    4.53    0.22
  -5 -43  -5    1.20    0.14
   5 -43   5    1.10    0.13
   5  43  -5    1.00    0.14
  -5  43   5    0.90    0.13
   5 -43  -5    1.12    0.11
  -5 -43   5    1.19    0.14
   5  43   5    1.09    0.12
  -5  43  -5    1.15    0.12
  -5  43  -5    1.39    0.13
   5  43  -7    1.21    0.15
  -5 -43  -7    0.93    0.13
  -5  43   7    1.05    0.14
   5 -43   7    1.12    0.14
   5  43   7    1.07    0.12
  -5  43  -7    0.99    0.13
  -5  43  -7    1.14    0.12
   5 -43  -7    1.05    0.12
  -5 -43   7    1.26    0.16
   5 -43   9    0.43    0.12
   5  43  -9    0.41    0.12
  -5 -43  -9    0.55    0.12
  -5  43   9    0.21    0.10
   5  43  -9    0.30    0.12
  -5 -43   9    0.27    0.11
  -5  43  -9    0.40    0.11
  -5 -43 -11    0.54    0.13
   5  43 -11    0.46    0.13
   5  43 -11    0.74    0.16
   5 -43  11    0.40    0.12
  -5  43  11    0.40    0.13
  -5 -43  11    0.38    0.13
  -5  43 -11    0.48    0.13
  -5 -43  13   -0.04    0.11
   7  43  -1    1.50    0.15
   7 -43   1    1.52    0.14
  -7  43   1    1.71    0.15
  -7 -43  -1    1.48    0.15
   7 -43  -1    1.96    0.14
  -7  43  -1    1.78    0.15
   7  43   1    2.19    0.16
  -7 -43   1    1.88    0.14
  -7  43  -1    1.57    0.12
  -7 -43   1    1.66    0.16
   7 -43   3    2.59    0.18
  -7 -43  -3    2.71    0.18
   7  43  -3    2.60    0.19
  -7  43   3    2.46    0.18
  -7 -43   3    2.75    0.20
   7  43   3    2.90    0.18
  -7  43  -3    2.87    0.18
   7 -43  -3    2.51    0.16
  -7  43  -3    2.90    0.17
  -7  43   5    3.33    0.21
   7  43  -5    3.02    0.21
  -7 -43  -5    3.21    0.21
   7 -43   5    3.49    0.20
  -7 -43   5    3.97    0.23
  -7  43  -5    3.45    0.20
   7  43   5    3.29    0.20
  -7  43  -5    3.21    0.20
  -7  43   7    0.39    0.11
   7 -43   7    0.25    0.10
  -7 -43  -7    0.21    0.09
   7  43  -7    0.20    0.11
  -7 -43   7    0.26    0.10
  -7  43  -7    0.33    0.10
   7 -43   9    1.59    0.18
  -7  43   9    2.02    0.20
  -7 -43  -9    1.71    0.18
   7  43  -9    1.86    0.19
  -7  43  -9    2.13    0.20
  -7 -43   9    1.70    0.19
   7 -43  11    0.90    0.16
  -7 -43 -11    0.62    0.13
  -7  43  11    0.75    0.15
   7  43 -11    0.78    0.15
  -7 -43  11    0.73    0.15
  -7  43 -11    0.85    0.15
   9  43  -1    0.52    0.11
  -9 -43  -1    0.45    0.10
   9 -43   1    0.43    0.08
  -9  43   1    0.55    0.11
  -9  43  -1    0.40    0.09
   9  43   1    0.65    0.11
  -9  43  -1    0.60    0.09
  -9 -43   1    0.61    0.11
   9 -43   3    0.75    0.11
  -9  43   3    0.81    0.13
  -9 -43  -3    0.79    0.12
   9  43  -3    0.69    0.12
  -9 -43   3    0.61    0.11
  -9  43  -3    0.84    0.11
  -9 -43   3    0.78    0.12
   9  43   3    0.98    0.12
  -9  43  -3    0.77    0.11
  -9  43   5    0.48    0.12
  -9 -43  -5    0.37    0.10
   9  43  -5    0.55    0.12
   9 -43   5    0.50    0.10
  -9  43  -5    0.33    0.10
   9  43   5    0.36    0.08
  -9 -43   5    0.38    0.10
   9 -43   7    2.27    0.20
  -9 -43  -7    2.16    0.20
   9  43  -7    1.73    0.19
  -9  43   7    2.50    0.20
  -9 -43   7    2.17    0.18
  -9  43  -7    2.42    0.19
   9 -43   9    0.41    0.12
  -9  43   9    0.43    0.14
  -9 -43  -9    0.68    0.14
   9  43  -9    0.53    0.14
  -9 -43   9    0.36    0.11
  -9  43  -9    0.38    0.12
  -9 -43 -11    0.18    0.10
   9  43 -11   -0.03    0.11
  -9  43  11    0.17    0.12
   9 -43  11    0.12    0.11
  -9 -43  11    0.07    0.11
  -9  43 -11    0.12    0.12
 -11 -43  -1    0.21    0.09
  11  43  -1    0.39    0.10
 -11  43   1    0.30    0.09
 -11 -43   1    0.26    0.09
 -11  43  -1    0.26    0.09
 -11  43  -1    0.31    0.08
  11  43   1    0.15    0.08
 -11  43   3    0.64    0.12
 -11 -43  -3    0.79    0.12
  11  43  -3    0.50    0.12
 -11 -43   3    0.44    0.11
 -11  43  -3    0.65    0.11
 -11 -43   3    0.81    0.13
 -11  43  -3    0.59    0.11
  11  43   3    0.65    0.11
 -11 -43  -5    0.56    0.12
  11  43  -5    0.51    0.12
  11 -43   5    0.78    0.12
 -11  43   5    0.77    0.14
 -11  43  -5    0.76    0.12
 -11 -43   5    1.01    0.14
 -11 -43   5    1.01    0.15
  11 -43   7    0.03    0.09
  11  43  -7    0.05    0.10
 -11  43   7    0.18    0.11
 -11 -43  -7    0.10    0.10
 -11 -43   7    0.11    0.10
 -11  43  -7   -0.02    0.09
 -11 -43  -9    0.19    0.11
  11  43  -9    0.21    0.12
  11 -43   9    0.15    0.11
 -11  43   9    0.24    0.12
 -11 -43   9    0.08    0.10
 -11  43  -9    0.18    0.11
  11  43 -11    0.00    0.12
  11 -43  11    0.32    0.13
  13  43  -1    2.20    0.20
 -13 -43  -1    1.87    0.19
 -13  43   1    2.15    0.18
 -13 -43   1    2.17    0.19
 -13  43  -1    2.29    0.18
  13  43   1    2.03    0.18
 -13  43  -1    1.90    0.17
 -13 -43  -3    0.23    0.10
  13  43  -3    0.16    0.11
 -13  43   3    0.18    0.10
 -13  43  -3    0.16    0.09
 -13 -43   3    0.20    0.10
 -13 -43   3    0.25    0.10
  13  43  -5    1.02    0.16
 -13 -43  -5    0.97    0.15
 -13  43   5    1.12    0.17
 -13 -43   5    1.14    0.15
 -13 -43   5    0.89    0.15
 -13  43  -5    0.98    0.15
 -13  43   7    0.11    0.11
  13  43  -7    0.05    0.10
 -13 -43  -7    0.02    0.10
 -13  43  -7    0.19    0.11
 -13 -43   7    0.16    0.12
  13  43  -9    0.42    0.13
 -13  43   9    0.33    0.14
 -13 -43  -9    0.24    0.12
 -13  43  -9    0.45    0.14
 -15 -43  -1    0.37    0.12
  15  43  -1    0.34    0.12
 -15  43   1    0.31    0.11
 -15  43  -1    0.22    0.10
  15  43   1    0.41    0.12
 -15  43  -1    0.38    0.11
 -15 -43   1    0.45    0.12
 -15 -43  -3    0.11    0.10
  15  43  -3    0.04    0.10
 -15  43   3    0.16    0.12
 -15 -43   3    0.19    0.11
 -15  43  -3    0.18    0.11
 -15  43   5    0.08    0.12
 -15 -43  -5    0.01    0.09
  15  43  -5    0.12    0.12
 -15  43  -5    0.10    0.10
 -15 -43   5    0.25    0.13
 -15  43   7    0.02    0.12
 -15 -43  -7    0.12    0.11
  15  43  -7    0.10    0.11
 -15  43  -7    0.10    0.11
 -15 -43   7    0.13    0.12
  17  43  -1    0.81    0.15
 -17  43   1    0.77    0.15
 -17  43  -1    0.78    0.15
  17  43  -3   -0.09    0.11
 -17  43   3    0.06    0.10
 -17 -43  -3   -0.01    0.09
 -17  43  -3    0.14    0.11
 -17 -43   3   -0.01    0.11
 -17  43   5    0.23    0.13
 -17 -43  -5    0.13    0.11
  17  43  -5    0.38    0.14
 -17  43  -5    0.49    0.14
 -17 -43   5    0.16    0.13
 -17 -43  -7    0.05    0.11
 -17 -43   7   -0.07    0.11
 -19  43  -1   -0.02    0.11
 -19  43   3    0.50    0.15
  19  43  -3    0.26    0.14
 -19  43  -3    0.39    0.14
   0 -44   0    9.89    0.37
   0  44   0    8.11    0.35
   0  44   2    0.09    0.07
   0  44  -2   -0.06    0.06
   0  44  -2    0.05    0.05
   0 -44  -2    0.02    0.06
   0 -44   2   -0.05    0.06
   0  44  -4   13.14    0.49
   0 -44  -4   13.27    0.48
   0 -44   4   12.95    0.50
   0  44   4   13.13    0.50
   0  44  -4   13.07    0.46
   0  44   6    0.05    0.07
   0  44  -6    0.02    0.07
   0  44  -6   -0.01    0.07
   0 -44   6   -0.01    0.07
   0 -44  -6    0.04    0.07
   0  44  -8    0.94    0.13
   0 -44   8    0.91    0.14
   0 -44  -8    1.24    0.14
   0  44   8    1.01    0.13
   0  44  -8    1.33    0.15
   0 -44  10    0.11    0.10
   0 -44 -10    0.11    0.09
   0  44 -10    0.12    0.11
   0  44 -12    0.23    0.12
   0 -44 -12    0.02    0.10
   0 -44  12    0.10    0.11
  -2  44   0    1.35    0.13
  -2 -44   0    1.30    0.13
   2 -44   0    1.48    0.13
   2  44   0    1.29    0.13
   2  44  -2   22.25    0.77
  -2 -44  -2   23.07    0.76
   2  44  -2   22.99    0.71
  -2  44   2   23.12    0.78
   2 -44   2   22.15    0.76
   2 -44  -2   22.22    0.75
   2  44   2   22.52    0.77
  -2 -44   2   23.27    0.77
  -2  44  -2   22.57    0.77
  -2  44  -2   23.73    0.71
   2  44  -4    0.48    0.08
  -2  44   4    0.37    0.09
  -2 -44  -4    0.23    0.08
   2  44  -4    0.27    0.09
   2 -44   4    0.30    0.09
  -2 -44   4    0.32    0.09
  -2  44  -4    0.34    0.08
  -2  44  -4    0.56    0.10
   2 -44  -4    0.48    0.09
   2  44   4    0.41    0.09
  -2  44   6    4.70    0.25
  -2 -44  -6    4.99    0.25
   2  44  -6    4.63    0.24
   2  44  -6    4.41    0.24
   2 -44   6    4.47    0.25
   2 -44  -6    4.34    0.23
   2  44   6    4.78    0.24
  -2 -44   6    4.50    0.25
  -2  44  -6    4.73    0.24
  -2  44  -6    4.56    0.23
   2  44  -8    0.21    0.10
   2 -44   8    0.12    0.09
  -2  44   8    0.27    0.10
   2  44  -8    0.41    0.11
  -2 -44  -8    0.30    0.09
  -2 -44   8    0.31    0.10
   2  44   8    0.20    0.08
   2 -44  -8    0.44    0.10
  -2  44  -8    0.32    0.09
  -2  44  -8    0.29    0.10
  -2  44  10    1.41    0.17
   2 -44  10    1.04    0.17
   2  44 -10    1.33    0.16
  -2 -44 -10    1.01    0.15
   2  44 -10    1.35    0.17
   2 -44 -10    1.37    0.16
  -2  44 -10    1.48    0.18
  -2 -44  10    1.11    0.17
  -2 -44 -12    0.01    0.10
   2 -44  12    0.08    0.10
   2  44 -12    0.27    0.13
  -2  44 -12    0.12    0.12
  -2 -44  12   -0.03    0.10
   4 -44   0    9.65    0.38
  -4 -44   0   10.42    0.40
   4  44   0   10.21    0.40
  -4  44   0    9.87    0.40
   4 -44   2    2.08    0.15
  -4  44   2    2.02    0.16
  -4 -44  -2    2.07    0.15
   4  44  -2    2.27    0.17
  -4  44  -2    2.02    0.13
  -4  44  -2    2.07    0.15
  -4 -44   2    2.08    0.16
   4 -44  -2    2.04    0.14
   4  44   2    1.91    0.16
   4 -44   4    2.23    0.16
  -4 -44  -4    2.20    0.17
   4  44  -4    2.32    0.17
  -4  44   4    2.21    0.17
   4  44   4    2.14    0.16
  -4  44  -4    2.27    0.15
  -4 -44   4    1.75    0.17
   4 -44  -4    2.26    0.16
  -4  44  -4    2.22    0.16
   4  44  -6    2.33    0.18
  -4  44   6    2.66    0.19
   4 -44   6    2.10    0.17
  -4 -44  -6    2.28    0.17
  -4  44  -6    2.31    0.16
  -4  44  -6    2.33    0.17
   4 -44  -6    2.50    0.17
   4  44   6    2.27    0.17
  -4 -44   6    2.00    0.19
   4 -44   8    3.03    0.22
   4  44  -8    3.05    0.21
   4  44  -8    3.01    0.21
  -4  44   8    2.60    0.21
  -4 -44  -8    2.53    0.20
   4 -44  -8    3.43    0.20
  -4  44  -8    3.01    0.20
  -4 -44   8    2.60    0.21
  -4  44  10    0.35    0.12
  -4 -44 -10    0.35    0.11
   4 -44  10    0.24    0.11
   4  44 -10    0.40    0.12
   4  44 -10    0.40    0.13
  -4  44 -10    0.26    0.11
  -4 -44  10    0.46    0.12
   4  44 -12    0.22    0.12
  -4 -44 -12    0.10    0.11
   4 -44  12    0.09    0.11
  -4  44 -12    0.04    0.12
  -4 -44  12   -0.01    0.10
   6 -44   0    5.25    0.26
  -6 -44   0    5.94    0.29
  -6  44   0    5.29    0.27
   6  44   0    6.23    0.29
   6  44  -2   12.24    0.48
  -6 -44  -2   12.21    0.47
  -6  44   2   11.72    0.48
   6 -44   2   12.46    0.46
  -6 -44   2   12.52    0.49
  -6  44  -2   12.08    0.47
   6 -44  -2   13.36    0.45
  -6  44  -2   13.52    0.44
   6  44   2   13.05    0.48
  -6 -44  -4    3.08    0.20
  -6  44   4    2.98    0.21
   6  44  -4    3.19    0.20
   6 -44   4    2.95    0.20
   6 -44  -4    3.05    0.17
  -6  44  -4    2.82    0.18
  -6  44  -4    3.14    0.18
   6  44   4    3.08    0.19
  -6 -44   4    3.07    0.20
  -6  44   6    2.58    0.20
   6  44  -6    2.52    0.20
  -6 -44  -6    2.81    0.19
   6 -44   6    2.55    0.19
  -6  44  -6    2.39    0.16
  -6  44  -6    2.57    0.18
  -6 -44   6    2.54    0.20
   6  44   6    2.53    0.17
  -6  44   8    0.45    0.12
  -6 -44  -8    0.68    0.13
   6 -44   8    0.48    0.12
   6  44  -8    0.45    0.12
  -6 -44   8    0.85    0.14
  -6  44  -8    0.64    0.12
   6  44 -10    0.95    0.16
   6  44 -10    0.93    0.16
   6 -44  10    0.61    0.14
  -6 -44 -10    0.82    0.14
  -6  44  10    0.83    0.16
  -6 -44  10    0.80    0.15
  -6  44 -10    0.99    0.16
  -6 -44 -12   -0.06    0.10
  -6  44  12   -0.05    0.11
   6  44 -12    0.01    0.13
   6 -44  12   -0.04    0.11
   6  44 -12    0.19    0.13
  -6  44 -12   -0.06    0.11
  -6 -44  12    0.15    0.11
   8  44   0    3.24    0.21
  -8  44   0    3.38    0.21
   8 -44   0    3.16    0.18
  -8 -44   0    3.37    0.21
   8 -44   2    1.24    0.13
   8  44  -2    1.02    0.13
  -8  44   2    1.16    0.14
  -8 -44  -2    0.93    0.13
  -8  44  -2    1.01    0.12
  -8 -44   2    1.18    0.14
   8  44   2    1.05    0.13
  -8 -44   2    1.18    0.12
  -8  44  -2    1.11    0.12
   8 -44   4    0.76    0.11
  -8  44   4    0.72    0.12
  -8 -44  -4    0.82    0.12
   8  44  -4    0.71    0.13
  -8  44  -4    0.85    0.11
   8  44   4    0.70    0.10
  -8  44  -4    0.96    0.12
  -8 -44   4    0.84    0.13
   8 -44   6    1.05    0.14
   8  44  -6    1.22    0.16
  -8 -44  -6    1.21    0.14
  -8  44   6    1.18    0.16
  -8  44  -6    1.15    0.14
  -8 -44   6    1.37    0.16
   8  44  -8    2.19    0.21
  -8 -44  -8    2.39    0.20
   8 -44   8    2.01    0.20
  -8  44   8    2.39    0.20
  -8 -44   8    2.01    0.20
  -8  44  -8    2.20    0.20
   8 -44  10   -0.05    0.09
   8  44 -10   -0.03    0.11
  -8 -44 -10    0.13    0.10
  -8  44  10    0.04    0.10
  -8  44 -10    0.10    0.10
  -8 -44  10    0.14    0.11
   8  44 -12   -0.05    0.11
  -8  44  12   -0.03    0.11
  -8 -44  12   -0.05    0.11
 -10  44   0    1.24    0.12
 -10  44   0    1.01    0.14
 -10 -44   0    1.11    0.14
  10  44   0    0.94    0.13
 -10 -44  -2    0.88    0.12
  10  44  -2    0.51    0.12
 -10  44   2    0.74    0.12
  10  44   2    0.91    0.12
 -10  44  -2    0.77    0.11
 -10  44  -2    0.88    0.11
 -10 -44   2    0.92    0.12
 -10 -44   2    0.75    0.13
 -10  44   4    1.11    0.15
 -10 -44  -4    0.98    0.14
  10 -44   4    1.18    0.13
  10  44  -4    1.31    0.16
 -10  44  -4    0.96    0.12
 -10 -44   4    1.20    0.15
 -10 -44   4    0.99    0.14
  10  44   4    1.21    0.13
 -10  44  -4    1.20    0.13
 -10  44   6    1.56    0.18
  10 -44   6    1.34    0.16
 -10 -44  -6    1.46    0.17
  10  44  -6    1.16    0.16
 -10  44  -6    1.61    0.17
 -10 -44   6    2.12    0.20
  10 -44   8    0.29    0.11
 -10 -44  -8    0.44    0.12
 -10  44   8    0.45    0.13
  10  44  -8    0.40    0.13
 -10 -44   8    0.50    0.12
 -10  44  -8    0.50    0.12
 -10  44  10    0.58    0.16
 -10 -44 -10    0.48    0.13
  10 -44  10    0.42    0.13
  10  44 -10    0.61    0.15
 -10  44 -10    0.55    0.13
 -10 -44  10    0.50    0.13
 -12  44   0    0.03    0.07
  12  44   0    0.02    0.09
 -12  44   0    0.07    0.09
 -12 -44   0   -0.02    0.08
 -12  44   2    0.02    0.08
  12  44  -2    0.18    0.10
 -12 -44  -2    0.15    0.09
 -12  44  -2    0.04    0.08
 -12 -44   2    0.18    0.10
  12  44   2    0.25    0.10
 -12  44  -2    0.20    0.08
 -12 -44   2   -0.04    0.08
  12  44  -4    0.54    0.13
 -12  44   4    0.11    0.10
 -12 -44  -4    0.36    0.11
 -12 -44   4    0.26    0.10
 -12  44  -4    0.30    0.10
 -12 -44   4    0.38    0.11
 -12  44   6    0.35    0.13
 -12 -44  -6    0.37    0.12
  12  44  -6    0.66    0.14
 -12 -44   6    0.35    0.11
 -12  44  -6    0.72    0.13
 -12 -44   6    0.48    0.13
  12 -44   8   -0.14    0.09
 -12 -44  -8    0.04    0.10
  12  44  -8    0.10    0.10
 -12  44   8    0.05    0.10
 -12  44  -8    0.04    0.11
  12  44 -10    0.13    0.11
  12 -44  10   -0.06    0.09
 -12 -44 -10   -0.09    0.09
 -12  44  10    0.21    0.13
 -12  44 -10    0.14    0.12
 -14  44   0    0.23    0.11
 -14 -44   0    0.26    0.10
  14  44   0    0.12    0.10
 -14  44   0    0.25    0.10
 -14  44   2    1.73    0.19
 -14 -44  -2    2.16    0.20
  14  44  -2    2.05    0.20
  14  44   2    1.92    0.18
 -14  44  -2    2.10    0.19
 -14 -44   2    2.45    0.20
 -14 -44  -4    0.06    0.09
  14  44  -4   -0.01    0.10
 -14  44   4    0.29    0.12
 -14 -44   4    0.22    0.10
 -14  44  -4    0.14    0.10
 -14 -44   4    0.17    0.11
 -14 -44  -6    0.12    0.10
 -14  44   6    0.23    0.13
  14  44  -6   -0.08    0.11
 -14  44  -6    0.18    0.11
 -14 -44   6    0.22    0.12
 -14 -44  -8   -0.01    0.10
  14  44  -8    0.03    0.12
 -14  44   8   -0.03    0.12
 -14  44  -8   -0.13    0.10
  16  44   0    0.58    0.14
 -16  44   0    0.41    0.13
 -16 -44  -2    0.09    0.10
  16  44  -2    0.25    0.12
 -16  44   2    0.21    0.11
 -16  44  -2    0.11    0.10
 -16 -44  -4    0.02    0.09
  16  44  -4    0.04    0.10
 -16  44   4   -0.03    0.11
 -16 -44   4    0.11    0.11
 -16  44  -4    0.18    0.11
 -16  44   6    0.03    0.11
 -16 -44  -6   -0.12    0.09
  16  44  -6   -0.08    0.10
 -16  44  -6    0.06    0.11
 -16 -44   6    0.06    0.12
  18  44  -2    0.16    0.12
 -18  44   2    0.01    0.11
 -18  44  -2    0.12    0.12
 -18  44   4    0.32    0.14
  18  44  -4    0.35    0.14
 -18  44  -4    0.16    0.12
 -18 -44   4    0.55    0.15
 -18 -44  -6    0.41    0.13
 -18 -44   6    0.30    0.14
   1  45  -1    3.91    0.21
  -1  45   1    3.09    0.19
  -1 -45  -1    3.26    0.19
   1 -45   1    3.36    0.20
   1 -45  -1    3.36    0.19
  -1 -45   1    3.61    0.21
  -1  45  -1    3.64    0.20
   1  45   1    3.71    0.20
   1 -45   3    0.20    0.08
  -1  45   3    0.03    0.07
   1  45  -3    0.16    0.06
  -1 -45  -3    0.07    0.07
   1  45  -3    0.04    0.08
  -1  45  -3    0.03    0.07
   1 -45  -3    0.20    0.07
   1  45   3    0.13    0.07
  -1  45  -3    0.08    0.06
  -1 -45   3    0.17    0.08
   1  45  -5    2.27    0.17
   1 -45   5    2.32    0.18
   1  45  -5    2.38    0.16
  -1 -45  -5    2.40    0.17
  -1  45   5    2.24    0.18
   1 -45  -5    2.45    0.17
  -1  45  -5    2.36    0.16
  -1 -45   5    2.35    0.18
  -1  45  -5    2.83    0.18
   1  45   5    2.54    0.18
  -1  45   7    0.67    0.12
  -1 -45  -7    0.58    0.11
   1  45  -7    0.44    0.10
   1 -45   7    0.57    0.12
   1  45  -7    0.68    0.12
   1  45   7    0.49    0.10
  -1  45  -7    0.60    0.11
  -1  45  -7    0.68    0.11
   1 -45  -7    0.67    0.11
  -1 -45   7    0.66    0.12
  -1 -45  -9    1.24    0.15
   1  45  -9    1.57    0.16
   1 -45   9    1.07    0.16
   1  45  -9    1.06    0.15
  -1  45   9    1.14    0.15
  -1 -45   9    1.14    0.16
   1 -45  -9    1.24    0.15
   1  45   9    1.33    0.16
  -1  45  -9    1.21    0.14
  -1  45  -9    1.24    0.16
   1 -45  11    0.01    0.10
  -1 -45 -11    0.04    0.09
   1  45 -11    0.00    0.11
  -1  45 -11    0.17    0.12
   1 -45 -11    0.07    0.09
  -1 -45  11    0.16    0.11
  -1 -45 -13    0.11    0.11
   3  45  -1    2.70    0.18
  -3 -45  -1    2.85    0.18
  -3  45   1    2.50    0.17
   3 -45   1    3.09    0.18
  -3  45  -1    2.73    0.18
   3  45   1    2.78    0.18
  -3 -45   1    3.18    0.19
   3 -45  -1    2.96    0.18
  -3 -45  -3    3.27    0.20
   3  45  -3    4.11    0.22
   3 -45   3    3.30    0.20
  -3  45   3    3.02    0.20
   3  45  -3    3.91    0.18
   3  45   3    3.64    0.21
  -3  45  -3    3.77    0.21
  -3 -45   3    3.54    0.22
   3 -45  -3    3.78    0.20
  -3  45  -3    3.95    0.18
   3  45  -5    2.93    0.21
   3 -45   5    3.18    0.21
   3  45  -5    3.41    0.20
  -3  45   5    3.15    0.20
  -3 -45  -5    3.25    0.20
  -3  45  -5    3.23    0.18
   3 -45  -5    3.43    0.19
  -3  45  -5    3.05    0.19
   3  45   5    3.53    0.20
  -3 -45   5    2.84    0.21
  -3  45   7    1.25    0.15
   3  45  -7    1.19    0.14
   3 -45   7    1.28    0.16
  -3 -45  -7    1.00    0.13
   3  45  -7    0.93    0.13
   3 -45  -7    1.01    0.13
   3  45   7    1.11    0.13
  -3  45  -7    1.02    0.13
  -3  45  -7    1.11    0.13
  -3 -45   7    1.03    0.15
   3  45  -9    1.33    0.16
   3 -45   9    1.80    0.19
  -3  45   9    1.31    0.17
  -3 -45  -9    1.61    0.17
   3  45  -9    1.89    0.19
  -3 -45   9    1.89    0.20
   3 -45  -9    1.57    0.16
  -3  45  -9    1.73    0.18
  -3 -45 -11    0.03    0.09
   3  45 -11    0.17    0.11
  -3  45  11    0.11    0.11
   3 -45  11    0.10    0.12
   3  45 -11    0.00    0.11
  -3 -45  11    0.13    0.11
  -3  45 -11    0.22    0.13
  -3 -45 -13    0.20    0.12
   5 -45   1    2.61    0.17
   5  45  -1    2.12    0.17
  -5 -45  -1    2.41    0.17
  -5  45   1    2.13    0.16
   5 -45  -1    2.43    0.16
  -5 -45   1    2.26    0.17
  -5  45  -1    2.34    0.16
   5  45   1    2.36    0.17
   5  45  -3    0.11    0.08
  -5 -45  -3    0.13    0.07
   5 -45   3   -0.03    0.07
  -5  45   3    0.10    0.08
   5  45   3    0.09    0.07
  -5  45  -3    0.05    0.07
  -5  45  -3    0.13    0.06
   5 -45  -3    0.21    0.07
  -5 -45   3    0.13    0.09
  -5 -45  -5    0.40    0.10
  -5  45   5    0.24    0.09
   5 -45   5    0.18    0.09
   5  45  -5    0.35    0.10
  -5 -45   5    0.24    0.09
   5  45   5    0.31    0.08
  -5  45  -5    0.31    0.08
   5 -45  -5    0.24    0.08
  -5  45  -5    0.31    0.09
  -5 -45  -7    0.30    0.10
   5  45  -7    0.27    0.10
   5 -45   7    0.08    0.10
  -5  45   7    0.15    0.09
   5  45   7    0.34    0.09
   5 -45  -7    0.31    0.08
  -5  45  -7    0.14    0.08
  -5 -45   7    0.11    0.09
  -5  45  -7    0.25    0.09
   5  45  -9    0.30    0.12
  -5 -45  -9    0.12    0.09
  -5  45   9    0.22    0.10
   5  45  -9    0.04    0.10
   5 -45   9    0.16    0.11
  -5  45  -9    0.40    0.12
  -5 -45   9    0.16    0.10
   5  45 -11    0.00    0.11
   5  45 -11    0.21    0.12
  -5 -45 -11    0.00    0.10
   5 -45  11   -0.04    0.10
  -5  45  11    0.08    0.11
  -5  45 -11   -0.03    0.11
  -5 -45  11   -0.09    0.09
   7 -45   1    1.14    0.12
  -7 -45  -1    1.12    0.13
  -7  45   1    1.26    0.14
   7  45  -1    0.99    0.13
  -7 -45   1    1.19    0.14
   7  45   1    1.15    0.13
  -7  45  -1    1.10    0.11
  -7  45  -1    1.14    0.13
   7 -45  -1    1.23    0.12
  -7 -45  -3    2.14    0.17
   7  45  -3    2.18    0.18
   7 -45   3    1.92    0.16
  -7  45   3    1.93    0.16
  -7 -45   3    2.03    0.17
   7 -45  -3    2.16    0.15
   7  45   3    2.26    0.17
  -7  45  -3    2.13    0.15
  -7  45  -3    2.21    0.16
  -7  45   5    0.74    0.13
   7  45  -5    0.70    0.12
  -7 -45  -5    0.83    0.12
   7 -45   5    0.85    0.13
  -7  45  -5    0.66    0.11
   7  45   5    0.75    0.11
  -7 -45   5    0.80    0.13
  -7  45  -5    0.70    0.11
  -7 -45  -7    0.28    0.09
   7 -45   7    0.16    0.10
   7  45  -7    0.11    0.10
  -7  45   7    0.19    0.11
  -7 -45   7   -0.01    0.08
  -7  45  -7    0.32    0.09
   7  45  -9    0.32    0.12
  -7  45   9    0.34    0.12
  -7 -45  -9    0.15    0.09
   7 -45   9    0.09    0.10
  -7  45  -9    0.20    0.11
  -7 -45   9    0.08    0.10
   7  45 -11    0.06    0.12
  -7 -45 -11    0.15    0.11
   7  45 -11    0.06    0.12
   7 -45  11    0.02    0.11
  -7  45  11    0.04    0.11
  -7 -45  11    0.17    0.11
  -7  45 -11    0.06    0.11
   9  45  -1    1.31    0.15
  -9 -45  -1    1.44    0.16
  -9  45   1    1.39    0.15
   9 -45   1    1.44    0.13
  -9  45  -1    1.63    0.13
  -9 -45   1    1.80    0.17
  -9  45  -1    1.74    0.14
   9  45   1    1.55    0.15
   9 -45   3    1.14    0.13
   9  45  -3    1.05    0.14
  -9  45   3    0.89    0.14
  -9 -45  -3    0.83    0.12
  -9  45  -3    0.95    0.12
  -9 -45   3    1.03    0.14
  -9 -45   3    0.90    0.12
   9  45   3    1.11    0.13
  -9  45  -3    0.95    0.12
   9  45  -5    0.87    0.13
  -9  45   5    0.95    0.14
  -9 -45  -5    0.97    0.14
   9 -45   5    0.86    0.13
   9  45   5    1.08    0.12
  -9  45  -5    0.86    0.13
  -9 -45   5    1.25    0.16
   9 -45   7    1.14    0.15
  -9  45   7    1.14    0.17
   9  45  -7    1.05    0.16
  -9 -45  -7    1.03    0.15
  -9  45  -7    1.08    0.14
  -9 -45   7    1.08    0.16
   9 -45   9    0.68    0.14
   9  45  -9    0.62    0.14
  -9  45   9    0.46    0.14
  -9 -45  -9    0.70    0.13
  -9 -45   9    0.45    0.13
  -9  45  -9    0.67    0.13
  -9 -45 -11    0.89    0.16
  -9  45  11    1.15    0.20
   9 -45  11    1.03    0.18
   9  45 -11    1.08    0.18
  -9  45 -11    1.31    0.19
  -9 -45  11    1.02    0.17
 -11  45   1    0.90    0.14
 -11 -45  -1    1.14    0.15
  11  45  -1    0.83    0.14
 -11  45  -1    1.29    0.13
 -11  45  -1    1.37    0.15
 -11 -45   1    1.55    0.16
  11  45   1    1.07    0.14
 -11  45   3    0.12    0.10
 -11 -45  -3    0.23    0.09
  11  45  -3    0.24    0.10
 -11  45  -3    0.25    0.09
 -11 -45   3    0.28    0.10
 -11  45  -3    0.39    0.10
  11  45   3    0.15    0.08
 -11 -45   3    0.23    0.10
 -11 -45  -5    1.42    0.16
  11  45  -5    1.35    0.17
 -11  45   5    1.39    0.17
 -11 -45   5    1.65    0.18
 -11 -45   5    1.50    0.17
 -11  45  -5    1.46    0.16
 -11 -45  -7    0.27    0.11
  11 -45   7    0.10    0.10
 -11  45   7    0.29    0.12
  11  45  -7    0.23    0.11
 -11 -45   7    0.36    0.12
 -11  45  -7    0.27    0.11
  11 -45   9    0.90    0.16
  11  45  -9    0.82    0.17
 -11 -45  -9    1.04    0.17
 -11  45   9    1.05    0.19
 -11 -45   9    0.88    0.16
 -11  45  -9    1.05    0.16
  11 -45  11    0.35    0.14
 -13 -45  -1    1.88    0.19
  13  45  -1    1.57    0.18
 -13  45   1    1.89    0.19
  13  45   1    1.65    0.17
 -13  45  -1    1.71    0.17
 -13  45  -1    1.76    0.16
 -13 -45   1    1.82    0.19
 -13  45   3    0.35    0.12
 -13 -45  -3    0.46    0.11
  13  45  -3    0.37    0.12
 -13 -45   3    0.30    0.11
 -13 -45   3    0.20    0.10
 -13  45  -3    0.37    0.11
  13  45  -5    0.43    0.13
 -13  45   5    0.58    0.14
 -13 -45  -5    0.54    0.12
 -13 -45   5    0.40    0.13
 -13  45  -5    0.64    0.13
 -13 -45   5    0.51    0.12
 -13 -45  -7    0.02    0.09
  13  45  -7    0.06    0.12
 -13  45   7   -0.03    0.11
 -13  45  -7    0.13    0.11
 -13 -45  -9    0.32    0.13
  13  45  -9    0.40    0.15
 -13  45   9    0.53    0.15
 -13  45  -9    0.52    0.14
 -15 -45  -1    0.37    0.11
  15  45  -1    0.27    0.12
 -15  45   1    0.54    0.13
 -15  45  -1    0.44    0.11
 -15 -45   1    0.45    0.13
  15  45   1    0.25    0.11
 -15  45  -1    0.44    0.12
 -15  45   3    0.53    0.13
 -15 -45  -3    0.48    0.12
  15  45  -3    0.65    0.15
 -15  45  -3    0.66    0.13
 -15 -45  -5    0.18    0.11
 -15  45   5    0.10    0.12
  15  45  -5    0.14    0.11
 -15 -45   5    0.12    0.11
 -15  45  -5    0.09    0.10
 -15  45   7    0.85    0.18
 -15 -45  -7    0.95    0.16
  15  45  -7    0.89    0.17
 -15 -45   7    0.53    0.16
 -15  45  -7    1.02    0.17
  17  45  -1    0.51    0.14
 -17  45   1    0.47    0.13
 -17  45  -1    0.39    0.12
 -17  45   3    1.67    0.21
 -17 -45  -3    1.67    0.20
  17  45  -3    1.70    0.20
 -17  45  -3    1.54    0.19
  17  45  -5    0.46    0.14
 -17  45   5    0.33    0.14
 -17 -45  -5    0.18    0.12
 -17  45  -5    0.18    0.12
 -17 -45   5    0.19    0.13
  19  45  -3    0.41    0.15
 -19  45   3    0.29    0.14
 -19  45  -3    0.24    0.14
   0  46   0    0.31    0.08
   0 -46   0    0.36    0.08
   0 -46  -2    7.55    0.32
   0 -46   2    7.90    0.34
   0  46  -2    7.83    0.33
   0  46   2    7.45    0.33
   0 -46  -4   -0.01    0.06
   0 -46   4    0.00    0.07
   0  46  -4    0.17    0.08
   0  46  -4    0.12    0.07
   0  46   4    0.11    0.08
   0  46   6    2.23    0.17
   0 -46  -6    2.44    0.18
   0 -46   6    2.31    0.18
   0  46  -6    2.45    0.18
   0  46  -6    2.37    0.17
   0  46  -8   -0.14    0.07
   0  46   8   -0.07    0.06
   0 -46   8    0.05    0.09
   0 -46  -8   -0.03    0.07
   0  46  -8    0.03    0.09
   0 -46 -10    0.12    0.09
   0  46 -10   -0.06    0.09
   0 -46  10    0.10    0.10
   0  46 -12    0.13    0.13
   0 -46 -12    0.01    0.09
   0 -46  12   -0.20    0.09
   2  46   0    2.47    0.17
  -2 -46   0    2.46    0.18
  -2  46   0    2.50    0.17
   2 -46   0    2.35    0.16
  -2 -46  -2    1.51    0.15
  -2  46   2    1.37    0.14
   2 -46   2    0.97    0.13
  -2  46  -2    1.47    0.14
  -2  46  -2    1.52    0.11
   2 -46  -2    1.81    0.14
  -2 -46   2    1.87    0.15
   2  46   2    1.62    0.14
  -2  46   4    4.35    0.24
   2  46  -4    3.98    0.22
   2  46  -4    4.09    0.20
   2 -46   4    4.15    0.23
  -2 -46  -4    4.06    0.23
  -2  46  -4    4.00    0.22
   2  46   4    4.03    0.22
   2 -46  -4    4.40    0.22
  -2 -46   4    3.92    0.23
  -2  46  -4    3.84    0.20
   2  46  -6    1.36    0.14
   2 -46   6    1.19    0.15
   2  46  -6    1.23    0.15
  -2 -46  -6    1.42    0.15
  -2  46   6    1.17    0.14
   2 -46  -6    1.42    0.14
  -2  46  -6    1.45    0.14
   2  46   6    1.19    0.14
  -2 -46   6    1.30    0.16
  -2  46  -6    1.35    0.13
   2  46  -8    0.38    0.11
   2  46  -8    0.37    0.11
   2 -46   8    0.26    0.10
  -2 -46  -8    0.37    0.10
  -2  46   8    0.38    0.11
   2 -46  -8    0.29    0.09
  -2  46  -8    0.31    0.09
  -2  46  -8    0.41    0.11
  -2 -46   8    0.34    0.11
   2  46   8    0.31    0.09
  -2 -46 -10    1.05    0.15
   2  46 -10    1.19    0.16
  -2  46  10    1.05    0.16
   2 -46  10    1.06    0.17
   2  46 -10    1.15    0.17
  -2 -46  10    1.26    0.17
   2 -46 -10    1.05    0.14
  -2  46 -10    1.30    0.18
  -2 -46 -12    0.04    0.10
   2  46 -12   -0.02    0.12
   2 -46  12    0.01    0.11
  -2 -46  12   -0.08    0.11
  -2  46 -12    0.03    0.12
   4 -46   0    1.03    0.12
   4  46   0    0.75    0.11
  -4  46   0    1.04    0.12
  -4 -46   0    1.34    0.14
  -4  46   2    1.49    0.15
  -4 -46  -2    1.47    0.14
   4  46  -2    1.36    0.14
   4 -46   2    1.28    0.13
   4  46   2    1.44    0.14
  -4  46  -2    1.45    0.11
  -4  46  -2    1.26    0.13
  -4 -46   2    1.65    0.16
   4 -46  -2    1.41    0.13
  -4  46   4    2.32    0.18
   4  46  -4    2.56    0.19
  -4 -46  -4    2.71    0.18
   4 -46   4    2.51    0.18
  -4  46  -4    2.65    0.16
   4 -46  -4    2.63    0.17
  -4  46  -4    2.64    0.17
  -4 -46   4    2.36    0.18
   4  46   4    2.67    0.18
  -4  46   6    1.05    0.14
   4 -46   6    0.82    0.13
  -4 -46  -6    0.50    0.11
   4  46  -6    1.03    0.14
   4  46  -6    0.62    0.11
   4 -46  -6    0.72    0.11
  -4 -46   6    0.78    0.13
   4  46   6    0.98    0.12
  -4  46  -6    0.83    0.12
  -4  46  -6    0.92    0.11
  -4  46   8   -0.02    0.09
  -4 -46  -8    0.04    0.08
   4  46  -8    0.10    0.10
   4 -46   8    0.12    0.09
   4  46  -8    0.03    0.09
   4 -46  -8   -0.02    0.06
  -4 -46   8    0.04    0.10
  -4  46  -8    0.02    0.09
  -4  46  10   -0.01    0.09
   4 -46  10    0.12    0.11
  -4 -46 -10    0.16    0.10
   4  46 -10    0.00    0.10
   4  46 -10    0.02    0.11
  -4  46 -10    0.14    0.11
  -4 -46  10    0.09    0.10
   4  46 -12    0.19    0.13
  -4 -46 -12    0.59    0.14
   4 -46  12    0.20    0.13
  -4 -46  12    0.24    0.13
  -4  46 -12    0.38    0.14
   6 -46   0    7.83    0.32
  -6  46   0    7.17    0.33
   6  46   0    8.15    0.34
  -6 -46   0    7.05    0.34
  -6 -46  -2    1.02    0.13
   6 -46   2    0.89    0.12
  -6  46   2    0.88    0.13
   6  46  -2    0.77    0.12
  -6  46  -2    1.09    0.11
  -6 -46   2    0.80    0.12
   6 -46  -2    1.04    0.11
   6  46   2    0.95    0.12
  -6  46  -2    0.70    0.11
  -6 -46  -4    0.68    0.11
   6 -46   4    0.65    0.11
   6  46  -4    0.63    0.12
  -6  46   4    0.78    0.12
  -6 -46   4    0.76    0.12
   6 -46  -4    0.81    0.10
  -6  46  -4    0.64    0.10
   6  46   4    0.63    0.10
  -6  46  -4    0.98    0.11
  -6  46   6    0.33    0.10
   6 -46   6    0.39    0.11
  -6 -46  -6    0.13    0.08
   6  46  -6    0.21    0.10
  -6  46  -6    0.20    0.09
  -6 -46   6    0.22    0.10
   6  46   6    0.22    0.08
  -6  46  -6    0.23    0.08
  -6  46   8    0.94    0.15
   6  46  -8    0.78    0.14
   6 -46   8    0.89    0.15
  -6 -46  -8    1.23    0.15
  -6 -46   8    0.66    0.13
  -6  46  -8    0.78    0.13
  -6  46  10    0.15    0.11
  -6 -46 -10    0.10    0.10
   6  46 -10    0.09    0.12
   6  46 -10    0.25    0.12
   6 -46  10    0.15    0.11
  -6 -46  10    0.33    0.12
  -6  46 -10    0.05    0.10
  -6  46  12    0.16    0.11
   6  46 -12   -0.04    0.12
   6 -46  12    0.31    0.13
   6  46 -12    0.31    0.13
  -6 -46 -12    0.12    0.11
  -6 -46  12   -0.03    0.11
  -6  46 -12    0.23    0.13
  -8 -46   0    2.89    0.20
   8  46   0    2.91    0.20
   8 -46   0    2.99    0.18
  -8  46   0    2.85    0.19
  -8 -46  -2    0.96    0.13
   8 -46   2    0.81    0.11
  -8  46   2    0.77    0.12
   8  46  -2    1.13    0.14
   8  46   2    1.14    0.13
  -8 -46   2    1.03    0.14
  -8  46  -2    0.91    0.12
  -8  46  -2    0.87    0.11
   8  46  -4    1.08    0.14
   8 -46   4    0.87    0.12
  -8  46   4    0.72    0.12
  -8 -46  -4    1.09    0.13
  -8  46  -4    1.01    0.12
  -8 -46   4    1.04    0.14
  -8  46  -4    0.98    0.12
   8  46   4    1.04    0.12
  -8 -46  -6    0.78    0.13
  -8  46   6    0.59    0.13
   8  46  -6    0.69    0.13
   8 -46   6    0.71    0.13
  -8  46  -6    0.70    0.12
  -8 -46   6    0.90    0.14
   8 -46   8    1.07    0.16
   8  46  -8    1.36    0.17
  -8  46   8    1.05    0.17
  -8 -46  -8    1.38    0.17
  -8 -46   8    1.52    0.18
  -8  46  -8    1.96    0.19
  -8 -46 -10    0.11    0.09
   8 -46  10    0.41    0.14
   8  46 -10    0.05    0.12
  -8  46  10    0.17    0.13
  -8  46 -10    0.25    0.12
  -8 -46  10    0.21    0.12
   8  46 -12    0.03    0.12
  -8  46  12    0.09    0.13
  -8 -46  12   -0.01    0.11
 -10 -46   0    0.27    0.09
 -10  46   0    0.19    0.09
  10  46   0    0.02    0.09
  10  46  -2    1.35    0.16
 -10  46   2    1.07    0.14
 -10 -46  -2    1.30    0.15
 -10  46  -2    1.41    0.15
 -10 -46   2    1.48    0.17
 -10  46  -2    1.24    0.13
  10  46   2    1.14    0.14
 -10 -46  -4    0.15    0.09
  10 -46   4   -0.07    0.07
  10  46  -4    0.01    0.09
 -10  46   4    0.05    0.09
 -10 -46   4    0.10    0.09
 -10 -46   4    0.04    0.08
 -10  46  -4    0.05    0.08
 -10  46  -4    0.00    0.07
  10  46   4   -0.01    0.07
 -10  46   6    1.47    0.19
 -10 -46  -6    1.64    0.18
  10 -46   6    1.79    0.18
  10  46  -6    1.59    0.18
 -10 -46   6    1.69    0.19
 -10  46  -6    2.15    0.18
 -10 -46  -8    0.16    0.10
 -10  46   8    0.06    0.11
  10  46  -8    0.03    0.11
  10 -46   8    0.20    0.11
 -10 -46   8    0.26    0.11
 -10  46  -8    0.17    0.11
 -10 -46 -10    0.31    0.12
  10 -46  10    0.34    0.13
  10  46 -10    0.43    0.14
 -10  46  10    0.31    0.14
 -10 -46  10    0.58    0.14
 -10  46 -10    0.31    0.12
  12  46   0    1.84    0.18
 -12  46   0    2.30    0.18
 -12 -46   0    2.28    0.20
  12  46  -2    0.23    0.10
 -12 -46  -2    0.01    0.08
 -12  46   2    0.19    0.10
  12  46   2    0.06    0.09
 -12 -46   2    0.03    0.09
 -12  46  -2    0.16    0.08
 -12  46  -2    0.13    0.09
 -12  46   4    0.81    0.15
 -12 -46  -4    0.70    0.13
  12  46  -4    0.57    0.13
 -12 -46   4    0.83    0.14
 -12  46  -4    0.66    0.13
 -12 -46   4    0.71    0.13
 -12  46   6    0.36    0.12
  12  46  -6    0.20    0.11
 -12 -46  -6    0.10    0.10
 -12  46  -6    0.15    0.10
 -12 -46   6    0.20    0.10
 -12  46   8    1.18    0.19
 -12 -46  -8    1.43    0.18
  12  46  -8    1.14    0.18
 -12  46  -8    1.28    0.18
  12 -46  10    0.16    0.12
 -12  46 -10    0.40    0.14
  14  46   0    0.25    0.11
 -14  46   0    0.15    0.10
 -14 -46   0    0.17    0.10
  14  46  -2    0.42    0.13
 -14  46   2    0.48    0.12
 -14 -46  -2    0.54    0.12
 -14 -46   2    0.49    0.12
 -14  46  -2    0.55    0.12
  14  46   2    0.34    0.11
  14  46  -4    0.08    0.11
 -14 -46  -4    0.01    0.09
 -14  46   4    0.15    0.11
 -14 -46   4    0.10    0.10
 -14 -46   4    0.05    0.09
 -14  46  -4    0.10    0.10
 -14  46   6    0.03    0.12
 -14 -46  -6    0.00    0.10
  14  46  -6    0.01    0.11
 -14 -46   6    0.10    0.12
 -14  46  -6    0.03    0.10
  14  46  -8    0.10    0.11
 -14 -46  -8    0.05    0.11
 -14  46   8    0.16    0.12
 -14  46  -8    0.19    0.12
  16  46   0    0.07    0.10
 -16  46   0   -0.03    0.09
 -16 -46   0   -0.04    0.09
 -16 -46  -2    1.00    0.16
  16  46  -2    1.16    0.17
 -16  46   2    1.30    0.18
 -16  46  -2    1.41    0.18
  16  46  -4    0.46    0.14
 -16 -46  -4    0.56    0.13
 -16  46   4    0.36    0.14
 -16  46  -4    0.65    0.14
 -16 -46  -6    0.03    0.10
  16  46  -6    0.09    0.13
 -16  46   6   -0.05    0.12
 -16 -46   6    0.12    0.13
 -16  46  -6    0.05    0.11
 -18  46   2    0.74    0.15
  18  46  -2    0.27    0.13
 -18  46  -2    0.39    0.14
  18  46  -4   -0.15    0.11
 -18  46   4   -0.08    0.11
 -18  46  -4    0.01    0.12
  -1  47   1    7.94    0.36
   1  47  -1    9.11    0.37
   1 -47   1    8.98    0.37
  -1 -47  -1    9.29    0.37
  -1  47  -1    9.18    0.37
  -1 -47   1    9.83    0.38
   1 -47  -1    9.34    0.37
   1  47   1    8.87    0.37
   1  47  -3    9.86    0.41
   1 -47   3   11.11    0.43
  -1 -47  -3   11.08    0.42
  -1  47   3   10.17    0.42
   1  47  -3   10.46    0.37
   1 -47  -3   10.64    0.41
  -1  47  -3   10.21    0.41
   1  47   3   10.22    0.42
  -1  47  -3   10.69    0.38
  -1 -47   3   10.90    0.43
   1  47  -5    4.14    0.23
   1  47  -5    4.08    0.21
   1 -47   5    4.06    0.24
  -1 -47  -5    3.77    0.22
  -1  47   5    4.10    0.24
   1 -47  -5    4.15    0.23
  -1  47  -5    4.19    0.23
  -1 -47   5    4.28    0.25
   1  47   5    4.00    0.23
  -1  47  -5    4.35    0.21
   1  47  -7    1.38    0.15
  -1 -47  -7    1.27    0.14
   1  47  -7    1.22    0.14
   1 -47   7    1.00    0.15
  -1  47   7    1.19    0.14
  -1 -47   7    1.04    0.15
  -1  47  -7    1.34    0.15
  -1  47  -7    1.10    0.13
   1 -47  -7    1.11    0.13
   1  47   7    1.25    0.14
  -1  47   9    0.27    0.10
   1  47  -9    0.10    0.10
   1 -47   9    0.43    0.12
   1  47  -9    0.15    0.10
  -1 -47  -9    0.34    0.10
   1  47   9    0.24    0.10
  -1  47  -9    0.24    0.11
  -1  47  -9    0.26    0.10
   1 -47  -9    0.27    0.10
  -1 -47   9    0.30    0.11
  -1 -47 -11    0.68    0.13
   1 -47  11    0.83    0.16
   1  47 -11    0.74    0.15
  -1 -47  11    1.02    0.17
  -1  47 -11    0.91    0.16
   1 -47 -11    0.87    0.14
  -1 -47 -13    0.22    0.12
   3  47  -1    5.19    0.26
  -3  47   1    5.03    0.26
  -3 -47  -1    4.73    0.25
   3 -47   1    5.31    0.26
   3 -47  -1    5.37    0.26
   3  47   1    5.42    0.26
  -3  47  -1    5.56    0.26
  -3 -47   1    5.26    0.27
   3  47  -3    2.00    0.14
   3 -47   3    2.20    0.17
  -3  47   3    1.99    0.16
  -3 -47  -3    1.94    0.17
   3  47  -3    2.29    0.17
  -3  47  -3    2.11    0.14
  -3  47  -3    1.97    0.15
   3 -47  -3    2.31    0.15
   3  47   3    1.85    0.15
  -3 -47   3    1.98    0.16
   3  47  -5    0.31    0.10
   3 -47   5    0.16    0.09
  -3  47   5    0.30    0.10
  -3 -47  -5    0.20    0.08
   3  47  -5    0.17    0.08
  -3 -47   5    0.23    0.10
  -3  47  -5    0.35    0.09
  -3  47  -5    0.15    0.07
   3 -47  -5    0.32    0.09
   3  47   5    0.21    0.08
   3 -47   7    1.68    0.18
   3  47  -7    1.83    0.17
  -3 -47  -7    1.50    0.16
   3  47  -7    1.75    0.17
  -3  47   7    1.62    0.17
   3 -47  -7    1.58    0.15
  -3  47  -7    1.67    0.15
   3  47   7    1.69    0.16
  -3 -47   7    1.67    0.18
  -3  47  -7    1.90    0.17
   3 -47   9    0.72    0.14
   3  47  -9    1.07    0.15
   3  47  -9    0.82    0.14
  -3 -47  -9    0.85    0.14
  -3  47   9    0.97    0.15
   3 -47  -9    0.74    0.12
  -3 -47   9    0.61    0.13
  -3  47  -9    0.47    0.13
  -3  47  11    0.18    0.11
   3 -47  11    0.16    0.12
   3  47 -11    0.16    0.12
  -3 -47 -11    0.29    0.11
   3  47 -11    0.20    0.11
  -3  47 -11    0.16    0.11
  -3 -47  11    0.29    0.13
  -5 -47  -1    4.67    0.25
  -5  47   1    4.96    0.25
   5  47  -1    4.53    0.25
   5 -47   1    4.77    0.24
   5 -47  -1    4.53    0.23
  -5  47  -1    4.54    0.25
   5  47   1    5.11    0.25
  -5 -47   1    4.41    0.25
  -5  47   3    1.90    0.16
  -5 -47  -3    2.04    0.16
   5 -47   3    1.94    0.17
   5  47  -3    2.35    0.18
   5  47   3    1.98    0.15
  -5 -47   3    2.12    0.19
  -5  47  -3    2.03    0.15
   5 -47  -3    1.84    0.14
  -5  47  -3    2.31    0.14
   5  47  -5    0.97    0.13
  -5 -47  -5    1.16    0.14
  -5  47   5    0.87    0.13
   5 -47   5    0.84    0.13
   5 -47  -5    0.98    0.12
  -5 -47   5    1.28    0.16
   5  47   5    1.10    0.12
  -5  47  -5    1.07    0.12
  -5  47  -5    0.87    0.11
   5 -47   7    0.09    0.09
  -5  47   7    0.30    0.11
   5  47  -7    0.09    0.09
  -5 -47  -7    0.08    0.08
  -5  47  -7    0.09    0.07
  -5  47  -7    0.09    0.08
   5  47   7    0.24    0.09
  -5 -47   7    0.21    0.10
   5  47  -9    0.19    0.11
   5  47  -9    0.18    0.11
   5 -47   9    0.12    0.10
  -5  47   9    0.01    0.09
  -5 -47  -9    0.07    0.09
  -5  47  -9    0.23    0.11
  -5 -47   9    0.13    0.11
   5  47 -11    1.18    0.17
  -5  47  11    1.22    0.18
   5 -47  11    0.81    0.16
  -5 -47 -11    0.90    0.15
   5  47 -11    0.67    0.16
  -5 -47  11    1.09    0.17
  -5  47 -11    1.08    0.17
   7  47  -1    1.29    0.15
   7 -47   1    1.46    0.14
  -7 -47  -1    1.50    0.16
  -7  47   1    1.28    0.14
   7 -47  -1    1.26    0.13
  -7 -47   1    1.58    0.17
  -7  47  -1    1.57    0.15
   7  47   1    1.62    0.15
   7 -47   3    5.63    0.28
  -7 -47  -3    5.70    0.29
  -7  47   3    5.83    0.30
   7  47  -3    6.34    0.31
  -7  47  -3    5.87    0.28
  -7 -47   3    6.47    0.31
  -7  47  -3    6.38    0.26
   7  47   3    5.58    0.28
   7 -47   5    3.29    0.22
   7  47  -5    3.77    0.24
  -7  47   5    3.92    0.24
  -7 -47  -5    3.42    0.22
  -7  47  -5    3.43    0.20
  -7  47  -5    3.46    0.20
  -7 -47   5    3.03    0.23
   7  47   5    3.34    0.20
   7  47  -7    0.10    0.10
  -7 -47  -7    0.09    0.09
  -7  47   7    0.16    0.11
   7 -47   7   -0.02    0.08
  -7  47  -7    0.13    0.09
  -7 -47   7    0.12    0.10
  -7 -47  -9    0.12    0.10
   7 -47   9    0.12    0.10
   7  47  -9    0.22    0.12
  -7  47   9    0.16    0.11
  -7 -47   9    0.18    0.11
  -7  47  -9    0.26    0.11
   7 -47  11    0.46    0.14
  -7 -47 -11    0.48    0.12
   7  47 -11    0.43    0.14
  -7  47  11    0.27    0.13
   7  47 -11    0.32    0.14
  -7  47 -11    0.49    0.14
  -7 -47  11    0.32    0.13
  -9 -47  -1    1.14    0.14
   9  47  -1    1.32    0.15
  -9  47   1    1.25    0.15
  -9  47  -1    1.35    0.15
   9  47   1    1.33    0.14
  -9 -47   1    1.23    0.15
   9  47  -3    0.49    0.12
  -9 -47  -3    0.58    0.11
  -9  47   3    0.54    0.12
   9 -47   3    0.38    0.09
   9  47   3    0.31    0.09
  -9 -47   3    0.43    0.11
  -9  47  -3    0.46    0.09
  -9  47  -3    0.45    0.10
   9  47  -5    0.57    0.13
   9 -47   5    0.58    0.11
  -9  47   5    0.41    0.12
  -9 -47  -5    0.72    0.13
   9  47   5    0.73    0.11
  -9 -47   5    0.69    0.13
  -9  47  -5    0.56    0.11
   9  47  -7    2.09    0.21
  -9  47   7    2.20    0.22
   9 -47   7    2.04    0.20
  -9 -47  -7    2.03    0.19
  -9  47  -7    2.18    0.19
  -9 -47   7    1.86    0.20
   9  47  -9    0.91    0.16
  -9  47   9    0.71    0.16
  -9 -47  -9    0.82    0.15
   9 -47   9    0.74    0.15
  -9  47  -9    1.00    0.15
  -9 -47   9    0.94    0.15
   9  47 -11    0.16    0.13
   9 -47  11    0.26    0.13
  -9  47  11    0.34    0.14
  -9 -47  11    0.33    0.13
  -9  47 -11    0.27    0.13
 -11  47   1   -0.06    0.08
 -11 -47  -1    0.04    0.08
  11  47  -1    0.12    0.10
  11  47   1    0.15    0.09
 -11  47  -1   -0.01    0.08
 -11 -47   1    0.04    0.08
 -11  47   3   -0.09    0.09
  11  47  -3   -0.07    0.09
 -11 -47  -3   -0.04    0.08
 -11  47  -3   -0.06    0.08
 -11 -47   3    0.11    0.09
 -11  47  -3   -0.13    0.07
  11  47   3    0.12    0.08
  11  47  -5    0.36    0.12
 -11 -47  -5    0.64    0.13
 -11  47   5    0.52    0.13
 -11 -47   5    0.64    0.13
 -11  47  -5    0.59    0.12
  11  47  -7    0.82    0.16
 -11  47   7    0.48    0.14
 -11 -47  -7    0.93    0.15
  11 -47   7    0.79    0.14
 -11 -47   7    0.44    0.13
 -11  47  -7    0.69    0.14
 -11 -47  -9    0.18    0.11
 -11  47   9    0.27    0.13
  11 -47   9    0.31    0.12
  11  47  -9    0.04    0.12
 -11  47  -9    0.14    0.11
 -11 -47   9    0.19    0.11
  13  47  -1   -0.02    0.09
 -13 -47  -1   -0.07    0.08
 -13  47   1   -0.06    0.09
  13  47   1    0.00    0.09
 -13 -47   1    0.19    0.10
 -13  47  -1   -0.01    0.09
 -13 -47  -3    0.04    0.09
  13  47  -3    0.07    0.11
 -13  47   3    0.04    0.10
 -13 -47   3   -0.15    0.08
 -13  47  -3    0.01    0.09
 -13  47   5    0.07    0.11
  13  47  -5    0.06    0.10
 -13 -47  -5   -0.02    0.08
 -13  47  -5   -0.05    0.09
 -13 -47   5    0.02    0.09
 -13 -47   5    0.16    0.11
 -13 -47  -7    0.08    0.11
  13  47  -7    0.24    0.13
 -13  47   7    0.19    0.12
 -13  47  -7    0.07    0.11
  13  47  -9    0.19    0.12
 -13  47  -9    0.08    0.12
 -15 -47  -1    0.13    0.10
 -15  47   1    0.15    0.11
  15  47  -1    0.02    0.10
 -15 -47   1    0.01    0.09
  15  47   1    0.03    0.10
 -15  47  -1    0.26    0.11
  15  47  -3    0.91    0.16
 -15  47   3    1.05    0.17
 -15 -47  -3    0.99    0.15
 -15  47  -3    0.86    0.15
 -15 -47  -5    0.14    0.10
 -15  47   5    0.13    0.12
  15  47  -5    0.02    0.12
 -15  47  -5    0.18    0.11
 -15 -47   5    0.02    0.11
 -15  47   7    0.28    0.14
  15  47  -7    0.16    0.11
 -15 -47  -7    0.35    0.13
 -15  47  -7    0.28    0.13
  17  47  -1    0.39    0.14
 -17  47   1    0.26    0.12
  17  47  -3    0.19    0.13
 -17 -47  -3    0.12    0.11
 -17  47   3    0.12    0.12
 -17  47  -3    0.33    0.13
  17  47  -5    0.08    0.13
 -17 -47  -5    0.05    0.10
 -17  47   5    0.05    0.11
 -17  47  -5    0.02    0.11
 -19  47  -3    0.13    0.13
   0  48   0   28.26    0.96
   0 -48   0   29.74    0.95
   0 -48   2    0.08    0.08
   0  48  -2    0.11    0.08
   0  48   2    0.04    0.07
   0 -48  -2    0.02    0.07
   0  48  -4    0.33    0.08
   0  48   4    0.33    0.09
   0 -48   4    0.27    0.09
   0  48  -4    0.22    0.08
   0 -48  -4    0.29    0.09
   0  48   6    0.01    0.07
   0 -48   6   -0.03    0.08
   0 -48  -6    0.10    0.07
   0  48  -6   -0.04    0.08
   0  48  -6   -0.01    0.07
   0 -48   8    2.03    0.20
   0  48  -8    1.76    0.18
   0  48   8    1.84    0.16
   0 -48  -8    2.03    0.18
   0  48  -8    1.99    0.18
   0  48 -10   -0.10    0.09
   0 -48  10   -0.05    0.10
   0 -48 -10   -0.05    0.08
   0  48 -12    0.81    0.16
   0 -48  12    0.71    0.16
   0 -48 -12    0.76    0.15
  -2 -48   0    5.68    0.27
  -2  48   0    5.21    0.26
   2  48   0    4.90    0.25
   2 -48   0    5.14    0.26
  -2  48   2    2.35    0.17
  -2 -48  -2    2.63    0.18
   2 -48   2    2.23    0.17
   2  48  -2    2.77    0.18
   2  48   2    2.48    0.18
  -2  48  -2    2.35    0.17
   2 -48  -2    2.49    0.17
  -2 -48   2    2.45    0.18
  -2 -48  -4    2.16    0.16
   2 -48   4    2.12    0.19
   2  48  -4    2.23    0.14
   2  48  -4    2.10    0.17
  -2  48   4    2.05    0.17
   2 -48  -4    1.96    0.16
   2  48   4    2.21    0.17
  -2  48  -4    2.03    0.16
  -2  48  -4    1.99    0.15
  -2 -48   4    1.85    0.18
  -2 -48  -6    0.74    0.12
   2  48  -6    0.77    0.13
   2 -48   6    0.73    0.13
   2  48  -6    0.73    0.11
  -2  48   6    0.92    0.13
  -2  48  -6    0.57    0.10
  -2  48  -6    0.57    0.10
   2 -48  -6    0.84    0.12
  -2 -48   6    0.72    0.12
   2  48   6    0.69    0.11
  -2 -48  -8    0.97    0.14
  -2  48   8    1.25    0.16
   2  48  -8    0.90    0.14
   2  48  -8    0.93    0.14
   2 -48   8    0.86    0.14
  -2  48  -8    1.09    0.15
  -2  48  -8    0.91    0.12
  -2 -48   8    0.91    0.15
   2 -48  -8    1.04    0.14
   2  48   8    0.96    0.13
  -2 -48 -10    0.64    0.13
  -2  48  10    0.85    0.15
   2 -48  10    0.78    0.16
   2  48 -10    0.76    0.14
   2  48 -10    0.78    0.15
   2 -48 -10    0.85    0.13
  -2  48 -10    0.69    0.15
  -2 -48  10    0.83    0.15
  -2 -48 -12    0.09    0.10
   2 -48  12   -0.02    0.12
   2  48 -12    0.04    0.11
  -2 -48  12    0.10    0.12
  -2  48 -12    0.00    0.12
  -4 -48   0    4.34    0.23
   4 -48   0    3.97    0.22
  -4  48   0    3.90    0.22
   4  48   0    3.77    0.23
   4 -48   2    0.16    0.08
   4  48  -2    0.11    0.08
  -4  48   2    0.01    0.08
  -4 -48  -2    0.14    0.07
   4  48   2    0.06    0.07
  -4 -48   2    0.19    0.08
   4 -48  -2    0.10    0.07
  -4  48  -2    0.22    0.08
  -4  48   4    2.56    0.19
   4  48  -4    2.83    0.20
   4 -48   4    2.73    0.19
   4  48  -4    2.77    0.17
  -4 -48  -4    2.55    0.18
   4  48   4    2.66    0.18
  -4  48  -4    3.00    0.17
  -4  48  -4    2.50    0.17
   4 -48  -4    2.76    0.17
  -4 -48   4    2.59    0.20
  -4  48   6    0.60    0.12
   4 -48   6    0.63    0.12
   4  48  -6    0.44    0.11
  -4 -48  -6    0.48    0.11
   4  48  -6    0.58    0.11
   4  48   6    0.53    0.11
  -4  48  -6    0.57    0.10
   4 -48  -6    0.53    0.10
  -4 -48   6    0.49    0.12
  -4  48  -6    0.33    0.09
   4 -48   8    0.68    0.14
  -4  48   8    0.99    0.15
   4  48  -8    0.79    0.14
   4  48  -8    1.07    0.15
  -4 -48  -8    0.99    0.14
  -4 -48   8    0.86    0.15
  -4  48  -8    1.19    0.15
   4 -48  -8    0.94    0.12
   4 -48  10   -0.26    0.08
   4  48 -10    0.19    0.12
   4  48 -10   -0.10    0.10
  -4  48  10   -0.07    0.09
  -4 -48 -10    0.07    0.09
  -4  48 -10    0.03    0.10
  -4 -48  10    0.01    0.10
   4 -48  12    0.18    0.13
   4  48 -12    0.44    0.15
  -4 -48 -12    0.10    0.11
  -4 -48  12    0.24    0.13
  -4  48 -12    0.36    0.14
  -6  48   0    1.07    0.13
  -6 -48   0    1.00    0.14
   6  48   0    0.89    0.12
   6 -48   0    0.97    0.12
   6  48  -2    4.12    0.24
  -6  48   2    4.67    0.25
   6 -48   2    4.32    0.23
  -6 -48  -2    4.23    0.24
   6  48   2    3.93    0.23
  -6 -48   2    4.56    0.25
  -6  48  -2    4.68    0.24
   6 -48  -2    4.85    0.23
  -6  48   4    0.85    0.13
  -6 -48  -4    0.95    0.13
   6 -48   4    0.78    0.12
   6  48  -4    0.97    0.14
  -6  48  -4    0.90    0.12
   6 -48  -4    0.82    0.11
  -6 -48   4    0.89    0.14
  -6  48  -4    1.08    0.12
   6  48   4    1.12    0.13
  -6  48   6    1.33    0.16
  -6 -48  -6    1.21    0.14
   6  48  -6    1.33    0.16
   6 -48   6    1.42    0.17
  -6  48  -6    1.54    0.15
   6  48   6    1.24    0.14
  -6  48  -6    1.09    0.13
  -6 -48   6    1.47    0.17
  -6  48   8    0.26    0.11
  -6 -48  -8    0.30    0.11
   6 -48   8    0.24    0.10
   6  48  -8    0.45    0.13
  -6 -48   8    0.32    0.11
  -6  48  -8    0.45    0.11
  -6  48  10    0.03    0.11
  -6 -48 -10    0.22    0.11
   6 -48  10    0.21    0.12
   6  48 -10   -0.01    0.11
   6  48 -10    0.09    0.12
  -6 -48  10    0.21    0.11
  -6  48 -10    0.25    0.12
   6  48 -12   -0.01    0.12
  -6  48  12   -0.02    0.12
   6  48 -12    0.42    0.14
  -6 -48  12    0.13    0.12
  -8 -48   0    1.44    0.16
   8  48   0    1.53    0.16
   8 -48   0    1.48    0.14
  -8  48   0    1.36    0.15
   8  48  -2    0.12    0.09
   8 -48   2    0.12    0.07
  -8 -48  -2    0.08    0.08
  -8  48   2    0.11    0.08
  -8 -48   2    0.14    0.09
  -8  48  -2    0.05    0.07
   8  48   2    0.29    0.09
  -8  48   4    2.86    0.20
   8 -48   4    2.64    0.19
  -8 -48  -4    2.74    0.20
   8  48  -4    2.56    0.20
   8  48   4    2.89    0.19
  -8  48  -4    2.78    0.18
  -8 -48   4    2.70    0.21
  -8  48  -4    2.69    0.18
  -8 -48  -6    0.92    0.14
   8 -48   6    0.72    0.13
   8  48  -6    0.78    0.14
  -8  48   6    0.77    0.14
  -8 -48   6    0.90    0.15
  -8  48  -6    0.91    0.12
  -8  48   8    1.45    0.18
  -8 -48  -8    1.42    0.17
   8 -48   8    1.24    0.17
   8  48  -8    1.10    0.17
  -8  48  -8    1.12    0.16
  -8 -48   8    1.15    0.16
  -8 -48 -10    0.13    0.11
   8  48 -10    0.06    0.11
   8 -48  10   -0.06    0.10
  -8  48  10    0.16    0.12
  -8  48 -10    0.19    0.12
  -8 -48  10    0.04    0.11
  10  48   0    0.21    0.09
 -10 -48   0    0.24    0.09
 -10  48   0    0.18    0.09
 -10 -48  -2    0.03    0.08
  10  48  -2   -0.04    0.09
 -10  48   2   -0.08    0.07
 -10  48  -2    0.01    0.08
 -10 -48   2    0.17    0.10
  10  48   2    0.08    0.08
 -10  48  -2    0.09    0.08
  10 -48   4    0.34    0.09
 -10 -48  -4    0.62    0.12
  10  48  -4    0.40    0.12
 -10  48   4    0.54    0.12
 -10  48  -4    0.30    0.09
 -10 -48   4    0.49    0.12
  10  48   4    0.32    0.09
 -10  48  -4    0.58    0.11
 -10 -48  -6    0.20    0.10
  10  48  -6    0.13    0.11
 -10  48   6    0.06    0.11
  10 -48   6    0.19    0.10
 -10  48  -6    0.25    0.10
 -10 -48   6    0.09    0.09
  10  48  -8    0.00    0.10
 -10  48   8    0.03    0.11
  10 -48   8   -0.03    0.10
 -10 -48  -8    0.13    0.11
 -10 -48   8    0.04    0.10
 -10  48  -8    0.06    0.10
 -10  48  10    0.22    0.13
  10  48 -10    0.20    0.13
  10 -48  10    0.27    0.13
 -10 -48 -10    0.36    0.13
 -10 -48  10   -0.01    0.11
 -10  48 -10    0.20    0.12
 -12  48   0    2.14    0.18
  12  48   0    2.36    0.20
 -12 -48   0    1.99    0.20
  12  48  -2    0.46    0.12
 -12  48   2    0.65    0.13
 -12 -48  -2    0.49    0.12
  12  48   2    0.67    0.12
 -12  48  -2    0.58    0.12
 -12 -48   2    0.64    0.13
 -12  48  -2    0.58    0.11
 -12 -48  -4    0.27    0.10
 -12  48   4    0.21    0.11
  12  48  -4    0.36    0.12
 -12 -48   4    0.27    0.11
 -12  48  -4    0.19    0.09
 -12 -48   4    0.23    0.11
  12  48  -6    0.41    0.14
 -12 -48  -6    0.47    0.13
 -12  48   6    0.45    0.13
 -12  48  -6    0.58    0.13
 -12 -48   6    0.56    0.13
  12  48  -8    0.25    0.12
 -12  48   8    0.28    0.14
 -12 -48  -8    0.23    0.12
 -12  48  -8    0.28    0.12
 -12 -48   8    0.43    0.13
  12 -48  10   -0.03    0.10
  14  48   0    1.11    0.16
 -14  48   0    0.96    0.15
 -14 -48   0    0.97    0.15
 -14 -48  -2    0.84    0.15
  14  48  -2    0.95    0.16
 -14  48   2    0.98    0.16
 -14 -48   2    0.76    0.14
  14  48  -4    1.06    0.17
 -14  48   4    0.96    0.16
 -14 -48  -4    1.03    0.16
 -14  48  -4    1.43    0.17
 -14 -48   4    1.37    0.18
 -14 -48  -6    0.32    0.12
 -14  48   6    0.28    0.14
  14  48  -6    0.24    0.12
 -14 -48   6    0.25    0.12
 -14  48  -6    0.51    0.13
 -14 -48  -8    0.01    0.11
 -14  48  -8    0.09    0.11
  16  48   0    0.21    0.12
 -16  48   0    0.13    0.11
 -16 -48   0    0.09    0.11
 -16 -48  -2    1.78    0.20
  16  48  -2    1.47    0.20
 -16  48   2    1.56    0.20
 -16 -48  -4    1.11    0.17
  16  48  -4    0.97    0.17
 -16  48   4    0.65    0.16
 -16  48  -4    1.01    0.16
 -16 -48  -6    0.84    0.16
  16  48  -6    0.78    0.16
 -16  48   6    0.91    0.18
 -16  48  -6    1.03    0.17
 -16 -48   6    0.82    0.17
  18  48  -2    0.02    0.12
 -18  48   2    0.02    0.11
 -18  48  -4    0.30    0.14
  -1 -49  -1    1.81    0.16
   1  49  -1    1.84    0.16
  -1  49   1    1.73    0.15
   1 -49   1    1.45    0.15
   1 -49  -1    1.81    0.15
  -1  49  -1    1.83    0.15
   1  49   1    1.56    0.15
  -1 -49   1    1.74    0.16
   1 -49   3    1.97    0.17
  -1 -49  -3    2.60    0.18
   1  49  -3    2.19    0.17
  -1  49   3    2.10    0.17
   1 -49  -3    2.40    0.17
  -1 -49   3    1.81    0.18
  -1  49  -3    2.34    0.17
   1  49   3    2.25    0.17
   1 -49   5    1.66    0.17
   1  49  -5    1.66    0.15
  -1 -49  -5    1.82    0.16
   1  49  -5    1.64    0.16
  -1  49   5    1.86    0.16
   1 -49  -5    1.88    0.15
  -1  49  -5    1.68    0.14
  -1 -49   5    1.80    0.17
   1  49   5    1.92    0.17
  -1  49  -5    1.76    0.16
  -1  49   7    0.10    0.09
   1  49  -7    0.21    0.09
  -1 -49  -7    0.13    0.08
   1  49  -7    0.06    0.09
   1 -49   7    0.10    0.10
   1  49   7    0.13    0.09
   1 -49  -7    0.03    0.07
  -1  49  -7    0.07    0.08
  -1 -49   7   -0.05    0.08
  -1  49  -7   -0.01    0.08
  -1 -49  -9    0.49    0.11
   1  49  -9    0.71    0.13
  -1  49   9    0.62    0.13
   1  49  -9    0.44    0.12
   1 -49   9    0.50    0.13
  -1  49  -9    0.60    0.12
  -1  49  -9    0.46    0.12
   1  49   9    0.55    0.12
   1 -49  -9    0.59    0.12
  -1 -49   9    0.73    0.14
   1  49 -11    0.02    0.11
  -1 -49 -11    0.03    0.10
   1 -49  11   -0.01    0.10
  -1 -49  11    0.11    0.11
  -1  49 -11    0.08    0.12
   1 -49 -11    0.05    0.09
  -3 -49  -1    1.33    0.14
  -3  49   1    1.38    0.14
   3 -49   1    1.25    0.14
   3  49  -1    1.46    0.15
   3  49   1    1.39    0.14
  -3 -49   1    1.27    0.14
   3 -49  -1    1.31    0.13
  -3  49  -1    1.48    0.14
  -3  49   3    0.90    0.13
   3  49  -3    0.87    0.12
   3 -49   3    1.11    0.14
  -3 -49  -3    0.99    0.13
   3 -49  -3    0.86    0.11
   3  49   3    0.98    0.12
  -3 -49   3    0.98    0.13
  -3  49  -3    1.02    0.13
   3  49  -5    1.41    0.16
   3 -49   5    1.64    0.17
  -3  49   5    1.13    0.14
   3  49  -5    1.54    0.14
  -3 -49  -5    1.43    0.15
   3  49   5    1.29    0.14
  -3 -49   5    1.32    0.16
  -3  49  -5    1.59    0.14
   3 -49  -5    1.26    0.13
  -3  49  -5    1.34    0.14
   3 -49   7    0.87    0.15
   3  49  -7    0.96    0.14
  -3 -49  -7    1.10    0.15
   3  49  -7    1.31    0.15
  -3  49   7    1.05    0.14
  -3 -49   7    1.11    0.16
   3 -49  -7    1.17    0.14
  -3  49  -7    1.09    0.13
   3  49   7    0.98    0.13
  -3  49  -7    0.76    0.12
   3 -49   9   -0.07    0.09
   3  49  -9    0.12    0.10
  -3  49   9    0.06    0.10
  -3 -49  -9   -0.04    0.08
   3  49  -9    0.21    0.11
  -3  49  -9    0.07    0.10
   3 -49  -9    0.02    0.08
  -3 -49   9    0.06    0.10
  -3  49  11    0.08    0.11
   3  49 -11    0.12    0.12
  -3 -49 -11    0.17    0.10
   3 -49  11    0.27    0.12
  -3 -49  11   -0.05    0.11
  -3  49 -11    0.15    0.12
  -5 -49  -1    2.25    0.18
   5  49  -1    2.15    0.17
   5 -49   1    2.49    0.17
  -5  49   1    2.69    0.18
   5 -49  -1    2.56    0.17
   5  49   1    1.91    0.16
  -5 -49   1    2.62    0.19
  -5  49  -1    2.58    0.18
  -5 -49  -3    0.35    0.10
   5 -49   3    0.40    0.10
   5  49  -3    0.31    0.10
  -5  49   3    0.54    0.11
  -5  49  -3    0.31    0.09
  -5 -49   3    0.31    0.10
   5 -49  -3    0.42    0.09
   5  49   3    0.32    0.09
  -5  49  -3    0.39    0.08
  -5 -49  -5    3.03    0.21
   5 -49   5    3.17    0.22
  -5  49   5    3.17    0.22
   5  49  -5    3.53    0.23
   5  49   5    3.26    0.20
  -5  49  -5    3.10    0.19
  -5  49  -5    3.26    0.20
   5 -49  -5    3.15    0.20
  -5 -49   5    2.86    0.22
  -5 -49  -7    0.17    0.09
  -5  49   7    0.28    0.11
   5  49  -7    0.40    0.11
   5  49  -7    0.38    0.12
   5 -49   7    0.24    0.11
  -5 -49   7    0.26    0.10
   5  49   7    0.27    0.10
  -5  49  -7    0.30    0.10
  -5  49  -7    0.32    0.09
   5  49  -9    0.06    0.10
  -5 -49  -9    0.16    0.10
   5 -49   9    0.28    0.11
   5  49  -9    0.05    0.10
  -5  49   9    0.04    0.10
  -5 -49   9   -0.01    0.10
  -5  49  -9    0.15    0.10
  -5  49  11   -0.01    0.10
   5  49 -11    0.22    0.12
  -5 -49 -11    0.11    0.11
   5 -49  11    0.07    0.12
   5  49 -11    0.03    0.12
  -5  49 -11    0.30    0.12
  -5 -49  11    0.34    0.13
   7 -49   1    0.85    0.12
  -7  49   1    1.10    0.14
  -7 -49  -1    0.75    0.12
   7  49  -1    0.96    0.13
   7  49   1    0.97    0.13
  -7 -49   1    0.88    0.13
  -7  49  -1    1.10    0.13
   7 -49  -1    1.05    0.12
   7  49  -3    0.48    0.11
  -7  49   3    0.57    0.12
   7 -49   3    0.46    0.10
  -7 -49  -3    0.62    0.12
  -7  49  -3    0.44    0.10
  -7 -49   3    0.55    0.12
  -7  49  -3    0.71    0.10
   7  49   3    0.62    0.11
   7 -49   5    1.22    0.15
  -7 -49  -5    1.53    0.16
   7  49  -5    1.13    0.15
  -7  49   5    1.25    0.17
  -7  49  -5    1.18    0.13
  -7 -49   5    1.26    0.17
  -7  49  -5    1.45    0.14
   7  49   5    1.24    0.14
   7  49  -7    1.77    0.19
  -7  49   7    2.03    0.21
   7 -49   7    1.41    0.17
  -7 -49  -7    1.76    0.18
  -7  49  -7    1.56    0.16
  -7 -49   7    1.60    0.18
  -7  49   9    0.26    0.13
   7  49  -9    0.17    0.12
   7 -49   9    0.30    0.12
  -7 -49  -9    0.17    0.10
  -7  49  -9    0.37    0.12
  -7 -49   9    0.25    0.12
   7 -49  11    0.02    0.11
  -7  49  11    0.07    0.12
   7  49 -11    0.04    0.12
  -7 -49 -11    0.12    0.11
   7  49 -11    0.08    0.12
  -7 -49  11    0.12    0.11
  -7  49 -11    0.04    0.11
   9  49  -1    1.61    0.17
  -9 -49  -1    1.49    0.16
  -9  49   1    1.23    0.15
   9  49   1    1.35    0.15
  -9 -49   1    1.45    0.17
  -9  49  -1    1.38    0.15
  -9 -49  -3    0.30    0.10
   9 -49   3    0.30    0.09
   9  49  -3    0.23    0.10
  -9  49   3    0.34    0.11
  -9  49  -3    0.36    0.10
  -9 -49   3    0.30    0.10
  -9  49  -3    0.34    0.09
   9  49   3    0.30    0.09
   9  49  -5    1.22    0.16
   9 -49   5    1.17    0.15
  -9 -49  -5    1.10    0.15
  -9  49   5    0.99    0.15
  -9 -49   5    1.17    0.17
  -9  49  -5    1.05    0.13
   9 -49   7    0.22    0.11
  -9 -49  -7    0.40    0.11
  -9  49   7    0.56    0.13
   9  49  -7    0.53    0.13
  -9  49  -7    0.37    0.11
  -9 -49   7    0.33    0.12
  -9 -49  -9    0.81    0.14
   9  49  -9    0.71    0.15
  -9  49   9    0.82    0.16
   9 -49   9    0.58    0.14
  -9 -49   9    0.60    0.14
  -9  49  -9    0.76    0.14
   9 -49  11    0.19    0.12
  -9  49  11    0.07    0.13
   9  49 -11    0.15    0.13
  -9 -49  11    0.29    0.13
 -11  49   1    0.83    0.14
 -11 -49  -1    1.03    0.15
  11  49  -1    1.23    0.16
 -11 -49   1    0.90    0.15
 -11  49  -1    1.16    0.15
  11  49   1    1.25    0.15
  11  49  -3    0.44    0.12
 -11 -49  -3    0.16    0.09
 -11  49   3    0.20    0.10
 -11 -49   3    0.17    0.10
 -11  49  -3    0.24    0.09
 -11  49  -3    0.11    0.08
  11  49   3    0.21    0.09
  11  49  -5    1.09    0.16
 -11 -49  -5    1.59    0.18
 -11  49   5    1.09    0.17
 -11 -49   5    1.15    0.17
 -11  49  -5    1.29    0.15
  11  49  -7    0.18    0.12
 -11 -49  -7    0.23    0.11
 -11  49   7    0.38    0.13
  11 -49   7    0.41    0.11
 -11  49  -7    0.28    0.12
 -11 -49   7    0.22    0.12
  11 -49   9    0.05    0.11
 -11 -49  -9    0.11    0.10
 -11  49   9    0.26    0.14
  11  49  -9    0.05    0.12
 -11  49  -9   -0.03    0.11
 -11 -49   9    0.02    0.11
  13  49  -1    0.54    0.13
 -13  49   1    0.35    0.12
 -13 -49  -1    0.67    0.13
  13  49   1    0.36    0.11
 -13  49  -1    0.42    0.12
 -13 -49   1    0.55    0.13
 -13  49   3    1.46    0.18
 -13 -49  -3    1.63    0.19
  13  49  -3    1.42    0.18
 -13 -49   3    1.57    0.19
 -13  49  -3    1.59    0.17
 -13  49   5    1.08    0.18
  13  49  -5    1.47    0.19
 -13 -49  -5    1.43    0.18
 -13 -49   5    1.41    0.18
 -13 -49   5    1.27    0.18
 -13  49  -5    1.49    0.17
  13  49  -7    0.98    0.17
 -13  49   7    1.02    0.18
 -13 -49  -7    1.08    0.17
 -13  49  -7    1.21    0.17
 -13  49  -9    0.07    0.11
 -15 -49  -1    0.81    0.15
 -15  49   1    0.36    0.13
  15  49  -1    0.53    0.13
  15  49   1    0.50    0.13
 -15 -49   1    0.94    0.16
 -15  49  -1    0.50    0.12
 -15 -49  -3    0.44    0.13
 -15  49   3    0.75    0.15
  15  49  -3    0.47    0.14
 -15  49  -3    0.36    0.12
  15  49  -5    0.38    0.13
 -15 -49  -5    0.62    0.14
 -15  49   5    0.70    0.17
 -15  49  -5    0.66    0.15
 -15 -49  -7    0.08    0.11
 -15  49  -7    0.24    0.13
  17  49  -1    0.58    0.15
 -17  49   1    0.61    0.14
 -17  49   3    0.45    0.15
  17  49  -3    0.27    0.13
 -17 -49  -3    0.58    0.14
 -17 -49  -5    0.52    0.14
 -17  49  -5    0.35    0.14
   0  50   0    0.94    0.12
   0 -50   0    0.89    0.12
   0 -50   2    2.27    0.17
   0  50   2    2.00    0.16
   0  50  -2    1.90    0.16
   0 -50  -2    2.06    0.17
   0 -50   4    0.00    0.07
   0 -50  -4   -0.06    0.06
   0  50  -4    0.00    0.06
   0  50  -4    0.03    0.08
   0  50   4    0.07    0.07
   0  50  -6    3.00    0.19
   0  50   6    3.24    0.21
   0 -50  -6    2.92    0.20
   0 -50   6    2.93    0.21
   0  50  -6    3.02    0.20
   0  50   8    0.02    0.08
   0  50  -8    0.02    0.08
   0 -50  -8   -0.02    0.07
   0 -50   8   -0.05    0.09
   0  50  -8   -0.07    0.08
   0 -50 -10    0.16    0.10
   0 -50  10   -0.05    0.10
   0  50 -10    0.07    0.11
   0 -50 -12    0.00    0.10
   0  50 -12    0.06    0.12
   0 -50  12   -0.17    0.09
   2 -50   0    6.73    0.30
  -2  50   0    6.47    0.30
   2  50   0    6.72    0.30
  -2 -50   0    6.56    0.31
   2  50  -2    2.21    0.17
  -2 -50  -2    2.06    0.16
  -2  50   2    2.39    0.18
   2 -50   2    2.25    0.18
   2 -50  -2    2.28    0.17
   2  50   2    2.33    0.17
  -2 -50   2    2.05    0.17
  -2  50  -2    2.05    0.17
  -2 -50  -4    1.69    0.16
   2 -50   4    1.51    0.16
   2  50  -4    1.70    0.16
  -2  50   4    1.73    0.17
   2 -50  -4    1.60    0.15
   2  50   4    1.92    0.15
  -2  50  -4    1.90    0.16
  -2  50  -4    1.73    0.14
  -2 -50   4    1.78    0.18
   2  50  -6    0.29    0.09
  -2 -50  -6    0.56    0.11
  -2  50   6    0.45    0.11
   2 -50   6    0.32    0.11
   2  50  -6    0.28    0.10
  -2  50  -6    0.32    0.09
   2  50   6    0.58    0.10
  -2 -50   6    0.28    0.10
  -2  50  -6    0.34    0.10
   2 -50  -6    0.41    0.10
   2  50  -8    2.08    0.19
  -2 -50  -8    1.80    0.18
   2  50  -8    2.14    0.18
  -2  50   8    2.28    0.21
   2 -50   8    2.21    0.21
   2 -50  -8    2.13    0.19
   2  50   8    1.92    0.18
  -2 -50   8    2.11    0.21
  -2  50  -8    1.90    0.18
  -2  50  -8    1.97    0.17
   2  50 -10    0.17    0.12
   2  50 -10    0.04    0.10
  -2  50  10    0.25    0.11
  -2 -50 -10    0.17    0.10
   2 -50  10    0.01    0.11
  -2 -50  10    0.12    0.12
   2 -50 -10    0.31    0.11
  -2  50 -10    0.17    0.11
  -2 -50 -12    0.22    0.11
   2  50 -12    0.22    0.13
  -2  50 -12    0.21    0.14
  -2 -50  12    0.22    0.13
  -4  50   0    0.13    0.07
  -4 -50   0    0.12    0.08
   4 -50   0    0.13    0.07
   4  50   0    0.11    0.08
  -4  50   2    7.28    0.34
   4  50  -2    7.09    0.33
  -4 -50  -2    7.24    0.33
   4 -50   2    7.28    0.33
  -4  50  -2    7.42    0.33
   4  50   2    6.97    0.32
  -4 -50   2    7.47    0.35
   4 -50  -2    7.77    0.32
  -4 -50  -4    1.02    0.13
   4 -50   4    0.78    0.12
  -4  50   4    0.90    0.13
   4  50  -4    0.63    0.12
  -4 -50   4    0.79    0.13
   4  50   4    0.76    0.11
  -4  50  -4    0.91    0.11
   4 -50  -4    0.72    0.11
  -4  50  -4    0.76    0.11
   4  50  -6    3.20    0.22
   4  50  -6    3.03    0.20
  -4 -50  -6    2.85    0.20
  -4  50   6    2.93    0.21
   4 -50   6    2.68    0.21
  -4  50  -6    3.10    0.20
  -4 -50   6    3.03    0.23
   4  50   6    2.84    0.19
  -4  50  -6    2.74    0.18
   4 -50  -6    2.78    0.19
   4  50  -8    0.25    0.11
   4 -50   8    0.21    0.11
  -4  50   8    0.33    0.11
   4  50  -8    0.38    0.11
  -4 -50  -8    0.42    0.11
  -4  50  -8    0.37    0.11
  -4 -50   8    0.24    0.11
  -4 -50 -10    1.39    0.18
   4  50 -10    1.36    0.18
   4  50 -10    1.23    0.18
   4 -50  10    1.26    0.19
  -4  50  10    1.21    0.17
  -4  50 -10    1.21    0.17
  -4 -50  10    1.23    0.19
  -4 -50 -12    0.03    0.09
   4  50 -12    0.06    0.13
  -4  50 -12    0.06    0.11
   6  50   0   12.47    0.49
  -6  50   0   12.66    0.49
   6 -50   0   12.10    0.46
  -6 -50   0   12.34    0.49
  -6 -50  -2    0.54    0.11
  -6  50   2    0.95    0.13
   6 -50   2    0.69    0.11
   6  50  -2    0.91    0.13
   6  50   2    0.89    0.13
  -6  50  -2    0.82    0.12
   6 -50  -2    0.91    0.12
  -6 -50   2    0.80    0.13
   6 -50   4    1.42    0.16
  -6 -50  -4    1.48    0.16
   6  50  -4    1.52    0.16
  -6  50   4    1.53    0.17
   6 -50  -4    1.62    0.14
   6  50   4    1.34    0.15
  -6  50  -4    1.59    0.14
  -6  50  -4    1.39    0.15
  -6 -50   4    1.52    0.17
   6  50  -6    1.01    0.14
   6 -50   6    0.72    0.13
  -6 -50  -6    0.59    0.12
  -6  50   6    0.86    0.14
  -6  50  -6    0.74    0.12
  -6  50  -6    0.84    0.12
   6  50   6    1.04    0.13
  -6 -50   6    0.83    0.15
   6 -50   8    0.16    0.10
  -6  50   8    0.07    0.10
   6  50  -8    0.10    0.10
  -6 -50  -8    0.14    0.09
  -6  50  -8    0.02    0.09
  -6 -50   8    0.11    0.11
  -6  50  10   -0.21    0.09
   6 -50  10    0.07    0.11
   6  50 -10    0.12    0.12
  -6 -50 -10    0.11    0.11
   6  50 -10    0.12    0.12
  -6 -50  10    0.13    0.11
  -6  50 -10    0.05    0.11
   6  50 -12   -0.02    0.12
  -6  50  12    0.16    0.13
  -8  50   0    1.84    0.17
   8 -50   0    1.70    0.15
  -8 -50   0    1.86    0.18
   8  50   0    1.68    0.17
   8  50  -2    0.01    0.09
   8 -50   2   -0.01    0.07
  -8  50   2    0.03    0.09
  -8 -50  -2    0.02    0.07
   8  50   2    0.05    0.08
  -8 -50   2    0.12    0.08
  -8  50  -2    0.07    0.08
  -8 -50  -4    0.11    0.08
   8  50  -4    0.06    0.09
   8 -50   4    0.02    0.08
  -8  50   4    0.09    0.09
   8  50   4    0.11    0.08
  -8  50  -4    0.12    0.08
  -8  50  -4   -0.02    0.07
  -8 -50   4    0.13    0.09
   8  50  -6   -0.12    0.09
   8 -50   6    0.09    0.08
  -8  50   6    0.07    0.10
  -8 -50  -6    0.09    0.09
  -8 -50   6    0.05    0.09
  -8  50  -6   -0.10    0.07
  -8 -50  -8    0.11    0.09
   8  50  -8    0.02    0.10
  -8  50   8    0.02    0.10
   8 -50   8    0.12    0.10
  -8  50  -8    0.26    0.11
  -8 -50   8   -0.12    0.10
   8 -50  10    0.06    0.11
  -8  50  10    0.05    0.12
   8  50 -10    0.20    0.13
  -8 -50 -10    0.20    0.11
  -8  50 -10   -0.16    0.10
  -8 -50  10    0.23    0.12
 -10 -50   0    0.34    0.11
  10  50   0    0.47    0.11
 -10  50   0    0.41    0.10
 -10  50   2    0.33    0.11
 -10 -50  -2    0.57    0.12
  10  50  -2    0.37    0.11
 -10 -50   2    0.45    0.12
  10  50   2    0.37    0.10
 -10  50  -2    0.44    0.11
  10 -50   4    0.02    0.08
 -10 -50  -4    0.22    0.10
  10  50  -4    0.00    0.09
 -10  50   4    0.07    0.10
 -10  50  -4    0.11    0.08
 -10 -50   4    0.06    0.09
 -10  50  -4    0.21    0.09
  10  50   4    0.09    0.08
  10  50  -6   -0.08    0.10
 -10 -50  -6    0.07    0.10
  10 -50   6    0.19    0.10
 -10  50   6    0.15    0.11
 -10  50  -6    0.10    0.09
 -10 -50   6    0.05    0.10
 -10  50   8    0.91    0.17
  10  50  -8    1.08    0.17
  10 -50   8    1.16    0.17
 -10 -50  -8    0.95    0.16
 -10 -50   8    1.00    0.17
 -10  50  -8    0.96    0.15
  10  50 -10   -0.11    0.11
  10 -50  10   -0.08    0.09
 -10  50  10   -0.12    0.12
 -10 -50  10    0.08    0.11
 -10  50 -10    0.19    0.12
 -12  50   0    0.14    0.10
  12  50   0    0.20    0.11
 -12 -50   0    0.34    0.11
 -12 -50  -2    0.18    0.10
  12  50  -2    0.22    0.11
 -12  50   2    0.30    0.11
 -12 -50   2    0.41    0.12
 -12  50  -2    0.36    0.11
  12  50   2    0.23    0.10
 -12 -50  -4    0.12    0.10
 -12  50   4    0.14    0.10
  12  50  -4    0.14    0.11
 -12  50  -4    0.04    0.09
 -12 -50   4    0.01    0.09
 -12  50   6    1.02    0.18
 -12 -50  -6    0.82    0.15
  12  50  -6    0.58    0.14
 -12  50  -6    0.98    0.15
 -12 -50   6    0.87    0.16
 -12  50   8    0.02    0.12
 -12 -50  -8   -0.09    0.10
  12  50  -8    0.09    0.13
 -12  50  -8   -0.13    0.09
 -12 -50   8   -0.01    0.10
 -14  50   0    0.28    0.11
 -14 -50   0    0.07    0.09
  14  50   0    0.08    0.10
 -14 -50  -2    0.05    0.10
  14  50  -2    0.03    0.10
 -14  50   2    0.02    0.11
 -14 -50   2    0.21    0.11
 -14 -50  -4    0.38    0.12
  14  50  -4    0.42    0.14
 -14  50   4    0.42    0.14
 -14  50  -4    0.37    0.12
 -14 -50   4    0.87    0.15
  14  50  -6    0.18    0.12
 -14 -50  -6    0.25    0.12
 -14  50   6    0.21    0.12
 -14  50  -6    0.25    0.12
 -14  50  -8    0.15    0.12
 -16 -50   0    1.85    0.21
 -16  50   0    1.61    0.20
  16  50   0    1.62    0.20
 -16 -50  -2    0.08    0.11
 -16  50   2    0.19    0.13
  16  50  -2    0.12    0.12
 -16 -50  -4    0.29    0.12
 -16  50   4    0.12    0.13
  16  50  -4    0.22    0.12
 -16  50  -4    0.04    0.11
 -16 -50  -6    0.19    0.12
 -16  50  -6    0.23    0.13
 -18  50   2    0.29    0.14
  18  50  -2    0.24    0.13
   1  51  -1    2.55    0.18
  -1 -51  -1    2.35    0.19
   1 -51   1    2.71    0.19
  -1  51   1    2.85    0.19
   1  51   1    2.70    0.18
  -1  51  -1    2.27    0.17
   1 -51  -1    2.73    0.18
  -1 -51   1    2.96    0.20
  -1  51   3    1.22    0.14
  -1 -51  -3    1.62    0.16
   1 -51   3    1.21    0.15
   1  51  -3    1.09    0.14
  -1  51  -3    1.30    0.14
   1 -51  -3    1.30    0.14
  -1 -51   3    1.12    0.15
   1  51   3    1.23    0.14
  -1  51   5    0.47    0.10
   1  51  -5    0.52    0.09
   1 -51   5    0.73    0.13
  -1 -51  -5    0.26    0.09
   1  51  -5    0.58    0.11
  -1  51  -5    0.46    0.09
   1 -51  -5    0.46    0.10
  -1  51  -5    0.48    0.11
   1  51   5    0.53    0.11
  -1 -51   5    0.48    0.11
  -1 -51  -7    0.92    0.14
  -1  51   7    1.04    0.14
   1  51  -7    1.00    0.13
   1  51  -7    0.80    0.13
   1 -51   7    0.63    0.13
  -1  51  -7    0.82    0.12
  -1 -51   7    0.85    0.15
   1  51   7    1.00    0.14
   1 -51  -7    0.74    0.12
  -1  51  -7    0.93    0.13
  -1 -51  -9    0.32    0.11
  -1  51   9    0.16    0.09
   1  51  -9    0.22    0.11
   1  51  -9    0.08    0.10
   1 -51   9    0.17    0.11
  -1 -51   9    0.18    0.11
   1  51   9    0.16    0.10
  -1  51  -9    0.29    0.10
   1 -51  -9    0.10    0.09
  -1  51  -9    0.17    0.11
  -1 -51 -11    0.16    0.11
   1  51 -11    0.27    0.13
   1 -51  11    0.40    0.13
  -1 -51  11    0.36    0.13
  -1  51 -11    0.25    0.13
   1 -51 -11    0.29    0.11
  -3 -51  -1    2.63    0.18
  -3  51   1    2.39    0.18
   3  51  -1    2.71    0.18
   3 -51   1    2.42    0.17
  -3 -51   1    2.82    0.19
  -3  51  -1    2.25    0.17
   3 -51  -1    2.65    0.18
   3  51   1    2.31    0.18
   3  51  -3    1.48    0.15
  -3 -51  -3    1.38    0.15
   3 -51   3    1.48    0.16
  -3  51   3    1.36    0.15
   3  51   3    1.55    0.16
   3 -51  -3    1.68    0.15
  -3 -51   3    1.43    0.17
  -3  51  -3    1.18    0.13
   3  51  -5    1.44    0.14
   3  51  -5    1.42    0.16
   3 -51   5    0.99    0.14
  -3 -51  -5    1.23    0.15
  -3  51   5    1.15    0.15
   3 -51  -5    1.24    0.14
  -3  51  -5    1.21    0.13
  -3 -51   5    1.16    0.16
   3  51   5    1.22    0.15
  -3  51  -5    1.21    0.14
  -3  51   7    0.95    0.14
  -3 -51  -7    0.81    0.13
   3 -51   7    1.20    0.16
   3  51  -7    1.09    0.15
   3  51  -7    0.97    0.13
  -3  51  -7    1.09    0.13
   3 -51  -7    0.75    0.12
   3  51   7    0.73    0.12
  -3 -51   7    1.22    0.16
  -3  51  -7    1.02    0.13
   3  51  -9    0.35    0.11
  -3 -51  -9    0.32    0.11
  -3  51   9    0.47    0.13
   3  51  -9    0.52    0.13
   3 -51   9    0.21    0.11
  -3  51  -9    0.37    0.12
  -3 -51   9    0.19    0.12
   3 -51  -9    0.26    0.10
   3  51 -11    0.63    0.15
  -3 -51 -11    0.72    0.15
   3 -51  11    0.73    0.16
  -3  51  11    0.91    0.17
  -3  51 -11    0.56    0.15
  -3 -51  11    0.76    0.17
  -5  51   1    2.35    0.19
   5  51  -1    2.45    0.18
  -5 -51  -1    2.75    0.19
   5 -51   1    2.84    0.19
  -5 -51   1    2.51    0.19
   5  51   1    2.74    0.19
   5 -51  -1    2.56    0.18
  -5  51  -1    2.80    0.19
   5 -51   3    2.37    0.18
   5  51  -3    2.36    0.19
  -5 -51  -3    2.11    0.17
  -5  51   3    2.64    0.19
  -5  51  -3    2.01    0.16
   5 -51  -3    2.30    0.17
  -5 -51   3    2.06    0.19
   5  51   3    2.20    0.18
   5  51  -5    1.42    0.17
  -5  51   5    1.55    0.17
   5 -51   5    1.54    0.16
  -5 -51  -5    1.45    0.16
  -5  51  -5    1.61    0.16
  -5 -51   5    1.57    0.18
  -5  51  -5    1.60    0.15
   5 -51  -5    1.48    0.14
   5  51   5    1.41    0.15
   5 -51   7    1.11    0.16
  -5  51   7    0.95    0.15
  -5 -51  -7    0.73    0.13
   5  51  -7    0.88    0.15
   5  51  -7    1.14    0.15
  -5 -51   7    0.91    0.15
   5  51   7    1.01    0.14
  -5  51  -7    0.76    0.13
  -5  51  -7    1.02    0.13
  -5 -51  -9    0.27    0.11
   5  51  -9    0.41    0.13
   5  51  -9    0.49    0.13
   5 -51   9    0.40    0.13
  -5  51   9    0.34    0.12
  -5  51  -9    0.25    0.11
  -5 -51   9    0.31    0.12
  -5 -51 -11    0.29    0.12
  -5  51  11    0.18    0.13
   5  51 -11    0.40    0.14
   5  51 -11    0.30    0.13
   5 -51  11    0.14    0.13
  -5 -51  11    0.30    0.14
  -5  51 -11    0.10    0.12
  -7  51   1    0.75    0.13
   7 -51   1    0.77    0.12
  -7 -51  -1    0.93    0.13
   7  51  -1    1.03    0.14
   7  51   1    1.05    0.14
  -7  51  -1    0.77    0.12
  -7 -51   1    0.94    0.14
   7 -51  -1    0.98    0.12
   7 -51   3    1.12    0.14
  -7 -51  -3    0.98    0.14
   7  51  -3    0.93    0.14
  -7  51   3    1.09    0.14
   7  51   3    1.35    0.15
  -7 -51   3    1.03    0.15
  -7  51  -3    0.99    0.13
   7  51  -5    0.25    0.11
  -7 -51  -5    0.62    0.12
  -7  51   5    0.41    0.11
   7 -51   5    0.38    0.11
  -7 -51   5    0.47    0.13
  -7  51  -5    0.55    0.11
   7  51   5    0.43    0.10
  -7  51  -5    0.55    0.10
   7 -51   7    0.02    0.10
  -7  51   7    0.10    0.11
  -7 -51  -7   -0.05    0.08
   7  51  -7    0.24    0.12
  -7  51  -7    0.17    0.09
  -7 -51   7    0.08    0.09
  -7  51   9    0.27    0.13
  -7 -51  -9    0.42    0.12
   7  51  -9    0.42    0.14
   7 -51   9    0.38    0.13
  -7  51  -9    0.35    0.12
  -7 -51   9    0.35    0.12
   7  51 -11    0.30    0.14
   7  51 -11    0.12    0.12
   7 -51  11    0.23    0.12
  -7  51  11    0.19    0.13
  -7  51 -11    0.01    0.11
  -7 -51  11    0.01    0.11
  -9 -51  -1    0.40    0.11
  -9  51   1    0.58    0.13
   9  51  -1    0.26    0.11
  -9 -51   1    0.54    0.12
   9  51   1    0.61    0.12
  -9  51  -1    0.52    0.12
  -9  51   3    0.62    0.13
  -9 -51  -3    0.66    0.13
   9 -51   3    0.44    0.10
   9  51  -3    0.45    0.12
  -9  51  -3    0.35    0.10
  -9 -51   3    0.65    0.13
   9  51   3    0.47    0.11
  -9  51   5    0.92    0.15
  -9 -51  -5    0.92    0.15
   9 -51   5    1.16    0.15
   9  51  -5    0.82    0.14
  -9 -51   5    1.03    0.16
  -9  51  -5    1.15    0.14
   9  51  -7    0.91    0.16
  -9  51   7    1.06    0.17
   9 -51   7    0.80    0.15
  -9 -51  -7    0.85    0.15
  -9 -51   7    1.00    0.16
  -9  51  -7    1.10    0.15
  -9 -51  -9    0.25    0.11
   9 -51   9    0.63    0.15
  -9  51   9    0.32    0.14
   9  51  -9    0.51    0.14
  -9  51  -9    0.27    0.12
  -9 -51   9    0.41    0.14
  -9 -51  11    0.37    0.14
 -11 -51  -1    0.89    0.14
 -11  51   1    0.63    0.13
  11  51  -1    0.81    0.14
  11  51   1    0.65    0.13
 -11 -51   1    0.71    0.13
 -11  51  -1    0.72    0.13
 -11  51   3    1.41    0.18
 -11 -51  -3    1.40    0.17
  11  51  -3    1.21    0.16
  11  51   3    1.57    0.16
 -11  51  -3    1.54    0.16
 -11 -51   3    1.57    0.18
 -11 -51  -5    0.41    0.12
  11  51  -5    0.33    0.13
 -11  51   5    0.46    0.13
 -11  51  -5    0.47    0.11
 -11 -51   5    0.31    0.12
 -11 -51  -7    0.70    0.14
  11  51  -7    0.60    0.15
 -11  51   7    0.49    0.14
 -11  51  -7    0.62    0.13
 -11 -51   7    0.75    0.15
 -11 -51  -9    0.03    0.10
 -11  51   9    0.21    0.14
  11 -51   9    0.15    0.11
  11  51  -9    0.15    0.12
 -11  51  -9    0.19    0.12
 -11 -51   9    0.13    0.11
 -13  51   1    0.76    0.15
  13  51  -1    0.91    0.15
 -13 -51  -1    0.72    0.14
  13  51   1    1.03    0.15
 -13  51  -1    0.59    0.13
 -13 -51   1    0.65    0.14
  13  51  -3    1.25    0.18
 -13  51   3    1.24    0.17
 -13 -51  -3    1.22    0.17
 -13 -51   3    1.14    0.17
  13  51  -5    0.91    0.16
 -13  51   5    0.93    0.17
 -13 -51  -5    1.01    0.16
 -13 -51   5    1.27    0.18
 -13  51  -5    0.87    0.15
 -13 -51  -7    0.46    0.14
  13  51  -7    0.39    0.13
 -13  51   7    0.39    0.14
 -13  51  -7    0.49    0.13
 -15  51   1    0.75    0.16
 -15 -51  -1    0.77    0.15
  15  51  -1    0.96    0.16
  15  51   1    1.04    0.16
 -15 -51   1    0.74    0.15
 -15  51  -1    0.93    0.15
 -15 -51  -3    0.16    0.11
  15  51  -3   -0.08    0.10
 -15  51   3   -0.08    0.09
  15  51  -5    0.52    0.15
 -15  51   5    0.24    0.14
 -15 -51  -5    0.24    0.12
 -15  51  -5    0.45    0.13
 -15  51  -7    0.04    0.11
  17  51  -1    0.44    0.15
 -17  51   1    0.49    0.14
 -17 -51  -3    0.24    0.12
  17  51  -3    0.02    0.12
 -17  51   3    0.03    0.12
 -17  51  -5    0.56    0.14
   0 -52   0    1.47    0.15
   0  52   0    1.74    0.15
   0  52  -2   -0.07    0.07
   0  52   2    0.11    0.08
   0 -52   2    0.02    0.08
   0 -52  -2    0.11    0.07
   0  52   4    0.82    0.12
   0 -52  -4    0.93    0.13
   0 -52   4    0.93    0.13
   0  52  -4    0.77    0.12
   0  52  -6   -0.12    0.07
   0  52  -6   -0.01    0.08
   0 -52  -6   -0.08    0.07
   0 -52   6   -0.03    0.09
   0  52   6    0.00    0.08
   0 -52   8    0.07    0.10
   0  52  -8    0.17    0.10
   0  52  -8    0.05    0.09
   0  52   8    0.08    0.09
   0 -52  -8   -0.01    0.08
   0  52 -10    0.06    0.11
   0 -52  10    0.00    0.11
   0 -52 -10    0.09    0.09
   0 -52 -12    0.02    0.10
   0  52 -12    0.45    0.15
  -2 -52   0    3.54    0.22
   2 -52   0    4.08    0.23
  -2  52   0    3.69    0.22
   2  52   0    3.83    0.22
   2 -52   2    0.68    0.11
  -2 -52  -2    0.68    0.12
   2  52  -2    0.69    0.12
  -2  52   2    0.62    0.11
  -2 -52   2    0.80    0.12
  -2  52  -2    0.50    0.10
   2 -52  -2    0.70    0.11
   2  52   2    0.78    0.12
  -2 -52  -4    0.51    0.11
   2 -52   4    0.59    0.12
  -2  52   4    0.53    0.11
   2  52  -4    0.31    0.10
  -2 -52   4    0.68    0.12
  -2  52  -4    0.56    0.10
   2 -52  -4    0.70    0.11
   2  52   4    0.47    0.10
   2  52  -6    0.46    0.11
   2  52  -6    0.41    0.10
  -2 -52  -6    0.61    0.12
  -2  52   6    0.74    0.12
   2 -52   6    0.32    0.11
  -2  52  -6    0.51    0.10
   2 -52  -6    0.64    0.11
  -2  52  -6    0.51    0.10
   2  52   6    0.44    0.11
  -2 -52   6    0.42    0.12
  -2 -52  -8    0.89    0.14
   2 -52   8    0.36    0.12
   2  52  -8    0.63    0.13
  -2  52   8    0.66    0.13
   2  52  -8    0.63    0.13
  -2  52  -8    0.62    0.12
  -2 -52   8    0.58    0.13
  -2  52  -8    0.61    0.13
   2 -52  -8    0.60    0.12
   2  52   8    0.70    0.12
   2  52 -10   -0.07    0.09
  -2 -52 -10   -0.06    0.09
   2 -52  10    0.10    0.12
  -2  52  10   -0.13    0.09
   2  52 -10   -0.04    0.10
  -2 -52  10   -0.12    0.11
   2 -52 -10    0.12    0.09
  -2  52 -10    0.06    0.11
  -2 -52 -12    0.11    0.11
   2  52 -12   -0.02    0.12
  -2  52 -12    0.04    0.12
   4  52   0    1.21    0.14
  -4 -52   0    1.47    0.16
  -4  52   0    1.45    0.15
   4 -52   0    1.54    0.15
  -4  52   2    0.49    0.11
  -4 -52  -2    0.37    0.10
   4  52  -2    0.45    0.11
   4 -52   2    0.55    0.11
  -4 -52   2    0.59    0.12
   4  52   2    0.45    0.10
   4 -52  -2    0.61    0.11
  -4  52  -2    0.40    0.09
  -4 -52  -4    0.10    0.08
   4  52  -4    0.08    0.09
   4 -52   4    0.22    0.09
  -4  52   4    0.14    0.09
  -4  52  -4    0.20    0.08
   4  52   4    0.21    0.08
  -4 -52   4    0.08    0.09
   4 -52  -4    0.30    0.09
  -4 -52  -6    0.37    0.11
   4  52  -6    0.49    0.11
   4 -52   6    0.47    0.12
   4  52  -6    0.44    0.12
  -4  52   6    0.37    0.11
  -4  52  -6    0.47    0.10
   4 -52  -6    0.35    0.10
  -4 -52   6    0.39    0.12
   4  52   6    0.55    0.11
  -4  52  -6    0.36    0.10
   4  52  -8    1.32    0.16
   4 -52   8    1.13    0.17
  -4  52   8    1.15    0.17
  -4 -52  -8    0.97    0.15
   4  52  -8    0.92    0.15
  -4  52  -8    1.24    0.15
  -4 -52   8    1.10    0.17
   4 -52  10    0.29    0.13
   4  52 -10    0.05    0.11
   4  52 -10    0.07    0.11
  -4  52  10    0.17    0.12
  -4 -52 -10    0.06    0.10
  -4 -52  10    0.56    0.15
  -4  52 -10    0.38    0.13
  -6  52   0    0.51    0.11
  -6 -52   0    0.75    0.13
   6  52   0    0.49    0.10
   6 -52   0    0.46    0.10
   6  52  -2    0.63    0.12
  -6  52   2    0.69    0.12
  -6 -52  -2    0.41    0.10
   6 -52   2    0.66    0.12
   6 -52  -2    0.78    0.11
  -6 -52   2    0.59    0.13
   6  52   2    0.61    0.12
  -6  52  -2    0.55    0.11
   6  52  -4    1.49    0.16
  -6  52   4    1.35    0.16
   6 -52   4    1.20    0.15
  -6 -52  -4    0.98    0.14
   6  52   4    1.37    0.15
  -6 -52   4    1.18    0.17
  -6  52  -4    1.20    0.14
   6 -52   6    0.60    0.12
  -6  52   6    0.46    0.13
   6  52  -6    0.40    0.12
  -6 -52  -6    0.33    0.11
  -6  52  -6    0.64    0.11
   6  52   6    0.68    0.12
  -6  52  -6    0.38    0.10
  -6 -52   6    0.65    0.14
  -6 -52  -8    0.74    0.14
   6  52  -8    0.71    0.14
   6 -52   8    0.81    0.15
  -6  52   8    0.79    0.15
   6  52  -8    0.57    0.13
  -6  52  -8    0.72    0.13
  -6 -52   8    0.48    0.13
   6  52 -10    0.27    0.12
   6  52 -10    0.11    0.12
  -6  52  10   -0.04    0.11
   6 -52  10   -0.05    0.11
  -6 -52 -10   -0.01    0.09
  -6 -52  10   -0.04    0.11
  -6  52 -10    0.09    0.11
   8  52   0    2.95    0.21
  -8 -52   0    3.11    0.22
  -8  52   0    2.76    0.21
  -8 -52  -2    1.01    0.14
  -8  52   2    0.81    0.13
   8 -52   2    0.95    0.13
   8  52  -2    1.08    0.15
  -8  52  -2    0.93    0.13
  -8 -52   2    1.09    0.15
   8  52   2    1.07    0.14
   8  52  -4   -0.10    0.09
   8 -52   4    0.04    0.08
  -8  52   4   -0.11    0.08
  -8 -52  -4    0.12    0.09
   8  52   4    0.02    0.07
  -8  52  -4    0.11    0.08
  -8 -52   4    0.04    0.09
   8 -52   6    0.59    0.12
  -8 -52  -6    0.52    0.12
  -8  52   6    0.74    0.14
   8  52  -6    0.32    0.12
  -8 -52   6    0.75    0.14
  -8  52  -6    0.71    0.12
  -8  52   8   -0.01    0.10
   8 -52   8   -0.02    0.09
   8  52  -8    0.04    0.11
  -8 -52  -8   -0.06    0.09
  -8  52  -8    0.10    0.10
  -8 -52   8   -0.05    0.09
  -8  52  10    0.38    0.15
   8  52 -10    0.24    0.13
   8  52 -10    0.28    0.13
  -8 -52 -10    0.32    0.11
   8 -52  10    0.31    0.13
  -8 -52  10    0.18    0.13
  -8  52 -10    0.26    0.11
 -10  52   0    0.64    0.13
 -10 -52   0    0.81    0.14
  10  52   0    0.73    0.13
 -10  52   2    0.77    0.14
 -10 -52  -2    0.70    0.13
  10  52  -2    0.53    0.12
 -10  52  -2    0.71    0.13
 -10 -52   2    0.89    0.14
  10  52   2    0.86    0.13
 -10  52   4    1.09    0.17
  10  52  -4    1.28    0.17
 -10 -52  -4    1.16    0.16
  10  52   4    1.24    0.15
 -10  52  -4    1.44    0.16
 -10 -52   4    1.54    0.19
  10  52  -6    0.18    0.11
 -10 -52  -6    0.25    0.11
  10 -52   6    0.27    0.11
 -10  52   6    0.02    0.11
 -10  52  -6    0.17    0.10
 -10 -52   6    0.10    0.11
 -10 -52  -8    0.00    0.09
  10  52  -8    0.11    0.11
  10 -52   8   -0.02    0.10
 -10  52   8    0.13    0.12
 -10  52  -8    0.20    0.11
 -10 -52   8    0.02    0.11
  10 -52  10    0.00    0.11
 -10 -52  10    0.15    0.12
 -10  52 -10   -0.11    0.10
  12  52   0    1.45    0.17
 -12 -52   0    1.36    0.17
 -12  52   0    1.37    0.17
 -12 -52  -2    1.22    0.17
  12  52  -2    1.58    0.18
 -12  52   2    1.35    0.18
  12  52   2    1.40    0.17
 -12 -52   2    1.57    0.19
 -12  52  -2    1.52    0.17
 -12  52   4    1.03    0.16
 -12 -52  -4    1.07    0.16
  12  52  -4    0.81    0.15
 -12 -52   4    1.04    0.17
 -12  52   6    0.52    0.15
  12  52  -6    0.49    0.14
 -12 -52  -6    0.56    0.14
 -12 -52   6    0.74    0.16
 -12  52  -6    0.74    0.14
  12  52  -8   -0.02    0.10
 -12 -52  -8    0.15    0.12
 -12  52   8    0.00    0.13
 -12  52  -8    0.30    0.12
 -12 -52   8    0.14    0.12
 -14  52   0    0.25    0.12
 -14 -52   0    0.06    0.10
  14  52   0    0.30    0.12
  14  52  -2    0.11    0.11
 -14 -52  -2    0.15    0.10
 -14  52   2    0.07    0.11
 -14 -52   2   -0.02    0.10
 -14 -52  -4    2.96    0.24
 -14  52   4    2.66    0.26
  14  52  -4    2.31    0.24
 -14 -52   4    2.92    0.26
 -14  52   6    0.18    0.13
 -14 -52  -6    0.30    0.12
  14  52  -6    0.20    0.13
 -14  52  -6    0.04    0.11
 -16  52   0    0.12    0.11
  16  52   0    0.16    0.11
 -16 -52   0    0.06    0.11
  16  52  -2    0.54    0.14
 -16  52   2    0.51    0.14
 -16 -52  -2    0.17    0.12
 -16  52   4    0.35    0.14
  16  52  -4    0.11    0.12
 -16 -52  -4    0.01    0.10
 -16  52  -6    0.66    0.16
 -18  52   2    0.17    0.13
  18  52  -2    0.07    0.12
   1  53  -1    4.02    0.23
  -1 -53  -1    4.56    0.25
  -1  53   1    4.82    0.25
   1 -53   1    4.51    0.25
   1 -53  -1    4.51    0.24
   1  53   1    4.25    0.24
  -1  53  -1    4.48    0.25
  -1 -53   1    4.51    0.26
   1 -53   3    4.16    0.25
   1  53  -3    3.75    0.23
  -1 -53  -3    3.97    0.24
  -1  53   3    4.12    0.24
   1 -53  -3    3.87    0.22
  -1 -53   3    4.39    0.25
   1  53   3    4.10    0.23
  -1  53  -3    4.37    0.24
  -1 -53  -5    1.37    0.15
   1  53  -5    1.31    0.15
  -1  53   5    1.56    0.16
   1 -53   5    1.46    0.17
  -1  53  -5    1.44    0.15
  -1 -53   5    1.29    0.16
   1 -53  -5    1.44    0.15
   1  53   5    1.50    0.16
  -1 -53  -7    0.14    0.09
  -1  53   7    0.03    0.09
   1  53  -7    0.22    0.09
   1 -53   7    0.12    0.10
   1  53  -7    0.12    0.09
  -1 -53   7    0.23    0.11
   1 -53  -7    0.12    0.09
  -1  53  -7    0.13    0.09
   1  53   7    0.06    0.08
  -1  53  -7    0.15    0.09
  -1 -53  -9    0.06    0.09
  -1  53   9    0.08    0.10
   1 -53   9    0.01    0.11
   1  53  -9    0.13    0.11
   1  53  -9    0.15    0.10
  -1  53  -9    0.20    0.11
   1  53   9    0.17    0.10
  -1 -53   9    0.18    0.12
   1 -53  -9    0.14    0.09
   1  53 -11    0.08    0.12
   1 -53  11    0.12    0.13
  -1 -53 -11    0.08    0.11
  -1 -53  11    0.07    0.11
   1 -53 -11    0.00    0.10
  -1  53 -11    0.12    0.12
   3  53  -1    0.28    0.10
  -3 -53  -1    0.32    0.10
  -3  53   1    0.37    0.09
   3 -53   1    0.27    0.09
  -3 -53   1    0.46    0.11
   3 -53  -1    0.37    0.10
   3  53   1    0.27    0.09
  -3  53  -1    0.26    0.09
  -3 -53  -3    0.57    0.11
   3  53  -3    0.43    0.11
  -3  53   3    0.58    0.11
   3 -53   3    0.80    0.13
  -3  53  -3    0.54    0.11
  -3 -53   3    0.79    0.13
   3 -53  -3    0.68    0.11
   3  53   3    0.63    0.12
   3  53  -5    0.18    0.10
  -3  53   5    0.10    0.09
  -3 -53  -5    0.08    0.08
   3 -53   5    0.18    0.10
  -3 -53   5    0.27    0.11
   3  53   5    0.22    0.09
   3 -53  -5    0.17    0.08
  -3  53  -5    0.24    0.09
  -3 -53  -7    1.04    0.15
  -3  53   7    1.20    0.16
   3  53  -7    1.26    0.16
   3 -53   7    1.25    0.17
   3  53  -7    1.09    0.14
  -3  53  -7    1.44    0.15
   3 -53  -7    1.23    0.15
  -3  53  -7    1.21    0.15
   3  53   7    1.37    0.16
  -3 -53   7    1.25    0.17
   3 -53   9    1.25    0.18
  -3 -53  -9    1.20    0.16
  -3  53   9    1.39    0.18
   3  53  -9    1.29    0.17
   3  53  -9    1.38    0.17
  -3 -53   9    1.47    0.19
  -3  53  -9    1.52    0.18
   3 -53  11    0.10    0.13
   3  53 -11    0.08    0.12
  -3 -53 -11    0.10    0.11
  -3  53 -11    0.03    0.11
  -3 -53  11    0.16    0.12
  -5  53   1    1.26    0.15
  -5 -53  -1    0.96    0.14
   5  53  -1    1.33    0.15
   5 -53   1    1.03    0.14
   5  53   1    0.89    0.13
   5 -53  -1    1.04    0.13
  -5 -53   1    1.13    0.15
  -5  53  -1    0.88    0.13
   5  53  -3    5.61    0.29
  -5  53   3    5.64    0.29
  -5 -53  -3    5.16    0.28
   5 -53   3    5.30    0.28
   5  53   3    4.86    0.26
  -5 -53   3    5.71    0.30
   5 -53  -3    5.40    0.26
  -5  53  -3    5.48    0.27
  -5 -53  -5    0.79    0.13
  -5  53   5    0.69    0.13
   5 -53   5    0.58    0.12
   5  53  -5    0.54    0.12
   5 -53  -5    0.71    0.11
  -5  53  -5    0.76    0.12
   5  53   5    0.52    0.11
  -5 -53   5    0.74    0.14
  -5  53  -5    0.59    0.10
   5 -53   7    0.85    0.14
  -5  53   7    0.74    0.14
   5  53  -7    0.65    0.13
   5  53  -7    0.67    0.13
  -5 -53  -7    0.66    0.13
  -5  53  -7    0.70    0.12
  -5 -53   7    0.57    0.14
   5  53   7    0.91    0.13
  -5 -53  -9    0.10    0.10
  -5  53   9    0.08    0.12
   5  53  -9   -0.15    0.10
   5 -53   9    0.19    0.11
   5  53  -9    0.17    0.11
  -5  53  -9    0.13    0.11
  -5 -53   9   -0.01    0.10
   5 -53  11    0.03    0.12
  -5  53  11    0.19    0.13
  -5 -53 -11    0.18    0.12
   5  53 -11    0.17    0.12
   5  53 -11    0.09    0.12
  -5 -53  11    0.03    0.12
  -5  53 -11    0.21    0.13
   7 -53   1    6.24    0.30
  -7  53   1    6.41    0.32
   7  53  -1    6.31    0.31
  -7 -53  -1    6.29    0.32
  -7  53  -1    5.99    0.30
   7  53   1    6.69    0.32
  -7 -53   1    6.21    0.33
   7 -53  -1    6.26    0.29
  -7  53   3    0.25    0.11
  -7 -53  -3    0.25    0.09
   7 -53   3    0.14    0.08
   7  53  -3    0.36    0.11
  -7 -53   3    0.10    0.10
   7  53   3    0.15    0.09
  -7  53  -3    0.37    0.10
   7  53  -5    1.76    0.19
   7 -53   5    1.75    0.18
  -7 -53  -5    1.70    0.18
  -7  53   5    1.56    0.18
  -7  53  -5    2.02    0.17
   7  53   5    2.08    0.18
  -7 -53   5    1.78    0.20
  -7  53  -5    2.10    0.17
   7  53  -7    0.72    0.15
  -7 -53  -7    0.69    0.14
   7 -53   7    0.77    0.14
  -7  53   7    0.89    0.16
  -7  53  -7    0.82    0.13
  -7 -53   7    0.86    0.16
   7  53  -9   -0.18    0.10
   7 -53   9    0.06    0.10
  -7 -53  -9    0.01    0.09
  -7  53   9    0.03    0.11
   7  53  -9    0.07    0.11
  -7 -53   9    0.00    0.11
  -7  53  -9    0.01    0.10
  -7  53  11    0.13    0.13
   7  53 -11    0.29    0.14
   7  53 -11    0.13    0.13
   9  53  -1    0.49    0.12
  -9  53   1    0.42    0.11
  -9 -53  -1    0.48    0.12
  -9 -53   1    0.56    0.12
  -9  53  -1    0.45    0.11
   9  53   1    0.35    0.11
  -9  53   3    1.83    0.19
   9  53  -3    2.04    0.20
   9 -53   3    1.87    0.17
  -9 -53  -3    1.87    0.19
  -9 -53   3    2.08    0.21
  -9  53  -3    2.25    0.18
   9  53   3    1.97    0.18
  -9  53   5    0.15    0.10
  -9 -53  -5    0.08    0.09
   9 -53   5   -0.06    0.08
   9  53  -5    0.13    0.10
  -9  53  -5    0.12    0.09
  -9 -53   5    0.17    0.11
   9 -53   7    0.70    0.14
  -9 -53  -7    0.69    0.13
   9  53  -7    0.39    0.13
  -9  53   7    0.49    0.14
  -9 -53   7    0.41    0.13
  -9  53  -7    0.64    0.13
   9  53  -9    0.82    0.16
   9 -53   9    1.03    0.17
  -9  53   9    0.62    0.15
  -9 -53  -9    0.72    0.15
  -9 -53   9    0.97    0.17
  -9  53  -9    0.90    0.15
  11  53  -1    0.14    0.11
 -11 -53  -1    0.21    0.10
 -11  53   1    0.24    0.11
 -11 -53   1    0.12    0.11
 -11  53  -1    0.11    0.10
  11  53   1    0.34    0.11
 -11  53   3    1.32    0.18
 -11 -53  -3    1.28    0.17
  11  53  -3    1.30    0.17
 -11  53  -3    1.31    0.16
 -11 -53   3    1.31    0.18
  11  53   3    1.19    0.15
 -11 -53  -5    0.26    0.11
  11  53  -5    0.09    0.11
 -11  53   5    0.20    0.12
 -11 -53   5    0.55    0.14
 -11  53  -5    0.30    0.11
 -11  53   7    0.49    0.15
  11  53  -7    0.42    0.13
 -11 -53  -7    0.52    0.14
 -11  53  -7    0.77    0.14
 -11 -53   7    0.44    0.14
  11 -53   9    0.32    0.13
 -11 -53   9    0.10    0.12
 -11  53  -9    0.07    0.11
 -13 -53  -1   -0.01    0.10
  13  53  -1   -0.03    0.10
 -13  53   1    0.02    0.11
 -13  53  -1    0.00    0.10
 -13 -53   1    0.01    0.09
  13  53   1    0.01    0.10
 -13  53   3    0.59    0.14
  13  53  -3    0.31    0.13
 -13 -53  -3    0.51    0.13
 -13 -53   3    0.35    0.12
 -13  53   5    0.18    0.13
 -13 -53  -5    0.36    0.12
  13  53  -5    0.26    0.13
 -13 -53   5    0.26    0.13
 -13  53   7    0.70    0.17
 -13 -53  -7    0.45    0.14
  13  53  -7    0.26    0.14
 -13  53  -7    0.62    0.14
  15  53  -1    0.11    0.11
 -15 -53  -1    0.34    0.12
 -15  53   1    0.16    0.12
  15  53   1    0.23    0.12
 -15  53  -1    0.20    0.12
 -15 -53   1    0.08    0.12
 -15 -53  -3    0.02    0.11
 -15  53   3    0.07    0.11
  15  53  -3    0.12    0.12
 -15  53   5    0.60    0.16
 -15 -53  -5    0.56    0.15
  15  53  -5    0.37    0.13
  17  53  -1   -0.08    0.10
 -17  53   1   -0.07    0.11
 -17  53   3    0.04    0.12
 -17 -53  -3    0.27    0.13
  17  53  -3    0.17    0.13
   0  54   0    0.03    0.07
   0 -54   0   -0.03    0.08
   0 -54  -2    8.66    0.37
   0  54  -2    8.37    0.37
   0 -54   2    8.58    0.38
   0  54   2    8.01    0.36
   0  54  -4    0.01    0.08
   0  54   4   -0.04    0.07
   0 -54   4   -0.03    0.08
   0 -54  -4    0.05    0.07
   0  54  -6    0.33    0.10
   0  54  -6    0.13    0.09
   0 -54   6    0.29    0.11
   0 -54  -6    0.62    0.11
   0  54   6    0.23    0.10
   0 -54   8    0.02    0.09
   0  54  -8    0.14    0.09
   0  54  -8   -0.19    0.08
   0 -54  -8    0.01    0.08
   0  54   8   -0.06    0.07
   0  54 -10    0.63    0.15
   0 -54 -10    0.72    0.14
   0 -54  10    0.50    0.15
   0 -54 -12   -0.02    0.10
   2 -54   0    2.18    0.17
  -2  54   0    1.93    0.16
  -2 -54   0    2.09    0.17
   2  54   0    2.25    0.17
  -2  54   2   -0.04    0.07
   2  54  -2    0.12    0.09
   2 -54   2    0.01    0.07
  -2 -54  -2    0.11    0.08
   2  54   2    0.00    0.07
   2 -54  -2    0.01    0.07
  -2  54  -2    0.16    0.08
  -2 -54   2   -0.11    0.07
   2  54  -4    3.74    0.24
  -2 -54  -4    3.83    0.24
   2 -54   4    3.97    0.25
  -2  54   4    4.35    0.25
  -2  54  -4    3.83    0.23
   2 -54  -4    4.35    0.24
   2  54   4    4.39    0.25
  -2 -54   4    3.98    0.25
   2  54  -6    1.63    0.17
  -2  54   6    1.59    0.17
  -2 -54  -6    1.42    0.16
   2 -54   6    1.43    0.18
   2  54   6    1.47    0.16
  -2  54  -6    1.49    0.16
  -2 -54   6    1.50    0.18
  -2  54  -6    1.74    0.15
   2 -54  -6    1.71    0.17
   2  54  -8    0.84    0.14
   2  54  -8    0.75    0.13
  -2 -54  -8    0.64    0.13
   2 -54   8    0.53    0.13
  -2  54   8    0.90    0.14
  -2  54  -8    0.82    0.14
  -2 -54   8    0.65    0.15
  -2  54  -8    0.60    0.12
   2  54   8    0.53    0.12
   2 -54  -8    0.69    0.12
   2  54 -10    0.37    0.13
  -2 -54 -10    0.24    0.12
   2 -54  10    0.19    0.13
  -2  54  10    0.41    0.13
   2  54 -10    0.29    0.12
  -2  54 -10    0.42    0.13
  -2 -54  10    0.44    0.14
  -4 -54   0    0.28    0.10
  -4  54   0    0.38    0.11
   4 -54   0    0.46    0.10
   4  54   0    0.30    0.10
  -4 -54  -2    5.29    0.28
   4 -54   2    4.78    0.26
   4  54  -2    4.83    0.27
  -4  54   2    5.03    0.27
  -4 -54   2    4.59    0.28
  -4  54  -2    4.98    0.26
   4  54   2    4.85    0.27
   4 -54  -2    5.07    0.26
   4 -54   4    0.54    0.12
  -4  54   4    0.50    0.11
  -4 -54  -4    0.73    0.12
   4  54  -4    0.42    0.11
  -4 -54   4    0.44    0.12
  -4  54  -4    0.54    0.11
   4 -54  -4    0.51    0.10
   4  54   4    0.39    0.10
   4 -54   6    1.13    0.16
  -4 -54  -6    0.78    0.13
   4  54  -6    1.10    0.15
  -4  54   6    0.96    0.14
  -4 -54   6    1.10    0.16
  -4  54  -6    1.18    0.13
  -4  54  -6    1.03    0.13
   4  54   6    0.91    0.13
   4 -54  -6    1.26    0.14
  -4 -54  -8    0.12    0.10
   4  54  -8    0.05    0.10
  -4  54   8    0.08    0.11
   4  54  -8    0.07    0.11
   4 -54   8    0.05    0.11
  -4  54  -8    0.05    0.09
  -4 -54   8    0.11    0.11
  -4 -54 -10    1.24    0.17
  -4  54  10    1.48    0.20
   4  54 -10    1.32    0.18
   4  54 -10    1.62    0.19
   4 -54  10    1.45    0.21
  -4 -54  10    1.61    0.21
  -4  54 -10    1.61    0.19
   6 -54   0    4.28    0.24
   6  54   0    4.20    0.25
  -6  54   0    4.15    0.25
  -6 -54   0    4.36    0.26
   6  54  -2    0.35    0.11
  -6 -54  -2    0.21    0.10
  -6  54   2    0.47    0.11
   6 -54   2    0.29    0.10
  -6 -54   2    0.27    0.10
   6 -54  -2    0.37    0.09
   6  54   2    0.43    0.11
  -6  54  -2    0.26    0.09
  -6  54   4    0.67    0.13
  -6 -54  -4    0.78    0.13
   6  54  -4    0.52    0.13
   6 -54   4    0.83    0.14
  -6  54  -4    0.83    0.12
  -6 -54   4    0.97    0.15
   6  54   4    0.88    0.13
   6  54  -6    0.15    0.11
  -6  54   6    0.48    0.12
  -6 -54  -6    0.26    0.10
   6 -54   6    0.26    0.10
  -6  54  -6    0.27    0.10
   6  54   6    0.25    0.10
  -6 -54   6    0.22    0.12
  -6  54  -6    0.47    0.10
  -6 -54  -8    0.81    0.14
  -6  54   8    1.22    0.18
   6 -54   8    0.94    0.16
   6  54  -8    0.92    0.15
   6  54  -8    0.85    0.15
  -6  54  -8    0.81    0.14
  -6 -54   8    0.78    0.15
   6 -54  10   -0.02    0.11
   6  54 -10    0.06    0.12
  -6 -54 -10    0.06    0.10
   6  54 -10    0.20    0.12
  -6  54  10    0.30    0.14
  -6  54 -10    0.28    0.12
  -6 -54  10   -0.03    0.10
  -8  54   0    0.74    0.13
  -8 -54   0    0.74    0.14
   8  54   0    0.78    0.14
  -8  54   2    2.95    0.22
   8  54  -2    3.00    0.21
  -8 -54  -2    2.68    0.20
   8 -54   2    2.69    0.19
  -8 -54   2    2.97    0.23
  -8  54  -2    2.62    0.20
   8  54   2    2.82    0.21
  -8  54   4    0.08    0.09
   8 -54   4    0.14    0.09
   8  54  -4    0.12    0.10
  -8 -54  -4    0.12    0.09
   8  54   4    0.18    0.09
  -8 -54   4    0.16    0.11
  -8  54  -4    0.25    0.10
  -8 -54  -6    1.12    0.16
   8 -54   6    0.94    0.15
  -8  54   6    1.06    0.16
   8  54  -6    0.95    0.16
  -8  54  -6    1.07    0.14
  -8 -54   6    0.98    0.17
   8 -54   8    0.30    0.12
  -8 -54  -8    0.23    0.11
   8  54  -8    0.15    0.12
  -8  54   8    0.34    0.13
  -8  54  -8    0.27    0.11
  -8 -54   8    0.13    0.12
   8  54 -10    0.34    0.14
   8  54 -10    0.40    0.14
  -8  54  10    0.43    0.15
   8 -54  10    0.50    0.15
  -8 -54  10    0.35    0.13
  -8  54 -10    0.34    0.13
  10  54   0    0.64    0.13
 -10 -54   0    0.96    0.15
 -10  54   0    0.52    0.12
  10  54  -2    0.33    0.11
 -10 -54  -2    0.24    0.11
 -10  54   2    0.11    0.11
 -10 -54   2    0.19    0.11
 -10  54  -2    0.36    0.10
  10  54   2    0.32    0.10
  10  54  -4    0.15    0.11
 -10  54   4    0.09    0.11
 -10 -54  -4    0.13    0.10
 -10  54  -4    0.17    0.09
 -10 -54   4    0.13    0.10
  10  54   4    0.21    0.10
 -10 -54  -6    0.57    0.14
 -10  54   6    0.97    0.17
  10  54  -6    0.63    0.15
  10 -54   6    0.78    0.14
 -10  54  -6    0.62    0.13
 -10 -54   6    0.78    0.15
 -10  54   8    0.02    0.12
 -10 -54  -8    0.04    0.10
  10 -54   8    0.11    0.11
  10  54  -8    0.24    0.13
 -10 -54   8   -0.01    0.11
 -10  54  -8    0.02    0.10
 -12  54   0    0.17    0.10
 -12 -54   0    0.21    0.10
  12  54   0    0.10    0.10
 -12 -54  -2    1.21    0.17
 -12  54   2    1.75    0.20
  12  54  -2    1.79    0.20
  12  54   2    1.61    0.17
 -12  54  -2    1.56    0.18
 -12 -54   2    1.56    0.20
 -12  54   4    0.65    0.15
 -12 -54  -4    0.59    0.13
  12  54  -4    0.51    0.14
 -12 -54   4    0.53    0.13
 -12  54   6    0.53    0.15
  12  54  -6    0.66    0.15
 -12 -54  -6    0.39    0.13
 -12  54  -6    0.54    0.13
 -12 -54   6    0.88    0.17
  12  54  -8   -0.01    0.12
 -12  54  -8   -0.04    0.11
 -12 -54   8    0.01    0.11
  14  54   0    0.82    0.15
 -14  54   0    0.71    0.15
 -14 -54   0    0.60    0.14
  14  54  -2    0.10    0.12
 -14 -54  -2    0.12    0.10
 -14  54   2    0.18    0.12
 -14 -54   2    0.15    0.12
 -14 -54  -4    0.57    0.15
 -14  54   4    0.69    0.17
  14  54  -4    0.72    0.15
 -14 -54   4    0.70    0.16
 -14 -54  -6    0.00    0.10
  14  54  -6    0.09    0.12
 -14  54   6    0.07    0.13
 -14  54  -6    0.00    0.11
 -16 -54   0    0.10    0.12
  16  54   0    0.28    0.13
 -16  54   0    0.23    0.12
  16  54  -2    0.18    0.13
 -16 -54  -2    0.18    0.12
 -16  54   2    0.28    0.14
 -16 -54  -4    0.00    0.10
  16  54  -4   -0.03    0.11
 -16  54   4    0.22    0.14
   1 -55   1    0.03    0.08
   1  55  -1    0.21    0.09
  -1  55   1    0.09    0.08
  -1 -55  -1    0.01    0.07
   1 -55  -1    0.09    0.08
   1  55   1    0.13    0.08
  -1  55  -1    0.16    0.08
  -1 -55   1    0.33    0.10
   1 -55   3    0.31    0.10
  -1 -55  -3    0.52    0.11
   1  55  -3    0.32    0.10
  -1  55   3    0.49    0.11
   1 -55  -3    0.33    0.09
  -1 -55   3    0.11    0.09
  -1  55  -3    0.49    0.11
   1  55   3    0.30    0.09
   1  55  -5    0.33    0.10
  -1  55   5    0.28    0.09
   1 -55   5    0.14    0.09
  -1 -55  -5    0.13    0.09
  -1  55  -5    0.25    0.09
   1  55   5    0.11    0.09
   1 -55  -5    0.21    0.09
  -1 -55   5    0.14    0.09
   1  55  -7    0.70    0.13
  -1 -55  -7    0.62    0.12
   1  55  -7    0.81    0.12
   1 -55   7    0.69    0.14
  -1  55   7    0.72    0.14
  -1  55  -7    0.66    0.12
  -1  55  -7    0.62    0.12
   1  55   7    0.59    0.12
   1 -55  -7    0.63    0.12
  -1 -55   7    0.53    0.13
  -1 -55  -9    1.15    0.16
   1 -55   9    1.34    0.19
  -1  55   9    0.94    0.16
   1  55  -9    1.44    0.17
   1  55  -9    1.37    0.17
  -1 -55   9    1.19    0.17
  -1  55  -9    1.14    0.16
   1 -55  -9    1.38    0.17
   1  55   9    0.99    0.16
  -1 -55 -11    0.04    0.10
   1 -55  11    0.10    0.13
   1  55 -11    0.13    0.13
  -1  55 -11    0.18    0.13
  -1 -55  11    0.08    0.12
  -3 -55  -1    1.14    0.14
   3  55  -1    1.00    0.14
  -3  55   1    0.89    0.13
   3 -55   1    0.85    0.13
   3 -55  -1    1.03    0.14
  -3 -55   1    0.87    0.14
  -3  55  -1    0.90    0.13
   3  55   1    1.20    0.14
  -3  55   3    0.68    0.13
  -3 -55  -3    0.43    0.11
   3  55  -3    0.48    0.12
   3 -55   3    0.41    0.10
   3  55   3    0.46    0.11
   3 -55  -3    0.62    0.11
  -3  55  -3    0.45    0.11
  -3 -55   3    0.49    0.12
   3 -55   5    1.80    0.19
  -3  55   5    1.91    0.19
   3  55  -5    1.66    0.17
  -3 -55  -5    1.23    0.15
  -3  55  -5    1.59    0.16
   3 -55  -5    1.77    0.17
  -3 -55   5    1.59    0.18
   3  55   5    1.55    0.16
  -3  55   7    0.84    0.15
   3  55  -7    0.81    0.14
   3  55  -7    1.05    0.14
  -3 -55  -7    0.55    0.12
   3 -55   7    0.83    0.15
  -3  55  -7    0.84    0.13
  -3  55  -7    0.74    0.12
   3 -55  -7    0.64    0.12
  -3 -55   7    0.84    0.16
   3  55   7    0.84    0.13
  -3 -55  -9    0.53    0.13
  -3  55   9    0.52    0.13
   3  55  -9    0.60    0.14
   3 -55   9    0.69    0.16
   3  55  -9    0.61    0.14
  -3 -55   9    0.49    0.15
  -3  55  -9    0.62    0.13
   3  55 -11    0.19    0.13
  -3 -55 -11    0.11    0.10
  -3  55 -11   -0.01    0.11
   5  55  -1    1.48    0.16
  -5  55   1    1.10    0.15
   5 -55   1    1.31    0.15
  -5 -55  -1    1.16    0.15
  -5  55  -1    1.44    0.15
   5 -55  -1    1.82    0.16
  -5 -55   1    1.60    0.18
   5  55   1    0.97    0.14
   5  55  -3    1.59    0.17
   5 -55   3    1.79    0.18
  -5 -55  -3    1.59    0.17
  -5  55   3    1.71    0.18
  -5 -55   3    1.64    0.19
  -5  55  -3    1.98    0.16
   5 -55  -3    2.05    0.16
   5  55   3    1.54    0.16
   5  55  -5    0.77    0.14
  -5 -55  -5    0.67    0.13
   5 -55   5    0.84    0.13
  -5  55   5    0.84    0.14
   5  55   5    0.86    0.13
   5 -55  -5    0.90    0.12
  -5  55  -5    0.87    0.13
  -5 -55   5    0.91    0.16
   5 -55   7    0.40    0.12
  -5 -55  -7    0.35    0.11
  -5  55   7    0.45    0.13
   5  55  -7    0.60    0.13
  -5  55  -7    0.29    0.10
  -5 -55   7    0.36    0.13
   5  55   7    0.59    0.12
   5 -55   9    0.57    0.15
  -5 -55  -9    0.43    0.13
   5  55  -9    0.51    0.13
   5  55  -9    0.45    0.13
  -5  55   9    0.53    0.14
  -5 -55   9    0.67    0.16
  -5  55  -9    0.68    0.14
   5  55 -11    0.09    0.11
   5  55 -11    0.10    0.12
  -5  55  11   -0.04    0.11
  -5  55 -11    0.10    0.11
   7 -55   1    3.12    0.21
  -7 -55  -1    2.94    0.21
   7  55  -1    2.78    0.21
  -7  55   1    2.96    0.21
  -7  55  -1    3.32    0.22
   7 -55  -1    3.27    0.20
   7  55   1    3.29    0.22
  -7 -55   1    3.01    0.22
   7  55  -3    0.65    0.13
  -7 -55  -3    0.81    0.13
  -7  55   3    0.63    0.13
   7 -55   3    0.72    0.13
  -7 -55   3    0.43    0.13
  -7  55  -3    0.78    0.13
   7  55   3    0.53    0.12
   7 -55   5    0.67    0.13
   7  55  -5    0.85    0.15
  -7 -55  -5    0.73    0.14
  -7  55   5    0.55    0.13
   7  55   5    0.92    0.13
  -7  55  -5    0.90    0.13
  -7 -55   5    1.08    0.16
   7  55  -7   -0.04    0.11
  -7  55   7    0.12    0.10
   7 -55   7    0.08    0.09
  -7 -55  -7   -0.03    0.09
  -7 -55   7    0.04    0.11
  -7  55  -7    0.04    0.09
  -7 -55  -9    0.16    0.11
  -7  55   9    0.46    0.14
   7  55  -9    0.58    0.15
   7  55  -9    0.35    0.13
   7 -55   9    0.22    0.12
  -7 -55   9    0.22    0.12
  -7  55  -9    0.17    0.12
  -9  55   1    1.04    0.15
   9  55  -1    1.18    0.15
  -9 -55  -1    1.33    0.17
  -9  55  -1    1.00    0.14
   9  55   1    1.25    0.15
  -9 -55   1    1.31    0.17
  -9  55   3    2.25    0.22
   9  55  -3    2.41    0.20
  -9 -55  -3    2.16    0.20
   9 -55   3    2.11    0.19
   9  55   3    2.16    0.19
  -9  55  -3    2.85    0.20
  -9 -55   3    2.47    0.23
   9  55  -5    0.75    0.15
  -9  55   5    0.62    0.15
  -9 -55  -5    0.60    0.13
   9 -55   5    0.59    0.13
  -9 -55   5    0.77    0.15
  -9  55   7    0.14    0.12
  -9 -55  -7    0.19    0.10
   9 -55   7    0.31    0.11
   9  55  -7    0.20    0.12
  -9 -55   7    0.00    0.11
  -9  55  -7    0.25    0.11
   9  55  -9    0.35    0.14
   9 -55   9    0.21    0.12
  -9  55   9    0.28    0.13
  -9 -55  -9    0.19    0.12
  -9 -55   9    0.10    0.12
  -9  55  -9    0.08    0.10
  11  55  -1    1.95    0.20
 -11 -55  -1    1.78    0.20
 -11  55   1    1.75    0.19
  11  55   1    1.93    0.19
 -11 -55   1    2.06    0.21
 -11  55  -1    1.66    0.19
 -11 -55  -3    1.20    0.17
  11  55  -3    1.43    0.18
 -11  55   3    1.22    0.17
 -11 -55   3    1.15    0.17
 -11  55  -3    1.22    0.16
  11  55   3    1.38    0.16
  11  55  -5    1.81    0.21
 -11  55   5    1.75    0.22
 -11 -55  -5    1.94    0.21
 -11 -55   5    2.05    0.22
  11  55  -7    0.57    0.15
 -11 -55  -7    0.61    0.14
 -11  55   7    0.62    0.15
 -11  55  -7    0.39    0.13
 -11 -55   7    0.36    0.13
 -11  55  -9    0.22    0.12
 -11 -55   9    0.24    0.14
 -13 -55  -1    0.69    0.15
  13  55  -1    0.46    0.13
 -13  55   1    1.02    0.16
 -13  55  -1    0.83    0.15
  13  55   1    0.95    0.15
 -13 -55   1    0.72    0.15
 -13  55   3    0.52    0.14
  13  55  -3    0.49    0.14
 -13 -55  -3    0.30    0.12
 -13 -55   3    0.63    0.15
 -13 -55  -5    0.63    0.15
 -13  55   5    0.81    0.17
  13  55  -5    0.65    0.15
 -13 -55   5    0.68    0.15
 -13  55  -7    0.37    0.13
 -15  55   1    0.94    0.17
  15  55  -1    0.74    0.16
 -15 -55  -1    1.23    0.18
  15  55   1    1.08    0.16
 -15 -55   1    0.92    0.17
  15  55  -3    0.32    0.14
 -15  55   3    0.58    0.15
 -15 -55  -3    0.34    0.13
 -15 -55  -5    0.30    0.13
  17  55  -1    0.51    0.15
 -17  55   1    0.96    0.18
   0 -56   0    3.76    0.23
   0  56   0    3.54    0.22
   0 -56  -2    0.26    0.09
   0  56  -2    0.20    0.09
   0 -56   2    0.17    0.09
   0  56   2    0.26    0.09
   0  56  -4    0.63    0.11
   0 -56   4    0.80    0.13
   0 -56  -4    0.73    0.12
   0  56   4    0.92    0.14
   0  56   6    0.02    0.08
   0  56  -6   -0.07    0.07
   0 -56   6    0.08    0.10
   0 -56  -6    0.01    0.08
   0 -56   8    0.53    0.13
   0  56  -8    0.58    0.12
   0  56  -8    0.69    0.13
   0  56   8    0.52    0.13
   0 -56  -8    0.73    0.13
   0 -56 -10    0.08    0.10
   0  56 -10    0.23    0.12
   0 -56  10    0.34    0.13
  -2 -56   0    0.19    0.10
   2  56   0    0.21    0.09
   2 -56   0    0.21    0.09
  -2  56   0   -0.02    0.08
  -2  56   2    0.13    0.09
   2 -56   2    0.29    0.10
  -2 -56  -2    0.27    0.10
   2  56  -2    0.41    0.11
   2 -56  -2    0.29    0.10
  -2  56  -2    0.25    0.10
   2  56   2    0.36    0.10
  -2 -56   2    0.44    0.11
  -2  56   4    0.07    0.08
   2 -56   4    0.06    0.09
  -2 -56  -4    0.13    0.09
   2  56  -4    0.09    0.08
  -2  56  -4    0.15    0.09
   2  56   4    0.06    0.09
  -2 -56   4    0.02    0.09
   2 -56  -4    0.00    0.08
  -2  56   6    0.48    0.11
   2  56  -6    0.40    0.11
  -2 -56  -6    0.26    0.10
   2 -56   6    0.39    0.12
  -2  56  -6    0.27    0.10
  -2 -56   6    0.45    0.12
   2 -56  -6    0.34    0.10
   2  56   6    0.33    0.11
   2  56  -8    0.34    0.11
   2 -56   8    0.35    0.13
  -2  56   8    0.17    0.11
   2  56  -8    0.21    0.10
  -2 -56  -8   -0.02    0.09
  -2 -56   8    0.32    0.13
   2 -56  -8    0.04    0.08
  -2  56  -8    0.29    0.10
   2  56   8    0.22    0.10
  -2  56  -8    0.24    0.11
  -2  56  10    0.21    0.12
  -2 -56 -10    0.25    0.11
   2 -56  10   -0.02    0.11
   2  56 -10    0.23    0.12
   2  56 -10    0.19    0.12
  -2 -56  10   -0.20    0.11
  -2  56 -10    0.15    0.12
  -4  56   0    0.62    0.12
  -4 -56   0    0.52    0.11
   4 -56   0    0.60    0.11
   4  56   0    0.41    0.10
   4 -56   2    0.76    0.13
  -4 -56  -2    0.52    0.12
   4  56  -2    0.74    0.12
  -4  56   2    0.57    0.12
  -4 -56   2    0.65    0.13
   4 -56  -2    0.56    0.11
  -4  56  -2    0.65    0.11
   4  56   2    0.69    0.12
  -4  56   4    0.26    0.10
   4  56  -4    0.27    0.10
   4 -56   4    0.42    0.11
  -4 -56  -4    0.25    0.10
   4 -56  -4    0.37    0.10
  -4 -56   4    0.55    0.13
   4  56   4    0.49    0.11
  -4  56  -4    0.28    0.09
  -4 -56  -6    0.11    0.09
  -4  56   6    0.14    0.10
   4  56  -6   -0.05    0.09
   4 -56   6    0.11    0.09
   4  56   6    0.07    0.09
  -4 -56   6    0.14    0.11
   4 -56  -6    0.20    0.09
  -4  56  -6    0.12    0.09
  -4 -56  -8    0.82    0.14
  -4  56   8    0.69    0.14
   4  56  -8    0.68    0.14
   4  56  -8    0.95    0.16
   4 -56   8    0.74    0.15
  -4 -56   8    0.84    0.16
  -4  56  -8    0.81    0.14
  -4 -56 -10    0.10    0.11
   4  56 -10    0.16    0.12
   4 -56  10    0.06    0.12
  -4  56  10    0.13    0.12
   4  56 -10    0.09    0.11
  -4 -56  10    0.19    0.13
  -4  56 -10    0.16    0.12
   6  56   0    0.77    0.13
   6 -56   0    0.86    0.13
  -6 -56   0    0.78    0.14
  -6  56   0    1.02    0.14
  -6  56   2   -0.04    0.08
   6  56  -2    0.07    0.09
  -6 -56  -2   -0.04    0.08
   6 -56   2    0.01    0.08
   6  56   2    0.07    0.09
  -6  56  -2    0.04    0.08
  -6 -56   2   -0.03    0.09
   6 -56  -2    0.22    0.09
   6  56  -4    1.32    0.16
  -6 -56  -4    1.32    0.16
  -6  56   4    1.22    0.16
   6 -56   4    1.49    0.17
  -6 -56   4    1.43    0.18
   6  56   4    1.34    0.15
  -6  56  -4    1.42    0.16
  -6 -56  -6    0.55    0.13
   6 -56   6    0.61    0.14
   6  56  -6    0.58    0.13
  -6  56   6    1.13    0.17
  -6 -56   6    0.61    0.14
   6  56   6    0.86    0.13
  -6  56  -6    0.58    0.12
   6 -56   8    0.20    0.12
  -6 -56  -8    0.30    0.11
  -6  56   8    0.43    0.14
   6  56  -8    0.17    0.12
  -6 -56   8    0.15    0.12
  -6  56  -8    0.21    0.11
  -6 -56 -10   -0.01    0.08
  -6  56  10    0.09    0.12
   6 -56  10    0.16    0.13
   6  56 -10    0.01    0.11
   6  56 -10   -0.03    0.12
  -6 -56  10    0.09    0.12
  -6  56 -10    0.02    0.11
  -8 -56   0    0.02    0.09
   8  56   0    0.08    0.09
  -8  56   0    0.10    0.10
  -8  56   2    1.23    0.16
   8  56  -2    1.00    0.15
   8 -56   2    1.13    0.15
  -8 -56  -2    1.29    0.16
  -8 -56   2    0.94    0.15
   8  56   2    1.27    0.15
  -8  56  -2    1.11    0.15
  -8  56   4    0.00    0.10
   8  56  -4    0.03    0.10
  -8 -56  -4    0.10    0.09
   8 -56   4   -0.06    0.08
   8  56   4    0.06    0.09
  -8  56  -4   -0.12    0.08
  -8 -56   4    0.01    0.09
   8 -56   6    0.03    0.10
  -8 -56  -6    0.18    0.10
   8  56  -6   -0.05    0.10
  -8  56   6    0.34    0.13
  -8 -56   6    0.19    0.12
   8  56  -8    0.01    0.11
   8 -56   8    0.24    0.12
  -8  56   8   -0.01    0.12
  -8 -56  -8    0.12    0.10
  -8 -56   8    0.21    0.13
  -8  56  -8    0.28    0.12
   8  56 -10    0.14    0.12
  -8 -56  10    0.17    0.13
  -8  56 -10    0.07    0.11
 -10 -56   0    0.45    0.12
 -10  56   0    0.12    0.10
  10  56   0    0.11    0.10
 -10  56   2    0.42    0.13
 -10 -56  -2    0.58    0.13
  10  56  -2    0.72    0.14
 -10 -56   2    0.56    0.14
 -10  56  -2    0.47    0.12
  10  56   2    0.70    0.13
 -10  56   4    1.13    0.17
 -10 -56  -4    0.92    0.15
  10  56  -4    0.76    0.15
  10  56   4    1.14    0.15
 -10 -56   4    1.31    0.19
 -10  56  -4    1.36    0.16
 -10  56   6    1.32    0.20
  10 -56   6    1.29    0.17
  10  56  -6    1.32    0.19
 -10 -56  -6    0.84    0.15
 -10 -56   6    1.53    0.20
  10 -56   8    0.57    0.14
  10  56  -8    0.41    0.14
 -10  56   8    0.52    0.16
 -10 -56  -8    0.69    0.15
 -10  56  -8    1.03    0.16
 -10 -56   8    0.59    0.16
 -12  56   0    1.39    0.18
  12  56   0    1.09    0.16
 -12 -56   0    1.41    0.19
  12  56  -2    0.27    0.12
 -12  56   2    0.20    0.11
 -12 -56  -2    0.45    0.13
  12  56   2    0.20    0.11
 -12 -56   2    0.46    0.14
 -12  56  -2    0.22    0.11
 -12 -56  -4    0.60    0.14
  12  56  -4    0.79    0.16
 -12  56   4    0.69    0.16
 -12 -56   4    0.55    0.15
  12  56  -6    0.69    0.16
 -12  56   6    0.62    0.15
 -12 -56  -6    0.72    0.15
 -12 -56   6    1.37    0.19
 -12 -56   8    0.08    0.12
 -12  56  -8   -0.04    0.10
 -14 -56   0   -0.12    0.10
 -14  56   0   -0.01    0.10
  14  56   0    0.03    0.11
 -14 -56  -2   -0.04    0.10
 -14  56   2    0.13    0.12
  14  56  -2    0.04    0.11
 -14 -56   2    0.10    0.11
 -14 -56  -4    0.32    0.13
 -14  56   4    0.32    0.14
  14  56  -4    0.24    0.13
 -14 -56   4    0.21    0.12
 -16  56   0    0.00    0.11
 -16 -56   0    0.01    0.11
  16  56   0    0.06    0.11
  16  56  -2    0.29    0.13
 -16 -56  -2    0.15    0.11
 -16  56   2    0.09    0.13
   1  57  -1    0.97    0.13
   1 -57   1    1.11    0.14
  -1  57   1    1.04    0.13
  -1 -57  -1    1.20    0.15
   1 -57  -1    1.17    0.14
  -1 -57   1    1.08    0.15
   1  57   1    1.22    0.15
  -1  57  -1    0.98    0.14
  -1 -57  -3    1.31    0.16
  -1  57   3    1.28    0.15
   1 -57   3    1.24    0.16
   1  57  -3    1.47    0.16
   1  57   3    1.46    0.16
   1 -57  -3    1.54    0.16
  -1  57  -3    0.98    0.13
  -1 -57   3    1.37    0.17
  -1  57   5    0.78    0.13
   1 -57   5    0.56    0.13
   1  57  -5    0.67    0.12
  -1 -57  -5    0.61    0.12
  -1  57  -5    0.65    0.12
  -1 -57   5    0.81    0.15
   1  57   5    0.69    0.12
   1 -57  -5    0.85    0.13
  -1 -57  -7    1.19    0.16
  -1  57   7    0.78    0.14
   1  57  -7    0.98    0.15
   1 -57   7    1.15    0.17
   1 -57  -7    0.97    0.14
  -1  57  -7    1.17    0.15
  -1 -57   7    1.11    0.17
   1  57   7    0.88    0.14
   1 -57   9    0.85    0.17
   1  57  -9    1.03    0.16
   1  57  -9    1.05    0.16
  -1 -57  -9    0.79    0.15
  -1  57   9    0.66    0.14
  -1 -57   9    0.81    0.16
  -1  57  -9    1.12    0.16
   1 -57  -9    0.66    0.13
   1  57 -11    0.47    0.15
  -1 -57 -11    0.43    0.13
  -1  57 -11    0.23    0.13
  -3  57   1    0.88    0.13
  -3 -57  -1    0.84    0.14
   3 -57   1    1.08    0.15
   3  57  -1    0.88    0.13
   3 -57  -1    0.76    0.12
  -3 -57   1    0.85    0.14
   3  57   1    0.84    0.13
  -3  57  -1    0.85    0.13
   3  57  -3    0.07    0.09
  -3  57   3    0.04    0.08
   3 -57   3    0.13    0.10
  -3 -57  -3    0.30    0.10
  -3 -57   3    0.30    0.11
  -3  57  -3    0.17    0.09
   3  57   3    0.16    0.09
   3 -57  -3    0.21    0.09
   3  57  -5    0.93    0.14
   3 -57   5    0.90    0.15
  -3  57   5    0.93    0.15
  -3 -57  -5    0.91    0.14
   3  57   5    0.88    0.13
  -3 -57   5    1.18    0.16
   3 -57  -5    1.15    0.14
  -3  57  -5    1.08    0.14
   3 -57   7    0.57    0.13
  -3  57   7    0.59    0.13
  -3 -57  -7    0.44    0.12
   3  57  -7    0.49    0.13
   3  57   7    0.56    0.12
  -3  57  -7    0.45    0.11
   3 -57  -7    0.52    0.11
  -3 -57   7    0.44    0.13
   3  57  -9    0.01    0.11
  -3 -57  -9    0.00    0.09
  -3  57   9    0.00    0.10
   3  57  -9    0.08    0.11
   3 -57   9    0.12    0.12
  -3 -57   9    0.05    0.11
  -3  57  -9    0.07    0.11
  -3 -57 -11    0.56    0.15
   3  57 -11    0.50    0.15
  -3  57 -11    0.38    0.14
  -5  57   1    0.99    0.14
  -5 -57  -1    0.84    0.14
   5 -57   1    0.85    0.14
   5  57  -1    0.91    0.14
   5  57   1    0.90    0.13
  -5 -57   1    0.94    0.15
  -5  57  -1    0.86    0.13
   5 -57  -1    0.82    0.13
   5  57  -3    0.12    0.09
   5 -57   3    0.07    0.09
  -5 -57  -3    0.28    0.10
  -5  57   3    0.25    0.11
   5 -57  -3    0.11    0.09
   5  57   3    0.22    0.10
  -5 -57   3    0.16    0.10
  -5  57  -3    0.40    0.10
   5 -57   5    0.91    0.15
  -5 -57  -5    0.77    0.13
   5  57  -5    0.49    0.12
  -5  57   5    0.87    0.14
   5  57   5    0.78    0.13
  -5  57  -5    0.75    0.13
  -5 -57   5    0.94    0.16
  -5 -57  -7    0.31    0.11
   5  57  -7    0.41    0.13
  -5  57   7    0.14    0.10
   5 -57   7    0.35    0.12
  -5 -57   7    0.22    0.12
   5  57   7    0.37    0.11
  -5 -57  -9    0.43    0.13
   5 -57   9    0.50    0.15
   5  57  -9    0.70    0.15
  -5  57   9    0.39    0.13
   5  57  -9    0.54    0.13
  -5  57  -9    0.44    0.12
  -5 -57   9    0.71    0.16
   5  57 -11    0.18    0.13
   5  57 -11    0.17    0.12
  -5  57  11    0.17    0.13
  -7  57   1    0.81    0.14
   7 -57   1    0.93    0.13
  -7 -57  -1    1.01    0.15
   7  57  -1    1.01    0.15
   7  57   1    1.19    0.15
  -7 -57   1    1.00    0.16
  -7  57  -1    0.93    0.14
   7  57  -3    0.65    0.13
  -7  57   3    0.80    0.14
   7 -57   3    0.73    0.13
  -7 -57  -3    0.83    0.14
  -7  57  -3    0.66    0.13
   7  57   3    1.06    0.15
  -7 -57   3    0.72    0.15
   7 -57   5    0.82    0.15
  -7  57   5    0.90    0.16
  -7 -57  -5    0.69    0.14
   7  57  -5    0.58    0.14
  -7 -57   5    1.06    0.17
  -7  57  -5    0.98    0.14
   7  57   5    0.84    0.13
   7  57  -7    0.77    0.15
   7 -57   7    0.46    0.13
  -7 -57  -7    0.62    0.13
  -7  57   7    0.70    0.16
  -7 -57   7    0.73    0.16
   7 -57   9   -0.03    0.11
  -7  57   9   -0.02    0.11
  -7 -57  -9   -0.07    0.09
   7  57  -9    0.06    0.12
  -7  57  -9    0.18    0.11
  -7 -57   9    0.02    0.11
  -9 -57  -1    0.81    0.15
   9  57  -1    0.77    0.14
  -9  57   1    0.85    0.15
   9  57   1    0.83    0.14
  -9 -57   1    0.92    0.15
  -9  57  -1    0.83    0.14
   9  57  -3    1.53    0.18
  -9  57   3    1.50    0.18
  -9 -57  -3    1.51    0.18
  -9  57  -3    1.54    0.17
  -9 -57   3    1.68    0.20
   9  57   3    1.62    0.17
  -9 -57  -5    1.33    0.17
   9 -57   5    1.62    0.18
  -9  57   5    1.64    0.20
   9  57  -5    1.65    0.19
  -9 -57   5    1.52    0.20
  -9 -57  -7    0.06    0.10
   9  57  -7    0.22    0.12
   9 -57   7    0.13    0.11
  -9  57   7   -0.13    0.10
  -9 -57   7   -0.12    0.10
   9 -57   9    0.33    0.13
   9  57  -9    0.16    0.13
  -9  57   9    0.42    0.15
  -9  57  -9    0.29    0.12
  -9 -57   9    0.19    0.13
 -11 -57  -1    0.70    0.15
 -11  57   1    0.50    0.13
 -11 -57   1    0.89    0.16
  11  57   1    0.69    0.13
 -11  57  -1    0.93    0.15
 -11  57   3    0.59    0.15
  11  57  -3    0.53    0.14
 -11 -57  -3    0.42    0.13
 -11 -57   3    0.54    0.14
 -11  57  -3    0.40    0.12
  11  57   3    0.38    0.11
 -11  57   5    0.59    0.14
 -11 -57  -5    0.70    0.15
  11  57  -5    0.68    0.15
 -11 -57   5    0.72    0.16
 -11 -57  -7    0.49    0.14
 -11  57   7    0.38    0.15
  11  57  -7    0.53    0.15
 -11 -57   7    0.54    0.15
 -13  57   1    0.32    0.13
  13  57  -1    0.10    0.11
 -13 -57  -1    0.11    0.11
 -13  57  -1    0.14    0.11
  13  57   1    0.09    0.10
 -13 -57   1    0.04    0.11
 -13 -57  -3    1.11    0.17
  13  57  -3    0.87    0.16
 -13  57   3    1.18    0.18
 -13 -57   3    1.04    0.18
 -13  57   5   -0.02    0.12
 -13 -57  -5    0.16    0.11
  13  57  -5    0.34    0.13
 -13 -57   5    0.01    0.11
  15  57  -1    0.65    0.15
 -15  57   1    0.64    0.15
 -15 -57  -1    0.77    0.16
  15  57   1    0.80    0.15
 -15 -57   1    0.66    0.16
 -15  57   3    0.26    0.14
  15  57  -3    0.41    0.14
 -15 -57  -3    0.31    0.13
 -15 -57   3    0.29    0.13
 -17  57   1    0.26    0.13
   0 -58   0    0.09    0.08
   0  58   0    0.09    0.08
   0 -58   2    3.27    0.23
   0 -58  -2    3.42    0.22
   0  58   2    3.34    0.22
   0  58  -2    3.58    0.22
   0 -58   4   -0.08    0.08
   0  58   4    0.00    0.08
   0  58  -4    0.14    0.09
   0 -58  -4    0.01    0.08
   0  58   6    1.04    0.15
   0  58  -6    1.02    0.14
   0 -58   6    0.83    0.15
   0 -58  -6    1.08    0.15
   0 -58  -8    0.02    0.09
   0 -58   8    0.09    0.11
   0  58   8   -0.05    0.09
   0  58  -8    0.02    0.09
   0 -58 -10    0.94    0.16
   0  58 -10    0.85    0.16
   0 -58  10    1.00    0.19
   2  58   0    5.59    0.29
   2 -58   0    5.99    0.30
  -2 -58   0    5.86    0.31
  -2  58   0    6.08    0.30
  -2 -58  -2    0.11    0.09
  -2  58   2    0.16    0.09
   2  58  -2    0.05    0.09
   2 -58   2    0.21    0.10
  -2 -58   2    0.09    0.09
   2  58   2    0.21    0.09
   2 -58  -2    0.38    0.10
  -2  58  -2    0.11    0.09
  -2  58   4    0.66    0.13
  -2 -58  -4    0.58    0.12
   2 -58   4    0.39    0.11
   2  58  -4    0.54    0.12
  -2 -58   4    0.42    0.12
  -2  58  -4    0.52    0.11
   2 -58  -4    0.58    0.12
   2  58   4    0.54    0.12
   2 -58   6    0.28    0.12
  -2  58   6    0.22    0.10
   2  58  -6    0.23    0.11
  -2 -58  -6    0.26    0.10
  -2  58  -6    0.35    0.11
   2 -58  -6    0.19    0.10
   2  58   6    0.35    0.11
  -2 -58   6    0.31    0.12
   2  58  -8    0.73    0.14
  -2  58   8    0.61    0.14
   2 -58   8    0.72    0.15
  -2 -58  -8    0.81    0.15
  -2 -58   8    0.42    0.14
   2 -58  -8    0.30    0.11
  -2  58  -8    0.60    0.13
   2  58   8    0.55    0.13
   2  58 -10    0.43    0.13
   2 -58  10    0.11    0.13
  -2  58  10    0.06    0.12
  -2 -58 -10    0.28    0.12
   2  58 -10    0.25    0.12
  -2  58 -10    0.17    0.12
  -2 -58  10    0.22    0.12
   4  58   0    1.77    0.18
  -4 -58   0    1.78    0.19
  -4  58   0    1.62    0.18
   4 -58   0    2.20    0.18
  -4 -58  -2    0.86    0.14
   4 -58   2    0.88    0.14
   4  58  -2    0.75    0.13
  -4  58   2    0.78    0.13
  -4  58  -2    0.84    0.13
  -4 -58   2    0.81    0.14
   4 -58  -2    0.85    0.13
   4  58   2    1.01    0.14
   4  58  -4    0.31    0.11
   4 -58   4    0.26    0.10
  -4 -58  -4    0.20    0.10
  -4  58   4    0.10    0.09
  -4 -58   4    0.17    0.10
   4 -58  -4    0.24    0.09
   4  58   4    0.27    0.10
  -4  58  -4    0.28    0.10
   4 -58   6    0.39    0.13
   4  58  -6    0.20    0.11
  -4 -58  -6    0.15    0.10
  -4  58   6    0.39    0.12
  -4 -58   6    0.17    0.11
   4 -58  -6    0.17    0.09
   4  58   6    0.26    0.10
  -4  58  -6    0.28    0.10
   4 -58   8    0.14    0.12
   4  58  -8    0.16    0.11
  -4  58   8    0.08    0.11
  -4 -58  -8    0.31    0.12
  -4 -58   8    0.10    0.12
  -4  58  -8    0.00    0.10
   4  58 -10    0.18    0.12
  -4  58  10    0.23    0.14
   4  58 -10    0.27    0.13
   4 -58  10    0.14    0.13
  -4 -58 -10    0.29    0.12
  -4 -58  10    0.26    0.13
  -4  58 -10    0.28    0.13
   6  58   0    1.83    0.19
  -6 -58   0    2.04    0.20
  -6  58   0    2.21    0.20
   6 -58   0    2.07    0.18
  -6  58   2    1.42    0.17
   6 -58   2    1.74    0.18
  -6 -58  -2    1.66    0.18
   6  58  -2    1.65    0.18
  -6 -58   2    1.92    0.20
  -6  58  -2    1.75    0.18
   6 -58  -2    1.84    0.17
   6  58   2    1.98    0.19
   6  58  -4    2.16    0.21
  -6 -58  -4    2.37    0.20
   6 -58   4    2.59    0.21
  -6  58   4    2.51    0.20
   6  58   4    2.44    0.20
  -6  58  -4    2.61    0.20
  -6 -58   4    2.48    0.24
  -6  58   6    0.27    0.12
  -6 -58  -6    0.30    0.11
   6 -58   6    0.09    0.10
   6  58  -6    0.21    0.12
  -6  58  -6    0.17    0.10
  -6 -58   6    0.11    0.11
   6  58   6   -0.02    0.08
   6  58  -8    0.82    0.16
  -6  58   8    0.91    0.16
   6 -58   8    0.74    0.15
  -6 -58  -8    0.86    0.15
  -6  58  -8    0.86    0.15
  -6 -58   8    0.95    0.18
  -6  58  10    0.13    0.13
   6 -58  10   -0.14    0.10
   6  58 -10   -0.04    0.11
   6  58 -10   -0.03    0.11
  -6  58 -10    0.07    0.11
  -8 -58   0    0.28    0.11
   8  58   0    0.38    0.11
  -8  58   0   -0.07    0.08
   8 -58   2    1.38    0.16
   8  58  -2    1.61    0.18
  -8  58   2    1.66    0.18
  -8 -58  -2    1.22    0.17
   8  58   2    1.69    0.18
  -8 -58   2    1.61    0.19
  -8  58  -2    1.63    0.17
  -8  58   4    1.04    0.16
   8 -58   4    1.16    0.16
  -8 -58  -4    1.23    0.16
   8  58  -4    1.53    0.18
  -8  58  -4    1.16    0.16
  -8 -58   4    1.29    0.18
   8  58   4    1.32    0.16
  -8  58   6    0.67    0.15
   8  58  -6    0.91    0.16
  -8 -58  -6    0.82    0.15
   8 -58   6    0.76    0.15
  -8 -58   6    0.81    0.16
  -8 -58  -8    0.17    0.11
  -8  58   8    0.11    0.13
   8 -58   8    0.28    0.12
   8  58  -8    0.31    0.13
  -8  58  -8   -0.03    0.10
  -8 -58   8    0.05    0.12
  10  58   0    1.41    0.17
 -10 -58   0    1.53    0.19
 -10  58   0    1.81    0.19
 -10 -58  -2    0.80    0.15
 -10  58   2    0.49    0.13
  10  58  -2    0.55    0.13
 -10  58  -2    0.66    0.13
  10  58   2    0.84    0.14
 -10 -58   2    0.49    0.13
 -10 -58  -4    0.37    0.13
  10  58  -4    0.60    0.14
 -10  58   4    0.84    0.16
 -10 -58   4    0.70    0.16
  10  58   4    0.73    0.13
  10  58  -6    0.58    0.14
 -10  58   6    0.45    0.14
 -10 -58  -6    0.60    0.14
 -10 -58   6    0.71    0.17
  10  58  -8    0.19    0.12
  10 -58   8    0.68    0.15
 -10  58   8    0.19    0.14
 -10 -58   8    0.28    0.14
 -12 -58   0    1.15    0.18
 -12  58   0    0.97    0.16
  12  58   0    0.98    0.16
 -12  58   2    0.23    0.13
  12  58  -2    0.39    0.13
 -12 -58  -2    0.53    0.13
  12  58   2    0.56    0.13
 -12  58  -2    0.71    0.14
 -12 -58   2    0.61    0.14
 -12 -58  -4    0.55    0.14
 -12  58   4    0.48    0.14
  12  58  -4    0.62    0.14
 -12 -58   4    0.75    0.17
 -12 -58  -6    0.15    0.11
 -12  58   6    0.13    0.13
  12  58  -6    0.30    0.14
 -12 -58   6    0.08    0.13
 -14  58   0   -0.05    0.10
  14  58   0    0.11    0.12
 -14 -58   0    0.14    0.12
 -14  58   2    1.11    0.18
  14  58  -2    0.81    0.16
 -14 -58  -2    0.57    0.15
 -14 -58   2    1.14    0.18
  14  58  -4    0.43    0.15
 -14  58   4    0.41    0.14
 -14 -58  -4    0.22    0.12
 -14 -58   4    0.40    0.15
 -16 -58   0    0.42    0.15
  16  58   0    0.58    0.14
 -16  58   2    0.17    0.13
 -16 -58  -2    0.25    0.13
  16  58  -2   -0.07    0.11
   1 -59   1    0.39    0.11
  -1  59   1    0.36    0.10
  -1 -59  -1    0.21    0.10
   1  59  -1    0.31    0.10
   1  59   1    0.42    0.11
  -1 -59   1    0.12    0.09
   1 -59  -1    0.19    0.09
  -1  59  -1    0.55    0.11
  -1  59   3    0.15    0.09
  -1 -59  -3    0.03    0.08
   1  59  -3    0.02    0.08
   1 -59   3    0.03    0.09
   1  59   3    0.00    0.08
  -1 -59   3    0.06    0.09
  -1  59  -3   -0.03    0.07
   1 -59  -3    0.06    0.08
   1  59  -5    0.27    0.11
  -1 -59  -5    0.04    0.08
   1 -59   5    0.09    0.10
  -1  59   5    0.29    0.11
  -1  59  -5    0.23    0.10
   1  59   5    0.11    0.10
   1 -59  -5    0.12    0.09
  -1 -59   5    0.10    0.09
   1  59  -7    0.56    0.12
  -1  59   7    0.51    0.12
   1 -59   7    0.52    0.14
  -1 -59  -7    0.54    0.12
  -1 -59   7    0.29    0.13
   1 -59  -7    0.62    0.12
   1  59   7    0.75    0.13
  -1  59  -7    0.36    0.11
   1  59  -9    0.38    0.12
   1 -59   9    0.40    0.14
  -1 -59  -9    0.38    0.12
  -1  59   9    0.47    0.14
   1 -59  -9    0.32    0.12
  -1  59  -9    0.09    0.10
  -1 -59   9    0.06    0.12
  -1 -59 -11    0.17    0.11
   1  59 -11    0.16    0.12
  -1  59 -11   -0.05    0.11
  -3 -59  -1    1.40    0.17
   3  59  -1    1.56    0.17
   3 -59   1    1.57    0.17
  -3  59   1    1.28    0.16
   3  59   1    1.52    0.17
   3 -59  -1    1.64    0.17
  -3 -59   1    1.50    0.18
  -3  59  -1    1.42    0.16
   3  59  -3    0.58    0.12
  -3  59   3    0.50    0.12
   3 -59   3    0.68    0.13
  -3 -59  -3    0.69    0.13
  -3 -59   3    0.56    0.13
   3 -59  -3    0.76    0.12
  -3  59  -3    0.75    0.13
   3  59   3    0.71    0.12
   3 -59   5    0.06    0.10
  -3  59   5    0.26    0.11
  -3 -59  -5    0.18    0.09
   3  59  -5   -0.02    0.09
   3 -59  -5    0.08    0.09
   3  59   5    0.14    0.10
  -3 -59   5    0.00    0.10
  -3  59  -5    0.15    0.09
   3 -59   7    0.06    0.10
  -3 -59  -7   -0.11    0.08
   3  59  -7    0.20    0.11
  -3  59   7    0.32    0.12
  -3  59  -7    0.26    0.10
   3  59   7    0.09    0.09
   3 -59  -7    0.19    0.09
  -3 -59   7    0.17    0.12
  -3  59   9    0.22    0.13
   3 -59   9    0.04    0.12
  -3 -59  -9    0.06    0.11
   3  59  -9    0.33    0.12
  -3  59  -9    0.10    0.11
  -3 -59   9    0.05    0.12
   5 -59   1    1.48    0.17
   5  59  -1    1.31    0.16
  -5  59   1    1.35    0.16
  -5 -59  -1    1.53    0.17
   5  59   1    1.18    0.15
  -5 -59   1    1.05    0.15
   5 -59  -1    1.47    0.16
  -5  59  -1    1.50    0.17
  -5 -59  -3   -0.02    0.08
  -5  59   3   -0.03    0.09
   5 -59   3    0.06    0.08
   5  59  -3    0.07    0.10
  -5  59  -3    0.09    0.08
  -5 -59   3   -0.06    0.09
   5  59   3    0.06    0.08
   5 -59  -3   -0.03    0.07
   5  59  -5    0.00    0.10
  -5  59   5    0.11    0.10
   5 -59   5    0.04    0.10
  -5 -59  -5    0.02    0.09
   5  59   5    0.18    0.10
  -5  59  -5    0.22    0.10
  -5 -59   5    0.06    0.11
  -5 -59  -7    0.30    0.11
   5 -59   7    0.37    0.13
   5  59  -7    0.23    0.12
  -5  59   7    0.38    0.14
  -5 -59   7    0.38    0.14
   5  59  -9    0.05    0.11
  -5 -59  -9    0.17    0.11
  -5  59   9   -0.12    0.11
   5 -59   9    0.25    0.12
  -5 -59   9    0.13    0.11
  -5  59  -9    0.28    0.12
   7 -59   1    0.91    0.14
  -7 -59  -1    1.09    0.16
   7  59  -1    1.15    0.16
  -7  59   1    1.08    0.16
  -7 -59   1    0.93    0.16
   7  59   1    0.68    0.13
  -7  59  -1    1.07    0.15
  -7 -59  -3    0.74    0.14
   7 -59   3    0.99    0.15
   7  59  -3    1.07    0.15
  -7  59   3    0.88    0.15
  -7 -59   3    1.11    0.17
   7  59   3    0.90    0.14
  -7  59  -3    1.03    0.15
   7  59  -5    0.84    0.15
   7 -59   5    0.79    0.14
  -7  59   5    0.55    0.13
  -7 -59  -5    0.65    0.13
   7  59   5    0.97    0.14
  -7  59  -5    0.81    0.14
  -7 -59   5    0.80    0.15
  -7 -59  -7    0.27    0.11
   7 -59   7    0.14    0.11
   7  59  -7    0.33    0.13
  -7  59   7    0.26    0.12
  -7 -59   7    0.22    0.13
  -7 -59  -9    0.14    0.11
   7  59  -9    0.27    0.13
   7 -59   9    0.06    0.12
  -7  59   9    0.24    0.14
  -7  59  -9   -0.01    0.10
  -7 -59   9   -0.08    0.11
  -9 -59  -1    1.11    0.16
  -9  59   1    1.44    0.18
   9  59  -1    1.47    0.17
   9  59   1    1.41    0.17
  -9  59  -1    1.23    0.17
  -9 -59   1    1.20    0.18
  -9  59   3    1.33    0.18
  -9 -59  -3    1.22    0.17
   9  59  -3    0.85    0.15
  -9  59  -3    1.23    0.16
  -9 -59   3    1.40    0.19
   9  59   3    1.22    0.16
   9  59  -5    0.05    0.11
  -9  59   5    0.18    0.12
   9 -59   5    0.32    0.12
  -9 -59  -5    0.14    0.11
   9  59  -7    0.70    0.15
  -9 -59  -7    0.90    0.15
   9 -59   7    0.79    0.16
  -9  59   7    0.92    0.17
  -9 -59   7    1.03    0.18
   9 -59   9   -0.05    0.11
  11  59  -1    0.78    0.15
 -11  59   1    0.70    0.14
 -11 -59  -1    0.56    0.14
  11  59   1    0.79    0.14
 -11  59  -1    0.52    0.13
 -11 -59   1    0.52    0.14
 -11  59   3   -0.08    0.09
  11  59  -3    0.07    0.11
 -11 -59  -3    0.09    0.11
 -11  59  -3   -0.01    0.09
  11  59   3    0.11    0.10
 -11 -59   3    0.04    0.11
 -11 -59  -5    1.83    0.21
  11  59  -5    1.67    0.21
 -11  59   5    2.01    0.23
 -11 -59   5    2.04    0.24
  11  59  -7    0.06    0.11
 -11 -59  -7    0.18    0.12
 -11  59   7    0.30    0.15
 -11 -59   7    0.41    0.15
  13  59  -1    0.98    0.16
 -13  59   1    1.20    0.18
 -13 -59  -1    1.15    0.18
  13  59   1    0.71    0.15
 -13 -59   1    0.85    0.16
 -13  59  -1    0.80    0.15
 -13  59   3    0.01    0.11
  13  59  -3   -0.03    0.10
 -13 -59  -3    0.11    0.11
 -13 -59   3    0.04    0.12
 -13  59   5    0.16    0.13
  13  59  -5    0.25    0.13
 -13 -59  -5    0.12    0.11
 -13 -59   5    0.33    0.14
 -15 -59  -1    0.13    0.12
 -15  59   1    0.23    0.13
  15  59  -1    0.06    0.11
 -15 -59   1    0.09    0.12
  15  59  -3    0.50    0.14
 -15  59   3    0.36    0.15
 -15 -59  -3    0.23    0.13
 -15 -59   3    0.35    0.14
   0  60   0   -0.09    0.08
   0 -60   0    0.02    0.09
   0 -60  -2    0.10    0.09
   0  60   2    0.03    0.09
   0  60  -2    0.09    0.09
   0 -60   2    0.02    0.09
   0  60   4    0.53    0.12
   0 -60  -4    0.72    0.12
   0  60  -4    0.65    0.12
   0 -60   4    0.81    0.14
   0 -60   6    0.07    0.10
   0  60  -6    0.15    0.10
   0  60   6    0.02    0.08
   0 -60  -6    0.13    0.09
   0  60  -8    0.16    0.11
   0  60   8    0.31    0.12
   0 -60  -8    0.20    0.11
   0 -60   8   -0.04    0.11
   0 -60 -10    0.06    0.10
  -2 -60   0    1.06    0.16
   2 -60   0    1.14    0.15
   2  60   0    0.92    0.14
  -2  60   0    0.88    0.13
   2 -60   2    0.69    0.13
  -2 -60  -2    0.88    0.14
   2  60  -2    0.79    0.13
  -2  60   2    0.56    0.12
   2 -60  -2    0.63    0.12
   2  60   2    0.75    0.13
  -2  60  -2    0.90    0.13
  -2 -60   2    0.74    0.14
  -2  60   4    0.00    0.08
   2  60  -4    0.03    0.09
  -2 -60  -4    0.00    0.09
   2 -60   4    0.01    0.09
   2 -60  -4   -0.01    0.08
   2  60   4   -0.09    0.08
  -2 -60   4    0.00    0.10
  -2  60  -4    0.10    0.09
  -2 -60  -6    0.93    0.15
  -2  60   6    0.94    0.15
   2  60  -6    0.63    0.13
   2 -60   6    0.75    0.15
   2  60   6    1.07    0.15
   2 -60  -6    0.99    0.15
  -2 -60   6    1.19    0.17
  -2  60  -6    1.09    0.14
  -2 -60  -8    1.29    0.17
  -2  60   8    1.00    0.16
   2 -60   8    0.98    0.17
   2  60  -8    1.02    0.16
  -2 -60   8    0.86    0.17
  -2  60  -8    1.07    0.15
   2 -60  -8    1.12    0.16
   2  60   8    1.05    0.16
   2  60 -10    0.56    0.14
  -2  60  10    0.43    0.15
  -2 -60 -10    0.33    0.12
   2 -60  10    0.35    0.14
  -2  60 -10    0.58    0.14
  -4  60   0    1.73    0.18
  -4 -60   0    2.23    0.21
   4  60   0    1.96    0.19
   4 -60   0    2.02    0.19
  -4  60   2    0.31    0.11
   4 -60   2    0.30    0.11
   4  60  -2    0.29    0.11
  -4 -60  -2    0.49    0.12
   4 -60  -2    0.49    0.12
  -4 -60   2    0.39    0.12
  -4  60  -2    0.51    0.12
   4  60   2    0.38    0.11
  -4 -60  -4    0.38    0.11
   4  60  -4    0.50    0.12
  -4  60   4    0.55    0.13
   4 -60   4    0.49    0.12
   4 -60  -4    0.55    0.11
   4  60   4    0.47    0.12
  -4  60  -4    0.60    0.12
  -4 -60   4    0.51    0.13
   4  60  -6    0.21    0.11
  -4 -60  -6    0.35    0.11
  -4  60   6    0.31    0.11
   4  60   6    0.45    0.12
  -4 -60   6    0.46    0.14
  -4  60  -6    0.44    0.11
   4 -60   8    1.42    0.20
   4  60  -8    1.54    0.19
  -4 -60  -8    1.33    0.18
  -4  60   8    1.59    0.20
  -4 -60   8    1.09    0.19
  -4 -60 -10    0.42    0.13
   4  60 -10    0.47    0.14
  -4  60  10    0.11    0.12
  -4  60 -10    0.55    0.14
  -6  60   0    0.10    0.09
   6 -60   0    0.04    0.08
  -6 -60   0    0.02    0.09
   6  60   0   -0.01    0.08
   6  60  -2    0.34    0.11
  -6 -60  -2    0.77    0.14
   6 -60   2    0.88    0.14
  -6  60   2    0.65    0.13
   6  60   2    0.82    0.14
  -6 -60   2    0.63    0.13
   6 -60  -2    0.73    0.13
  -6  60  -2    0.58    0.12
   6 -60   4   -0.04    0.09
  -6 -60  -4    0.03    0.09
   6  60  -4    0.15    0.11
  -6  60   4    0.22    0.10
   6  60   4    0.23    0.10
  -6 -60   4    0.30    0.12
  -6  60  -4    0.12    0.10
   6 -60   6    0.24    0.12
  -6  60   6    0.45    0.13
   6  60  -6    0.37    0.13
  -6 -60  -6    0.52    0.13
  -6 -60   6    0.30    0.13
   6  60   6    0.55    0.12
  -6  60  -6    0.51    0.12
  -6  60   8    0.17    0.13
  -6 -60  -8    0.11    0.10
   6  60  -8    0.25    0.12
   6 -60   8    0.00    0.11
  -6 -60   8    0.27    0.14
  -6  60 -10    0.08    0.11
   8  60   0    0.38    0.11
  -8  60   0    0.56    0.12
  -8 -60   0    0.45    0.12
   8  60  -2   -0.04    0.09
  -8  60   2    0.01    0.10
  -8 -60  -2    0.05    0.09
  -8  60  -2   -0.01    0.09
   8  60   2   -0.01    0.09
  -8 -60   2   -0.05    0.10
  -8 -60  -4    0.21    0.11
   8  60  -4    0.35    0.12
  -8  60   4    0.22    0.11
   8 -60   4    0.22    0.11
   8  60   4    0.17    0.10
  -8  60  -4    0.30    0.11
  -8 -60   4    0.20    0.12
  -8 -60  -6    1.90    0.20
   8 -60   6    1.81    0.20
  -8  60   6    1.71    0.21
   8  60  -6    1.59    0.20
  -8 -60   6    1.60    0.21
  -8  60   8    0.09    0.12
   8  60  -8    0.07    0.12
   8 -60   8    0.07    0.11
  -8 -60  -8    0.07    0.10
  -8 -60   8   -0.10    0.11
  10  60   0    0.23    0.11
 -10  60   0   -0.02    0.10
 -10 -60   0    0.10    0.10
 -10 -60  -2    0.29    0.12
  10  60  -2    0.36    0.13
 -10  60   2    0.41    0.13
 -10 -60   2    0.32    0.13
 -10  60  -2    0.18    0.11
  10  60   2    0.41    0.12
 -10 -60  -4    0.52    0.14
  10  60  -4    0.69    0.15
 -10  60   4    0.67    0.14
  10  60   4    0.78    0.14
 -10 -60   4    0.68    0.16
 -10 -60  -6    0.00    0.10
 -10  60   6    0.09    0.13
  10  60  -6    0.02    0.11
 -10 -60   6    0.01    0.12
  10 -60   8    0.50    0.15
 -10 -60   8    0.64    0.17
 -12 -60   0    0.09    0.11
  12  60   0    0.35    0.12
 -12  60   0    0.33    0.12
  12  60  -2   -0.07    0.10
 -12  60   2    0.12    0.11
 -12 -60  -2    0.13    0.11
 -12 -60   2   -0.04    0.11
 -12  60  -2   -0.07    0.09
  12  60   2   -0.10    0.09
 -12 -60  -4    0.11    0.11
  12  60  -4    0.36    0.13
 -12  60   4    0.25    0.13
 -12 -60   4    0.04    0.12
 -12 -60   6   -0.11    0.11
 -14  60   0    0.21    0.13
 -14 -60   0    0.15    0.13
  14  60   0    0.30    0.13
 -14 -60  -2    0.44    0.14
  14  60  -2    0.62    0.15
 -14  60   2    0.66    0.16
 -14 -60   2    0.62    0.16
 -14 -60   4    0.68    0.16
 -16 -60   0    0.13    0.12
  16  60   0    0.10    0.12
   1 -61   1    1.44    0.18
  -1  61   1    1.58    0.17
   1  61  -1    1.42    0.16
  -1 -61  -1    1.49    0.17
  -1  61  -1    1.35    0.16
   1 -61  -1    1.40    0.17
  -1 -61   1    1.51    0.18
   1  61   1    1.36    0.16
  -1  61   3    0.23    0.10
   1 -61   3    0.19    0.10
   1  61  -3    0.10    0.10
  -1 -61  -3    0.29    0.10
  -1 -61   3    0.26    0.11
   1  61   3    0.17    0.10
  -1  61  -3    0.25    0.10
   1 -61  -3    0.16    0.09
   1 -61   5    0.18    0.10
   1  61  -5    0.44    0.12
  -1  61   5    0.26    0.10
  -1 -61  -5    0.41    0.12
  -1 -61   5    0.33    0.12
   1  61   5    0.30    0.11
   1 -61  -5    0.17    0.10
  -1  61  -5    0.52    0.11
  -1  61   7    0.12    0.11
  -1 -61  -7    0.43    0.12
   1  61  -7    0.18    0.11
   1 -61   7    0.31    0.13
  -1 -61   7    0.29    0.14
   1  61   7    0.21    0.11
  -1  61  -7    0.14    0.10
   1 -61  -7    0.07    0.10
   1  61  -9    0.42    0.13
  -1  61   9    0.53    0.15
   1 -61   9    0.17    0.14
  -1 -61  -9    0.50    0.13
  -1 -61   9    0.62    0.15
   3  61  -1    1.36    0.16
  -3 -61  -1    1.43    0.17
  -3  61   1    1.28    0.16
   3 -61   1    1.42    0.17
  -3  61  -1    1.25    0.15
   3 -61  -1    1.59    0.17
   3  61   1    1.67    0.17
  -3 -61   1    1.77    0.19
  -3 -61  -3    0.81    0.14
   3 -61   3    0.83    0.15
   3  61  -3    0.57    0.13
  -3  61   3    0.84    0.14
   3 -61  -3    0.82    0.13
   3  61   3    0.89    0.14
  -3 -61   3    0.72    0.14
  -3  61  -3    0.75    0.13
   3 -61   5    1.16    0.17
  -3 -61  -5    1.11    0.16
  -3  61   5    1.11    0.16
   3  61  -5    1.11    0.15
   3  61   5    1.06    0.16
  -3  61  -5    1.10    0.15
   3 -61  -5    1.42    0.16
  -3 -61   5    1.00    0.16
   3 -61   7    0.20    0.12
  -3 -61  -7    0.08    0.10
   3  61  -7    0.20    0.11
  -3  61   7    0.25    0.12
  -3  61  -7    0.32    0.11
  -3 -61   7    0.25    0.13
   3  61   7    0.28    0.11
  -3 -61  -9    0.10    0.10
  -3  61   9    0.02    0.11
   3 -61   9   -0.06    0.12
   3  61  -9   -0.07    0.10
  -3 -61   9    0.10    0.12
   5  61  -1    1.92    0.19
  -5 -61  -1    2.07    0.20
   5 -61   1    2.17    0.20
  -5  61   1    2.25    0.21
  -5  61  -1    1.98    0.19
   5 -61  -1    2.11    0.19
   5  61   1    1.87    0.19
  -5 -61   1    1.71    0.19
   5 -61   3    1.93    0.20
  -5  61   3    1.75    0.19
  -5 -61  -3    1.66    0.18
   5  61  -3    2.04    0.20
   5 -61  -3    2.08    0.19
  -5  61  -3    1.72    0.18
  -5 -61   3    1.83    0.21
   5  61   3    2.12    0.20
   5  61  -5    0.86    0.15
  -5 -61  -5    0.86    0.14
  -5  61   5    0.78    0.15
   5 -61   5    0.64    0.14
   5  61   5    0.66    0.13
  -5  61  -5    0.57    0.13
  -5 -61   5    0.71    0.15
   5 -61   7    0.27    0.11
  -5 -61  -7    0.41    0.12
  -5  61   7    0.28    0.13
   5  61  -7    0.13    0.11
  -5 -61   7    0.02    0.11
  -5 -61  -9    0.18    0.12
   5  61  -9    0.43    0.14
  -5  61   9    0.30    0.13
   5 -61   9    0.26    0.14
  -5 -61   9    0.38    0.15
   7 -61   1    1.10    0.15
  -7 -61  -1    1.08    0.16
  -7  61   1    1.20    0.16
   7  61  -1    1.47    0.18
  -7  61  -1    1.13    0.15
  -7 -61   1    1.37    0.18
   7  61   1    1.17    0.16
   7 -61   3    1.71    0.19
  -7  61   3    2.01    0.21
   7  61  -3    1.94    0.20
  -7 -61  -3    1.82    0.20
  -7  61  -3    2.22    0.20
  -7 -61   3    2.11    0.22
   7  61   3    2.24    0.21
   7  61  -5    0.45    0.14
  -7 -61  -5    0.21    0.11
   7 -61   5    0.20    0.10
  -7  61   5    0.38    0.12
  -7  61  -5    0.37    0.11
  -7 -61   5    0.37    0.13
   7  61   5    0.42    0.12
  -7 -61  -7    0.92    0.16
  -7  61   7    1.03    0.18
   7 -61   7    1.14    0.18
   7  61  -7    1.22    0.18
  -7 -61   7    0.94    0.17
  -7  61   9    0.04    0.12
   7 -61   9   -0.06    0.12
   7  61  -9    0.31    0.13
  -9  61   1    0.53    0.13
   9  61  -1    0.32    0.12
  -9 -61  -1    0.40    0.12
   9  61   1    0.40    0.11
  -9  61  -1    0.53    0.13
  -9 -61   1    0.04    0.11
  -9 -61  -3    0.10    0.11
   9  61  -3    0.15    0.11
  -9  61   3   -0.04    0.09
  -9  61  -3   -0.06    0.09
   9  61   3    0.08    0.09
  -9 -61   3    0.04    0.10
  -9 -61  -5    0.74    0.15
   9  61  -5    0.77    0.16
  -9  61   5    0.86    0.17
   9 -61   5    0.96    0.16
  -9 -61   5    0.69    0.16
   9  61  -7    0.04    0.11
   9 -61   7    0.00    0.11
  -9 -61  -7    0.08    0.10
  -9  61   7    0.06    0.12
  -9 -61   7   -0.01    0.11
  11  61  -1    0.36    0.13
 -11  61   1    0.47    0.13
 -11 -61  -1    0.52    0.14
 -11  61  -1    0.41    0.13
  11  61   1    0.58    0.14
 -11 -61   1    0.63    0.15
 -11 -61  -3    0.71    0.15
  11  61  -3    0.59    0.15
 -11  61   3    0.44    0.15
 -11 -61   3    0.50    0.14
 -11  61  -3    0.88    0.15
  11  61   3    0.67    0.14
  11  61  -5    0.49    0.14
 -11  61   5    0.56    0.15
 -11 -61  -5    0.32    0.13
 -11 -61   5    0.73    0.17
 -11 -61   7    1.09    0.19
  13  61  -1    1.26    0.18
 -13 -61  -1    0.68    0.16
 -13  61   1    0.84    0.16
 -13 -61   1    1.16    0.19
 -13  61  -1    1.24    0.18
  13  61   1    1.15    0.17
 -13  61   3    0.18    0.13
  13  61  -3    0.34    0.13
 -13 -61  -3    0.20    0.12
 -13 -61   3    0.25    0.13
 -13 -61   5    0.03    0.12
  15  61  -1    0.24    0.13
 -15 -61  -1    0.41    0.15
 -15  61   1    0.35    0.14
 -15 -61   1    0.45    0.14
 -15 -61   3    0.48    0.15
   0 -62   0   -0.08    0.08
   0  62   0   -0.02    0.08
   0 -62  -2    0.01    0.08
   0  62  -2   -0.06    0.07
   0 -62   2   -0.07    0.08
   0  62   2    0.05    0.09
   0  62  -4    0.02    0.09
   0  62   4    0.00    0.09
   0 -62  -4   -0.14    0.07
   0 -62   4   -0.02    0.10
   0  62  -6    0.25    0.11
   0  62   6    0.20    0.11
   0 -62  -6    0.06    0.10
   0 -62   6    0.11    0.11
   0 -62   8    0.03    0.11
   0 -62  -8    0.12    0.11
   0  62   8    0.01    0.11
   0  62  -8    0.07    0.11
   0 -62 -10    0.40    0.13
   2 -62   0    2.10    0.20
  -2 -62   0    2.27    0.21
  -2  62   0    2.43    0.19
   2  62   0    2.24    0.19
   2  62  -2    0.14    0.10
  -2 -62  -2    0.07    0.09
   2 -62   2    0.11    0.10
  -2  62   2    0.17    0.10
  -2 -62   2    0.07    0.10
   2 -62  -2    0.12    0.09
   2  62   2    0.25    0.10
  -2  62  -2    0.10    0.09
   2  62  -4    0.46    0.12
  -2  62   4    0.56    0.13
   2 -62   4    0.61    0.14
  -2 -62  -4    0.59    0.13
  -2  62  -4    0.75    0.13
   2 -62  -4    0.47    0.11
  -2 -62   4    0.33    0.13
   2  62   4    0.54    0.13
   2 -62   6    0.10    0.11
  -2  62   6    0.02    0.09
   2  62  -6    0.11    0.10
  -2 -62  -6    0.01    0.09
  -2 -62   6   -0.17    0.09
   2 -62  -6    0.06    0.09
  -2  62  -6    0.11    0.10
   2  62   6   -0.01    0.09
   2 -62   8   -0.06    0.11
   2  62  -8    0.25    0.11
  -2  62   8    0.20    0.12
  -2 -62  -8    0.13    0.10
  -2 -62   8    0.16    0.12
   2 -62  -8    0.23    0.11
   2  62   8    0.16    0.11
  -2  62  -8    0.18    0.10
  -2  62  10    0.04    0.12
  -2 -62 -10   -0.07    0.10
  -4 -62   0    0.32    0.12
   4 -62   0    0.31    0.11
   4  62   0    0.42    0.12
  -4  62   0    0.28    0.10
  -4  62   2    1.62    0.18
  -4 -62  -2    1.96    0.20
   4 -62   2    1.59    0.18
   4  62  -2    1.63    0.18
   4 -62  -2    1.52    0.17
   4  62   2    1.59    0.18
  -4 -62   2    1.76    0.20
  -4  62  -2    1.52    0.17
  -4  62   4    0.57    0.14
   4  62  -4    0.63    0.13
   4 -62   4    0.59    0.14
  -4 -62  -4    0.96    0.15
  -4 -62   4    0.68    0.15
   4  62   4    0.82    0.14
   4 -62  -4    0.68    0.13
  -4  62  -4    0.69    0.13
  -4 -62  -6    0.17    0.11
  -4  62   6    0.03    0.10
   4 -62   6    0.18    0.12
   4  62  -6    0.15    0.11
  -4 -62   6    0.14    0.12
  -4  62  -6    0.09    0.10
   4  62   6    0.09    0.10
  -4 -62  -8    0.21    0.11
   4  62  -8    0.18    0.12
  -4  62   8    0.05    0.12
   4 -62   8    0.11    0.12
  -4 -62   8    0.08    0.12
  -4  62  10   -0.09    0.12
   4  62 -10   -0.03    0.10
   6 -62   0    0.51    0.12
  -6  62   0    0.38    0.12
   6  62   0    0.53    0.13
  -6 -62   0    0.62    0.14
  -6 -62  -2    1.13    0.16
   6 -62   2    1.27    0.16
  -6  62   2    0.90    0.15
   6  62  -2    1.13    0.16
  -6 -62   2    1.21    0.18
   6  62   2    0.81    0.14
  -6  62  -2    0.85    0.14
  -6  62   4    0.05    0.09
   6  62  -4   -0.01    0.10
   6 -62   4    0.15    0.11
  -6 -62  -4    0.02    0.09
  -6  62  -4    0.34    0.12
  -6 -62   4    0.12    0.11
   6  62   4    0.09    0.10
  -6 -62  -6    0.97    0.16
   6 -62   6    1.18    0.17
   6  62  -6    0.97    0.16
  -6  62   6    1.13    0.18
  -6  62  -6    1.01    0.15
  -6 -62   6    1.12    0.18
   6  62   6    0.92    0.15
  -6 -62  -8    0.23    0.11
   6  62  -8    0.29    0.13
  -6  62   8    0.28    0.13
   6 -62   8    0.19    0.13
  -6 -62   8    0.20    0.14
  -8 -62   0    1.11    0.16
  -8  62   0    1.25    0.17
   8  62   0    0.88    0.15
   8  62  -2    0.37    0.12
  -8 -62  -2    0.51    0.13
  -8  62   2    0.52    0.14
  -8 -62   2    0.54    0.13
   8  62   2    0.56    0.12
  -8  62  -2    0.51    0.13
   8 -62   4    0.39    0.12
  -8 -62  -4    0.21    0.11
  -8  62   4    0.28    0.12
   8  62  -4    0.14    0.12
  -8  62  -4    0.24    0.11
  -8 -62   4    0.16    0.12
   8  62   4    0.23    0.10
   8 -62   6    0.29    0.13
  -8  62   6    0.24    0.13
   8  62  -6    0.29    0.13
  -8 -62  -6    0.30    0.12
  -8 -62   6    0.36    0.15
   8 -62   8    0.47    0.15
   8  62  -8    0.47    0.14
  -8  62   8    0.76    0.17
  -8 -62   8    0.53    0.16
 -10 -62   0    1.24    0.18
 -10  62   0    1.33    0.18
  10  62   0    1.74    0.20
 -10  62   2    0.12    0.12
 -10 -62  -2   -0.01    0.10
  10  62  -2   -0.02    0.10
 -10 -62   2    0.05    0.11
 -10  62  -2    0.07    0.10
  10  62   2   -0.04    0.08
  10  62  -4    0.68    0.15
 -10 -62  -4    0.70    0.15
 -10  62   4    0.77    0.16
 -10 -62   4    1.11    0.19
 -10 -62  -6   -0.14    0.09
 -10  62   6    0.03    0.11
  10  62  -6    0.02    0.12
 -10 -62   6    0.04    0.12
 -12 -62   0    0.10    0.11
 -12  62   0    0.11    0.10
  12  62   0    0.03    0.11
  12  62  -2    0.22    0.12
 -12  62   2    0.37    0.14
 -12 -62  -2    0.20    0.12
  12  62   2    0.18    0.11
 -12  62  -2    0.21    0.12
 -12 -62   2    0.17    0.12
  12  62  -4    0.33    0.14
 -12 -62  -4    0.52    0.15
 -12  62   4    0.73    0.16
 -12 -62   4    0.45    0.15
 -12 -62   6    0.00    0.12
 -14 -62   0    0.10    0.13
 -14  62   0    0.15    0.12
  14  62   0    0.00    0.10
 -14 -62  -2    0.90    0.17
  14  62  -2    0.98    0.17
 -14  62   2    0.79    0.17
 -14 -62   2    0.64    0.16
 -14 -62   4    0.22    0.13
  -1  63   1    0.19    0.10
   1 -63   1    0.24    0.10
   1  63  -1    0.47    0.12
  -1 -63  -1    0.42    0.12
  -1 -63   1    0.15    0.10
   1 -63  -1    0.37    0.11
   1  63   1    0.40    0.11
  -1  63  -1    0.42    0.12
  -1  63   3    0.00    0.09
  -1 -63  -3   -0.04    0.08
   1 -63   3    0.03    0.09
   1  63  -3    0.07    0.09
   1 -63  -3    0.06    0.09
   1  63   3   -0.13    0.08
  -1  63  -3    0.08    0.09
  -1 -63   3   -0.01    0.09
   1 -63   5    0.43    0.13
  -1 -63  -5    0.54    0.13
   1  63  -5    0.40    0.11
  -1  63   5    0.57    0.14
   1  63   5    0.41    0.12
  -1  63  -5    0.50    0.12
  -1 -63   5    0.49    0.13
   1 -63  -5    0.63    0.14
   1  63  -7    0.08    0.10
  -1  63   7    0.08    0.11
   1 -63   7    0.10    0.12
  -1 -63  -7    0.18    0.11
  -1  63  -7   -0.16    0.09
   1  63   7    0.09    0.11
  -1 -63   7    0.20    0.13
   1 -63  -7    0.11    0.10
  -1 -63  -9    0.03    0.11
   1  63  -9    0.11    0.11
  -1  63   9    0.20    0.11
   1 -63   9   -0.02    0.13
   1 -63  -9    0.15    0.12
  -1 -63   9    0.09    0.12
  -3  63   1    0.30    0.11
  -3 -63  -1    0.54    0.12
   3  63  -1    0.21    0.10
   3 -63   1    0.20    0.11
  -3 -63   1    0.40    0.13
  -3  63  -1    0.30    0.11
   3  63   1    0.24    0.10
   3 -63  -1    0.09    0.10
  -3 -63  -3    0.85    0.14
   3  63  -3    0.69    0.13
  -3  63   3    0.87    0.15
   3 -63   3    0.61    0.13
  -3 -63   3    0.77    0.15
  -3  63  -3    0.77    0.13
   3  63   3    0.69    0.14
   3 -63  -3    0.78    0.14
   3 -63   5    0.83    0.16
  -3  63   5    0.78    0.14
  -3 -63  -5    0.65    0.14
   3  63  -5    0.91    0.14
   3  63   5    0.74    0.14
   3 -63  -5    0.90    0.14
  -3 -63   5    0.75    0.16
  -3  63  -5    0.90    0.14
   3 -63   7    0.76    0.16
  -3  63   7    0.92    0.16
   3  63  -7    0.71    0.15
  -3 -63  -7    0.69    0.14
   3  63   7    0.92    0.15
  -3  63  -7    0.75    0.14
  -3 -63   7    0.70    0.15
   3  63  -9    0.05    0.11
  -3 -63  -9    0.16    0.11
   3 -63   9    0.12    0.12
  -3  63   9    0.21    0.13
  -3 -63   9    0.15    0.13
  -5 -63  -1    0.04    0.09
   5  63  -1    0.17    0.10
  -5  63   1    0.18    0.11
   5 -63   1    0.16    0.10
  -5  63  -1    0.14    0.10
   5  63   1    0.19    0.10
  -5 -63   1    0.08    0.11
   5 -63  -1    0.16    0.10
  -5 -63  -3    0.57    0.13
   5 -63   3    0.64    0.13
  -5  63   3    0.86    0.15
   5  63  -3    0.78    0.14
   5 -63  -3    0.67    0.13
  -5  63  -3    0.75    0.14
  -5 -63   3    0.78    0.16
   5  63   3    1.16    0.16
  -5  63   5    0.05    0.10
  -5 -63  -5    0.07    0.10
   5  63  -5   -0.12    0.09
   5 -63   5   -0.11    0.09
  -5 -63   5    0.17    0.12
  -5  63  -5    0.10    0.09
   5  63   5   -0.03    0.08
   5 -63   7    0.55    0.14
  -5 -63  -7    0.50    0.13
  -5  63   7    0.59    0.15
   5  63  -7    0.36    0.13
  -5 -63   7    0.41    0.14
   5  63  -9   -0.04    0.10
  -5  63   9    0.01    0.13
   7 -63   1    0.02    0.08
   7  63  -1   -0.01    0.09
  -7 -63  -1    0.17    0.11
  -7  63   1    0.09    0.11
  -7  63  -1   -0.07    0.09
  -7 -63   1    0.16    0.11
   7  63   1    0.16    0.10
   7 -63   3    0.06    0.10
   7  63  -3    0.45    0.13
  -7  63   3    0.02    0.10
  -7 -63  -3    0.17    0.11
  -7  63  -3    0.08    0.10
   7  63   3    0.34    0.11
  -7 -63   3    0.09    0.10
   7  63  -5    0.48    0.13
   7 -63   5    0.22    0.12
  -7 -63  -5    0.30    0.12
  -7  63   5    0.29    0.12
   7  63   5    0.31    0.11
  -7  63  -5    0.29    0.12
  -7 -63   5    0.66    0.16
   7 -63   7    0.57    0.14
  -7  63   7    0.38    0.14
   7  63  -7    0.42    0.14
  -7 -63  -7    0.42    0.13
  -7 -63   7    0.23    0.13
   9  63  -1    0.03    0.10
  -9  63   1   -0.10    0.09
  -9 -63  -1    0.16    0.11
   9  63   1    0.06    0.10
  -9  63  -1    0.06    0.09
  -9 -63   1   -0.04    0.10
  -9 -63  -3    0.21    0.12
  -9  63   3    0.45    0.13
   9  63  -3    0.34    0.13
  -9  63  -3    0.26    0.11
   9  63   3    0.32    0.11
  -9 -63   3    0.31    0.12
  -9 -63  -5    0.04    0.10
  -9  63   5    0.21    0.12
   9  63  -5    0.21    0.12
  -9 -63   5    0.37    0.14
   9  63  -7    0.06    0.12
   9 -63   7    0.31    0.13
  -9  63   7    0.21    0.14
  -9 -63   7    0.44    0.15
  11  63  -1    0.10    0.11
 -11  63   1    0.01    0.10
 -11 -63  -1    0.10    0.10
 -11 -63   1   -0.06    0.10
 -11  63  -1   -0.08    0.10
  11  63   1   -0.09    0.09
  11  63  -3    0.07    0.11
 -11  63   3   -0.09    0.10
 -11 -63  -3   -0.03    0.11
  11  63   3    0.14    0.10
 -11  63  -3    0.10    0.11
 -11 -63   3    0.13    0.12
 -11 -63  -5    0.10    0.11
  11  63  -5    0.14    0.12
 -11  63   5   -0.06    0.12
 -11 -63   5   -0.02    0.11
 -13  63   1    0.21    0.12
  13  63  -1    0.20    0.12
 -13 -63  -1    0.28    0.13
 -13  63  -1    0.15    0.12
 -13 -63   1    0.20    0.12
  13  63   1    0.23    0.11
  13  63  -3    0.28    0.13
 -13  63   3    0.40    0.14
 -13 -63  -3    0.10    0.12
 -13 -63   3    0.31    0.14
   0  64   0    0.19    0.10
   0 -64   0    0.12    0.09
   0 -64  -2   -0.04    0.08
   0  64   2    0.07    0.09
   0 -64   2   -0.02    0.08
   0  64  -2   -0.11    0.08
   0  64   4    0.86    0.15
   0  64  -4    0.91    0.14
   0 -64  -4    0.94    0.15
   0 -64   4    0.91    0.16
   0 -64  -6    0.07    0.10
   0 -64   6    0.10    0.11
   0  64   6    0.18    0.10
   0  64  -6    0.11    0.10
   0 -64   8    2.98    0.28
   0 -64  -8    2.61    0.24
   0  64   8    2.84    0.24
   0  64  -8    3.12    0.24
   0 -64 -10    0.02    0.11
   2 -64   0    0.05    0.10
   2  64   0    0.07    0.09
  -2  64   0    0.11    0.10
  -2 -64   0    0.20    0.10
   2 -64   2    2.30    0.22
   2  64  -2    2.60    0.20
  -2 -64  -2    2.50    0.21
  -2  64   2    1.84    0.19
   2 -64  -2    2.54    0.21
   2  64   2    2.50    0.21
  -2  64  -2    2.24    0.19
  -2 -64   2    2.15    0.22
   2  64  -4    0.04    0.10
   2 -64   4    0.32    0.12
  -2  64   4    0.23    0.11
  -2 -64  -4    0.27    0.11
  -2 -64   4    0.24    0.11
  -2  64  -4    0.08    0.10
   2  64   4    0.22    0.11
   2 -64  -4    0.17    0.10
   2  64  -6    1.12    0.16
   2 -64   6    1.08    0.18
  -2  64   6    0.97    0.17
  -2 -64  -6    1.17    0.17
  -2 -64   6    1.36    0.19
   2 -64  -6    1.16    0.16
   2  64   6    1.22    0.17
  -2  64  -6    1.12    0.16
  -2  64   8    0.32    0.14
   2  64  -8    0.58    0.14
   2 -64   8    0.61    0.16
  -2 -64  -8    0.43    0.13
  -2 -64   8    0.62    0.16
   2  64   8    0.52    0.14
  -2  64  10    0.49    0.15
   4  64   0    2.65    0.21
   4 -64   0    2.81    0.22
  -4  64   0    2.66    0.21
  -4 -64   0    2.82    0.23
   4  64  -2    0.53    0.12
  -4  64   2    0.59    0.13
   4 -64   2    0.42    0.12
  -4 -64  -2    0.43    0.13
   4  64   2    0.53    0.13
  -4 -64   2    0.42    0.13
  -4  64  -2    0.49    0.12
  -4 -64  -4    1.44    0.18
  -4  64   4    1.16    0.17
   4 -64   4    1.38    0.18
   4  64  -4    1.64    0.19
   4 -64  -4    1.56    0.18
   4  64   4    1.50    0.18
  -4 -64   4    1.44    0.20
  -4  64  -4    1.44    0.17
   4 -64   6   -0.02    0.10
   4  64  -6    0.14    0.11
  -4 -64  -6    0.02    0.10
  -4  64   6    0.00    0.11
  -4 -64   6    0.10    0.11
   4  64   6    0.02    0.09
  -4  64  -6    0.00    0.09
   4 -64   8   -0.02    0.12
  -4 -64  -8    0.26    0.12
   4  64  -8    0.18    0.12
  -4  64   8   -0.13    0.11
  -4 -64   8    0.50    0.14
  -6 -64   0    0.22    0.11
  -6  64   0    0.25    0.11
   6 -64   0    0.35    0.11
   6  64   0    0.33    0.11
  -6 -64  -2    2.78    0.22
   6 -64   2    2.70    0.21
   6  64  -2    3.02    0.23
  -6  64   2    2.63    0.21
  -6  64  -2    2.30    0.20
  -6 -64   2    2.75    0.25
   6  64   2    2.47    0.20
   6  64  -4    0.30    0.12
  -6  64   4    0.29    0.12
  -6 -64  -4    0.39    0.12
   6 -64   4    0.57    0.14
   6  64   4    0.39    0.12
  -6  64  -4    0.40    0.12
  -6 -64   4    0.31    0.12
  -6 -64  -6    0.14    0.11
   6 -64   6    0.48    0.14
  -6  64   6    0.24    0.13
   6  64  -6    0.35    0.13
   6  64   6    0.33    0.12
  -6 -64   6    0.44    0.14
  -6 -64  -8   -0.09    0.09
   6 -64   8   -0.07    0.10
   6  64  -8    0.21    0.12
  -6  64   8    0.02    0.11
  -6 -64   8    0.02    0.12
   8  64   0    1.17    0.17
  -8  64   0    1.18    0.17
  -8 -64   0    1.22    0.18
  -8  64   2    0.06    0.11
   8  64  -2    0.00    0.10
  -8 -64  -2    0.15    0.11
  -8  64  -2    0.11    0.11
  -8 -64   2    0.18    0.12
   8  64   2    0.05    0.09
  -8 -64  -4    0.16    0.11
   8 -64   4    0.16    0.11
   8  64  -4    0.23    0.12
  -8  64   4    0.14    0.11
   8  64   4    0.23    0.11
  -8 -64   4    0.36    0.14
  -8  64  -4    0.48    0.12
   8  64  -6    0.00    0.10
   8 -64   6    0.13    0.12
  -8 -64  -6   -0.04    0.09
  -8  64   6    0.12    0.12
  -8 -64   6    0.03    0.11
   8 -64   8   -0.09    0.11
 -10  64   0    0.39    0.13
  10  64   0    0.37    0.12
 -10 -64   0    0.38    0.13
  10  64  -2    0.37    0.13
 -10  64   2    0.82    0.16
 -10 -64  -2    0.67    0.15
 -10  64  -2    0.73    0.14
 -10 -64   2    0.63    0.15
  10  64   2    0.61    0.13
  10  64  -4    0.10    0.11
 -10  64   4    0.19    0.12
 -10 -64  -4    0.16    0.12
 -10 -64   4    0.16    0.13
  10  64  -6    0.46    0.14
 -10 -64   6    0.32    0.14
 -12  64   0    0.08    0.11
 -12 -64   0    0.19    0.12
  12  64   0    0.07    0.11
 -12 -64  -2    0.27    0.13
  12  64  -2    0.45    0.14
 -12  64   2    0.45    0.14
 -12  64  -2    0.35    0.13
 -12 -64   2    0.17    0.12
  12  64   2    0.39    0.12
  12  64  -4    0.95    0.18
 -12  64   4    1.20    0.20
 -12 -64   4    0.95    0.18
 -14  64   0    0.00    0.11
 -14 -64   0    0.01    0.11
  14  64   0    0.06    0.11
   1  65  -1    0.32    0.11
   1 -65   1    0.54    0.13
  -1 -65  -1    0.31    0.12
  -1  65   1    0.50    0.12
  -1  65  -1    0.22    0.11
   1  65   1    0.20    0.10
   1 -65  -1    0.17    0.10
  -1 -65   1    0.25    0.12
  -1  65   3    0.14    0.11
   1  65  -3   -0.02    0.09
  -1 -65  -3    0.00    0.09
   1 -65   3    0.18    0.11
   1 -65  -3    0.20    0.10
  -1  65  -3    0.11    0.10
  -1 -65   3   -0.01    0.10
   1  65   3   -0.02    0.09
  -1 -65  -5    1.19    0.17
   1  65  -5    1.24    0.16
  -1  65   5    0.97    0.16
   1 -65   5    0.54    0.15
   1 -65  -5    0.76    0.14
  -1 -65   5    1.19    0.18
  -1  65  -5    1.04    0.15
   1  65   5    1.10    0.17
  -1 -65  -7    0.18    0.12
   1  65  -7    0.32    0.11
   1 -65   7    0.08    0.11
  -1  65   7    0.06    0.11
  -1 -65   7    0.35    0.14
  -1  65  -7    0.09    0.11
   1  65   7    0.22    0.12
   1 -65  -7    0.12    0.11
  -1 -65  -9    0.30    0.13
  -1  65   9    0.29    0.13
   1  65  -9    0.38    0.13
  -3  65   1    2.09    0.21
   3 -65   1    2.13    0.21
  -3 -65  -1    2.11    0.21
   3  65  -1    2.02    0.20
  -3  65  -1    1.70    0.19
   3  65   1    2.10    0.20
   3 -65  -1    1.81    0.19
  -3 -65   1    2.15    0.22
   3 -65   3    0.53    0.13
  -3 -65  -3    0.46    0.13
   3  65  -3    0.46    0.12
  -3  65   3    0.69    0.14
  -3 -65   3    0.60    0.14
  -3  65  -3    0.59    0.13
   3 -65  -3    0.54    0.13
   3  65   3    0.84    0.14
  -3  65   5    0.02    0.10
  -3 -65  -5   -0.05    0.09
   3  65  -5    0.15    0.11
   3 -65   5    0.13    0.11
   3  65   5    0.03    0.10
   3 -65  -5   -0.03    0.09
  -3  65  -5   -0.03    0.09
  -3 -65   5    0.03    0.10
   3 -65   7    0.27    0.13
  -3  65   7    0.25    0.13
  -3 -65  -7    0.26    0.12
   3  65  -7    0.24    0.12
  -3  65  -7    0.54    0.13
   3  65   7    0.51    0.13
  -3 -65   7    0.41    0.14
   3  65  -9    0.62    0.15
  -3  65   9    0.76    0.16
  -3 -65  -9    0.42    0.14
  -5  65   1    0.72    0.14
   5  65  -1    0.61    0.13
  -5 -65  -1    0.46    0.13
   5 -65   1    0.72    0.14
   5  65   1    0.70    0.14
  -5 -65   1    0.74    0.15
   5 -65  -1    0.82    0.14
  -5  65  -1    0.54    0.13
  -5 -65  -3    0.91    0.15
   5  65  -3    1.20    0.16
   5 -65   3    0.93    0.16
  -5  65   3    1.22    0.17
  -5  65  -3    1.01    0.15
   5  65   3    1.20    0.16
  -5 -65   3    1.34    0.19
   5  65  -5    0.27    0.11
  -5 -65  -5    0.15    0.11
   5 -65   5    0.19    0.12
  -5  65   5    0.04    0.10
  -5 -65   5    0.07    0.10
  -5  65  -5    0.13    0.10
   5  65   5    0.24    0.11
   5  65  -7    0.37    0.13
   5 -65   7    0.30    0.13
  -5  65   7    0.28    0.13
  -5 -65  -7    0.32    0.12
  -5 -65   7    0.26    0.14
  -7 -65  -1    0.73    0.15
   7  65  -1    0.75    0.15
  -7  65   1    0.56    0.13
   7  65   1    0.60    0.13
  -7 -65   1    0.90    0.16
  -7  65  -1    0.97    0.15
  -7 -65  -3    0.02    0.10
   7  65  -3    0.07    0.11
   7 -65   3    0.11    0.11
  -7  65   3    0.16    0.11
   7  65   3    0.11    0.10
  -7  65  -3    0.19    0.11
  -7 -65   3   -0.01    0.10
   7 -65   5    0.12    0.11
  -7 -65  -5    0.12    0.10
  -7  65   5    0.20    0.12
   7  65  -5    0.25    0.12
   7  65   5    0.62    0.13
  -7 -65   5    0.39    0.14
  -7  65  -5    0.48    0.13
   7 -65   7   -0.01    0.10
  -7  65   7   -0.08    0.10
  -7 -65  -7    0.18    0.12
   7  65  -7   -0.12    0.10
  -7 -65   7    0.14    0.13
   9  65  -1    0.86    0.15
  -9 -65  -1    0.64    0.15
  -9  65   1    0.96    0.16
  -9 -65   1    0.92    0.17
  -9  65  -1    0.92    0.16
   9  65   1    0.75    0.14
  -9 -65  -3    0.75    0.15
  -9  65   3    0.50    0.13
   9  65  -3    0.44    0.13
  -9  65  -3    0.91    0.15
   9  65   3    0.60    0.13
  -9 -65   3    0.66    0.16
  -9 -65  -5    0.24    0.11
   9  65  -5    0.27    0.13
  -9  65   5    0.40    0.14
  -9 -65   5    0.36    0.15
  11  65  -1    0.48    0.14
 -11  65   1    0.17    0.12
 -11 -65  -1    0.36    0.13
  11  65   1    0.36    0.13
 -11 -65   1    0.26    0.13
 -11  65  -1    0.44    0.13
 -11 -65  -3    0.50    0.14
 -11  65   3    0.57    0.15
  11  65  -3    0.61    0.15
  11  65   3    0.77    0.14
 -11  65  -3    0.67    0.15
 -11 -65   3    0.49    0.16
 -11 -65   5    0.12    0.13
  13  65  -1    0.23    0.13
 -13  65   1    0.25    0.13
 -13 -65  -1    0.19    0.13
 -13  65  -1    0.21    0.13
 -13 -65   1    0.38    0.15
  13  65   1    0.15    0.11
 -13 -65   3    0.35    0.14
   0 -66   0    0.10    0.09
   0  66   0    0.15    0.10
   0 -66  -2   -0.06    0.09
   0  66  -2    0.13    0.09
   0 -66   2    0.00    0.10
   0  66   2   -0.08    0.09
   0 -66   4   -0.02    0.09
   0  66  -4    0.04    0.09
   0  66   4    0.05    0.10
   0 -66  -4    0.05    0.10
   0  66  -6    1.01    0.15
   0 -66  -6    1.07    0.17
   0 -66   6    1.27    0.20
   0  66   6    0.92    0.17
   0  66  -8    0.10    0.10
   0 -66  -8   -0.03    0.10
   0 -66   8   -0.06    0.12
   0  66   8    0.05    0.11
   2  66   0    0.21    0.10
   2 -66   0    0.25    0.11
  -2  66   0    0.33    0.11
  -2 -66   0    0.20    0.11
   2  66  -2    0.30    0.11
   2 -66   2    0.05    0.10
  -2 -66  -2    0.22    0.11
  -2  66   2    0.16    0.10
  -2 -66   2    0.05    0.11
   2  66   2    0.10    0.10
   2 -66  -2    0.14    0.10
  -2  66  -2    0.12    0.09
  -2  66   4    0.57    0.13
  -2 -66  -4    0.62    0.14
   2 -66   4    0.67    0.14
   2  66  -4    0.56    0.13
  -2  66  -4    0.52    0.13
   2  66   4    0.38    0.12
   2 -66  -4    0.80    0.14
  -2 -66   4    0.75    0.15
  -2 -66  -6   -0.02    0.10
   2  66  -6    0.25    0.12
  -2  66   6    0.23    0.12
   2 -66   6    0.16    0.12
   2 -66  -6    0.25    0.12
  -2 -66   6    0.07    0.12
  -2  66  -6    0.09    0.11
   2  66   6    0.22    0.12
  -2 -66  -8    0.45    0.13
   2 -66   8    0.41    0.15
   2  66  -8    0.40    0.13
  -2  66   8    0.24    0.12
   2  66   8    0.52    0.14
  -2 -66   8    0.20    0.13
  -4  66   0    0.14    0.11
  -4 -66   0    0.01    0.10
   4 -66   0    0.10    0.10
   4  66   0    0.10    0.10
   4  66  -2    0.72    0.14
  -4 -66  -2    0.58    0.13
  -4  66   2    0.71    0.15
   4 -66   2    0.49    0.13
  -4 -66   2    0.57    0.14
   4 -66  -2    0.48    0.13
  -4  66  -2    0.82    0.14
   4  66   2    0.68    0.14
  -4  66   4    0.36    0.13
   4 -66   4    0.53    0.14
   4  66  -4    0.63    0.14
  -4 -66  -4    0.63    0.14
   4  66   4    0.48    0.12
   4 -66  -4    0.41    0.12
  -4  66  -4    0.46    0.12
  -4 -66   4    0.50    0.15
   4  66  -6    0.43    0.13
  -4 -66  -6    0.61    0.14
   4 -66   6    0.31    0.13
  -4  66   6    0.31    0.13
  -4  66  -6    0.26    0.12
   4  66   6    0.33    0.13
  -4 -66   6    0.44    0.15
   4  66  -8    0.38    0.13
  -4 -66  -8   -0.10    0.10
  -4  66   8    0.11    0.12
   4 -66   8    0.15    0.13
   6  66   0    0.03    0.10
   6 -66   0    0.03    0.09
  -6  66   0    0.09    0.10
  -6 -66   0    0.00    0.10
  -6 -66  -2    0.08    0.10
  -6  66   2    0.43    0.13
   6 -66   2    0.25    0.11
   6  66  -2    0.25    0.11
  -6  66  -2    0.30    0.11
  -6 -66   2    0.40    0.13
   6  66   2    0.21    0.10
  -6  66   4    0.24    0.12
   6 -66   4    0.12    0.11
  -6 -66  -4    0.26    0.12
   6  66  -4    0.39    0.12
   6  66   4    0.18    0.11
  -6  66  -4    0.24    0.11
  -6 -66   4    0.48    0.14
  -6 -66  -6    0.01    0.10
  -6  66   6    0.07    0.12
   6 -66   6    0.19    0.12
   6  66  -6   -0.04    0.10
   6  66   6    0.21    0.11
  -6 -66   6    0.15    0.12
   6 -66   8    0.08    0.13
  -8  66   0    0.35    0.13
   8  66   0    0.28    0.12
  -8 -66   0    0.20    0.11
  -8 -66  -2    0.16    0.11
   8  66  -2    0.41    0.12
  -8  66   2    0.32    0.12
  -8  66  -2    0.16    0.11
  -8 -66   2    0.06    0.11
   8  66   2    0.05    0.10
   8  66  -4    0.22    0.12
  -8  66   4    0.42    0.13
  -8 -66  -4    0.44    0.13
  -8 -66   4    0.44    0.15
   8  66   4    0.65    0.14
  -8  66  -4    0.09    0.11
   8 -66   6    0.16    0.12
  -8 -66  -6    0.28    0.12
  -8  66   6    0.21    0.13
   8  66  -6    0.26    0.12
  -8 -66   6    0.28    0.14
  10  66   0   -0.02    0.10
 -10 -66   0    0.16    0.11
 -10  66   0    0.06    0.10
  10  66  -2    0.04    0.11
 -10 -66  -2    0.27    0.12
 -10 -66   2    0.25    0.14
 -10  66  -2    0.09    0.11
  10  66   2    0.13    0.11
 -10 -66  -4   -0.10    0.09
 -10  66   4   -0.12    0.10
  10  66  -4    0.30    0.13
 -10 -66   4   -0.04    0.12
 -12  66   0    0.10    0.11
  12  66   0    0.26    0.12
 -12 -66   0   -0.17    0.10
  12  66  -2    0.54    0.14
 -12 -66  -2    0.32    0.13
 -12  66   2    0.45    0.15
 -12 -66   2    0.19    0.14
  12  66   2    0.28    0.12
 -12  66  -2    0.40    0.14
  -1  67   1    0.06    0.10
   1  67  -1    0.22    0.10
  -1 -67  -1    0.24    0.12
   1 -67   1    0.14    0.11
   1  67   1    0.29    0.12
  -1  67  -1    0.32    0.11
   1 -67  -1    0.05    0.10
  -1 -67   1    0.22    0.11
  -1  67   3    0.48    0.13
   1  67  -3    0.43    0.12
  -1 -67  -3    0.39    0.12
   1 -67   3    0.45    0.13
  -1 -67   3    0.34    0.13
  -1  67  -3    0.57    0.13
   1 -67  -3    0.65    0.14
   1  67   3    0.24    0.11
   1  67  -5    0.52    0.13
  -1  67   5    0.54    0.14
   1 -67   5    0.55    0.14
  -1 -67  -5    0.65    0.14
   1 -67  -5    0.65    0.14
  -1  67  -5    0.39    0.13
  -1 -67   5    0.80    0.16
   1  67   5    0.35    0.13
   1 -67   7    2.19    0.24
   1  67  -7    2.63    0.22
  -1  67   7    2.17    0.23
  -1 -67  -7    2.55    0.24
  -1 -67   7    2.59    0.27
   1 -67  -7    2.57    0.24
  -1  67  -7    2.73    0.23
   1  67   7    2.23    0.23
   1  67  -9    0.40    0.13
  -1 -67  -9    0.19    0.13
  -1  67   9    0.55    0.14
  -3  67   1    0.00    0.09
   3  67  -1    0.24    0.11
   3 -67   1    0.06    0.10
  -3 -67  -1    0.19    0.12
  -3 -67   1    0.17    0.11
   3 -67  -1    0.06    0.09
   3  67   1    0.09    0.10
  -3  67  -1    0.32    0.11
  -3 -67  -3    0.31    0.12
  -3  67   3    0.26    0.11
   3  67  -3    0.48    0.12
   3 -67   3    0.11    0.11
   3 -67  -3    0.36    0.12
  -3  67  -3    0.22    0.11
  -3 -67   3    0.42    0.14
   3  67   3    0.31    0.12
  -3  67   5    1.64    0.20
   3  67  -5    1.67    0.20
  -3 -67  -5    1.61    0.20
   3 -67   5    1.65    0.21
   3 -67  -5    1.52    0.18
  -3 -67   5    1.57    0.21
   3  67   5    1.58    0.19
  -3  67  -5    1.37    0.18
  -3 -67  -7    0.09    0.11
  -3  67   7    0.19    0.12
   3  67  -7    0.25    0.12
   3 -67   7    0.06    0.11
  -3 -67   7    0.12    0.13
  -3  67  -7    0.25    0.12
   3  67   7    0.11    0.11
   5  67  -1    0.82    0.15
   5 -67   1    0.98    0.15
  -5 -67  -1    0.83    0.16
  -5  67   1    0.56    0.13
   5  67   1    0.79    0.14
  -5  67  -1    0.61    0.14
  -5 -67   1    0.83    0.16
   5  67  -3    0.10    0.11
  -5  67   3    0.22    0.12
   5 -67   3    0.20    0.10
  -5 -67  -3    0.14    0.11
  -5 -67   3    0.37    0.12
  -5  67  -3    0.09    0.10
   5  67   3    0.30    0.11
   5 -67   5    0.54    0.14
  -5  67   5    0.48    0.14
   5  67  -5    0.59    0.14
  -5 -67  -5    0.52    0.14
   5  67   5    0.47    0.13
  -5 -67   5    0.54    0.15
  -5  67  -5    0.47    0.13
   5  67  -7    0.04    0.10
  -5 -67  -7    0.04    0.10
   5 -67   7   -0.08    0.11
  -5  67   7    0.01    0.11
  -5 -67   7    0.18    0.13
  -7  67   1    0.47    0.14
  -7 -67  -1    0.55    0.13
   7  67  -1    0.59    0.13
   7  67   1    0.31    0.12
  -7  67  -1    0.39    0.12
  -7 -67   1    0.54    0.14
  -7 -67  -3    0.55    0.13
  -7  67   3    0.92    0.16
   7 -67   3    0.71    0.14
   7  67  -3    0.76    0.15
   7  67   3    1.15    0.17
  -7 -67   3    0.81    0.16
  -7  67  -3    0.91    0.16
  -7  67   5    0.19    0.12
  -7 -67  -5    0.36    0.13
   7 -67   5    0.15    0.11
   7  67  -5   -0.01    0.11
   7  67   5    0.30    0.12
  -7  67  -5    0.43    0.13
  -7 -67   5    0.31    0.14
   7 -67   7    0.07    0.11
  -9 -67  -1    0.64    0.15
   9  67  -1    0.66    0.14
  -9  67   1    0.55    0.14
  -9  67  -1    0.82    0.15
  -9 -67   1    0.56    0.15
   9  67   1    0.52    0.13
  -9  67   3    0.24    0.12
   9  67  -3    0.25    0.12
  -9 -67  -3    0.12    0.11
  -9  67  -3    0.47    0.13
  -9 -67   3    0.25    0.14
   9  67   3    0.61    0.14
  -9 -67  -5    0.40    0.13
   9  67  -5    0.55    0.15
  -9  67   5    0.40    0.14
  -9 -67   5    0.48    0.15
  11  67  -1    0.08    0.11
 -11  67   1    0.12    0.12
 -11 -67  -1   -0.08    0.09
  11  67   1    0.05    0.10
 -11  67  -1   -0.03    0.09
 -11 -67   1   -0.04    0.11
 -11 -67  -3    0.21    0.12
  11  67  -3    0.40    0.13
 -11  67   3    0.41    0.14
  11  67   3    0.42    0.13
 -11 -67   3    0.28    0.15
  13  67   1    0.13    0.11
 -13  67  -1   -0.02    0.11
   0  68   0    0.65    0.14
   0 -68   0    0.94    0.16
   0  68  -2   -0.09    0.08
   0 -68   2    0.02    0.11
   0 -68  -2   -0.03    0.09
   0  68   2    0.07    0.10
   0 -68   4    1.96    0.22
   0  68   4    2.28    0.23
   0 -68  -4    1.75    0.20
   0  68  -4    1.92    0.20
   0  68  -6    0.07    0.11
   0 -68  -6    0.13    0.12
   0 -68   6    0.15    0.12
   0  68   6    0.11    0.11
   0 -68  -8    0.48    0.14
   0  68  -8    0.30    0.12
   0  68   8    0.30    0.13
   2 -68   0    1.41    0.18
   2  68   0    1.12    0.16
  -2 -68   0    1.39    0.19
  -2  68   0    1.23    0.17
  -2  68   2    0.74    0.14
  -2 -68  -2    0.42    0.13
   2  68  -2    0.52    0.13
   2 -68   2    0.55    0.14
   2 -68  -2    0.72    0.14
  -2 -68   2    1.14    0.18
  -2  68  -2    0.69    0.14
   2  68   2    0.84    0.15
  -2 -68  -4    0.04    0.10
  -2  68   4    0.10    0.11
   2  68  -4    0.09    0.10
   2 -68   4    0.02    0.11
   2 -68  -4    0.08    0.10
  -2 -68   4    0.27    0.12
   2  68   4    0.23    0.11
  -2  68  -4    0.25    0.12
   2  68  -6    0.79    0.15
  -2 -68  -6    1.37    0.19
  -2  68   6    0.87    0.17
   2 -68   6    0.85    0.18
  -2 -68   6    0.85    0.18
   2 -68  -6    1.09    0.17
  -2  68  -6    1.19    0.17
   2  68   6    0.98    0.17
  -2 -68  -8   -0.02    0.11
  -2  68   8    0.00    0.11
   2  68  -8    0.00    0.11
   2  68   8    0.09    0.11
  -4  68   0    1.15    0.17
   4 -68   0    0.92    0.16
   4  68   0    0.91    0.15
  -4 -68   0    1.22    0.18
   4  68  -2    0.14    0.11
   4 -68   2    0.22    0.11
  -4  68   2    0.32    0.13
  -4 -68  -2    0.15    0.11
  -4  68  -2    0.27    0.11
   4 -68  -2    0.09    0.10
  -4 -68   2    0.10    0.11
   4  68   2    0.27    0.11
  -4 -68  -4    0.50    0.13
   4 -68   4    0.36    0.13
   4  68  -4    0.41    0.13
  -4  68   4    0.38    0.12
  -4  68  -4    0.35    0.12
  -4 -68   4    0.61    0.15
   4  68   4    0.40    0.12
   4 -68   6    0.07    0.11
   4  68  -6    0.08    0.10
  -4 -68  -6    0.20    0.11
  -4  68   6    0.05    0.10
  -4  68  -6   -0.04    0.10
  -4 -68   6    0.34    0.14
   4  68   6    0.21    0.12
   6  68   0    0.33    0.12
  -6 -68   0    0.46    0.13
  -6  68   0    0.43    0.13
  -6  68   2    0.57    0.14
   6  68  -2    0.57    0.13
  -6 -68  -2    0.47    0.13
   6 -68   2    0.93    0.16
   6  68   2    0.72    0.14
  -6  68  -2    0.63    0.14
  -6 -68   2    0.61    0.15
   6 -68   4    0.17    0.11
  -6 -68  -4    0.18    0.11
   6  68  -4    0.07    0.10
  -6  68   4    0.17    0.11
   6  68   4    0.26    0.11
  -6  68  -4    0.08    0.11
  -6 -68   4    0.07    0.11
   6 -68   6    0.12    0.12
  -6 -68  -6    0.20    0.11
  -6  68   6    0.39    0.14
   6  68  -6    0.05    0.11
  -6 -68   6    0.15    0.13
  -8  68   0    1.25    0.18
  -8 -68   0    1.56    0.20
   8  68   0    1.15    0.17
  -8 -68  -2    0.33    0.12
   8  68  -2    0.29    0.12
  -8  68   2    0.79    0.16
   8  68   2    0.29    0.12
  -8 -68   2    0.40    0.14
  -8  68  -2    0.40    0.13
   8  68  -4    0.50    0.14
  -8 -68  -4    0.52    0.14
  -8  68   4    0.53    0.13
  -8  68  -4    0.43    0.13
  -8 -68   4    0.73    0.17
   8  68   4    0.49    0.14
   8 -68   6    0.04    0.11
  10  68   0   -0.02    0.11
 -10  68   0    0.15    0.12
 -10 -68   0    0.10    0.12
 -10  68   2    0.54    0.14
  10  68  -2    0.66    0.15
 -10 -68  -2    0.62    0.15
 -10  68  -2    0.62    0.15
 -10 -68   2    0.75    0.17
  10  68   2    0.69    0.14
 -10 -68   4    0.13    0.13
 -12  68   0   -0.15    0.09
  12  68   0    0.02    0.11
  12  68   2    0.40    0.13
 -12  68  -2    0.17    0.12
  -1 -69  -1    0.49    0.14
  -1  69   1    0.53    0.13
   1 -69   1    0.35    0.13
   1  69  -1    0.76    0.14
  -1 -69   1    0.61    0.15
   1 -69  -1    0.67    0.15
   1  69   1    0.56    0.14
  -1  69  -1    0.68    0.14
  -1  69   3    0.13    0.10
   1  69  -3    0.15    0.11
  -1 -69  -3    0.15    0.11
   1 -69   3   -0.11    0.09
   1  69   3   -0.09    0.10
   1 -69  -3    0.08    0.10
  -1  69  -3    0.12    0.11
  -1 -69   3    0.11    0.12
  -1  69   5    0.08    0.11
  -1 -69  -5   -0.14    0.09
   1  69  -5    0.20    0.12
   1 -69   5   -0.04    0.11
  -1 -69   5    0.11    0.12
  -1  69  -5    0.15    0.11
   1 -69  -5    0.08    0.11
   1  69   5    0.00    0.11
   1 -69   7    0.08    0.13
   1  69  -7    0.12    0.11
  -1  69   7    0.22    0.13
  -1 -69  -7    0.13    0.11
  -1 -69   7    0.02    0.13
  -1  69  -7    0.26    0.12
   1  69   7    0.08    0.11
   1 -69  -7    0.23    0.12
  -3  69   1    0.22    0.11
   3  69  -1    0.25    0.11
   3 -69   1    0.15    0.10
  -3 -69  -1    0.37    0.13
  -3  69  -1    0.41    0.13
   3  69   1    0.25    0.12
  -3 -69   1   -0.08    0.10
   3 -69  -1    0.30    0.12
   3  69  -3    0.12    0.10
   3 -69   3    0.24    0.12
  -3 -69  -3    0.14    0.11
  -3  69   3   -0.04    0.09
   3  69   3    0.35    0.12
  -3  69  -3    0.03    0.10
   3 -69  -3    0.25    0.12
  -3 -69   3    0.20    0.12
   3  69  -5    0.07    0.10
  -3  69   5    0.38    0.13
  -3 -69  -5    0.11    0.11
   3 -69   5    0.14    0.11
   3  69   5    0.19    0.12
  -3 -69   5    0.26    0.14
  -3  69  -5    0.33    0.12
   3 -69  -5    0.15    0.11
   3  69  -7    0.85    0.16
   3 -69   7    0.78    0.17
  -3  69   7    0.65    0.16
  -3 -69  -7    0.67    0.15
  -3 -69   7    0.78    0.17
   3  69   7    0.82    0.16
  -3  69  -7    0.69    0.15
  -5 -69  -1    0.26    0.12
   5  69  -1    0.27    0.11
  -5  69   1    0.27    0.12
   5 -69   1    0.27    0.11
   5 -69  -1    0.24    0.11
   5  69   1    0.28    0.12
  -5  69  -1    0.39    0.12
  -5 -69   1    0.14    0.11
  -5  69   3   -0.02    0.09
  -5 -69  -3   -0.02    0.10
   5  69  -3   -0.04    0.09
   5 -69   3    0.04    0.10
  -5 -69   3   -0.01    0.11
  -5  69  -3    0.21    0.11
   5  69  -5    0.21    0.12
  -5 -69  -5    0.38    0.13
   5 -69   5    0.13    0.12
  -5  69   5    0.26    0.13
  -5  69  -5    0.28    0.12
  -5 -69   5    0.06    0.11
   5  69   5    0.25    0.12
   5 -69   7    0.20    0.12
   7  69  -1    0.21    0.12
  -7 -69  -1    0.09    0.10
  -7  69   1   -0.08    0.09
  -7  69  -1    0.14    0.11
   7  69   1    0.24    0.11
  -7 -69   1    0.22    0.12
  -7 -69  -3   -0.01    0.10
   7 -69   3   -0.04    0.09
  -7  69   3    0.01    0.11
   7  69  -3   -0.06    0.09
   7  69   3    0.04    0.09
  -7  69  -3   -0.01    0.11
  -7 -69   3    0.01    0.11
   7 -69   5    0.00    0.11
  -7  69   5    0.08    0.11
   7  69  -5    0.09    0.11
  -7 -69  -5    0.09    0.11
   7  69   5    0.10    0.11
  -7 -69   5   -0.06    0.11
  -7  69  -5   -0.02    0.10
  -9 -69  -1    0.37    0.13
   9  69  -1    0.31    0.13
  -9  69   1    0.37    0.14
   9  69   1    0.45    0.13
  -9  69  -1    0.84    0.15
  -9 -69   1    0.53    0.15
  -9 -69  -3    0.28    0.13
   9  69  -3    0.34    0.13
  -9  69   3    0.46    0.14
  -9 -69   3    0.33    0.14
   9  69   3    0.34    0.13
  -9  69  -3    0.50    0.14
 -11  69   1    0.34    0.14
  11  69  -1    0.33    0.13
 -11 -69   1    0.67    0.16
 -11  69  -1    0.40    0.14
  11  69   1    0.47    0.13
  11  69   3    0.19    0.11
   0 -70   0    0.27    0.12
   0  70   0    0.05    0.10
   0 -70  -2    0.56    0.14
   0  70   2    0.34    0.12
   0  70  -2    0.43    0.13
   0 -70   2    0.53    0.14
   0 -70   4    0.34    0.14
   0  70   4    0.06    0.11
   0  70  -4    0.14    0.11
   0 -70  -4    0.06    0.10
   0 -70   6    1.26    0.20
   0  70   6    1.28    0.19
   0 -70  -6    1.20    0.18
   0  70  -6    1.61    0.19
   0  70  -8   -0.21    0.08
   0  70   8   -0.07    0.11
  -2 -70   0    0.55    0.15
   2  70   0    0.37    0.12
   2 -70   0    0.63    0.15
  -2  70   0    0.57    0.13
  -2 -70  -2    0.98    0.16
   2  70  -2    1.06    0.16
   2 -70   2    1.09    0.17
  -2  70   2    1.04    0.17
  -2 -70   2    1.07    0.17
  -2  70  -2    0.99    0.16
   2  70   2    1.16    0.16
   2 -70  -2    1.17    0.18
  -2  70   4    0.97    0.17
   2 -70   4    0.94    0.18
   2  70  -4    0.97    0.16
  -2 -70  -4    1.00    0.17
   2 -70  -4    0.93    0.16
  -2 -70   4    1.14    0.18
   2  70   4    1.22    0.18
  -2  70  -4    0.92    0.17
  -2  70   6    0.84    0.17
   2 -70   6    0.82    0.17
  -2 -70  -6    1.11    0.17
   2  70  -6    1.11    0.17
   2  70   6    0.86    0.16
  -2 -70   6    0.89    0.18
   2 -70  -6    0.80    0.16
  -2  70  -6    0.63    0.15
  -4  70   0   -0.19    0.09
  -4 -70   0    0.06    0.10
   4 -70   0    0.15    0.11
   4  70   0    0.05    0.10
  -4 -70  -2    0.59    0.14
  -4  70   2    0.57    0.14
   4  70  -2    0.63    0.14
   4 -70   2    0.72    0.15
   4 -70  -2    0.69    0.14
  -4  70  -2    0.54    0.14
   4  70   2    0.47    0.13
  -4 -70   2    0.62    0.15
  -4 -70  -4    0.19    0.12
   4  70  -4    0.06    0.10
   4 -70   4   -0.13    0.10
  -4  70   4    0.09    0.11
  -4 -70   4    0.07    0.12
   4  70   4    0.10    0.11
  -4  70  -4    0.12    0.10
  -4 -70  -6    0.73    0.16
  -4  70   6    0.49    0.15
   4  70  -6    0.29    0.13
   4 -70   6    0.51    0.15
   4  70   6    0.59    0.15
  -4  70  -6    0.71    0.15
  -4 -70   6    0.60    0.16
  -6  70   0    0.11    0.10
   6  70   0    0.07    0.10
  -6 -70   0    0.05    0.10
   6 -70   2    0.20    0.11
   6  70  -2    0.08    0.10
  -6 -70  -2    0.11    0.11
  -6  70   2    0.10    0.11
  -6  70  -2    0.01    0.10
  -6 -70   2   -0.08    0.09
   6  70   2   -0.02    0.09
  -6  70   4    0.15    0.12
  -6 -70  -4    0.03    0.10
   6 -70   4    0.10    0.12
   6  70  -4    0.35    0.12
  -6  70  -4    0.03    0.11
  -6 -70   4    0.27    0.13
   6  70   4    0.10    0.10
   6 -70   6    0.04    0.10
   8  70   0    0.28    0.12
  -8  70   0    0.38    0.13
  -8 -70   0    0.22    0.13
  -8 -70  -2   -0.02    0.10
  -8  70   2    0.22    0.11
   8  70  -2    0.11    0.11
   8  70   2    0.24    0.12
  -8  70  -2    0.28    0.12
  -8 -70   2    0.18    0.12
   8  70  -4    0.13    0.11
  -8  70   4    0.19    0.13
  -8 -70  -4    0.03    0.10
   8  70   4    0.08    0.10
  -8 -70   4   -0.06    0.11
  -8  70  -4    0.10    0.11
 -10 -70   0    0.26    0.13
 -10  70   0    0.15    0.12
  10  70   0   -0.01    0.10
  10  70  -2    0.60    0.15
 -10  70   2    0.20    0.13
  10  70   2    0.30    0.13
 -10  70  -2    0.54    0.15
 -10 -70   2    0.54    0.16
   1 -71   1    0.24    0.13
   1  71  -1    0.12    0.11
  -1 -71  -1    0.13    0.12
  -1  71   1    0.22    0.11
  -1 -71   1    0.33    0.13
   1  71   1    0.16    0.10
   1 -71  -1    0.24    0.12
  -1  71  -1    0.15    0.11
   1  71  -3    0.85    0.15
  -1  71   3    0.99    0.17
   1 -71   3    1.08    0.18
  -1 -71  -3    0.87    0.16
   1 -71  -3    0.73    0.16
  -1  71  -3    1.01    0.16
   1  71   3    1.28    0.17
  -1 -71   3    0.93    0.17
  -1  71   5    0.29    0.13
   1 -71   5    0.23    0.14
  -1 -71  -5    0.37    0.13
   1  71  -5    0.43    0.13
   1  71   5    0.49    0.14
  -1  71  -5    0.36    0.13
  -1 -71   5    0.26    0.14
   1 -71  -5    0.17    0.11
  -1 -71  -7    0.05    0.11
   1  71  -7    0.04    0.10
  -1  71   7    0.03    0.12
  -1  71  -7    0.05    0.11
   1 -71  -7   -0.05    0.10
   1  71   7    0.03    0.12
   3 -71   1    0.88    0.16
   3  71  -1    0.46    0.13
  -3 -71  -1    0.64    0.16
  -3  71   1    0.89    0.15
   3 -71  -1    0.71    0.15
  -3  71  -1    0.80    0.15
  -3 -71   1    0.68    0.15
   3  71   1    0.66    0.14
   3 -71   3    0.18    0.12
  -3  71   3   -0.17    0.08
  -3 -71  -3    0.11    0.11
   3  71  -3    0.08    0.10
  -3  71  -3    0.11    0.11
  -3 -71   3    0.01    0.11
   3 -71  -3    0.20    0.11
   3  71   3    0.00    0.10
  -3  71   5    0.10    0.11
   3  71  -5    0.30    0.12
  -3 -71  -5    0.12    0.11
   3 -71   5    0.25    0.13
  -3  71  -5    0.33    0.12
  -3 -71   5    0.31    0.14
   3  71   5    0.22    0.12
   3  71   7    0.54    0.14
  -3  71  -7    0.67    0.15
  -5 -71  -1    0.13    0.12
   5 -71   1    0.42    0.13
  -5  71   1    0.28    0.12
   5  71  -1    0.28    0.11
  -5 -71   1    0.34    0.13
   5  71   1    0.42    0.13
  -5  71  -1    0.21    0.11
   5 -71   3    0.47    0.14
  -5  71   3    0.28    0.13
   5  71  -3    0.19    0.11
  -5 -71  -3    0.27    0.12
   5  71   3    0.41    0.13
  -5  71  -3    0.36    0.13
  -5 -71   3    0.50    0.15
  -5  71   5    1.22    0.19
   5  71  -5    0.99    0.17
  -5 -71  -5    0.64    0.15
   5 -71   5    1.32    0.19
   5  71   5    1.04    0.17
  -5  71  -5    0.76    0.15
  -5 -71   5    1.05    0.19
  -7  71   1    0.30    0.12
  -7 -71  -1    0.16    0.12
   7  71  -1    0.07    0.11
   7  71   1    0.51    0.13
  -7  71  -1    0.27    0.12
  -7 -71   1    0.15    0.11
  -7 -71  -3    0.61    0.15
   7  71  -3    0.40    0.13
  -7  71   3    0.47    0.13
  -7  71  -3    0.41    0.13
  -7 -71   3    0.53    0.15
   7  71   3    0.41    0.13
   7 -71   5    0.06    0.11
   7  71   5    0.20    0.12
  -9 -71  -1    0.28    0.14
   9  71  -1    0.10    0.11
  -9  71   1    0.26    0.12
  -9 -71   1    0.44    0.14
   9  71   1    0.38    0.13
  -9  71  -1    0.46    0.14
  -9  71  -3    0.15    0.12
   9  71   3    0.23    0.12
 -11  71  -1    0.59    0.15
   0  72   0    0.87    0.16
   0 -72   0    0.83    0.16
   0  72  -2    0.09    0.11
   0  72   2    0.08    0.11
   0 -72   2    0.03    0.10
   0 -72  -2    0.00    0.10
   0 -72  -4    0.10    0.11
   0 -72   4    0.23    0.14
   0  72   4    0.03    0.11
   0  72  -4    0.01    0.09
   0  72  -6   -0.09    0.09
   0  72   6   -0.08    0.11
   0 -72  -6    0.08    0.11
   0 -72   6    0.14    0.13
  -2  72   0    0.15    0.11
   2  72   0    0.30    0.12
  -2 -72   0    0.23    0.13
   2 -72   0    0.15    0.12
   2 -72   2    0.30    0.13
  -2 -72  -2    0.22    0.13
  -2  72   2    0.28    0.13
   2  72  -2    0.25    0.11
   2 -72  -2    0.02    0.11
   2  72   2    0.29    0.12
  -2  72  -2    0.11    0.11
  -2 -72   2    0.09    0.12
  -2  72   4    0.26    0.13
   2  72  -4    0.33    0.13
   2 -72   4    0.48    0.15
  -2 -72  -4    0.18    0.12
   2  72   4    0.14    0.12
  -2 -72   4    0.22    0.13
   2 -72  -4    0.31    0.12
  -2  72  -4    0.25    0.12
   2  72  -6    0.36    0.13
   2 -72   6    0.45    0.15
  -2  72   6    0.51    0.16
  -2 -72  -6    0.37    0.13
  -2  72  -6    0.39    0.13
   2  72   6    0.43    0.14
   4  72   0    0.23    0.12
   4 -72   0   -0.04    0.10
  -4  72   0    0.33    0.12
  -4 -72   0    0.21    0.12
  -4  72   2    0.02    0.11
   4 -72   2    0.17    0.12
  -4 -72  -2    0.03    0.10
   4  72  -2    0.02    0.09
   4 -72  -2    0.10    0.11
  -4  72  -2   -0.05    0.09
   4  72   2    0.06    0.10
  -4 -72   2    0.17    0.12
  -4 -72  -4    0.12    0.12
   4  72  -4    0.76    0.15
  -4  72   4    0.51    0.15
   4 -72   4    0.61    0.15
  -4 -72   4    0.70    0.16
  -4  72  -4    0.50    0.13
   4  72   4    0.55    0.15
   4 -72   6    0.16    0.13
  -4  72  -6    0.14    0.12
   4  72   6    0.29    0.13
   6  72   0    0.45    0.13
  -6  72   0    0.29    0.13
  -6 -72   0    0.22    0.12
  -6  72   2   -0.04    0.11
  -6 -72  -2    0.03    0.11
   6  72  -2    0.06    0.10
   6 -72   2    0.22    0.11
  -6 -72   2    0.01    0.12
   6  72   2   -0.16    0.09
  -6  72  -2   -0.15    0.09
  -6  72   4    0.10    0.11
  -6 -72  -4    0.28    0.12
   6  72  -4    0.62    0.15
   6 -72   4    0.11    0.12
  -6 -72   4    0.49    0.16
   6  72   4    0.17    0.12
  -6  72  -4    0.33    0.13
   6 -72   6    0.53    0.17
  -8  72   0    0.11    0.11
   8  72   0    0.03    0.10
  -8 -72   0   -0.11    0.10
  -8  72   2    0.23    0.13
  -8 -72  -2    0.37    0.13
   8  72  -2    0.43    0.14
  -8  72  -2    0.25    0.13
   8  72   2    0.60    0.14
  -8 -72   2    0.23    0.13
  -8  72  -4    0.05    0.11
   8  72   4    0.20    0.12
 -10  72   0    0.03    0.11
 -10  72  -2    0.23    0.13
  10  72   2    0.25    0.12
   1  73  -1    0.10    0.10
  -1 -73  -1    0.21    0.13
  -1  73   1    0.20    0.12
   1 -73   1    0.17    0.12
  -1 -73   1    0.00    0.10
   1 -73  -1    0.10    0.12
  -1  73  -1    0.16    0.11
   1  73   1    0.18    0.11
   1  73  -3    0.09    0.10
  -1  73   3    0.19    0.12
  -1 -73  -3    0.37    0.14
   1 -73   3    0.09    0.12
  -1  73  -3    0.10    0.11
   1 -73  -3    0.25    0.12
   1  73   3    0.32    0.13
  -1 -73   3    0.11    0.11
   1 -73   5    0.55    0.16
  -1 -73  -5    0.43    0.14
  -1  73   5    0.76    0.16
   1  73  -5    0.50    0.13
  -1 -73   5    0.62    0.16
  -1  73  -5    0.49    0.13
   1 -73  -5    0.32    0.13
   1  73   5    0.46    0.14
   1 -73  -7    0.22    0.12
  -3 -73  -1   -0.05    0.10
   3  73  -1    0.01    0.09
  -3  73   1    0.02    0.10
   3 -73   1    0.12    0.11
   3 -73  -1    0.00    0.10
   3  73   1   -0.13    0.09
  -3 -73   1    0.19    0.11
  -3  73  -1    0.11    0.11
  -3 -73  -3    0.46    0.14
   3  73  -3    0.69    0.15
  -3  73   3    0.67    0.15
   3 -73   3    0.67    0.16
   3  73   3    0.63    0.15
  -3  73  -3    0.56    0.14
  -3 -73   3    0.39    0.14
   3 -73  -3    0.77    0.16
  -3  73   5    0.04    0.12
  -3 -73  -5    0.11    0.12
   3 -73   5    0.08    0.13
   3  73  -5    0.21    0.12
  -3 -73   5    0.19    0.14
  -3  73  -5    0.32    0.12
   3  73   5    0.15    0.12
  -5  73   1    0.06    0.11
   5 -73   1   -0.14    0.09
  -5 -73  -1   -0.10    0.09
   5  73  -1   -0.05    0.10
  -5  73  -1    0.08    0.11
  -5 -73   1    0.01    0.11
   5  73   1   -0.04    0.09
   5 -73   3    0.19    0.13
  -5 -73  -3    0.33    0.12
   5  73  -3    0.47    0.13
  -5  73   3    0.51    0.14
  -5 -73   3    0.44    0.15
   5  73   3    0.43    0.13
  -5  73  -3    0.16    0.12
   5 -73   5    0.22    0.13
  -5  73  -5    0.02    0.11
   5  73   5    0.01    0.11
  -7  73   1    0.27    0.13
   7  73  -1    0.20    0.12
  -7 -73  -1    0.12    0.12
   7  73   1    0.23    0.12
  -7  73  -1    0.02    0.11
  -7 -73   1    0.01    0.11
  -7  73   3    0.17    0.12
   7  73   3    0.15    0.11
  -7  73  -3    0.12    0.12
   7 -73   5    0.03    0.11
   7  73   5    0.03    0.11
   9  73   1    0.21    0.12
  -9  73  -1    0.51    0.14
  -9  73  -3    0.18    0.13
   9  73   3   -0.05    0.10
   0  74   0    0.06    0.10
   0 -74   0    0.11    0.11
   0 -74   2    1.86    0.22
   0  74   2    1.54    0.20
   0 -74  -2    2.09    0.23
   0  74  -2    2.30    0.23
   0 -74  -4    0.17    0.11
   0  74   4    0.02    0.11
   0 -74   4    0.22    0.14
   0  74  -4    0.10    0.11
   0 -74  -6    0.02    0.11
   0  74  -6    0.05    0.10
   2  74   0    0.25    0.12
  -2 -74   0    0.23    0.13
  -2  74   0    0.32    0.12
   2 -74   0    0.15    0.11
  -2  74   2    0.13    0.11
   2  74  -2    0.15    0.11
  -2 -74  -2    0.01    0.11
   2 -74   2   -0.03    0.11
   2  74   2   -0.03    0.10
   2 -74  -2   -0.02    0.10
  -2  74  -2    0.10    0.11
  -2 -74   2    0.10    0.12
   2  74  -4    0.42    0.13
   2 -74   4    0.53    0.15
  -2 -74  -4    0.08    0.11
  -2  74   4    0.20    0.13
   2 -74  -4    0.07    0.11
  -2 -74   4    0.49    0.16
  -2  74  -4    0.37    0.13
   2  74   4    0.31    0.13
  -2  74  -6    0.52    0.14
   2  74   6    0.15    0.13
   4  74   0    0.02    0.10
  -4  74   0   -0.01    0.10
  -4 -74   0   -0.03    0.10
   4 -74   0   -0.05    0.10
   4  74  -2    0.33    0.12
   4 -74   2    0.41    0.14
  -4  74   2    0.25    0.13
  -4 -74  -2    0.45    0.14
  -4 -74   2    0.40    0.14
   4  74   2    0.80    0.16
  -4  74  -2    0.50    0.14
   4 -74   4    0.35    0.13
  -4  74   4    0.45    0.14
  -4 -74  -4    0.53    0.15
   4  74  -4    0.57    0.14
   4  74   4    0.32    0.13
  -4 -74   4    0.43    0.15
  -4  74  -4    0.36    0.13
   4  74   6    0.81    0.16
  -4  74  -6    0.99    0.17
  -6 -74   0    0.06    0.11
   6  74   0    0.06    0.10
  -6  74   0    0.07    0.11
  -6  74   2    0.11    0.12
  -6 -74  -2    0.08    0.11
   6  74  -2   -0.03    0.10
  -6  74  -2   -0.13    0.10
  -6 -74   2    0.14    0.13
   6  74   2    0.01    0.10
   6 -74   4    0.51    0.15
   6  74   4    0.49    0.14
  -6  74  -4    0.58    0.14
  -8  74   0    0.08    0.11
   8  74   2    0.22    0.12
  -8  74  -2    0.14    0.12
  -8  74  -4    0.10    0.12
   1 -75   1    0.14    0.12
  -1 -75  -1    0.41    0.14
   1  75  -1    0.07    0.11
  -1  75   1    0.19    0.11
  -1 -75   1    0.31    0.14
   1 -75  -1    0.25    0.13
   1  75   1    0.29    0.12
  -1  75  -1    0.34    0.13
  -1  75   3   -0.04    0.10
  -1 -75  -3    0.07    0.12
   1  75  -3    0.09    0.11
   1 -75   3   -0.11    0.11
   1 -75  -3   -0.19    0.10
  -1 -75   3   -0.05    0.11
  -1  75  -3    0.00    0.11
   1  75   3    0.10    0.12
  -1 -75  -5    0.18    0.12
   1  75  -5    0.02    0.11
   1  75   5    0.19    0.13
  -1  75  -5    0.36    0.13
   1 -75  -5    0.28    0.12
  -3  75   1    0.02    0.11
   3 -75   1    0.15    0.12
  -3 -75  -1    0.01    0.11
   3  75  -1    0.17    0.11
   3  75   1    0.01    0.10
  -3  75  -1   -0.13    0.09
   3 -75  -1    0.00    0.11
  -3 -75   1    0.13    0.12
  -3  75   3    0.81    0.17
  -3 -75  -3    0.44    0.14
   3 -75   3    0.77    0.17
   3  75  -3    0.78    0.16
   3 -75  -3    0.69    0.16
  -3 -75   3    0.73    0.17
   3  75   3    0.56    0.15
  -3  75  -3    0.68    0.15
  -3  75  -5    0.55    0.15
   3  75   5    0.82    0.17
   5  75  -1    0.05    0.10
   5 -75   1   -0.13    0.10
  -5  75   1    0.20    0.12
  -5 -75  -1    0.06    0.11
  -5  75  -1   -0.02    0.11
   5  75   1    0.08    0.10
  -5 -75   1    0.05    0.12
   5 -75   3    0.26    0.13
   5  75   3    0.36    0.13
  -5  75  -3    0.28    0.12
  -5  75  -5   -0.03    0.11
   7  75   1    0.44    0.13
  -7  75  -1    0.12    0.12
  -7  75  -3    0.31    0.12
   0 -76   0    0.46    0.15
   0  76   0    0.63    0.14
   0  76  -2    0.02    0.10
   0  76   2    0.07    0.11
   0 -76   2   -0.03    0.10
   0 -76  -2    0.18    0.12
   0  76   4    0.78    0.16
   0 -76   4    0.84    0.18
   0 -76  -4    0.43    0.14
   0  76  -4    0.41    0.13
   2 -76   0    0.18    0.12
  -2 -76   0    0.35    0.14
   2  76   0    0.19    0.11
  -2  76   0    0.14    0.12
   2 -76   2    0.22    0.13
  -2 -76  -2   -0.03    0.11
  -2  76   2    0.18    0.11
   2  76  -2    0.04    0.10
  -2 -76   2    0.06    0.11
   2  76   2    0.12    0.11
  -2  76  -2    0.13    0.11
   2 -76  -2   -0.01    0.11
   2 -76   4    0.16    0.13
  -2 -76  -4    0.17    0.12
  -2  76  -4    0.26    0.12
   2 -76  -4    0.11    0.11
   2  76   4    0.18    0.12
   4 -76   0    0.08    0.11
  -4 -76   0   -0.04    0.10
  -4  76   0    0.00    0.11
   4  76   0    0.03    0.10
  -4  76   2    0.16    0.12
   4  76  -2    0.44    0.13
  -4 -76  -2    0.18    0.12
   4 -76   2    0.32    0.14
  -4 -76   2    0.50    0.15
  -4  76  -2    0.50    0.14
   4  76   2    0.26    0.12
   4 -76   4   -0.09    0.11
   4  76   4    0.10    0.12
  -4  76  -4   -0.04    0.11
  -6  76   0    0.17    0.11
  -6  76  -2   -0.15    0.09
   6 -76   4   -0.07    0.11
  -1 -77  -1   -0.14    0.10
   1 -77   1    0.10    0.12
   1  77  -1    0.01    0.11
  -1  77   1    0.02    0.10
  -1  77  -1   -0.08    0.09
   1  77   1    0.05    0.10
   1 -77  -1    0.05    0.11
  -1 -77   1    0.02    0.12
   1 -77   3    0.02    0.12
  -1 -77  -3   -0.18    0.10
  -1 -77   3    0.12    0.12
   1  77   3   -0.07    0.10
  -1  77  -3    0.01    0.11
   1 -77  -3    0.00    0.10
   1 -77  -5    0.41    0.14
   3  77  -1   -0.07    0.10
   3 -77   1    0.19    0.13
  -3 -77  -1    0.07    0.12
  -3  77   1    0.14    0.11
   3 -77  -1    0.15    0.12
  -3 -77   1    0.06    0.12
   3  77   1    0.10    0.11
  -3  77  -1    0.19    0.12
   3 -77   3    0.32    0.14
  -3  77  -3    0.21    0.11
   5 -77   3    0.64    0.16
   0  78   0   -0.03    0.10
   0 -78   0    0.01    0.12
   0 -78  -2   -0.01    0.11
   0 -78   2    0.25    0.14
   2 -78   0   -0.11    0.10
  -2 -78   0    0.06    0.12
  -2  78   0   -0.08    0.10
  -2 -78  -2    0.36    0.14
   2 -78   2    0.17    0.13
   2 -78  -2   -0.02    0.11
   2 -78  -4    0.73    0.16
   4 -78   0    0.05    0.12
   4 -78   2    0.05    0.11
   1 -79   1    0.37    0.14
  -1 -79  -1    0.43    0.15
   1 -79  -1    0.36    0.14
   1 -79  -3    0.11    0.13
   3 -79   1    0.05    0.12
   3 -79  -1   -0.10    0.10
   2 -80   0    0.22    0.13
   2 -80  -2    0.24    0.13
   0   0   0    0.00    0.00
;
_shelx_hkl_checksum              6185
_shelx_shelxl_version_number     2014/7
_olex2_submission_special_instructions 'No special instructions were received'
loop_
_space_group_symop_operation_xyz
'x, y, z'
'-x, -y, z'
'x+1/4, -y+1/4, z+1/4'
'-x+1/4, y+1/4, z+1/4'
'x, y+1/2, z+1/2'
'-x, -y+1/2, z+1/2'
'x+1/4, -y+3/4, z+3/4'
'-x+1/4, y+3/4, z+3/4'
'x+1/2, y, z+1/2'
'-x+1/2, -y, z+1/2'
'x+3/4, -y+1/4, z+3/4'
'-x+3/4, y+1/4, z+3/4'
'x+1/2, y+1/2, z'
'-x+1/2, -y+1/2, z'
'x+3/4, -y+3/4, z+1/4'
'-x+3/4, y+3/4, z+1/4'
loop_
_atom_site_label
_atom_site_type_symbol
_atom_site_fract_x
_atom_site_fract_y
_atom_site_fract_z
_atom_site_U_iso_or_equiv
_atom_site_adp_type
_atom_site_occupancy
_atom_site_site_symmetry_order
_atom_site_calc_flag
_atom_site_refinement_flags_posn
C1 C 0.71511(16) 0.41450(4) 1.2224(2) 0.0491(5) Uani 1 1 d .
C2 C 0.74549(19) 0.40126(5) 1.1236(3) 0.0626(7) Uani 1 1 d .
H2 H 0.7158 0.4010 1.0507 0.075 Uiso 1 1 calc R
C3 C 0.8199(2) 0.38834(6) 1.1324(3) 0.0746(9) Uani 1 1 d .
H3 H 0.8392 0.3795 1.0654 0.090 Uiso 1 1 calc R
C4 C 0.86501(19) 0.38846(6) 1.2382(4) 0.0736(9) Uani 1 1 d .
H4 H 0.9156 0.3802 1.2426 0.088 Uiso 1 1 calc R
C5 C 0.83460(19) 0.40100(6) 1.3379(3) 0.0725(9) Uani 1 1 d .
H5 H 0.8644 0.4009 1.4108 0.087 Uiso 1 1 calc R
C6 C 0.76038(18) 0.41376(6) 1.3311(3) 0.0626(7) Uani 1 1 d .
H6 H 0.7403 0.4220 1.3998 0.075 Uiso 1 1 calc R
C7 C 0.63746(15) 0.42896(5) 1.2218(2) 0.0493(5) Uani 1 1 d .
H7 H 0.6123 0.4306 1.2979 0.059 Uiso 1 1 calc R
C8 C 0.59691(14) 0.44011(4) 1.1297(2) 0.0422(5) Uani 1 1 d .
C9 C 0.62313(12) 0.44048(4) 0.9977(2) 0.0372(4) Uani 1 1 d .
H9A H 0.6830 0.4384 0.9931 0.045 Uiso 1 1 calc R
H9B H 0.6097 0.4565 0.9629 0.045 Uiso 1 1 calc R
C10 C 0.58095(14) 0.42020(4) 0.9219(2) 0.0394(4) Uani 1 1 d .
H10A H 0.5911 0.4044 0.9612 0.047 Uiso 1 1 calc R
H10B H 0.5214 0.4231 0.9232 0.047 Uiso 1 1 calc R
C11 C 0.60896(13) 0.41835(4) 0.7889(2) 0.0386(4) Uani 1 1 d .
H11 H 0.5955 0.4018 0.7583 0.046 Uiso 1 1 calc R
C12 C 0.57655(13) 0.43788(4) 0.6960(2) 0.0397(4) Uani 1 1 d .
C13 C 0.65411(12) 0.45339(4) 0.6774(2) 0.0372(4) Uani 1 1 d .
C14 C 0.50264(14) 0.45311(5) 0.7398(3) 0.0533(6) Uani 1 1 d .
H14A H 0.5160 0.4607 0.8165 0.080 Uiso 1 1 calc GR
H14B H 0.4552 0.4425 0.7498 0.080 Uiso 1 1 calc GR
H14C H 0.4901 0.4657 0.6806 0.080 Uiso 1 1 calc GR
C15 C 0.55398(19) 0.42453(6) 0.5756(3) 0.0594(7) Uani 1 1 d .
H15A H 0.5321 0.4363 0.5183 0.089 Uiso 1 1 calc GR
H15B H 0.5129 0.4120 0.5917 0.089 Uiso 1 1 calc GR
H15C H 0.6029 0.4169 0.5420 0.089 Uiso 1 1 calc GR
C16 C 0.85963(17) 0.40902(6) 0.7947(3) 0.0660(8) Uani 1 1 d .
H16A H 0.9016 0.3972 0.7722 0.099 Uiso 1 1 calc GR
H16B H 0.8600 0.4112 0.8817 0.099 Uiso 1 1 calc GR
H16C H 0.8709 0.4246 0.7555 0.099 Uiso 1 1 calc GR
C17 C 0.65727(14) 0.47845(4) 0.6222(2) 0.0424(5) Uani 1 1 d .
C18 C 0.61550(18) 0.48437(5) 0.5151(3) 0.0621(7) Uani 1 1 d .
H18 H 0.5838 0.4724 0.4753 0.075 Uiso 1 1 calc R
C19 C 0.6212(2) 0.50821(7) 0.4673(4) 0.0788(10) Uani 1 1 d .
H19 H 0.5936 0.5120 0.3949 0.095 Uiso 1 1 calc R
C20 C 0.6661(2) 0.52584(6) 0.5245(4) 0.0799(11) Uani 1 1 d .
H20 H 0.6695 0.5417 0.4915 0.096 Uiso 1 1 calc R
C21 C 0.7072(2) 0.52037(5) 0.6324(4) 0.0707(9) Uani 1 1 d .
H21 H 0.7375 0.5326 0.6725 0.085 Uiso 1 1 calc R
C22 C 0.70313(15) 0.49660(4) 0.6806(3) 0.0504(5) Uani 1 1 d .
H22 H 0.7314 0.4929 0.7525 0.061 Uiso 1 1 calc R
C23 C 0.51971(15) 0.45373(5) 1.1653(2) 0.0483(5) Uani 1 1 d .
C24 C 0.40323(17) 0.47610(6) 1.0892(3) 0.0630(7) Uani 1 1 d .
H24A H 0.4151 0.4911 1.1350 0.076 Uiso 1 1 calc R
H24B H 0.3642 0.4661 1.1356 0.076 Uiso 1 1 calc R
C25 C 0.3678(2) 0.48237(8) 0.9680(4) 0.0864(11) Uani 1 1 d .
H25A H 0.3557 0.4674 0.9241 0.130 Uiso 1 1 calc GR
H25B H 0.4073 0.4920 0.9227 0.130 Uiso 1 1 calc GR
H25C H 0.3176 0.4917 0.9788 0.130 Uiso 1 1 calc GR
N1 N 0.70102(11) 0.42197(3) 0.78273(18) 0.0404(4) Uani 1 1 d .
N2 N 0.72176(11) 0.44381(3) 0.71770(18) 0.0409(4) Uani 1 1 d .
O1 O 0.49433(13) 0.45654(5) 1.26700(19) 0.0729(6) Uani 1 1 d .
O2 O 0.47951(11) 0.46231(4) 1.06730(18) 0.0574(5) Uani 1 1 d .
O3 O 0.73399(13) 0.37853(3) 0.8254(2) 0.0637(5) Uani 1 1 d .
O4 O 0.76544(13) 0.39353(4) 0.6207(2) 0.0669(5) Uani 1 1 d .
S1 S 0.76185(3) 0.39815(2) 0.74848(5) 0.04439(15) Uani 1 1 d .
loop_
_atom_site_aniso_label
_atom_site_aniso_U_11
_atom_site_aniso_U_22
_atom_site_aniso_U_33
_atom_site_aniso_U_23
_atom_site_aniso_U_13
_atom_site_aniso_U_12
C1 0.0470(12) 0.0538(13) 0.0465(14) 0.0132(10) -0.0006(10) -0.0023(10)
C2 0.0712(18) 0.0591(15) 0.0576(17) 0.0075(13) -0.0068(14) 0.0168(13)
C3 0.080(2) 0.0672(18) 0.076(2) 0.0158(15) 0.0065(17) 0.0266(16)
C4 0.0552(15) 0.0757(18) 0.090(2) 0.0378(19) 0.0011(17) 0.0135(13)
C5 0.0561(17) 0.089(2) 0.072(2) 0.0332(17) -0.0145(15) -0.0058(15)
C6 0.0574(16) 0.0782(19) 0.0521(16) 0.0184(14) -0.0032(12) -0.0028(13)
C7 0.0491(12) 0.0583(13) 0.0406(13) 0.0034(10) 0.0021(10) -0.0018(10)
C8 0.0411(12) 0.0458(11) 0.0397(12) -0.0012(9) 0.0013(9) -0.0002(9)
C9 0.0348(9) 0.0376(9) 0.0391(11) 0.0034(8) 0.0035(9) -0.0003(7)
C10 0.0391(10) 0.0385(10) 0.0404(11) 0.0048(8) 0.0037(9) -0.0045(8)
C11 0.0359(10) 0.0377(10) 0.0422(12) -0.0027(8) 0.0009(8) -0.0003(8)
C12 0.0364(10) 0.0467(11) 0.0360(11) -0.0002(9) 0.0000(9) 0.0007(8)
C13 0.0365(10) 0.0397(10) 0.0355(11) -0.0026(8) 0.0049(8) 0.0034(8)
C14 0.0389(11) 0.0693(15) 0.0517(15) 0.0114(12) 0.0050(11) 0.0143(10)
C15 0.0642(16) 0.0691(16) 0.0450(14) -0.0030(12) -0.0099(12) -0.0154(13)
C16 0.0416(13) 0.0615(15) 0.095(2) -0.0050(15) -0.0142(14) 0.0114(11)
C17 0.0377(11) 0.0423(11) 0.0472(13) 0.0047(9) 0.0080(9) 0.0066(8)
C18 0.0568(15) 0.0642(15) 0.0653(18) 0.0182(13) -0.0057(13) 0.0050(12)
C19 0.0640(18) 0.086(2) 0.086(2) 0.0450(19) 0.0065(17) 0.0152(16)
C20 0.0659(18) 0.0583(16) 0.116(3) 0.0363(19) 0.027(2) 0.0127(14)
C21 0.0633(17) 0.0450(13) 0.104(3) 0.0011(15) 0.0243(18) -0.0040(12)
C22 0.0478(12) 0.0447(12) 0.0588(15) -0.0005(10) 0.0100(12) 0.0027(10)
C23 0.0449(13) 0.0584(13) 0.0417(13) -0.0020(10) 0.0040(10) 0.0008(10)
C24 0.0505(15) 0.0761(18) 0.0625(17) 0.0018(14) 0.0138(13) 0.0206(13)
C25 0.0656(19) 0.117(3) 0.077(2) 0.015(2) 0.0116(17) 0.0454(19)
N1 0.0376(9) 0.0360(8) 0.0477(11) 0.0027(7) 0.0060(8) 0.0062(7)
N2 0.0367(9) 0.0378(9) 0.0482(11) 0.0025(7) 0.0048(7) 0.0033(7)
O1 0.0670(12) 0.1040(17) 0.0476(12) -0.0076(11) 0.0108(9) 0.0246(11)
O2 0.0472(9) 0.0756(12) 0.0494(11) 0.0043(9) 0.0074(8) 0.0201(9)
O3 0.0724(12) 0.0415(9) 0.0772(14) 0.0059(9) 0.0067(10) 0.0099(8)
O4 0.0689(13) 0.0786(13) 0.0531(12) -0.0196(10) 0.0042(9) 0.0133(10)
S1 0.0432(3) 0.0407(3) 0.0493(3) -0.0057(2) 0.0003(3) 0.0094(2)
loop_
_atom_type_symbol
_atom_type_description
_atom_type_scat_dispersion_real
_atom_type_scat_dispersion_imag
_atom_type_scat_source
C C 0.0033 0.0016 'International Tables Vol C Tables 4.2.6.8 and 6.1.1.4'
H H 0.0000 0.0000 'International Tables Vol C Tables 4.2.6.8 and 6.1.1.4'
N N 0.0061 0.0033 'International Tables Vol C Tables 4.2.6.8 and 6.1.1.4'
O O 0.0106 0.0060 'International Tables Vol C Tables 4.2.6.8 and 6.1.1.4'
S S 0.1246 0.1234 'International Tables Vol C Tables 4.2.6.8 and 6.1.1.4'
loop_
_geom_angle_atom_site_label_1
_geom_angle_atom_site_label_2
_geom_angle_atom_site_label_3
_geom_angle
C2 C1 C6 117.8(3)
C2 C1 C7 124.7(2)
C6 C1 C7 117.5(3)
C1 C2 H2 119.7
C1 C2 C3 120.6(3)
C3 C2 H2 119.7
C2 C3 H3 119.5
C4 C3 C2 121.0(3)
C4 C3 H3 119.5
C3 C4 H4 120.5
C3 C4 C5 119.1(3)
C5 C4 H4 120.5
C4 C5 H5 119.6
C4 C5 C6 120.7(3)
C6 C5 H5 119.6
C1 C6 H6 119.6
C5 C6 C1 120.8(3)
C5 C6 H6 119.6
C1 C7 H7 114.6
C8 C7 C1 130.7(2)
C8 C7 H7 114.6
C7 C8 C9 126.2(2)
C7 C8 C23 115.3(2)
C23 C8 C9 118.4(2)
C8 C9 H9A 109.1
C8 C9 H9B 109.1
C8 C9 C10 112.71(17)
H9A C9 H9B 107.8
C10 C9 H9A 109.1
C10 C9 H9B 109.1
C9 C10 H10A 108.4
C9 C10 H10B 108.4
H10A C10 H10B 107.4
C11 C10 C9 115.63(17)
C11 C10 H10A 108.4
C11 C10 H10B 108.4
C10 C11 H11 108.8
C10 C11 C12 118.69(17)
C12 C11 H11 108.8
N1 C11 C10 109.07(18)
N1 C11 H11 108.8
N1 C11 C12 102.30(16)
C13 C12 C11 100.81(16)
C13 C12 C14 112.64(19)
C13 C12 C15 109.67(19)
C14 C12 C11 114.97(18)
C14 C12 C15 109.7(2)
C15 C12 C11 108.62(19)
C17 C13 C12 125.98(18)
N2 C13 C12 115.33(18)
N2 C13 C17 118.65(18)
C12 C14 H14A 109.5
C12 C14 H14B 109.5
C12 C14 H14C 109.5
H14A C14 H14B 109.5
H14A C14 H14C 109.5
H14B C14 H14C 109.5
C12 C15 H15A 109.5
C12 C15 H15B 109.5
C12 C15 H15C 109.5
H15A C15 H15B 109.5
H15A C15 H15C 109.5
H15B C15 H15C 109.5
H16A C16 H16B 109.5
H16A C16 H16C 109.5
H16B C16 H16C 109.5
S1 C16 H16A 109.5
S1 C16 H16B 109.5
S1 C16 H16C 109.5
C18 C17 C13 122.5(2)
C22 C17 C13 118.5(2)
C22 C17 C18 119.0(2)
C17 C18 H18 120.1
C17 C18 C19 119.9(3)
C19 C18 H18 120.1
C18 C19 H19 119.5
C20 C19 C18 120.9(3)
C20 C19 H19 119.6
C19 C20 H20 120.0
C19 C20 C21 120.0(3)
C21 C20 H20 120.0
C20 C21 H21 120.0
C20 C21 C22 119.9(3)
C22 C21 H21 120.0
C17 C22 C21 120.3(3)
C17 C22 H22 119.8
C21 C22 H22 119.8
O1 C23 C8 126.1(2)
O1 C23 O2 122.6(2)
O2 C23 C8 111.3(2)
H24A C24 H24B 108.6
C25 C24 H24A 110.3
C25 C24 H24B 110.3
O2 C24 H24A 110.3
O2 C24 H24B 110.3
O2 C24 C25 107.1(2)
C24 C25 H25A 109.5
C24 C25 H25B 109.5
C24 C25 H25C 109.5
H25A C25 H25B 109.5
H25A C25 H25C 109.5
H25B C25 H25C 109.5
C11 N1 S1 119.48(14)
N2 N1 C11 111.38(16)
N2 N1 S1 113.20(14)
C13 N2 N1 108.02(17)
C23 O2 C24 117.0(2)
N1 S1 C16 101.71(12)
O3 S1 C16 111.14(15)
O3 S1 N1 104.98(11)
O4 S1 C16 107.84(15)
O4 S1 N1 112.48(12)
O4 S1 O3 117.57(14)
loop_
_geom_bond_atom_site_label_1
_geom_bond_atom_site_label_2
_geom_bond_distance
C1 C2 1.386(4)
C1 C6 1.395(4)
C1 C7 1.472(4)
C2 H2 0.9300
C2 C3 1.387(4)
C3 H3 0.9300
C3 C4 1.365(5)
C4 H4 0.9300
C4 C5 1.375(5)
C5 H5 0.9300
C5 C6 1.380(4)
C6 H6 0.9300
C7 H7 0.9300
C7 C8 1.343(3)
C8 C9 1.504(3)
C8 C23 1.494(3)
C9 H9A 0.9700
C9 H9B 0.9700
C9 C10 1.532(3)
C10 H10A 0.9700
C10 H10B 0.9700
C10 C11 1.527(3)
C11 H11 0.9800
C11 C12 1.556(3)
C11 N1 1.494(3)
C12 C13 1.516(3)
C12 C14 1.522(3)
C12 C15 1.545(3)
C13 C17 1.484(3)
C13 N2 1.282(3)
C14 H14A 0.9600
C14 H14B 0.9600
C14 H14C 0.9600
C15 H15A 0.9600
C15 H15B 0.9600
C15 H15C 0.9600
C16 H16A 0.9600
C16 H16B 0.9600
C16 H16C 0.9600
C16 S1 1.752(3)
C17 C18 1.388(4)
C17 C22 1.383(4)
C18 H18 0.9300
C18 C19 1.393(4)
C19 H19 0.9300
C19 C20 1.350(6)
C20 H20 0.9300
C20 C21 1.384(5)
C21 H21 0.9300
C21 C22 1.390(4)
C22 H22 0.9300
C23 O1 1.195(3)
C23 O2 1.335(3)
C24 H24A 0.9700
C24 H24B 0.9700
C24 C25 1.482(5)
C24 O2 1.454(3)
C25 H25A 0.9600
C25 H25B 0.9600
C25 H25C 0.9600
N1 N2 1.418(3)
N1 S1 1.6591(18)
O3 S1 1.425(2)
O4 S1 1.421(2)
loop_
_geom_torsion_atom_site_label_1
_geom_torsion_atom_site_label_2
_geom_torsion_atom_site_label_3
_geom_torsion_atom_site_label_4
_geom_torsion
C1 C2 C3 C4 -0.3(5)
C1 C7 C8 C9 -0.1(4)
C1 C7 C8 C23 -178.7(2)
C2 C1 C6 C5 2.5(4)
C2 C1 C7 C8 -27.1(4)
C2 C3 C4 C5 2.0(5)
C3 C4 C5 C6 -1.3(5)
C4 C5 C6 C1 -0.9(5)
C6 C1 C2 C3 -1.9(4)
C6 C1 C7 C8 154.2(3)
C7 C1 C2 C3 179.4(3)
C7 C1 C6 C5 -178.7(3)
C7 C8 C9 C10 95.6(3)
C7 C8 C23 O1 4.2(4)
C7 C8 C23 O2 -174.4(2)
C8 C9 C10 C11 -176.06(18)
C8 C23 O2 C24 -179.7(2)
C9 C8 C23 O1 -174.5(3)
C9 C8 C23 O2 6.9(3)
C9 C10 C11 C12 -76.1(2)
C9 C10 C11 N1 40.4(2)
C10 C11 C12 C13 106.5(2)
C10 C11 C12 C14 -15.0(3)
C10 C11 C12 C15 -138.3(2)
C10 C11 N1 N2 -115.14(19)
C10 C11 N1 S1 109.85(18)
C11 C12 C13 C17 -163.9(2)
C11 C12 C13 N2 13.6(2)
C11 N1 N2 C13 -3.4(2)
C11 N1 S1 C16 -163.91(19)
C11 N1 S1 O3 -48.0(2)
C11 N1 S1 O4 81.0(2)
C12 C11 N1 N2 11.4(2)
C12 C11 N1 S1 -123.63(16)
C12 C13 C17 C18 -46.2(3)
C12 C13 C17 C22 133.3(2)
C12 C13 N2 N1 -6.9(3)
C13 C17 C18 C19 -179.6(3)
C13 C17 C22 C21 -179.5(2)
C14 C12 C13 C17 -40.8(3)
C14 C12 C13 N2 136.6(2)
C15 C12 C13 C17 81.7(3)
C15 C12 C13 N2 -100.8(2)
C17 C13 N2 N1 170.78(18)
C17 C18 C19 C20 -0.8(5)
C18 C17 C22 C21 0.0(4)
C18 C19 C20 C21 -0.2(5)
C19 C20 C21 C22 1.0(5)
C20 C21 C22 C17 -0.9(4)
C22 C17 C18 C19 0.9(4)
C23 C8 C9 C10 -85.9(2)
C25 C24 O2 C23 -176.8(3)
N1 C11 C12 C13 -13.58(19)
N1 C11 C12 C14 -135.0(2)
N1 C11 C12 C15 101.6(2)
N2 C13 C17 C18 136.4(3)
N2 C13 C17 C22 -44.1(3)
N2 N1 S1 C16 61.8(2)
N2 N1 S1 O3 177.72(16)
N2 N1 S1 O4 -53.3(2)
O1 C23 O2 C24 1.7(4)
S1 N1 N2 C13 134.53(16)
