#------------------------------------------------------------------------------
#$Date: 2017-09-12 06:12:27 +0300 (Tue, 12 Sep 2017) $
#$Revision: 200607 $
#$URL: file:///home/coder/svn-repositories/cod/cif/1/54/70/1547089.cif $
#------------------------------------------------------------------------------
#
# This file is available in the Crystallography Open Database (COD),
# http://www.crystallography.net/
#
# All data on this site have been placed in the public domain by the
# contributors.
#
data_1547089
loop_
_publ_author_name
'Prasad, Sure Siva'
'Senthilkumar, Soundararasu'
'Srivastava, Akriti'
'Baskaran, Sundarababu'
_publ_section_title
;
 Iminosugar C-Nitromethyl Glycosides and Divergent Synthesis of Bicyclic
 Iminosugars.
;
_journal_issue                   16
_journal_name_full               'Organic letters'
_journal_page_first              4403
_journal_page_last               4406
_journal_paper_doi               10.1021/acs.orglett.7b02175
_journal_volume                  19
_journal_year                    2017
_chemical_absolute_configuration ad
_chemical_formula_moiety         'C19 H25 N3 O7 S'
_chemical_formula_sum            'C19 H25 N3 O7 S'
_chemical_formula_weight         439.48
_space_group_crystal_system      triclinic
_space_group_IT_number           1
_space_group_name_Hall           'P 1'
_space_group_name_H-M_alt        'P 1'
_symmetry_space_group_name_Hall  'P 1'
_symmetry_space_group_name_H-M   'P 1'
_atom_sites_solution_hydrogens   geom
_audit_creation_method           SHELXL-2014/7
_cell_angle_alpha                95.115(2)
_cell_angle_beta                 90.454(2)
_cell_angle_gamma                97.456(2)
_cell_formula_units_Z            2
_cell_length_a                   5.8603(2)
_cell_length_b                   8.7507(3)
_cell_length_c                   19.9834(6)
_cell_measurement_reflns_used    6906
_cell_measurement_temperature    296(2)
_cell_measurement_theta_max      25.83
_cell_measurement_theta_min      2.36
_cell_volume                     1011.87(6)
_computing_cell_refinement       'Bruker SAINT'
_computing_data_collection       'Bruker APEX2'
_computing_data_reduction        'Bruker SAINT'
_computing_molecular_graphics    'Bruker SHELXTL'
_computing_publication_material  'Bruker SHELXTL'
_computing_structure_refinement  'SHELXL-2014/7 (Sheldrick, 2014)'
_computing_structure_solution    'SHELXS-97 (Sheldrick 2008)'
_diffrn_ambient_temperature      296(2)
_diffrn_measured_fraction_theta_full 0.992
_diffrn_measured_fraction_theta_max 0.992
_diffrn_measurement_device_type  'Bruker axs kappa apex2 CCD Diffractometer'
_diffrn_measurement_method       '\w and \f scan'
_diffrn_radiation_monochromator  graphite
_diffrn_radiation_source         'fine-focus sealed tube'
_diffrn_radiation_type           MoK\a
_diffrn_radiation_wavelength     0.71073
_diffrn_reflns_av_R_equivalents  0.0184
_diffrn_reflns_av_unetI/netI     0.0261
_diffrn_reflns_Laue_measured_fraction_full 0.992
_diffrn_reflns_Laue_measured_fraction_max 0.992
_diffrn_reflns_limit_h_max       6
_diffrn_reflns_limit_h_min       -6
_diffrn_reflns_limit_k_max       10
_diffrn_reflns_limit_k_min       -10
_diffrn_reflns_limit_l_max       23
_diffrn_reflns_limit_l_min       -23
_diffrn_reflns_number            13391
_diffrn_reflns_point_group_measured_fraction_full 0.848
_diffrn_reflns_point_group_measured_fraction_max 0.848
_diffrn_reflns_theta_full        24.999
_diffrn_reflns_theta_max         24.999
_diffrn_reflns_theta_min         1.023
_exptl_absorpt_coefficient_mu    0.208
_exptl_absorpt_correction_T_max  0.973
_exptl_absorpt_correction_T_min  0.950
_exptl_absorpt_correction_type   multi-scan
_exptl_absorpt_process_details   'SADABS (bruker, 2004)'
_exptl_crystal_colour            white
_exptl_crystal_density_diffrn    1.442
_exptl_crystal_description       block
_exptl_crystal_F_000             464
_exptl_crystal_size_max          0.250
_exptl_crystal_size_mid          0.220
_exptl_crystal_size_min          0.130
_refine_diff_density_max         0.345
_refine_diff_density_min         -0.221
_refine_diff_density_rms         0.040
_refine_ls_abs_structure_details
;
 Flack x determined using 2164 quotients [(I+)-(I-)]/[(I+)+(I-)]
 (Parsons, Flack and Wagner, Acta Cryst. B69 (2013) 249-259).
;
_refine_ls_abs_structure_Flack   0.07(2)
_refine_ls_extinction_method     none
_refine_ls_goodness_of_fit_ref   1.048
_refine_ls_hydrogen_treatment    constr
_refine_ls_matrix_type           full
_refine_ls_number_parameters     557
_refine_ls_number_reflns         6034
_refine_ls_number_restraints     39
_refine_ls_restrained_S_all      1.061
_refine_ls_R_factor_all          0.0412
_refine_ls_R_factor_gt           0.0377
_refine_ls_shift/su_max          0.000
_refine_ls_shift/su_mean         0.000
_refine_ls_structure_factor_coef Fsqd
_refine_ls_weighting_details
'w=1/[\s^2^(Fo^2^)+(0.0537P)^2^+0.2836P] where P=(Fo^2^+2Fc^2^)/3'
_refine_ls_weighting_scheme      calc
_refine_ls_wR_factor_gt          0.0948
_refine_ls_wR_factor_ref         0.0976
_reflns_Friedel_coverage         0.710
_reflns_Friedel_fraction_full    0.705
_reflns_Friedel_fraction_max     0.705
_reflns_number_gt                5618
_reflns_number_total             6034
_reflns_threshold_expression     'I > 2\s(I)'
_cod_data_source_file            ol7b02175_si_002.cif
_cod_data_source_block           525
_cod_database_code               1547089
_shelx_shelxl_version_number     2014/7
_shelx_space_group_comment
;
The symmetry employed for this shelxl refinement is uniquely defined
by the following loop, which should always be used as a source of
symmetry information in preference to the above space-group names.
They are only intended as comments.
;
_shelx_estimated_absorpt_t_min   0.950
_shelx_estimated_absorpt_t_max   0.973
_shelx_res_file
;

    525.res created by SHELXL-2014/7

TITL 525 in P1
CELL  0.71073   5.8603   8.7507  19.9834   95.115   90.454   97.456
ZERR     2.00   0.0002   0.0003   0.0006    0.002    0.002    0.002
LATT  -1
SFAC  C    H    N    O    S
UNIT  38   50   6    14   2
MERG   2
OMIT    -3.00  50.00
SADI 0.02 C29 C28 C27 C28 C29 C28' C27 C28'
SIMU 0.02 0.04 C27 > C29
EQIV $1 x, y+1, z
HTAB C8 O3_$1
HTAB C8 O7
EQIV $2 x-1, y, z
HTAB C9 O6_$2
HTAB C9 O2_$1
HTAB C27 O14
HTAB C27 O13
EQIV $3 x+1, y, z
HTAB C28 O13_$3
EQIV $4 x, y-1, z
HTAB C28 O9_$4
HTAB C28' O9_$4
HTAB C28' O11_$2
HTAB C30 O10
HTAB C31 O11_$2
EQIV $5 x-1, y-1, z
HTAB O3 O6_$5
FMAP   2
PLAN    5
SIZE     0.13   0.22   0.25
ACTA

BOND   $H
CONF
L.S.   8
TEMP    23.00
WGHT    0.053700    0.283600
FVAR       0.24191   0.59753
C1    1    0.390083    0.318526    0.555458    11.00000    0.08441    0.05253 =
         0.04239    0.00675    0.01464    0.00430
AFIX 137
H1A   2    0.434797    0.217927    0.559380    11.00000   -1.50000
H1B   2    0.312821    0.350865    0.595423    11.00000   -1.50000
H1C   2    0.524486    0.391142    0.549754    11.00000   -1.50000
AFIX   0
C2    1    0.230600    0.311707    0.495673    11.00000    0.04950    0.02999 =
         0.04770    0.00601    0.01900    0.00528
C3    1    0.008226    0.206746    0.501308    11.00000    0.06476    0.03972 =
         0.08897    0.01323    0.03499   -0.00698
AFIX 137
H3A   2   -0.086728    0.209392    0.462168    11.00000   -1.50000
H3B   2   -0.070757    0.241031    0.540634    11.00000   -1.50000
H3C   2    0.040305    0.102860    0.504716    11.00000   -1.50000
AFIX   0
C4    1    0.275659    0.348067    0.384280    11.00000    0.02858    0.02599 =
         0.04671    0.00168   -0.00110    0.00035
AFIX  13
H4    2    0.122156    0.300531    0.368163    11.00000   -1.20000
AFIX   0
C5    1    0.442627    0.349026    0.326389    11.00000    0.04184    0.02286 =
         0.03239   -0.00073   -0.00089    0.00359
AFIX  13
H5    2    0.371842    0.389716    0.288283    11.00000   -1.20000
AFIX   0
C6    1    0.667041    0.448447    0.344381    11.00000    0.03441    0.02179 =
         0.03807    0.00191    0.00831    0.00524
AFIX  23
H6A   2    0.748274    0.403570    0.378643    11.00000   -1.20000
H6B   2    0.762912    0.454288    0.305108    11.00000   -1.20000
AFIX   0
C7    1    0.708963    0.731528    0.339987    11.00000    0.02614    0.02196 =
         0.03085    0.00163   -0.00430   -0.00072
C8    1    0.645447    0.886126    0.367772    11.00000    0.05701    0.02100 =
         0.03906    0.00608    0.00709    0.00618
AFIX  23
H8A   2    0.607162    0.942841    0.330585    11.00000   -1.20000
H8B   2    0.778649    0.944913    0.391242    11.00000   -1.20000
AFIX   0
C9    1    0.445795    0.875372    0.415257    11.00000    0.05289    0.02484 =
         0.04725   -0.00210    0.00744    0.00925
AFIX  23
H9A   2    0.303651    0.843426    0.389666    11.00000   -1.20000
H9B   2    0.436612    0.976686    0.438299    11.00000   -1.20000
AFIX   0
C10   1    0.471129    0.761478    0.466537    11.00000    0.04262    0.02878 =
         0.03540   -0.00338    0.00874    0.00075
AFIX  13
H10   2    0.333097    0.752995    0.494029    11.00000   -1.20000
AFIX   0
C11   1    0.497877    0.601912    0.432884    11.00000    0.03047    0.02125 =
         0.03426    0.00156    0.00446    0.00072
AFIX  13
H11   2    0.586396    0.550439    0.463859    11.00000   -1.20000
AFIX   0
C12   1    0.260412    0.504859    0.421917    11.00000    0.02802    0.02818 =
         0.04509    0.00373    0.00635    0.00379
AFIX  13
H12   2    0.154136    0.561351    0.398866    11.00000   -1.20000
AFIX   0
C13   1    1.091590    0.754051    0.184151    11.00000    0.02851    0.02886 =
         0.03341    0.00396    0.00328   -0.00868
C14   1    1.284047    0.689972    0.200443    11.00000    0.03631    0.05089 =
         0.03859    0.00372   -0.00311    0.00146
AFIX  43
H14   2    1.337154    0.699237    0.244785    11.00000   -1.20000
AFIX   0
C15   1    1.399372    0.611387    0.150782    11.00000    0.03553    0.04999 =
         0.05441    0.00648    0.00717    0.00702
AFIX  43
H15   2    1.529485    0.567780    0.161956    11.00000   -1.20000
AFIX   0
C16   1    1.321293    0.597556    0.084413    11.00000    0.04725    0.03671 =
         0.04628   -0.00293    0.01575   -0.01030
C17   1    1.129184    0.662413    0.069953    11.00000    0.04998    0.05248 =
         0.03283   -0.00069    0.00775   -0.00560
AFIX  43
H17   2    1.075103    0.652534    0.025696    11.00000   -1.20000
AFIX   0
C18   1    1.012825    0.741347    0.117821    11.00000    0.03671    0.04959 =
         0.03852    0.00928   -0.00064    0.00227
AFIX  43
H18   2    0.883741    0.785580    0.106233    11.00000   -1.20000
AFIX   0
C19   1    1.451712    0.514925    0.031183    11.00000    0.06422    0.05491 =
         0.06032   -0.00431    0.02716    0.00100
AFIX 137
H19A  2    1.346398    0.464619   -0.003432    11.00000   -1.50000
H19B  2    1.528996    0.439059    0.050825    11.00000   -1.50000
H19C  2    1.563067    0.588304    0.012148    11.00000   -1.50000
AFIX   0
C20   1    0.908873    0.611411    0.640229    11.00000    0.10423    0.12445 =
         0.04501    0.00239   -0.00136    0.02317
AFIX 137
H20A  2    0.976560    0.566659    0.600806    11.00000   -1.50000
H20B  2    0.901455    0.719087    0.636004    11.00000   -1.50000
H20C  2    0.756356    0.558956    0.645048    11.00000   -1.50000
AFIX   0
C21   1    1.052846    0.595070    0.700832    11.00000    0.07553    0.03697 =
         0.04556    0.00326    0.01602    0.00979
C22   1    1.290245    0.680106    0.695542    11.00000    0.09115    0.06294 =
         0.12425    0.02081    0.01668   -0.00009
AFIX 137
H22A  2    1.371632    0.683273    0.737627    11.00000   -1.50000
H22B  2    1.279801    0.783748    0.684773    11.00000   -1.50000
H22C  2    1.371302    0.627742    0.660838    11.00000   -1.50000
AFIX   0
C23   1    0.819286    0.529614    0.789551    11.00000    0.07115    0.04166 =
         0.04292   -0.00145    0.01109    0.00923
AFIX  13
H23   2    0.654441    0.533849    0.782903    11.00000   -1.20000
AFIX   0
C24   1    0.875212    0.537780    0.863894    11.00000    0.09730    0.02512 =
         0.03836   -0.00240    0.01809   -0.00073
AFIX  13
H24   2    0.810692    0.625947    0.886620    11.00000   -1.20000
AFIX   0
C25   1    0.759292    0.389333    0.890519    11.00000    0.10190    0.02856 =
         0.04771   -0.00311    0.02115    0.00283
AFIX  23
H25A  2    0.808502    0.386744    0.936818    11.00000   -1.20000
H25B  2    0.593881    0.389896    0.889860    11.00000   -1.20000
AFIX   0
C26   1    0.716170    0.112419    0.869304    11.00000    0.05051    0.02524 =
         0.04502    0.00238   -0.00279   -0.00161
C27   1    0.769372   -0.031197    0.830032    11.00000    0.10811    0.02753 =
         0.09498    0.00488    0.05323   -0.00056
PART    1
AFIX  23
H27A  2    0.658030   -0.060112    0.793447    21.00000   -1.20000
H27B  2    0.760165   -0.115374    0.858770    21.00000   -1.20000
AFIX  23
PART    2
H27C  2    0.641413   -0.112428    0.832981   -21.00000   -1.20000
H27D  2    0.904086   -0.064632    0.849823   -21.00000   -1.20000
AFIX   0
PART    1
C28   1    1.017179   -0.001793    0.801322    21.00000    0.08563    0.03467 =
         0.05935   -0.00004    0.02712    0.01280
AFIX  23
H28A  2    1.130115    0.034415    0.836864    21.00000   -1.20000
H28B  2    1.059650   -0.094925    0.777326    21.00000   -1.20000
AFIX   0
PART    2
C28'  1    0.815983   -0.007528    0.752644   -21.00000    0.06347    0.02815 =
         0.08421   -0.00887    0.02332    0.00312
AFIX  23
H28C  2    0.864598   -0.099512    0.729329   -21.00000   -1.20000
H28D  2    0.678937    0.016257    0.730360   -21.00000   -1.20000
AFIX   0
PART    0
C29   1    0.996700    0.120803    0.754667    11.00000    0.07799    0.04544 =
         0.10757   -0.02295    0.05028   -0.00858
PART    1
AFIX  13
H29A  2    0.860955    0.089842    0.725234    21.00000   -1.20000
AFIX  13
PART    2
H29B  2    1.075768    0.083514    0.792177   -21.00000   -1.20000
AFIX   0
PART    0
C30   1    0.972572    0.272158    0.794502    11.00000    0.05685    0.03104 =
         0.05578   -0.00753    0.01844   -0.00892
AFIX  13
H30   2    1.124349    0.317391    0.812894    11.00000   -1.20000
AFIX   0
C31   1    0.886832    0.383226    0.750107    11.00000    0.08420    0.03614 =
         0.04213   -0.00611    0.02086   -0.01019
AFIX  13
H31   2    0.757376    0.331258    0.721788    11.00000   -1.20000
AFIX   0
C32   1    0.319997    0.048639    1.019454    11.00000    0.05413    0.03739 =
         0.04547    0.01193    0.00521   -0.00759
C33   1    0.405647    0.058323    1.083744    11.00000    0.04891    0.05112 =
         0.05346    0.01640    0.00183   -0.00212
AFIX  43
H33   2    0.538440    0.015711    1.093083    11.00000   -1.20000
AFIX   0
C34   1    0.289961    0.133475    1.135222    11.00000    0.06582    0.06382 =
         0.03486    0.01385   -0.00561   -0.01697
AFIX  43
H34   2    0.346690    0.139741    1.179114    11.00000   -1.20000
AFIX   0
C35   1    0.092481    0.198928    1.122354    11.00000    0.04678    0.04398 =
         0.04919    0.01011    0.00610   -0.01720
C36   1    0.011289    0.185065    1.056540    11.00000    0.05717    0.06088 =
         0.04856    0.00467   -0.00350    0.00091
AFIX  43
H36   2   -0.122375    0.226085    1.046623    11.00000   -1.20000
AFIX   0
C37   1    0.122905    0.112758    1.006150    11.00000    0.05615    0.06385 =
         0.04233    0.00550   -0.00367   -0.00355
AFIX  43
H37   2    0.066076    0.106359    0.962265    11.00000   -1.20000
AFIX   0
C38   1   -0.032365    0.278887    1.177342    11.00000    0.07335    0.05586 =
         0.05886   -0.00341    0.01405   -0.01132
AFIX 137
H38A  2    0.010521    0.246586    1.219824    11.00000   -1.50000
H38B  2   -0.195327    0.252512    1.169951    11.00000   -1.50000
H38C  2    0.007647    0.388840    1.177515    11.00000   -1.50000
AFIX   0
N1    3    0.620832    0.604937    0.369610    11.00000    0.03469    0.01766 =
         0.03427    0.00302    0.00771    0.00309
N2    3    0.677222    0.823432    0.511480    11.00000    0.07023    0.03546 =
         0.03517    0.00316   -0.00102   -0.00817
N3    3    0.842875    0.710648    0.289453    11.00000    0.03474    0.02460 =
         0.03700    0.00552    0.00841   -0.00005
O1    4    0.173987    0.465813    0.485097    11.00000    0.04960    0.02680 =
         0.06125    0.00415    0.03260    0.00364
O2    4    0.351570    0.266162    0.437148    11.00000    0.04163    0.02517 =
         0.04120    0.00469    0.01283    0.00510
O3    4    0.495840    0.199645    0.305605    11.00000    0.05061    0.02214 =
         0.05150   -0.00803    0.00712    0.00045
AFIX  83
H3    2    0.376696    0.141868    0.295410    11.00000   -1.50000
AFIX   0
O4    4    0.865011    0.787130    0.496166    11.00000    0.05238    0.06572 =
         0.06983   -0.00284   -0.01570   -0.00318
O5    4    0.645110    0.913025    0.559647    11.00000    0.10806    0.07565 =
         0.05781   -0.02984    0.00054   -0.00536
O6    4    1.118640    0.954884    0.289073    11.00000    0.05364    0.03525 =
         0.04155   -0.00068    0.00409   -0.01629
O7    4    0.774975    0.925703    0.216516    11.00000    0.05250    0.03830 =
         0.04715    0.01213    0.00574    0.01016
S1    5    0.949489    0.854429    0.247415    11.00000    0.03867    0.02528 =
         0.03454    0.00548    0.00524   -0.00338
N4    3    0.813721    0.249342    0.850944    11.00000    0.05226    0.02695 =
         0.04244   -0.00423    0.01327   -0.00650
N5    3    1.198927    0.128873    0.715185    11.00000    0.07868    0.06238 =
         0.08953   -0.00437    0.03427    0.00865
N6    3    0.579985    0.115568    0.921131    11.00000    0.05688    0.03241 =
         0.04398    0.00306    0.01026   -0.00340
O8    4    1.073477    0.439402    0.709393    11.00000    0.12643    0.03622 =
         0.08286    0.01040    0.06246    0.01166
O9    4    0.947096    0.652521    0.759735    11.00000    0.11774    0.03305 =
         0.04508    0.00600    0.02292    0.01314
O10   4    1.112458    0.554902    0.878359    11.00000    0.10040    0.04062 =
         0.06180   -0.00063   -0.01340   -0.00667
AFIX  83
H10A  2    1.183635    0.557595    0.843230    11.00000   -1.50000
AFIX   0
O11   4    1.383662    0.186601    0.735826    11.00000    0.07443    0.19493 =
         0.16834    0.05260    0.02033   -0.00214
O12   4    1.169913    0.076344    0.657748    11.00000    0.26087    0.08668 =
         0.07952   -0.01292    0.07384   -0.02139
O13   4    0.293996   -0.125840    0.906147    11.00000    0.08453    0.04825 =
         0.07396   -0.01513    0.01038   -0.02671
O14   4    0.631957   -0.124312    0.978325    11.00000    0.08510    0.04877 =
         0.09342    0.03108    0.02608    0.01968
S2    5    0.463475   -0.039008    0.952243    11.00000    0.06395    0.03160 =
         0.05798    0.00632    0.01235   -0.00915
HKLF    4

REM  525 in P1
REM R1 =  0.0377 for    5618 Fo > 4sig(Fo)  and  0.0412 for all    6034 data
REM    557 parameters refined using     39 restraints

END

WGHT      0.0537      0.2844

REM Highest difference peak  0.345,  deepest hole -0.221,  1-sigma level  0.040
Q1    1   1.3040  0.1056  0.7961  11.00000  0.05    0.35
Q2    1   0.9044  0.4177  0.6889  11.00000  0.05    0.27
Q3    1   1.2565  0.0753  0.7667  11.00000  0.05    0.27
Q4    1   1.2624  0.5810  0.7220  11.00000  0.05    0.18
Q5    1   1.3246  0.0314  0.7020  11.00000  0.05    0.17
;
_shelx_res_checksum              92723
_shelx_hkl_file
;
  -1   0   0   40.05    0.76
   1   0   0   40.41    0.76
  -2   0   0   24.74    0.59
  -3   0   0    9.77    0.37
   3   0   0   10.44    0.41
  -4   0   0    1.94    0.26
  -4   0   0    1.56    0.20
   4   0   0    1.88    0.23
  -5   0   0    3.54    0.39
  -5   0   0    2.93    0.19
   5   0   0    3.28    0.35
  -6   0   0    6.44    0.52
  -7   0   0    0.33    0.25
  -7   1   0    0.14    0.24
  -6   1   0    1.47    0.32
  -5   1   0    6.20    0.21
  -4   1   0    9.78    0.26
  -3   1   0   15.35    0.33
  -2   1   0    0.93    0.11
  -2   1   0    1.22    0.06
   1  -1   0   20.79    0.38
  -1   1   0   20.40    0.38
   0  -1   0   24.67    0.43
   0  -1   0   24.62    0.45
   0  -1   0   23.94    0.45
   0  -1   0   23.46    0.43
   0  -1   0   22.49    0.44
   0   1   0   24.49    0.45
   0   1   0   23.33    0.43
   0   1   0   22.94    0.44
   0   1   0   23.98    0.43
  -1  -1   0  159.73    2.61
  -1  -1   0  157.93    2.62
  -1  -1   0  158.25    2.64
   1   1   0  153.42    2.69
   1   1   0  150.79    2.67
   1   1   0  162.93    2.65
  -2  -1   0    9.68    0.30
  -2  -1   0   10.08    0.32
  -2  -1   0    9.32    0.33
   2   1   0   10.19    0.34
  -3  -1   0    2.18    0.17
  -3  -1   0    1.97    0.21
   3   1   0    2.11    0.22
  -4  -1   0    0.03    0.08
  -4  -1   0    0.05    0.12
   4   1   0    0.12    0.11
  -5  -1   0    2.46    0.32
   5   1   0    2.09    0.30
  -6  -1   0    2.05    0.33
   6   1   0    1.89    0.32
  -7  -1   0    0.22    0.24
  -7   2   0    0.04    0.24
  -4   2   0    6.56    0.18
  -3   2   0   14.73    0.32
   2  -2   0   14.46    0.32
  -2   2   0   14.15    0.31
  -2   2   0   13.79    0.30
   1  -2   0   24.40    0.50
   1  -2   0   25.36    0.50
  -1   2   0   25.14    0.52
  -1   2   0   24.22    0.52
  -1   2   0   24.73    0.50
  -1   2   0   25.03    0.45
  -1   2   0   24.45    0.48
  -1   2   0   25.29    0.52
   0  -2   0    5.28    0.16
   0  -2   0    4.91    0.15
   0  -2   0    4.99    0.18
   0  -2   0    4.84    0.18
   0  -2   0    4.84    0.17
   0   2   0    5.29    0.16
   0   2   0    4.90    0.17
   0   2   0    5.26    0.19
  -1  -2   0  191.62    3.08
  -1  -2   0  186.75    3.12
  -1  -2   0  185.81    3.16
  -1  -2   0  185.89    3.16
   1   2   0  182.89    3.14
   1   2   0  182.45    3.17
   1   2   0  183.13    3.08
   1   2   0  186.57    3.12
   1   2   0  183.90    3.11
  -2  -2   0   68.91    1.28
  -2  -2   0   69.52    1.36
  -2  -2   0   68.85    1.20
  -2  -2   0   68.97    1.25
  -2  -2   0   69.84    1.29
   2   2   0   68.72    1.37
   2   2   0   70.22    1.33
   2   2   0   66.38    1.38
  -3  -2   0   20.95    0.55
  -3  -2   0   20.71    0.47
  -3  -2   0   20.00    0.48
  -3  -2   0   19.49    0.60
   3   2   0   19.38    0.62
  -4  -2   0   16.00    0.54
  -4  -2   0   16.67    0.61
   4   2   0   16.48    0.63
  -5  -2   0    0.58    0.19
   5   2   0    0.49    0.18
  -6  -2   0    2.47    0.36
   6   2   0    2.64    0.38
  -6   3   0    0.75    0.17
  -4   3   0    2.04    0.11
   3  -3   0    9.11    0.26
  -3   3   0    9.23    0.26
  -3   3   0    8.70    0.29
  -3   3   0    9.20    0.26
   2  -3   0    1.09    0.11
  -2   3   0    1.27    0.11
  -2   3   0    1.29    0.12
  -2   3   0    1.29    0.13
  -2   3   0    1.09    0.10
   1  -3   0    0.55    0.05
   1  -3   0    0.57    0.07
   1  -3   0    0.53    0.09
   1  -3   0    1.07    0.11
  -1   3   0    0.59    0.09
  -1   3   0    0.40    0.07
  -1   3   0    0.47    0.07
  -1   3   0    0.62    0.09
   0  -3   0   69.29    1.29
   0  -3   0   71.28    1.27
   0  -3   0   70.78    1.33
   0  -3   0   69.68    1.32
   0   3   0   67.71    1.25
   0   3   0   65.56    1.28
   0   3   0   71.37    1.33
  -1  -3   0   46.16    0.84
  -1  -3   0   43.46    0.90
  -1  -3   0   45.13    0.93
   1   3   0   42.79    0.91
   1   3   0   45.73    0.84
   1   3   0   43.16    0.91
  -2  -3   0   66.26    1.33
  -2  -3   0   67.09    1.26
  -2  -3   0   66.51    1.31
  -2  -3   0   67.30    1.19
   2   3   0   66.82    1.39
   2   3   0   66.02    1.35
   2   3   0   65.58    1.23
   2   3   0   66.52    1.30
  -3  -3   0    4.06    0.27
  -3  -3   0    4.49    0.16
  -3  -3   0    4.20    0.23
  -3  -3   0    4.66    0.25
  -3  -3   0    4.39    0.22
   3   3   0    4.41    0.26
   3   3   0    5.03    0.30
  -4  -3   0    0.65    0.12
  -4  -3   0    1.22    0.15
  -4  -3   0    1.03    0.10
  -4  -3   0    0.95    0.15
  -4  -3   0    0.79    0.20
   4   3   0    1.01    0.20
  -5  -3   0    0.21    0.13
  -5  -3   0    0.24    0.17
   5   3   0    0.45    0.19
  -6  -3   0    3.17    0.38
   6   3   0    3.29    0.44
  -7   4   0    0.08    0.17
  -6   4   0    3.94    0.34
  -5   4   0    1.04    0.13
  -5   4   0    0.86    0.16
   4  -4   0    6.51    0.24
  -4   4   0    7.25    0.24
  -4   4   0    7.18    0.31
  -4   4   0    6.95    0.33
  -4   4   0    7.28    0.26
   3  -4   0   39.95    0.84
  -3   4   0   41.04    0.84
  -3   4   0   40.01    0.93
  -3   4   0   40.75    0.91
  -3   4   0   41.42    0.83
   2  -4   0   11.73    0.36
   2  -4   0   12.28    0.33
  -2   4   0   11.67    0.40
  -2   4   0   11.45    0.38
  -2   4   0   11.77    0.36
  -2   4   0   11.67    0.39
  -2   4   0   11.99    0.34
   1  -4   0   18.29    0.50
   1  -4   0   18.92    0.50
   1  -4   0   18.86    0.39
  -1   4   0   17.62    0.48
  -1   4   0   18.17    0.45
  -1   4   0   18.78    0.53
   0  -4   0   24.88    0.63
   0  -4   0   24.75    0.57
   0  -4   0   24.84    0.60
   0   4   0   23.47    0.59
   0   4   0   25.25    0.64
   0   4   0   25.26    0.57
  -1  -4   0    0.35    0.07
  -1  -4   0    0.45    0.11
  -1  -4   0    0.26    0.10
  -1  -4   0    0.47    0.10
   1   4   0    0.39    0.07
   1   4   0    0.25    0.08
   1   4   0    0.67    0.12
  -2  -4   0   12.76    0.46
  -2  -4   0   13.39    0.34
  -2  -4   0   13.15    0.46
  -2  -4   0   13.14    0.45
   2   4   0   14.02    0.42
   2   4   0   13.47    0.41
  -3  -4   0   28.88    0.70
  -3  -4   0   28.60    0.60
  -3  -4   0   28.29    0.75
  -3  -4   0   28.11    0.78
   3   4   0   27.65    0.81
   3   4   0   28.06    0.76
  -4  -4   0    1.20    0.22
  -4  -4   0    0.67    0.15
   4   4   0    0.80    0.19
  -5  -4   0    4.18    0.37
  -5  -4   0    4.16    0.31
   5   4   0    3.83    0.43
  -6  -4   0    0.34    0.18
  -6  -4   0    0.68    0.24
   6   4   0    0.16    0.21
  -6   5   0    0.08    0.14
  -6   5   0    0.01    0.13
  -5   5   0    5.43    0.36
  -5   5   0    5.61    0.27
  -5   5   0    6.15    0.35
   4  -5   0    4.98    0.25
  -4   5   0    5.66    0.34
  -4   5   0    5.50    0.26
  -4   5   0    6.01    0.32
   3  -5   0   21.37    0.56
  -3   5   0   21.60    0.55
  -3   5   0   20.45    0.62
  -3   5   0   21.41    0.47
  -3   5   0   21.20    0.62
   2  -5   0   19.59    0.55
   2  -5   0   19.42    0.51
  -2   5   0   18.97    0.59
  -2   5   0   18.83    0.50
  -2   5   0   18.70    0.55
   1  -5   0   16.69    0.50
   1  -5   0   16.80    0.52
   1  -5   0   16.97    0.38
  -1   5   0   16.26    0.48
  -1   5   0   16.41    0.46
  -1   5   0   15.96    0.53
   0  -5   0    5.47    0.28
   0  -5   0    5.46    0.24
   0   5   0    5.39    0.29
   0   5   0    5.59    0.24
  -1  -5   0    0.44    0.09
  -1  -5   0    0.54    0.13
   1   5   0    0.55    0.09
   1   5   0    0.60    0.12
  -2  -5   0   25.13    0.70
  -2  -5   0   24.85    0.58
   2   5   0   24.60    0.66
   2   5   0   24.44    0.63
  -3  -5   0   34.41    0.73
  -3  -5   0   34.68    0.93
   3   5   0   33.84    0.97
   3   5   0   35.02    0.89
  -4  -5   0    0.51    0.15
  -4  -5   0    0.74    0.20
   4   5   0    0.85    0.20
  -5  -5   0    2.54    0.32
  -5  -5   0    3.60    0.32
   5   5   0    3.53    0.43
  -6  -5   0    0.98    0.31
  -6  -5   0    0.83    0.21
  -6   6   0    1.31    0.24
  -6   6   0    1.07    0.22
  -5   6   0    0.25    0.14
  -5   6   0    0.38    0.12
  -5   6   0    0.41    0.16
  -4   6   0    6.03    0.30
  -4   6   0    5.43    0.35
  -4   6   0    5.89    0.36
  -4   6   0    5.35    0.23
   3  -6   0   12.86    0.45
   3  -6   0   12.10    0.37
  -3   6   0   11.64    0.47
  -3   6   0   12.62    0.51
  -3   6   0   12.46    0.42
   2  -6   0    6.05    0.30
  -2   6   0    6.06    0.28
  -2   6   0    6.64    0.32
  -2   6   0    6.51    0.36
   1  -6   0    3.25    0.16
   1  -6   0    3.29    0.25
  -1   6   0    3.43    0.27
  -1   6   0    3.70    0.22
  -1   6   0    3.30    0.22
   0  -6   0    4.46    0.28
   0   6   0    3.93    0.27
   0   6   0    3.80    0.22
  -1  -6   0   11.54    0.46
   1   6   0   11.75    0.47
   1   6   0   11.08    0.38
  -2  -6   0    9.13    0.44
   2   6   0    9.26    0.37
   2   6   0    9.09    0.39
  -3  -6   0    2.40    0.29
   3   6   0    2.31    0.29
   3   6   0    2.34    0.24
  -4  -6   0    1.60    0.26
   4   6   0    1.12    0.26
  -5  -6   0    0.05    0.17
   5   6   0   -0.08    0.16
  -6   7   0    0.96    0.25
  -6   7   0    0.18    0.18
  -6   7   0    0.46    0.16
  -5   7   0    1.46    0.24
  -5   7   0    1.71    0.21
  -5   7   0    1.45    0.26
  -4   7   0    0.83    0.20
  -4   7   0    1.07    0.20
  -4   7   0    0.96    0.17
   3  -7   0   11.37    0.40
  -3   7   0   11.30    0.44
  -3   7   0   10.89    0.52
  -3   7   0   10.88    0.48
   2  -7   0    5.17    0.31
  -2   7   0    5.76    0.30
  -2   7   0    5.44    0.37
  -2   7   0    5.42    0.32
   1  -7   0   12.93    0.36
   1  -7   0   12.87    0.51
  -1   7   0   12.63    0.55
  -1   7   0   12.58    0.46
   0  -7   0    2.93    0.28
   0   7   0    2.42    0.23
   0   7   0    2.74    0.26
  -1  -7   0    4.50    0.33
   1   7   0    4.25    0.31
   1   7   0    4.31    0.26
  -2  -7   0    1.50    0.24
   2   7   0    1.67    0.19
  -3  -7   0    6.46    0.43
   3   7   0    6.53    0.45
   3   7   0    6.29    0.36
  -4  -7   0    0.63    0.22
   4   7   0    0.57    0.22
  -5   8   0    0.22    0.17
  -5   8   0    0.07    0.13
  -5   8   0    0.10    0.15
  -4   8   0    1.32    0.27
  -4   8   0    1.04    0.19
  -4   8   0    1.19    0.22
   3  -8   0    1.00    0.18
  -3   8   0    1.10    0.21
  -3   8   0    1.65    0.22
  -3   8   0    1.27    0.25
   2  -8   0    0.54    0.16
  -2   8   0    0.41    0.16
  -2   8   0    0.47    0.13
  -2   8   0    0.49    0.14
   1  -8   0    4.94    0.36
   1  -8   0    4.65    0.22
  -1   8   0    4.90    0.38
  -1   8   0    4.85    0.32
   0  -8   0   12.68    0.54
   0   8   0   12.62    0.57
   0   8   0   12.65    0.48
  -1  -8   0    0.06    0.15
   1   8   0    0.14    0.09
   1   8   0    0.19    0.13
  -2  -8   0    5.29    0.40
   2   8   0    5.62    0.32
  -3  -8   0    2.85    0.36
   3   8   0    2.63    0.35
   3   8   0    2.72    0.29
  -4  -8   0    0.90    0.26
   4   8   0    1.09    0.26
  -4   9   0    1.22    0.29
  -4   9   0    1.08    0.20
  -4   9   0    0.87    0.21
   3  -9   0    0.42    0.17
  -3   9   0    0.26    0.15
  -3   9   0    0.26    0.19
  -3   9   0    0.48    0.17
   2  -9   0   16.77    0.63
  -2   9   0   16.45    0.73
  -2   9   0   16.21    0.62
   1  -9   0    1.38    0.26
   1  -9   0    1.82    0.29
   1  -9   0    1.04    0.14
  -1   9   0    1.44    0.23
  -1   9   0    1.27    0.25
   0  -9   0    4.03    0.37
   0   9   0    3.83    0.30
   0   9   0    4.20    0.37
  -1  -9   0    0.17    0.18
   1   9   0    0.20    0.12
  -2  -9   0    1.03    0.26
  -3  -9   0    0.39    0.23
   3   9   0    0.46    0.23
  -3  10   0   -0.09    0.16
  -3  10   0    0.01    0.14
   2 -10   0    3.05    0.34
  -2  10   0    2.92    0.32
  -2  10   0    3.02    0.42
   1 -10   0    3.97    0.43
   1 -10   0    3.43    0.37
  -1  10   0    3.14    0.33
  -1  10   0    4.07    0.47
   0 -10   0    1.74    0.30
   0 -10   0    1.74    0.31
   0  10   0    1.98    0.33
   0  10   0    2.22    0.27
  -1 -10   0   -0.06    0.19
  -1 -10   0    0.17    0.22
   1  10   0    0.18    0.12
   1  10  -1    0.58    0.16
  -1 -10   1    0.39    0.23
  -1 -10   1    0.97    0.26
   0  10  -1    0.57    0.20
   0  10  -1    0.79    0.18
   0 -10   1    1.08    0.26
   0 -10   1    0.76    0.23
  -1  10  -1    2.00    0.36
  -1  10  -1    1.53    0.24
   1 -10   1    1.74    0.29
   1 -10   1    2.30    0.34
  -2  10  -1    1.76    0.26
  -2  10  -1    2.66    0.41
   2 -10   1    1.92    0.28
  -3  10  -1    0.30    0.18
  -3  10  -1    0.38    0.20
   3   9  -1    0.28    0.21
  -3  -9   1    0.34    0.23
  -3  -9   1    0.15    0.21
  -2  -9   1    4.16    0.43
  -2  -9   1    3.54    0.41
   1   9  -1    1.32    0.19
  -1  -9   1    1.00    0.25
  -1  -9   1    1.07    0.23
   0   9  -1    0.60    0.16
   0   9  -1    0.78    0.23
   0  -9   1    0.89    0.22
   0  -9   1    0.32    0.19
  -1   9  -1    3.79    0.30
  -1   9  -1    4.35    0.47
   1  -9   1    3.10    0.33
   1  -9   1    3.77    0.22
   1  -9   1    4.10    0.36
  -2   9  -1    6.67    0.42
  -2   9  -1    7.15    0.49
   2  -9   1    7.84    0.43
  -3   9  -1    1.15    0.21
  -3   9  -1    0.97    0.27
   3  -9   1    0.61    0.17
  -4   9  -1    0.89    0.21
  -4   9  -1    1.19    0.21
  -4   9  -1    1.47    0.31
   4   8  -1    1.00    0.28
  -4  -8   1    1.78    0.31
  -4  -8   1    1.26    0.29
   3   8  -1    0.34    0.19
  -3  -8   1    0.29    0.20
   2   8  -1    5.73    0.32
  -2  -8   1    6.14    0.43
   1   8  -1    2.20    0.31
   1   8  -1    1.69    0.20
  -1  -8   1    1.72    0.27
   0   8  -1    3.93    0.34
   0   8  -1    4.44    0.29
   0  -8   1    5.26    0.36
  -1   8  -1    5.68    0.33
  -1   8  -1    6.04    0.41
   1  -8   1    6.65    0.40
   1  -8   1    6.47    0.25
   1  -8   1    5.98    0.38
  -2   8  -1   11.59    0.49
  -2   8  -1   12.76    0.59
   2  -8   1   11.82    0.49
  -3   8  -1    3.54    0.32
  -3   8  -1    3.22    0.27
  -3   8  -1    3.74    0.41
   3  -8   1    3.07    0.25
  -4   8  -1    0.76    0.22
  -4   8  -1    0.45    0.16
  -4   8  -1    0.66    0.15
  -5   8  -1    0.14    0.14
  -5   8  -1    0.20    0.17
  -5   8  -1    0.02    0.12
   4   7  -1    2.95    0.39
  -4  -7   1    3.85    0.40
   3   7  -1    1.82    0.29
   3   7  -1    1.53    0.22
  -3  -7   1    1.76    0.27
   2   7  -1    2.68    0.22
  -2  -7   1    3.12    0.33
   1   7  -1    8.45    0.35
   1   7  -1    8.52    0.43
  -1  -7   1    8.40    0.43
   0   7  -1   42.18    1.11
   0   7  -1   40.71    0.97
   0  -7   1   42.56    1.05
  -1   7  -1   12.37    0.53
  -1   7  -1   12.46    0.46
   1  -7   1   11.64    0.48
   1  -7   1   11.45    0.47
  -2   7  -1    2.90    0.32
  -2   7  -1    3.11    0.24
  -2   7  -1    2.91    0.26
   2  -7   1    2.64    0.26
  -3   7  -1    5.92    0.39
  -3   7  -1    6.14    0.36
  -3   7  -1    5.90    0.32
   3  -7   1    5.82    0.29
  -4   7  -1   10.77    0.50
  -4   7  -1   11.13    0.53
  -4   7  -1   11.38    0.44
  -5   7  -1    0.17    0.13
  -5   7  -1    0.34    0.15
  -5   7  -1    0.20    0.15
  -6   7  -1    0.71    0.21
  -6   7  -1    0.62    0.21
   5   6  -1   -0.09    0.16
  -5  -6   1    0.23    0.18
  -5  -6   1   -0.05    0.16
   4   6  -1   11.65    0.60
  -4  -6   1   10.86    0.54
   3   6  -1    0.80    0.16
   3   6  -1    0.65    0.17
  -3  -6   1    0.90    0.20
   2   6  -1   20.95    0.58
   2   6  -1   20.19    0.63
  -2  -6   1   20.36    0.66
   1   6  -1    1.11    0.19
   1   6  -1    1.21    0.14
  -1  -6   1    1.32    0.20
   0   6  -1    6.56    0.35
   0   6  -1    6.52    0.29
   0  -6   1    6.06    0.32
  -1   6  -1    2.63    0.24
  -1   6  -1    2.53    0.22
   1  -6   1    2.40    0.22
  -2   6  -1   30.96    0.86
  -2   6  -1   30.95    0.79
  -2   6  -1   30.33    0.74
   2  -6   1   31.69    0.76
  -3   6  -1    0.66    0.15
  -3   6  -1    0.93    0.14
  -3   6  -1    1.00    0.18
   3  -6   1    0.97    0.16
  -4   6  -1    4.79    0.33
  -4   6  -1    4.74    0.33
  -4   6  -1    4.07    0.20
  -4   6  -1    4.67    0.26
   4  -6   1    4.67    0.33
  -5   6  -1    0.87    0.18
  -5   6  -1    1.19    0.16
  -5   6  -1    1.08    0.21
  -6   6  -1    2.90    0.33
  -6   6  -1    2.49    0.30
  -6  -5   1    0.41    0.19
  -6  -5   1    0.73    0.33
   5   5  -1    0.75    0.24
  -5  -5   1    0.78    0.22
  -5  -5   1    0.78    0.19
   4   5  -1    5.87    0.41
  -4  -5   1    6.34    0.36
  -4  -5   1    6.40    0.41
   3   5  -1    3.25    0.28
   3   5  -1    2.93    0.24
  -3  -5   1    2.91    0.29
  -3  -5   1    3.50    0.26
  -3  -5   1    2.45    0.18
   2   5  -1   28.04    0.67
   2   5  -1   26.01    0.70
  -2  -5   1   26.92    0.62
  -2  -5   1   26.99    0.74
   1   5  -1    9.08    0.31
   1   5  -1    9.14    0.37
  -1  -5   1    8.91    0.36
  -1  -5   1    9.51    0.32
   0   5  -1    3.44    0.19
   0   5  -1    4.18    0.25
   0  -5   1    4.07    0.23
   0  -5   1    4.11    0.21
   0  -5   1    3.69    0.24
  -1   5  -1    5.77    0.26
  -1   5  -1    5.16    0.23
  -1   5  -1    5.06    0.28
   1  -5   1    4.68    0.25
   1  -5   1    4.62    0.26
  -2   5  -1   14.92    0.47
  -2   5  -1   14.20    0.46
  -2   5  -1   15.53    0.51
  -2   5  -1   15.88    0.44
   2  -5   1   14.34    0.46
   2  -5   1   15.78    0.43
  -3   5  -1    2.09    0.13
  -3   5  -1    1.77    0.19
  -3   5  -1    2.06    0.17
  -3   5  -1    2.14    0.17
  -3   5  -1    1.89    0.21
   3  -5   1    1.98    0.19
  -4   5  -1    5.23    0.29
  -4   5  -1    5.86    0.26
  -4   5  -1    4.91    0.25
  -4   5  -1    5.16    0.32
   4  -5   1    4.97    0.25
  -5   5  -1    1.99    0.23
  -5   5  -1    2.25    0.24
  -5   5  -1    1.62    0.16
  -6   5  -1    0.54    0.18
   6   4  -1    0.71    0.25
  -6  -4   1    0.76    0.20
  -6  -4   1    1.13    0.26
   5   4  -1    8.83    0.54
  -5  -4   1    9.20    0.51
  -5  -4   1    9.26    0.43
   4   4  -1   11.25    0.54
  -4  -4   1   11.31    0.45
  -4  -4   1   11.30    0.51
  -4  -4   1   10.81    0.42
   3   4  -1    4.06    0.26
   3   4  -1    3.79    0.29
  -3  -4   1    3.82    0.29
  -3  -4   1    4.14    0.24
  -3  -4   1    3.63    0.24
  -3  -4   1    3.65    0.18
   2   4  -1   62.29    1.23
   2   4  -1   60.75    1.21
  -2  -4   1   59.37    1.28
  -2  -4   1   62.99    1.15
  -2  -4   1   60.96    1.28
  -2  -4   1   60.69    1.23
  -2  -4   1   58.17    1.28
   1   4  -1    0.90    0.09
   1   4  -1    1.39    0.16
   1   4  -1    1.00    0.14
  -1  -4   1    1.21    0.16
  -1  -4   1    1.33    0.15
  -1  -4   1    1.30    0.11
  -1  -4   1    1.40    0.20
   0   4  -1   24.61    0.60
   0   4  -1   24.27    0.56
   0   4  -1   25.20    0.65
   0  -4   1   25.02    0.61
   0  -4   1   25.44    0.64
   0  -4   1   26.05    0.58
  -1   4  -1   13.37    0.42
  -1   4  -1   13.39    0.36
  -1   4  -1   12.52    0.38
  -1   4  -1   13.30    0.38
  -1   4  -1   12.98    0.40
   1  -4   1   12.34    0.39
   1  -4   1   12.83    0.29
   1  -4   1   12.75    0.39
  -2   4  -1   35.89    0.78
  -2   4  -1   35.79    0.80
  -2   4  -1   34.70    0.81
  -2   4  -1   35.24    0.74
  -2   4  -1   35.10    0.80
   2  -4   1   35.54    0.78
   2  -4   1   36.60    0.72
  -3   4  -1    2.06    0.17
  -3   4  -1    1.97    0.19
  -3   4  -1    2.03    0.15
  -3   4  -1    2.01    0.14
   3  -4   1    2.01    0.16
  -4   4  -1    1.47    0.18
  -4   4  -1    1.54    0.16
  -4   4  -1    1.73    0.14
  -4   4  -1    1.41    0.14
   4  -4   1    1.61    0.15
  -5   4  -1    0.23    0.12
  -6   4  -1    3.98    0.33
   6   3  -1    1.78    0.33
  -6  -3   1    1.79    0.23
  -6  -3   1    1.74    0.31
   5   3  -1    4.92    0.41
  -5  -3   1    6.07    0.43
  -5  -3   1    4.33    0.29
   4   3  -1    1.64    0.24
  -4  -3   1    1.65    0.19
  -4  -3   1    1.82    0.13
  -4  -3   1    1.78    0.18
  -4  -3   1    1.26    0.18
  -4  -3   1    1.91    0.25
   3   3  -1   30.65    0.82
  -3  -3   1   30.26    0.80
  -3  -3   1   29.69    0.61
  -3  -3   1   30.37    0.69
  -3  -3   1   29.99    0.75
  -3  -3   1   28.75    0.72
   2   3  -1    4.19    0.20
   2   3  -1    3.74    0.23
   2   3  -1    4.04    0.22
  -2  -3   1    4.04    0.21
  -2  -3   1    3.67    0.16
  -2  -3   1    4.13    0.23
  -2  -3   1    4.03    0.20
  -2  -3   1    3.41    0.21
   1   3  -1   15.03    0.41
   1   3  -1   14.93    0.35
   1   3  -1   14.39    0.41
  -1  -3   1   15.03    0.42
  -1  -3   1   15.02    0.39
  -1  -3   1   15.44    0.35
  -1  -3   1   14.22    0.40
  -1  -3   1   14.45    0.42
   0   3  -1    1.20    0.13
   0   3  -1    1.02    0.10
   0   3  -1    1.09    0.13
   0   3  -1    0.94    0.09
   0  -3   1    0.94    0.10
   0  -3   1    0.86    0.11
   0  -3   1    0.81    0.10
   0  -3   1    0.84    0.09
   0  -3   1    0.71    0.10
  -1   3  -1    9.30    0.29
  -1   3  -1    8.64    0.27
  -1   3  -1    8.90    0.29
  -1   3  -1    8.48    0.27
  -1   3  -1    8.65    0.25
   1  -3   1    9.35    0.29
   1  -3   1    9.39    0.27
   1  -3   1    8.65    0.28
  -2   3  -1   49.02    1.00
  -2   3  -1   49.51    0.98
  -2   3  -1   49.75    0.92
  -2   3  -1   50.22    0.96
   2  -3   1   49.12    0.96
  -3   3  -1   18.15    0.43
  -3   3  -1   17.65    0.49
   3  -3   1   17.62    0.43
  -4   3  -1    4.81    0.19
  -4   3  -1    5.11    0.27
  -5   3  -1    6.35    0.21
  -5   3  -1    6.80    0.34
  -6   3  -1    0.32    0.14
   6   2  -1    0.77    0.24
  -6  -2   1    1.10    0.26
   5   2  -1    4.04    0.36
  -5  -2   1    3.80    0.40
   4   2  -1    1.29    0.21
  -4  -2   1    1.44    0.16
  -4  -2   1    1.08    0.13
  -4  -2   1    1.29    0.17
  -4  -2   1    1.14    0.21
  -4  -2   1    1.65    0.16
   3   2  -1   23.43    0.67
  -3  -2   1   23.38    0.53
  -3  -2   1   22.17    0.54
  -3  -2   1   22.85    0.57
  -3  -2   1   22.47    0.59
   2   2  -1   42.12    0.92
   2   2  -1   42.15    0.96
  -2  -2   1   43.82    0.94
  -2  -2   1   43.97    0.87
  -2  -2   1   43.37    0.89
  -2  -2   1   43.83    0.84
  -2  -2   1   43.63    0.87
   1   2  -1  386.30    6.34
   1   2  -1  383.49    6.38
   1   2  -1  377.78    6.41
   1   2  -1  382.37    6.35
  -1  -2   1  389.67    6.32
  -1  -2   1  382.89    6.40
  -1  -2   1  390.88    6.36
  -1  -2   1  381.63    6.39
  -1  -2   1  383.97    6.39
   0   2  -1  348.23    5.62
   0   2  -1  331.24    5.58
   0   2  -1  335.82    5.56
   0   2  -1  341.30    5.61
   0  -2   1  325.39    5.56
   0  -2   1  345.74    5.62
   0  -2   1  324.42    5.56
   0  -2   1  347.91    5.61
   0  -2   1  339.07    5.59
  -1   2  -1  148.08    2.56
  -1   2  -1  151.00    2.56
  -1   2  -1  150.12    2.56
  -1   2  -1  151.47    2.52
  -1   2  -1  144.25    2.55
   1  -2   1  147.51    2.51
   1  -2   1  154.22    2.54
   1  -2   1  155.31    2.56
   1  -2   1  153.77    2.52
  -2   2  -1   60.60    1.10
   2  -2   1   60.93    1.10
  -3   2  -1    6.94    0.21
  -4   2  -1    7.93    0.24
  -5   2  -1    8.66    0.25
  -6   2  -1    1.44    0.19
  -7   2  -1    0.21    0.26
  -7  -1   1    2.05    0.38
   6   1  -1    0.62    0.22
  -6  -1   1    0.76    0.25
   5   1  -1   11.56    0.56
  -5  -1   1   10.76    0.57
   4   1  -1    9.34    0.44
  -4  -1   1    9.81    0.46
  -4  -1   1    8.70    0.39
  -4  -1   1    8.71    0.30
   3   1  -1    3.37    0.23
  -3  -1   1    2.64    0.19
  -3  -1   1    3.12    0.24
   2   1  -1   11.62    0.36
  -2  -1   1   10.81    0.37
  -2  -1   1   11.74    0.35
  -2  -1   1   11.33    0.33
   1   1  -1    1.06    0.09
   1   1  -1    1.08    0.08
   1   1  -1    1.07    0.06
  -1  -1   1    0.84    0.07
  -1  -1   1    0.88    0.07
  -1  -1   1    0.87    0.07
  -1  -1   1    0.89    0.07
   0   1  -1    0.42    0.05
   0   1  -1    0.36    0.04
   0   1  -1    0.39    0.04
   0   1  -1    0.41    0.05
   0  -1   1    0.40    0.05
   0  -1   1    0.36    0.04
   0  -1   1    0.30    0.04
   0  -1   1    0.36    0.04
   0  -1   1    0.32    0.04
  -1   1  -1  555.88    9.20
  -1   1  -1  564.59    9.13
   1  -1   1  553.81    9.19
  -2   1  -1   16.96    0.36
  -2   1  -1   17.46    0.48
  -3   1  -1    4.75    0.17
  -4   1  -1    2.00    0.13
  -5   1  -1    2.11    0.16
  -6   1  -1    1.19    0.31
  -7   1  -1    0.12    0.24
  -7   0   1    0.47    0.27
  -6   0   1    5.28    0.49
   5   0  -1    0.06    0.12
  -5   0   1    0.22    0.08
  -5   0   1    0.25    0.18
   4   0  -1    4.88    0.32
  -4   0   1    4.36    0.28
   3   0  -1    4.37    0.26
  -3   0   1    4.61    0.26
   2   0  -1   23.54    0.57
  -2   0   1   23.33    0.56
   1   0  -1  102.51    1.79
  -1   0   1  105.66    1.72
  -1   0   1  104.45    1.79
   0   0  -1    2.52    0.07
   0   0  -1    2.82    0.07
  -1   0  -1   46.55    0.84
  -1   0  -1   44.73    0.86
   1   0   1   45.47    0.86
  -2   0  -1    7.05    0.27
  -2   0  -1    7.08    0.26
   2   0   1    6.78    0.27
  -3   0  -1   22.63    0.62
   3   0   1   24.04    0.67
  -4   0  -1    8.17    0.42
  -4   0  -1    8.23    0.38
   4   0   1    8.45    0.42
  -5   0  -1    5.05    0.41
  -5   0  -1    4.65    0.24
   5   0   1    4.35    0.36
  -6   0  -1    2.93    0.39
  -7   0  -1    1.27    0.33
  -7   1   1   -0.12    0.21
  -6   1   1    0.89    0.28
  -3   1   1    4.50    0.30
  -2   1   1   15.29    0.43
   1  -1  -1  294.39    4.83
   1  -1  -1  300.10    4.82
  -1   1   1  293.36    4.84
  -1   1   1  293.63    4.86
   0  -1  -1  348.51    5.92
   0  -1  -1  360.24    5.80
   0  -1  -1  346.30    5.80
   0   1   1  355.54    6.01
   0   1   1  349.12    5.90
   0   1   1  355.22    5.89
  -1  -1  -1  270.35    4.54
  -1  -1  -1  279.23    4.57
  -1  -1  -1  276.66    4.59
   1   1   1  276.64    4.61
   1   1   1  272.82    4.61
   1   1   1  279.42    4.58
  -2  -1  -1   13.23    0.37
  -2  -1  -1   13.06    0.39
  -2  -1  -1   12.96    0.39
   2   1   1   13.50    0.39
   2   1   1   12.84    0.40
  -3  -1  -1    8.17    0.33
  -3  -1  -1    8.22    0.36
   3   1   1    8.61    0.38
  -4  -1  -1    5.10    0.34
  -4  -1  -1    4.74    0.28
   4   1   1    4.85    0.34
  -5  -1  -1    4.29    0.37
   5   1   1    3.84    0.40
  -6  -1  -1    1.48    0.29
   6   1   1    1.13    0.27
  -7  -1  -1    0.38    0.25
  -7   2   1    0.10    0.24
   2  -2  -1   22.40    0.44
  -2   2   1   23.18    0.46
  -2   2   1   23.20    0.45
  -2   2   1   22.90    0.50
   1  -2  -1   43.81    0.81
   1  -2  -1   44.06    0.84
   1  -2  -1   45.60    0.82
  -1   2   1   44.69    0.81
  -1   2   1   43.76    0.86
  -1   2   1   43.96    0.85
  -1   2   1   44.79    0.77
   0  -2  -1  235.50    3.96
   0  -2  -1  234.76    3.93
   0  -2  -1  238.30    3.99
   0   2   1  240.93    3.99
   0   2   1  232.73    3.93
   0   2   1  241.99    3.93
   0   2   1  233.30    3.96
  -1  -2  -1   69.92    1.30
  -1  -2  -1   73.40    1.22
  -1  -2  -1   70.81    1.31
   1   2   1   71.05    1.28
   1   2   1   72.74    1.22
   1   2   1   72.26    1.26
   1   2   1   69.40    1.31
  -2  -2  -1  130.10    2.23
  -2  -2  -1  127.28    2.25
  -2  -2  -1  130.93    2.16
  -2  -2  -1  129.42    2.34
   2   2   1  127.48    2.38
   2   2   1  130.27    2.37
   2   2   1  131.93    2.33
  -3  -2  -1    9.74    0.35
  -3  -2  -1   10.21    0.40
   3   2   1    9.80    0.42
  -4  -2  -1   32.27    0.84
  -4  -2  -1   32.90    0.92
   4   2   1   33.58    0.97
  -5  -2  -1    0.71    0.21
   5   2   1    0.42    0.18
  -6  -2  -1    1.07    0.26
   6   2   1    1.21    0.28
  -4   3   1   11.74    0.33
   3  -3  -1    2.25    0.12
  -3   3   1    2.19    0.16
   2  -3  -1   45.55    0.86
  -2   3   1   43.82    0.92
  -2   3   1   43.89    0.85
   1  -3  -1   24.28    0.51
   1  -3  -1   24.12    0.46
   1  -3  -1   24.03    0.54
  -1   3   1   23.51    0.57
  -1   3   1   23.97    0.55
  -1   3   1   24.44    0.52
  -1   3   1   23.80    0.55
   0  -3  -1    9.95    0.32
   0  -3  -1    9.82    0.30
   0  -3  -1   10.02    0.32
   0   3   1   10.48    0.28
   0   3   1   10.32    0.33
   0   3   1   10.26    0.28
   0   3   1   10.18    0.30
  -1  -3  -1   28.40    0.65
  -1  -3  -1   29.01    0.67
  -1  -3  -1   29.36    0.58
   1   3   1   30.75    0.58
   1   3   1   28.92    0.66
   1   3   1   27.78    0.66
  -2  -3  -1    3.05    0.17
  -2  -3  -1    3.04    0.12
  -2  -3  -1    2.79    0.18
  -2  -3  -1    3.54    0.21
   2   3   1    3.21    0.21
   2   3   1    2.70    0.17
   2   3   1    2.53    0.19
  -3  -3  -1   10.73    0.42
  -3  -3  -1   10.42    0.26
  -3  -3  -1   10.29    0.33
  -3  -3  -1   10.36    0.36
   3   3   1   10.50    0.45
   3   3   1   10.74    0.41
  -4  -3  -1   21.74    0.55
  -4  -3  -1   20.60    0.59
  -4  -3  -1   20.39    0.44
  -4  -3  -1   21.63    0.70
   4   3   1   20.79    0.75
  -5  -3  -1    0.20    0.16
  -5  -3  -1    0.26    0.12
   5   3   1    0.22    0.16
  -6  -3  -1    0.89    0.19
  -6  -3  -1    1.02    0.25
   6   3   1    1.42    0.31
  -7   4   1   -0.04    0.16
  -6   4   1    6.31    0.39
  -5   4   1    7.41    0.30
  -5   4   1    7.73    0.36
   4  -4  -1    4.17    0.18
  -4   4   1    4.78    0.27
  -4   4   1    4.20    0.22
   3  -4  -1   10.73    0.32
  -3   4   1   10.50    0.33
  -3   4   1   10.51    0.39
   2  -4  -1   36.39    0.78
  -2   4   1   36.16    0.91
  -2   4   1   36.92    0.85
  -2   4   1   34.97    0.82
  -2   4   1   36.31    0.76
   1  -4  -1   48.58    1.00
   1  -4  -1   47.32    1.00
   1  -4  -1   48.34    0.87
  -1   4   1   46.56    0.97
  -1   4   1   46.80    1.03
  -1   4   1   46.72    0.98
  -1   4   1   47.61    0.95
   0  -4  -1    0.57    0.11
   0  -4  -1    0.73    0.12
   0   4   1    0.82    0.13
   0   4   1    0.67    0.09
   0   4   1    0.87    0.12
  -1  -4  -1    0.07    0.08
  -1  -4  -1    0.29    0.09
  -1  -4  -1    0.20    0.06
  -1  -4  -1    0.08    0.08
   1   4   1    0.09    0.06
   1   4   1    0.06    0.04
   1   4   1    0.09    0.07
  -2  -4  -1    6.30    0.30
  -2  -4  -1    6.64    0.22
  -2  -4  -1    7.52    0.32
   2   4   1    6.83    0.28
   2   4   1    5.65    0.25
  -3  -4  -1   18.95    0.59
  -3  -4  -1   20.69    0.56
  -3  -4  -1   20.27    0.45
  -3  -4  -1   20.69    0.64
   3   4   1   21.50    0.69
   3   4   1   20.83    0.63
  -4  -4  -1    1.22    0.17
  -4  -4  -1    1.10    0.21
   4   4   1    1.51    0.25
  -5  -4  -1    0.98    0.18
  -5  -4  -1    1.34    0.25
   5   4   1    1.22    0.25
  -6  -4  -1    1.34    0.28
  -6  -4  -1    0.78    0.19
   6   4   1    1.13    0.30
  -6   5   1    0.63    0.18
  -6   5   1    0.94    0.19
  -5   5   1    0.61    0.16
  -5   5   1    0.50    0.13
  -5   5   1    0.60    0.15
   4  -5  -1    3.92    0.22
  -4   5   1    5.10    0.32
  -4   5   1    5.11    0.31
  -4   5   1    5.03    0.26
  -4   5   1    4.43    0.19
   3  -5  -1    8.12    0.32
  -3   5   1    8.42    0.38
  -3   5   1    8.76    0.39
  -3   5   1    8.62    0.27
  -3   5   1    9.53    0.33
   2  -5  -1    5.56    0.27
  -2   5   1    5.77    0.31
  -2   5   1    5.42    0.24
  -2   5   1    5.31    0.28
   1  -5  -1   49.20    0.94
   1  -5  -1   49.90    1.09
   1  -5  -1   51.08    1.10
  -1   5   1   50.28    1.03
  -1   5   1   50.99    1.14
  -1   5   1   49.68    1.06
   0  -5  -1    5.91    0.29
   0  -5  -1    6.42    0.31
   0   5   1    6.43    0.32
   0   5   1    6.25    0.25
  -1  -5  -1    5.69    0.30
  -1  -5  -1    6.13    0.24
   1   5   1    5.72    0.29
   1   5   1    5.81    0.23
  -2  -5  -1   10.74    0.34
  -2  -5  -1   11.88    0.45
   2   5   1   11.77    0.41
   2   5   1   11.77    0.41
  -3  -5  -1    9.56    0.44
  -3  -5  -1    8.97    0.29
   3   5   1    8.87    0.40
   3   5   1    9.58    0.47
  -4  -5  -1    2.67    0.31
   4   5   1    2.78    0.34
  -5  -5  -1    1.16    0.25
   5   5   1    1.00    0.26
  -6   6   1    0.29    0.18
  -6   6   1    0.42    0.18
  -6   6   1    0.44    0.15
  -5   6   1    0.31    0.15
  -5   6   1    0.15    0.13
  -5   6   1    0.08    0.11
  -4   6   1    6.17    0.32
  -4   6   1    6.67    0.38
  -4   6   1    6.94    0.40
  -4   6   1    6.65    0.26
   3  -6  -1    5.74    0.30
   3  -6  -1    6.64    0.28
  -3   6   1    6.59    0.35
  -3   6   1    6.31    0.30
  -3   6   1    6.47    0.38
  -2   6   1    4.44    0.31
  -2   6   1    3.84    0.24
  -2   6   1    4.54    0.27
   1  -6  -1   13.94    0.36
   1  -6  -1   13.91    0.49
  -1   6   1   13.10    0.43
  -1   6   1   13.23    0.52
  -1   6   1   13.56    0.45
   0  -6  -1   11.62    0.44
   0   6   1   11.38    0.47
   0   6   1   11.23    0.39
  -1  -6  -1   18.36    0.59
   1   6   1   17.83    0.60
   1   6   1   17.93    0.50
  -2  -6  -1    1.84    0.25
  -2  -6  -1    2.08    0.18
   2   6   1    1.58    0.18
   2   6   1    1.98    0.23
  -3  -6  -1    2.40    0.29
   3   6   1    2.51    0.30
   3   6   1    2.48    0.25
  -4  -6  -1    3.87    0.36
   4   6   1    3.54    0.40
   4   6   1    4.01    0.33
  -5  -6  -1    0.07    0.18
   5   6   1    0.12    0.19
  -6   7   1    0.03    0.14
  -6   7   1   -0.02    0.16
  -6   7   1    0.24    0.17
  -5   7   1    2.72    0.32
  -5   7   1    2.70    0.34
  -5   7   1    2.56    0.25
  -4   7   1    4.36    0.30
  -4   7   1    4.47    0.37
  -4   7   1    4.31    0.33
   3  -7  -1   30.82    0.76
  -3   7   1   31.05    0.94
  -3   7   1   29.76    0.79
  -3   7   1   28.87    0.85
  -2   7   1    6.78    0.33
  -2   7   1    6.42    0.41
  -2   7   1    5.84    0.34
   1  -7  -1    0.32    0.08
   1  -7  -1    0.30    0.14
  -1   7   1    0.37    0.14
  -1   7   1    0.41    0.11
   0  -7  -1   27.34    0.79
   0   7   1   26.04    0.83
   0   7   1   28.18    0.72
  -1  -7  -1   26.29    0.80
   1   7   1   27.25    0.69
   1   7   1   26.26    0.81
  -2  -7  -1    3.55    0.32
   2   7   1    2.88    0.21
   2   7   1    2.78    0.23
  -3  -7  -1   11.45    0.56
   3   7   1   11.74    0.60
   3   7   1   11.49    0.50
  -4  -7  -1    0.10    0.18
   4   7   1    0.03    0.16
   4   7   1   -0.01    0.12
  -5   8   1    0.10    0.14
  -5   8   1    0.17    0.15
  -5   8   1   -0.11    0.16
  -4   8   1    1.16    0.20
  -4   8   1    1.41    0.23
  -4   8   1    1.45    0.27
   3  -8  -1    4.91    0.32
  -3   8   1    4.82    0.32
  -3   8   1    4.59    0.34
  -3   8   1    5.24    0.42
   2  -8  -1    1.36    0.23
  -2   8   1    1.84    0.24
  -2   8   1    1.62    0.22
  -2   8   1    1.40    0.24
   1  -8  -1   17.31    0.47
   1  -8  -1   18.06    0.66
  -1   8   1   18.00    0.71
  -1   8   1   17.96    0.60
   0  -8  -1   10.98    0.51
   0   8   1    9.80    0.51
   0   8   1    9.99    0.42
  -1  -8  -1    1.16    0.23
   1   8   1    0.94    0.16
   1   8   1    1.19    0.23
  -2  -8  -1    1.70    0.27
   2   8   1    1.12    0.19
  -3  -8  -1    1.24    0.27
   3   8   1    1.74    0.26
   3   8   1    2.24    0.34
  -4  -8  -1    0.43    0.23
   4   8   1    0.35    0.22
  -4   9   1    0.21    0.14
  -4   9   1    0.14    0.19
  -4   9   1    0.21    0.15
   3  -9  -1    0.63    0.18
  -3   9   1    1.08    0.29
  -3   9   1    0.97    0.20
  -3   9   1    0.70    0.18
   2  -9  -1    7.19    0.43
  -2   9   1    5.33    0.45
  -2   9   1    5.91    0.38
   1  -9  -1    3.52    0.22
   1  -9  -1    4.82    0.38
  -1   9   1    4.42    0.39
  -1   9   1    3.61    0.32
   0  -9  -1    9.09    0.50
   0   9   1    8.43    0.51
   0   9   1    8.11    0.41
  -1  -9  -1    4.51    0.40
   1   9   1    4.82    0.31
  -2  -9  -1    2.78    0.36
  -3  -9  -1    0.92    0.27
   3   9   1    1.12    0.28
   3 -10  -1    2.18    0.33
  -3  10   1    2.40    0.31
  -3  10   1    2.72    0.40
   2 -10  -1    0.30    0.20
  -2  10   1    0.47    0.22
  -2  10   1    0.23    0.15
   1 -10  -1    2.12    0.33
   1 -10  -1    1.58    0.29
  -1  10   1    2.13    0.35
  -1  10   1    2.03    0.28
   0 -10  -1    1.68    0.31
   0  10   1    1.54    0.23
  -1 -10  -1    0.25    0.21
   1  10   1    0.37    0.14
  -2 -10   2    0.09    0.22
   1  10  -2    3.30    0.32
  -1 -10   2    3.44    0.41
  -1 -10   2    3.20    0.39
   0  10  -2    3.70    0.45
   0  10  -2    3.18    0.31
   0 -10   2    3.61    0.41
   0 -10   2    2.72    0.35
  -1  10  -2    0.73    0.24
  -1  10  -2    0.24    0.15
   1 -10   2    0.30    0.19
   1 -10   2    0.40    0.19
  -2  10  -2    2.49    0.31
  -2  10  -2    3.12    0.42
   2 -10   2    3.28    0.35
  -3  10  -2    1.92    0.35
  -3  10  -2    1.37    0.25
   3   9  -2    0.35    0.20
  -3  -9   2    0.57    0.25
  -3  -9   2    0.28    0.23
  -2  -9   2    0.25    0.22
  -2  -9   2    0.34    0.21
   1   9  -2    1.74    0.22
  -1  -9   2    2.06    0.30
  -1  -9   2    1.89    0.30
   0   9  -2    1.02    0.19
   0   9  -2    0.92    0.21
   0  -9   2    1.01    0.23
   0  -9   2    0.92    0.24
  -1   9  -2    4.42    0.34
  -1   9  -2    4.75    0.40
   1  -9   2    4.71    0.23
   1  -9   2    5.17    0.39
   1  -9   2    4.39    0.36
  -2   9  -2    0.80    0.22
  -2   9  -2    0.59    0.17
   2  -9   2    0.45    0.18
  -3   9  -2    2.97    0.37
  -3   9  -2    2.72    0.31
   3  -9   2    2.76    0.26
  -4   9  -2    0.51    0.19
  -4   9  -2    0.71    0.18
  -4   9  -2    0.83    0.24
   4   8  -2    0.00    0.17
  -4  -8   2    0.29    0.21
  -4  -8   2    0.09    0.21
   3   8  -2    4.58    0.45
  -3  -8   2    4.87    0.42
  -3  -8   2    4.31    0.43
   2   8  -2    0.01    0.09
  -2  -8   2    0.13    0.18
  -2  -8   2   -0.07    0.15
   1   8  -2    5.28    0.37
   1   8  -2    5.75    0.31
  -1  -8   2    5.51    0.39
  -1  -8   2    5.19    0.39
   0   8  -2    6.07    0.33
   0   8  -2    6.51    0.41
   0  -8   2    6.02    0.39
   0  -8   2    6.61    0.40
  -1   8  -2   17.58    0.70
  -1   8  -2   18.16    0.60
   1  -8   2   18.14    0.45
   1  -8   2   17.51    0.63
   1  -8   2   18.67    0.66
  -2   8  -2    6.21    0.37
  -2   8  -2    5.94    0.41
   2  -8   2    6.08    0.36
  -3   8  -2    2.42    0.25
  -3   8  -2    2.18    0.26
  -3   8  -2    2.75    0.35
   3  -8   2    2.00    0.21
  -4   8  -2    0.69    0.17
  -4   8  -2    0.55    0.17
  -4   8  -2    0.67    0.22
  -5   8  -2    1.18    0.21
  -5   8  -2    1.38    0.27
  -5   8  -2    1.02    0.21
   4   7  -2    2.05    0.32
  -4  -7   2    1.81    0.30
  -4  -7   2    1.82    0.30
   3   7  -2   12.62    0.60
   3   7  -2   12.27    0.49
  -3  -7   2   13.02    0.59
   2   7  -2    3.50    0.24
   2   7  -2    3.92    0.30
  -2  -7   2    4.07    0.34
   1   7  -2    4.66    0.32
   1   7  -2    4.72    0.27
  -1  -7   2    5.50    0.36
   0   7  -2    5.18    0.30
   0   7  -2    6.30    0.37
   0  -7   2    7.04    0.38
   0  -7   2    5.88    0.35
  -1   7  -2    5.30    0.30
  -1   7  -2    5.23    0.35
   1  -7   2    5.22    0.32
   1  -7   2    5.84    0.34
  -2   7  -2    2.20    0.23
  -2   7  -2    2.07    0.28
   2  -7   2    1.67    0.21
  -3   7  -2    7.58    0.43
  -3   7  -2    7.76    0.36
  -3   7  -2    7.27    0.39
   3  -7   2    7.44    0.31
  -4   7  -2    5.61    0.31
  -4   7  -2    5.66    0.39
  -4   7  -2    5.27    0.36
  -5   7  -2    1.47    0.25
  -5   7  -2    1.69    0.21
  -5   7  -2    1.77    0.25
  -6   7  -2   -0.20    0.14
  -6   7  -2    0.28    0.17
   5   6  -2    1.87    0.34
  -5  -6   2    1.81    0.28
  -5  -6   2    1.83    0.26
  -5  -6   2    2.03    0.32
   4   6  -2    2.95    0.36
  -4  -6   2    2.65    0.30
  -4  -6   2    2.79    0.33
   3   6  -2   19.77    0.62
   3   6  -2   18.88    0.70
  -3  -6   2   21.60    0.72
   2   6  -2   12.75    0.43
   2   6  -2   12.62    0.48
  -2  -6   2   13.50    0.52
   1   6  -2   11.68    0.39
   1   6  -2   11.42    0.47
  -1  -6   2   11.78    0.46
   0   6  -2    6.80    0.36
   0   6  -2    6.64    0.29
   0  -6   2    7.43    0.34
  -1   6  -2   12.30    0.49
  -1   6  -2   12.51    0.43
   1  -6   2   12.66    0.46
   1  -6   2   12.19    0.44
  -2   6  -2   12.60    0.41
  -2   6  -2   11.10    0.44
  -2   6  -2   11.44    0.43
  -2   6  -2   11.61    0.48
   2  -6   2   11.25    0.40
  -3   6  -2    1.51    0.18
  -3   6  -2    1.38    0.20
  -3   6  -2    1.40    0.19
  -3   6  -2    1.25    0.16
  -4   6  -2    1.68    0.18
  -4   6  -2    1.34    0.20
  -4   6  -2    1.40    0.21
  -4   6  -2    1.39    0.17
   4  -6   2    1.39    0.19
  -5   6  -2    0.68    0.17
  -5   6  -2    0.82    0.14
  -5   6  -2    0.70    0.18
  -6   6  -2    1.81    0.25
  -6   6  -2    1.57    0.25
  -6  -5   2    0.02    0.17
   5   5  -2    0.37    0.19
  -5  -5   2    0.36    0.17
  -5  -5   2    0.37    0.18
  -5  -5   2    0.59    0.21
   4   5  -2    3.46    0.36
  -4  -5   2    4.06    0.35
  -4  -5   2    3.64    0.29
   3   5  -2   12.63    0.45
   3   5  -2   11.86    0.51
  -3  -5   2   11.72    0.45
  -3  -5   2   11.74    0.37
  -3  -5   2   11.78    0.50
   2   5  -2   31.37    0.73
   2   5  -2   30.85    0.78
  -2  -5   2   30.98    0.81
  -2  -5   2   29.66    0.69
   1   5  -2   16.49    0.44
   1   5  -2   16.20    0.52
  -1  -5   2   15.63    0.50
  -1  -5   2   15.12    0.43
   0   5  -2    8.34    0.30
   0   5  -2    8.65    0.37
   0  -5   2    8.57    0.37
   0  -5   2    9.27    0.36
   0  -5   2    8.40    0.34
  -1   5  -2    5.40    0.27
  -1   5  -2    5.70    0.29
  -1   5  -2    5.25    0.25
   1  -5   2    5.04    0.27
   1  -5   2    5.27    0.26
   1  -5   2    5.36    0.26
  -2   5  -2   11.61    0.36
  -2   5  -2   11.53    0.43
  -2   5  -2   11.93    0.41
  -2   5  -2   12.23    0.41
   2  -5   2   11.31    0.41
   2  -5   2   11.99    0.36
  -3   5  -2    5.85    0.30
  -3   5  -2    6.41    0.26
  -3   5  -2    6.52    0.31
  -3   5  -2    5.93    0.28
  -3   5  -2    6.31    0.20
   3  -5   2    6.36    0.29
  -4   5  -2    6.86    0.33
  -4   5  -2    7.47    0.36
  -4   5  -2    7.79    0.29
  -4   5  -2    7.57    0.31
   4  -5   2    7.06    0.31
  -5   5  -2    1.43    0.21
  -5   5  -2    1.31    0.15
  -5   5  -2    1.46    0.20
  -6   5  -2    0.59    0.17
  -6   5  -2    1.15    0.19
   6   4  -2    0.79    0.27
  -6  -4   2    0.22    0.17
  -6  -4   2    1.03    0.26
   5   4  -2    2.37    0.33
  -5  -4   2    2.32    0.32
  -5  -4   2    2.34    0.26
  -5  -4   2    2.41    0.26
   4   4  -2   29.94    0.92
  -4  -4   2   28.92    0.76
  -4  -4   2   26.85    0.65
  -4  -4   2   28.88    0.87
   3   4  -2    4.94    0.31
  -3  -4   2    5.47    0.28
  -3  -4   2    4.56    0.27
  -3  -4   2    5.27    0.32
  -3  -4   2    4.87    0.21
   2   4  -2  168.06    2.99
   2   4  -2  167.61    2.95
  -2  -4   2  172.85    3.05
  -2  -4   2  168.43    3.06
  -2  -4   2  168.81    2.99
  -2  -4   2  168.27    2.90
  -2  -4   2  163.33    3.05
   1   4  -2   11.08    0.38
   1   4  -2   10.80    0.32
   1   4  -2   10.62    0.37
  -1  -4   2   10.86    0.32
  -1  -4   2   10.32    0.36
  -1  -4   2   11.33    0.40
   0   4  -2   43.88    0.95
   0   4  -2   42.61    0.87
   0   4  -2   43.79    0.95
   0   4  -2   42.46    0.90
   0  -4   2   42.31    0.94
   0  -4   2   42.19    0.87
   0  -4   2   41.80    0.90
  -1   4  -2    3.53    0.21
  -1   4  -2    3.62    0.19
  -1   4  -2    3.63    0.21
  -1   4  -2    3.70    0.19
  -1   4  -2    4.05    0.18
   1  -4   2    3.80    0.19
   1  -4   2    3.74    0.20
   1  -4   2    3.68    0.20
   1  -4   2    3.74    0.21
   1  -4   2    3.72    0.12
  -2   4  -2    4.10    0.19
  -2   4  -2    4.31    0.23
  -2   4  -2    4.36    0.22
  -2   4  -2    3.94    0.21
  -2   4  -2    4.46    0.22
   2  -4   2    4.17    0.22
  -3   4  -2    1.79    0.18
  -3   4  -2    1.84    0.13
  -3   4  -2    1.93    0.15
  -3   4  -2    1.91    0.16
   3  -4   2    2.02    0.16
  -4   4  -2   14.50    0.41
  -4   4  -2   14.92    0.50
  -4   4  -2   14.75    0.38
   4  -4   2   13.87    0.42
  -5   4  -2    0.27    0.12
  -5   4  -2    0.16    0.08
  -6   4  -2    0.84    0.18
   6   3  -2    3.66    0.44
  -6  -3   2    4.20    0.35
  -6  -3   2    3.44    0.41
   5   3  -2    1.90    0.30
  -5  -3   2    1.48    0.27
  -5  -3   2    1.35    0.20
  -5  -3   2    1.41    0.19
   4   3  -2    0.69    0.16
  -4  -3   2    0.33    0.10
  -4  -3   2    0.28    0.11
  -4  -3   2    0.36    0.17
  -4  -3   2    0.33    0.11
   3   3  -2   13.65    0.50
  -3  -3   2   13.92    0.42
  -3  -3   2   13.49    0.44
  -3  -3   2   13.18    0.44
  -3  -3   2   14.49    0.42
  -3  -3   2   13.68    0.50
  -3  -3   2   14.01    0.36
   2   3  -2   16.92    0.45
   2   3  -2   16.81    0.43
   2   3  -2   16.46    0.48
   2   3  -2   16.30    0.52
  -2  -3   2   16.69    0.48
  -2  -3   2   16.29    0.39
  -2  -3   2   16.52    0.44
  -2  -3   2   16.84    0.49
  -2  -3   2   16.62    0.47
   1   3  -2  134.59    2.48
   1   3  -2  139.14    2.48
   1   3  -2  139.51    2.37
  -1  -3   2  139.44    2.49
  -1  -3   2  141.97    2.50
  -1  -3   2  143.38    2.40
  -1  -3   2  139.34    2.44
  -1  -3   2  138.90    2.46
   0   3  -2    7.82    0.28
   0   3  -2    7.54    0.25
   0   3  -2    8.00    0.26
   0   3  -2    7.81    0.24
   0  -3   2    8.12    0.25
   0  -3   2    8.37    0.28
   0  -3   2    8.68    0.27
   0  -3   2    9.03    0.29
   0  -3   2    8.44    0.27
  -1   3  -2   41.17    0.83
  -1   3  -2   41.62    0.80
  -1   3  -2   41.05    0.85
  -1   3  -2   42.62    0.86
  -1   3  -2   41.83    0.82
   1  -3   2   42.59    0.85
   1  -3   2   40.14    0.83
   1  -3   2   40.96    0.84
   1  -3   2   41.91    0.79
   1  -3   2   42.71    0.81
  -2   3  -2   23.34    0.53
  -2   3  -2   23.34    0.56
  -2   3  -2   23.53    0.49
  -2   3  -2   23.16    0.53
   2  -3   2   22.58    0.53
  -3   3  -2    5.31    0.25
  -3   3  -2    5.53    0.21
   3  -3   2    5.19    0.22
  -4   3  -2    1.54    0.17
  -4   3  -2    1.44    0.13
  -5   3  -2    2.46    0.23
  -5   3  -2    2.44    0.15
  -6   3  -2    0.51    0.15
   6   2  -2    8.28    0.56
  -6  -2   2    8.60    0.42
  -6  -2   2    8.84    0.57
   5   2  -2    0.66    0.20
  -5  -2   2    0.67    0.13
  -5  -2   2    0.91    0.23
   4   2  -2    3.86    0.30
  -4  -2   2    3.88    0.32
  -4  -2   2    3.95    0.22
  -4  -2   2    3.68    0.25
  -4  -2   2    3.89    0.22
  -4  -2   2    3.84    0.22
   3   2  -2    0.28    0.11
  -3  -2   2    0.22    0.11
  -3  -2   2    0.43    0.09
  -3  -2   2    0.39    0.09
  -3  -2   2    0.28    0.08
  -3  -2   2    0.21    0.07
   2   2  -2   18.86    0.50
   2   2  -2   18.06    0.54
  -2  -2   2   18.25    0.45
  -2  -2   2   18.96    0.45
  -2  -2   2   19.03    0.47
  -2  -2   2   18.60    0.52
  -2  -2   2   18.43    0.47
   1   2  -2  604.41    9.94
   1   2  -2  590.08    9.97
   1   2  -2  615.64    9.96
   1   2  -2  605.35    9.92
   1   2  -2  590.42   10.21
  -1  -2   2  614.00    9.93
  -1  -2   2  605.00    9.89
  -1  -2   2  611.64    9.96
  -1  -2   2  598.90    9.96
  -1  -2   2  605.10    9.95
   0   2  -2  142.14    2.48
   0   2  -2  144.98    2.49
   0   2  -2  142.92    2.48
   0   2  -2  149.55    2.53
   0   2  -2  144.94    2.52
   0  -2   2  149.62    2.50
   0  -2   2  149.12    2.49
   0  -2   2  145.95    2.48
   0  -2   2  153.22    2.52
   0  -2   2  144.79    2.52
  -1   2  -2   49.13    0.92
  -1   2  -2   48.18    0.91
  -1   2  -2   49.64    0.91
  -1   2  -2   48.38    0.90
  -1   2  -2   50.36    0.87
  -1   2  -2   50.67    0.89
   1  -2   2   48.08    0.85
   1  -2   2   48.45    0.88
   1  -2   2   47.76    0.86
   1  -2   2   48.02    0.92
   1  -2   2   48.71    0.91
  -2   2  -2  124.33    2.19
  -2   2  -2  125.55    2.17
   2  -2   2  127.14    2.18
  -3   2  -2    4.33    0.18
  -3   2  -2    4.65    0.21
  -4   2  -2    5.78    0.22
  -4   2  -2    6.02    0.26
  -5   2  -2    7.28    0.26
  -5   2  -2    7.07    0.32
  -6   2  -2    4.36    0.29
  -7   2  -2   -0.02    0.21
  -7  -1   2    0.96    0.32
   6   1  -2    0.90    0.24
  -6  -1   2    1.11    0.29
   5   1  -2    9.05    0.50
  -5  -1   2    9.72    0.55
   4   1  -2    8.45    0.41
  -4  -1   2    7.58    0.42
  -4  -1   2    7.76    0.27
  -4  -1   2    7.22    0.35
   3   1  -2   11.26    0.42
  -3  -1   2   11.37    0.39
  -3  -1   2   10.74    0.31
  -3  -1   2   11.33    0.44
   2   1  -2   55.51    1.13
  -2  -1   2   56.06    1.05
  -2  -1   2   58.02    1.05
  -2  -1   2   57.21    1.05
  -2  -1   2   57.78    1.11
  -2  -1   2   57.77    1.11
   1   1  -2   60.45    1.07
   1   1  -2   61.26    1.08
   1   1  -2   62.57    1.08
   1   1  -2   61.25    1.09
   1   1  -2   59.49    1.13
  -1  -1   2   59.83    1.09
  -1  -1   2   61.38    1.07
  -1  -1   2   60.88    1.08
  -1  -1   2   58.88    1.08
   0   1  -2    0.17    0.03
   0   1  -2    0.29    0.04
   0   1  -2    0.45    0.04
   0   1  -2    0.22    0.03
   0   1  -2    0.18    0.04
   0   1  -2    0.24    0.04
   0  -1   2    0.21    0.03
   0  -1   2    0.26    0.03
   0  -1   2    0.23    0.04
   0  -1   2    0.24    0.04
   0  -1   2    0.25    0.04
   0  -1   2    0.27    0.04
  -1   1  -2   74.98    1.33
  -1   1  -2   76.21    1.31
   1  -1   2   77.51    1.31
   1  -1   2   75.77    1.33
  -2   1  -2    3.25    0.19
  -2   1  -2    3.01    0.13
  -2   1  -2    3.30    0.14
  -3   1  -2    8.98    0.27
  -4   1  -2    2.34    0.15
  -4   1  -2    2.08    0.22
  -5   1  -2   11.86    0.37
  -5   1  -2   12.70    0.40
  -6   1  -2    0.99    0.24
  -6   1  -2    1.41    0.30
  -7   1  -2    0.39    0.25
  -7   0   2    1.68    0.36
  -6   0   2    4.98    0.52
  -5   0   2    3.52    0.16
  -5   0   2    4.07    0.39
   4   0  -2    0.10    0.10
  -4   0   2    0.27    0.06
   3   0  -2    9.38    0.37
  -3   0   2    8.22    0.34
  -3   0   2    8.31    0.21
   2   0  -2    3.24    0.17
  -2   0   2    3.35    0.17
  -2   0   2    3.23    0.10
  -2   0   2    3.45    0.13
   1   0  -2   49.30    0.96
   1   0  -2   55.57    0.93
   1   0  -2   57.63    0.99
   1   0  -2   56.65    0.95
   1   0  -2   55.90    0.96
  -1   0   2   54.90    0.97
  -1   0   2   55.95    0.93
  -1   0   2   55.45    0.98
  -1   0   2   55.14    0.99
  -1   0   2   56.07    0.96
   0   0  -2  119.49    1.98
   0   0  -2  123.40    1.97
   0   0  -2  118.20    1.97
   0   0  -2  119.84    1.98
   0   0  -2  124.77    1.98
   0   0   2  120.22    1.95
   0   0   2  101.33    1.96
   0   0   2  118.66    1.98
   0   0   2  121.75    2.01
  -1   0  -2  985.49   16.58
  -1   0  -2 1000.00   16.16
  -1   0  -2  990.69   16.47
  -1   0  -2  982.59   16.50
   1   0   2  979.68   16.51
   1   0   2  992.40   16.51
  -2   0  -2   57.27    1.10
  -2   0  -2   54.83    1.12
   2   0   2   54.02    1.13
  -3   0  -2   14.52    0.46
  -3   0  -2   14.77    0.49
   3   0   2   14.41    0.50
  -4   0  -2    5.05    0.34
  -4   0  -2    4.69    0.29
   4   0   2    4.35    0.32
  -5   0  -2    8.52    0.49
  -5   0  -2    7.71    0.33
   5   0   2    7.51    0.47
  -6   0  -2    0.30    0.21
  -7   0  -2    1.19    0.31
  -7   1   2    0.35    0.28
  -3   1   2    1.13    0.16
  -2   1   2   19.21    0.39
  -2   1   2   19.20    0.49
  -2   1   2   18.15    0.40
  -2   1   2   18.98    0.41
   1  -1  -2  214.89    3.56
   1  -1  -2  215.70    3.54
   1  -1  -2  216.12    3.55
  -1   1   2  215.41    3.55
  -1   1   2  207.23    3.57
   0  -1  -2   14.28    0.29
   0  -1  -2   14.50    0.32
   0  -1  -2   14.18    0.30
   0   1   2   14.45    0.32
   0   1   2   14.48    0.29
   0   1   2   14.14    0.30
  -1  -1  -2   56.97    1.03
  -1  -1  -2   58.36    1.07
  -1  -1  -2   58.79    1.01
   1   1   2   60.74    1.08
   1   1   2   60.05    1.08
   1   1   2   59.90    1.10
  -2  -1  -2   60.74    1.21
  -2  -1  -2   59.32    1.20
  -2  -1  -2   61.15    1.18
   2   1   2   61.31    1.24
   2   1   2   63.73    1.21
  -3  -1  -2   27.49    0.69
  -3  -1  -2   27.13    0.72
   3   1   2   26.99    0.76
  -4  -1  -2    5.20    0.30
  -4  -1  -2    5.05    0.33
   4   1   2    5.51    0.36
  -5  -1  -2    5.53    0.41
   5   1   2    5.24    0.42
  -6  -1  -2    0.51    0.22
   6   1   2    0.10    0.18
  -7  -1  -2    1.40    0.33
  -3   2   2    5.56    0.19
  -3   2   2    5.29    0.20
  -3   2   2    5.84    0.22
   2  -2  -2    5.61    0.15
  -2   2   2    6.04    0.19
   1  -2  -2  111.89    1.85
   1  -2  -2  110.99    1.95
   1  -2  -2  111.04    1.91
  -1   2   2  111.76    1.97
  -1   2   2  111.62    1.91
  -1   2   2  109.74    1.87
  -1   2   2  111.39    1.95
   0  -2  -2  160.82    2.66
   0  -2  -2  157.22    2.71
   0  -2  -2  155.96    2.67
   0   2   2  153.12    2.67
   0   2   2  159.52    2.71
   0   2   2  157.46    2.65
  -1  -2  -2   10.05    0.29
  -1  -2  -2    9.82    0.29
   1   2   2   10.55    0.26
   1   2   2   10.12    0.27
   1   2   2   10.19    0.29
   1   2   2   10.65    0.22
  -2  -2  -2   70.50    1.27
  -2  -2  -2   69.67    1.30
  -2  -2  -2   70.66    1.37
   2   2   2   72.50    1.38
   2   2   2   70.94    1.41
   2   2   2   71.00    1.42
  -3  -2  -2   10.43    0.40
  -3  -2  -2    9.93    0.36
   3   2   2   10.19    0.43
   3   2   2   10.13    0.39
  -4  -2  -2    4.26    0.31
  -4  -2  -2    3.65    0.26
   4   2   2    3.89    0.32
  -5  -2  -2    9.16    0.50
   5   2   2    9.57    0.55
  -6  -2  -2    0.46    0.21
   6   2   2    0.35    0.20
  -5   3   2   10.33    0.40
  -5   3   2   10.29    0.34
  -4   3   2    3.52    0.22
  -4   3   2    4.00    0.20
   3  -3  -2    2.28    0.11
  -3   3   2    2.15    0.14
   2  -3  -2    2.52    0.13
  -2   3   2    2.97    0.15
  -2   3   2    2.60    0.11
  -2   3   2    2.39    0.17
   1  -3  -2   46.28    0.92
   1  -3  -2   47.28    0.83
  -1   3   2   45.91    0.93
  -1   3   2   46.60    0.90
  -1   3   2   46.09    0.97
   0  -3  -2   89.89    1.65
   0  -3  -2   85.69    1.61
   0   3   2   89.92    1.57
   0   3   2   86.86    1.57
   0   3   2   90.24    1.66
   0   3   2   86.98    1.61
  -1  -3  -2    2.40    0.16
  -1  -3  -2    2.35    0.16
   1   3   2    2.66    0.16
   1   3   2    2.76    0.12
   1   3   2    2.57    0.16
  -2  -3  -2   11.45    0.26
  -2  -3  -2   11.41    0.38
  -2  -3  -2   11.07    0.36
   2   3   2   10.84    0.40
   2   3   2   10.99    0.40
   2   3   2   11.70    0.37
  -3  -3  -2    7.28    0.29
  -3  -3  -2    7.67    0.28
  -3  -3  -2    7.17    0.34
   3   3   2    8.10    0.39
   3   3   2    7.83    0.35
  -4  -3  -2   10.57    0.47
  -4  -3  -2    9.61    0.38
  -4  -3  -2   10.11    0.35
   4   3   2    9.50    0.50
  -5  -3  -2    3.77    0.35
  -5  -3  -2    3.59    0.25
   5   3   2    2.82    0.36
  -6  -3  -2    0.19    0.18
   6   3   2    0.35    0.22
  -7   4   2    0.45    0.20
  -6   4   2    0.95    0.20
  -5   4   2    1.29    0.18
  -5   4   2    0.93    0.14
   4  -4  -2    6.35    0.21
  -4   4   2    7.16    0.34
  -4   4   2    7.78    0.29
   3  -4  -2   11.37    0.33
  -3   4   2   11.82    0.36
  -3   4   2   11.47    0.29
  -3   4   2   11.81    0.42
   2  -4  -2   13.11    0.39
  -2   4   2   13.49    0.33
  -2   4   2   13.67    0.38
  -2   4   2   13.73    0.45
   1  -4  -2   94.61    1.78
   1  -4  -2   93.83    1.76
   1  -4  -2   96.31    1.64
  -1   4   2   92.44    1.74
  -1   4   2   94.00    1.72
  -1   4   2   94.14    1.82
  -1   4   2   93.47    1.76
   0  -4  -2   22.76    0.58
   0   4   2   23.29    0.54
   0   4   2   22.60    0.58
   0   4   2   22.61    0.54
   0   4   2   23.88    0.63
  -1  -4  -2   22.89    0.60
  -1  -4  -2   23.54    0.63
   1   4   2   23.34    0.51
   1   4   2   22.93    0.61
   1   4   2   23.95    0.61
  -2  -4  -2   21.99    0.48
  -2  -4  -2   21.80    0.60
  -2  -4  -2   21.24    0.61
   2   4   2   22.28    0.58
   2   4   2   21.39    0.63
  -3  -4  -2    2.39    0.25
  -3  -4  -2    1.59    0.19
  -3  -4  -2    1.95    0.12
   3   4   2    2.34    0.23
   3   4   2    2.56    0.28
  -4  -4  -2    4.28    0.27
  -4  -4  -2    4.32    0.33
   4   4   2    4.45    0.36
  -5  -4  -2    1.80    0.28
  -5  -4  -2    1.61    0.21
   5   4   2    1.65    0.31
  -6  -4  -2    1.63    0.29
  -6  -4  -2    1.77    0.25
   6   4   2    1.73    0.36
  -6   5   2    8.32    0.47
  -6   5   2    9.54    0.49
  -6   5   2    8.50    0.39
  -5   5   2    0.93    0.16
  -5   5   2    0.66    0.17
  -5   5   2    0.90    0.19
   4  -5  -2   16.87    0.46
  -4   5   2   18.43    0.52
  -4   5   2   18.81    0.62
  -4   5   2   17.40    0.43
   3  -5  -2   16.92    0.48
  -3   5   2   17.30    0.58
  -3   5   2   18.43    0.50
  -3   5   2   17.78    0.43
  -3   5   2   16.55    0.55
   2  -5  -2   11.22    0.39
  -2   5   2   11.83    0.42
  -2   5   2   11.29    0.37
  -2   5   2   11.42    0.45
   1  -5  -2   25.00    0.67
   1  -5  -2   24.88    0.66
   1  -5  -2   25.20    0.54
  -1   5   2   24.63    0.61
  -1   5   2   24.76    0.63
  -1   5   2   25.46    0.71
   0  -5  -2    4.31    0.25
   0  -5  -2    4.67    0.29
   0   5   2    4.19    0.26
   0   5   2    4.31    0.21
  -1  -5  -2    6.28    0.31
   1   5   2    6.36    0.24
   1   5   2    5.73    0.29
  -2  -5  -2   47.95    1.12
   2   5   2   49.94    0.96
   2   5   2   48.81    1.07
   2   5   2   48.51    1.06
  -3  -5  -2    0.52    0.17
   3   5   2    1.02    0.20
   3   5   2    0.60    0.15
  -4  -5  -2    2.56    0.31
   4   5   2    3.74    0.39
   4   5   2    2.97    0.31
  -5  -5  -2    0.33    0.18
   5   5   2    0.33    0.21
  -6   6   2    0.24    0.17
  -6   6   2    0.50    0.20
  -6   6   2    0.44    0.15
  -5   6   2    0.41    0.13
  -5   6   2    0.22    0.14
  -5   6   2    0.13    0.13
  -4   6   2    1.75    0.23
  -4   6   2    1.56    0.20
  -4   6   2    1.67    0.24
  -4   6   2    1.59    0.15
   3  -6  -2    1.96    0.20
   3  -6  -2    1.62    0.17
  -3   6   2    1.92    0.24
  -3   6   2    1.74    0.23
  -3   6   2    1.60    0.18
  -2   6   2    4.43    0.25
  -2   6   2    4.50    0.28
   1  -6  -2    0.17    0.07
   1  -6  -2    0.08    0.09
  -1   6   2    0.13    0.10
  -1   6   2    0.21    0.08
  -1   6   2    0.08    0.08
   0  -6  -2    3.35    0.25
   0   6   2    3.98    0.28
   0   6   2    3.96    0.22
  -1  -6  -2   10.53    0.44
   1   6   2   10.11    0.44
   1   6   2   10.48    0.35
  -2  -6  -2   28.15    0.80
   2   6   2   28.05    0.74
   2   6   2   25.75    0.74
   2   6   2   26.57    0.63
  -3  -6  -2    9.54    0.47
   3   6   2    9.35    0.50
   3   6   2    9.71    0.44
  -4  -6  -2    1.34    0.25
   4   6   2    1.10    0.25
   4   6   2    1.57    0.25
  -5  -6  -2    1.98    0.32
   5   6   2    2.33    0.38
  -6   7   2    0.26    0.20
  -6   7   2    0.22    0.15
  -6   7   2    0.26    0.18
  -5   7   2    0.04    0.13
  -5   7   2    0.23    0.13
  -5   7   2    0.17    0.16
  -4   7   2    3.21    0.27
  -4   7   2    2.85    0.30
  -4   7   2    3.36    0.37
   3  -7  -2   10.47    0.41
  -3   7   2   10.01    0.52
  -3   7   2   10.54    0.48
  -3   7   2   10.09    0.43
  -2   7   2   17.44    0.59
  -2   7   2   16.96    0.66
  -2   7   2   18.47    0.57
   1  -7  -2    9.15    0.44
   1  -7  -2    8.71    0.29
  -1   7   2    8.37    0.45
  -1   7   2    9.58    0.38
  -1   7   2    9.18    0.38
   0  -7  -2   21.34    0.68
   0   7   2   21.42    0.61
   0   7   2   21.38    0.73
  -1  -7  -2   37.60    1.00
   1   7   2   37.15    1.02
   1   7   2   37.08    0.87
  -2  -7  -2    1.51    0.25
   2   7   2    1.22    0.15
   2   7   2    1.42    0.19
  -3  -7  -2    3.78    0.36
   3   7   2    3.54    0.33
   3   7   2    3.75    0.40
  -4  -7  -2    2.65    0.35
   4   7   2    1.89    0.33
  -5   8   2    0.11    0.14
  -5   8   2    0.06    0.18
  -5   8   2    0.09    0.15
  -4   8   2    5.63    0.35
  -4   8   2    4.89    0.37
  -4   8   2    5.71    0.45
   3  -8  -2    0.21    0.15
  -3   8   2    0.36    0.14
  -3   8   2    0.22    0.13
  -3   8   2    0.28    0.19
  -2   8   2    1.60    0.22
  -2   8   2    1.47    0.22
  -2   8   2    1.62    0.29
   1  -8  -2    0.83    0.21
   1  -8  -2    0.53    0.11
  -1   8   2    0.31    0.16
  -1   8   2    0.49    0.13
   0  -8  -2    6.69    0.41
   0   8   2    6.59    0.34
   0   8   2    6.91    0.43
  -1  -8  -2    7.31    0.43
   1   8   2    6.97    0.33
   1   8   2    6.92    0.42
  -2  -8  -2    2.06    0.30
   2   8   2    1.28    0.16
   2   8   2    1.62    0.22
  -3  -8  -2    0.00    0.17
   3   8   2   -0.06    0.11
   3   8   2    0.08    0.16
  -4  -8  -2    0.52    0.23
   4   8   2    0.48    0.23
  -4   9   2    0.60    0.25
  -4   9   2    0.75    0.19
  -4   9   2    0.53    0.18
   3  -9  -2    0.62    0.19
  -3   9   2    0.99    0.21
  -3   9   2    0.55    0.17
  -3   9   2    0.74    0.24
   2  -9  -2    0.70    0.22
  -2   9   2    0.85    0.19
  -2   9   2    0.32    0.18
   1  -9  -2    7.26    0.46
   1  -9  -2    6.22    0.28
  -1   9   2    6.57    0.47
  -1   9   2    6.15    0.38
   0  -9  -2    0.22    0.18
   0   9   2    0.48    0.14
   0   9   2    0.16    0.14
  -1  -9  -2    9.21    0.51
   1   9   2    8.29    0.39
  -2  -9  -2    0.48    0.21
   2   9   2    0.15    0.14
  -3  -9  -2    0.40    0.23
   3   9   2    0.75    0.27
   3 -10  -2    2.72    0.33
  -3  10   2    3.50    0.37
  -3  10   2    3.08    0.43
  -3  10   2    3.30    0.35
   2 -10  -2    0.92    0.25
  -2  10   2    1.06    0.21
  -2  10   2    1.12    0.28
   1 -10  -2    8.32    0.53
  -1  10   2    7.73    0.45
  -1  10   2    7.72    0.54
   0 -10  -2   -0.04    0.17
   0  10   2   -0.02    0.12
  -1 -10  -2    1.88    0.32
   1  10   2    2.46    0.25
  -2 -10   3    1.18    0.29
   1  10  -3    0.41    0.16
  -1 -10   3    0.32    0.23
  -1 -10   3    0.20    0.21
   0  10  -3    1.84    0.32
   0  10  -3    1.30    0.22
   0 -10   3    1.48    0.27
   0 -10   3    2.02    0.31
  -1  10  -3    1.20    0.22
  -1  10  -3    1.22    0.27
   1 -10   3    1.31    0.28
   1 -10   3    0.79    0.23
  -2  10  -3    2.16    0.33
  -2  10  -3    2.67    0.31
   2 -10   3    2.24    0.29
  -3  10  -3    0.36    0.18
  -3  10  -3    0.28    0.19
   3   9  -3    4.48    0.47
  -3  -9   3    3.05    0.41
  -3  -9   3    3.70    0.43
  -2  -9   3    2.68    0.35
  -2  -9   3    2.23    0.35
   1   9  -3    1.52    0.21
  -1  -9   3    0.96    0.24
  -1  -9   3    1.87    0.30
   0   9  -3    1.50    0.28
   0   9  -3    1.64    0.22
   0  -9   3    1.08    0.23
   0  -9   3    1.37    0.25
  -1   9  -3    0.73    0.21
  -1   9  -3    0.78    0.18
   1  -9   3    0.50    0.18
   1  -9   3    0.68    0.21
   1  -9   3    0.67    0.12
  -2   9  -3    0.62    0.20
  -2   9  -3    0.52    0.17
   2  -9   3    0.40    0.17
  -3   9  -3    3.28    0.33
  -3   9  -3    3.92    0.44
   3  -9   3    3.89    0.39
  -4   9  -3    0.71    0.20
  -4   9  -3    0.97    0.26
   4   8  -3    4.84    0.50
  -4  -8   3    4.11    0.43
  -4  -8   3    5.15    0.46
   3   8  -3    1.07    0.23
  -3  -8   3    0.53    0.24
  -3  -8   3    0.54    0.23
   2   8  -3    2.28    0.27
  -2  -8   3    2.23    0.30
  -2  -8   3    2.51    0.33
   1   8  -3    0.54    0.17
   1   8  -3    0.62    0.14
  -1  -8   3    0.23    0.16
  -1  -8   3    0.95    0.22
   0   8  -3   14.18    0.52
   0   8  -3   14.63    0.62
   0  -8   3   13.91    0.57
   0  -8   3   14.71    0.58
  -1   8  -3    4.44    0.36
  -1   8  -3    4.18    0.30
   1  -8   3    4.00    0.32
   1  -8   3    3.96    0.32
   1  -8   3    4.21    0.20
  -2   8  -3    3.82    0.35
  -2   8  -3    3.97    0.30
   2  -8   3    2.93    0.28
  -3   8  -3    5.68    0.43
  -3   8  -3    6.67    0.39
  -4   8  -3    1.64    0.22
  -4   8  -3    1.53    0.24
  -4   8  -3    1.21    0.26
  -5   8  -3    1.27    0.25
  -5   8  -3    1.47    0.21
  -5   8  -3    1.83    0.30
   4   7  -3    0.01    0.16
  -4  -7   3    0.30    0.20
  -4  -7   3    0.40    0.20
   3   7  -3   17.51    0.58
   3   7  -3   17.28    0.69
  -3  -7   3   16.48    0.66
  -3  -7   3   17.70    0.69
   2   7  -3    4.29    0.25
   2   7  -3    3.76    0.29
  -2  -7   3    4.20    0.34
  -2  -7   3    4.30    0.40
   1   7  -3    9.25    0.38
   1   7  -3    9.49    0.45
  -1  -7   3   10.76    0.47
  -1  -7   3    9.63    0.46
   0   7  -3   15.92    0.52
   0   7  -3   17.70    0.64
   0  -7   3   16.30    0.58
   0  -7   3   15.49    0.56
  -1   7  -3   33.69    0.87
  -1   7  -3   34.59    0.98
   1  -7   3   34.86    0.90
   1  -7   3   35.17    0.91
  -2   7  -3    8.36    0.45
  -2   7  -3    8.52    0.41
  -2   7  -3    7.38    0.37
   2  -7   3    7.80    0.36
  -3   7  -3   11.01    0.43
  -3   7  -3   10.90    0.47
  -3   7  -3   11.53    0.53
  -3   7  -3   10.54    0.47
  -4   7  -3    0.09    0.13
  -4   7  -3    0.16    0.12
  -4   7  -3    0.05    0.10
  -4   7  -3    0.34    0.14
  -5   7  -3    1.22    0.22
  -5   7  -3    1.77    0.21
  -5   7  -3    1.56    0.25
  -6   7  -3    0.19    0.15
  -6   7  -3   -0.01    0.14
   5   6  -3    2.22    0.35
  -5  -6   3    2.48    0.31
  -5  -6   3    2.04    0.29
  -5  -6   3    2.36    0.34
   4   6  -3    2.33    0.31
  -4  -6   3    2.76    0.34
  -4  -6   3    2.65    0.29
  -4  -6   3    2.77    0.30
   3   6  -3   22.52    0.77
  -3  -6   3   24.16    0.77
  -3  -6   3   21.99    0.72
   2   6  -3   20.33    0.64
   2   6  -3   20.39    0.56
  -2  -6   3   21.12    0.67
  -2  -6   3   21.02    0.67
   1   6  -3   17.57    0.59
   1   6  -3   16.94    0.50
  -1  -6   3   16.80    0.56
  -1  -6   3   16.30    0.56
   0   6  -3    5.13    0.31
   0   6  -3    5.26    0.27
   0  -6   3    5.54    0.30
   0  -6   3    5.20    0.29
  -1   6  -3   21.32    0.65
  -1   6  -3   21.60    0.60
  -1   6  -3   21.27    0.67
   1  -6   3   20.50    0.60
   1  -6   3   21.25    0.62
  -2   6  -3    9.14    0.38
  -2   6  -3    9.37    0.40
  -2   6  -3    9.20    0.42
  -2   6  -3    9.04    0.34
   2  -6   3    8.77    0.34
  -3   6  -3    9.26    0.42
  -3   6  -3    9.58    0.41
  -3   6  -3    9.28    0.36
  -3   6  -3    9.32    0.40
  -4   6  -3    0.60    0.13
  -4   6  -3    0.65    0.13
  -4   6  -3    0.63    0.15
  -4   6  -3    0.59    0.15
  -5   6  -3    0.75    0.14
  -5   6  -3    0.80    0.18
  -5   6  -3    0.90    0.19
  -6   6  -3    0.97    0.21
  -6   6  -3    0.98    0.21
  -6  -5   3   -0.09    0.16
   5   5  -3    0.36    0.19
  -5  -5   3    0.10    0.15
  -5  -5   3    0.29    0.16
  -5  -5   3    0.14    0.17
   4   5  -3    0.96    0.21
  -4  -5   3    1.39    0.22
  -4  -5   3    1.50    0.22
  -4  -5   3    1.04    0.22
   3   5  -3    9.80    0.46
  -3  -5   3   10.55    0.43
  -3  -5   3    9.87    0.42
  -3  -5   3    9.83    0.46
   2   5  -3    0.18    0.07
   2   5  -3    0.50    0.12
  -2  -5   3    0.11    0.12
  -2  -5   3    0.28    0.11
  -2  -5   3    0.04    0.09
   1   5  -3   21.80    0.56
   1   5  -3   22.57    0.65
  -1  -5   3   21.74    0.62
  -1  -5   3   22.03    0.61
  -1  -5   3   23.51    0.62
   0   5  -3   11.65    0.43
   0   5  -3   11.54    0.43
   0   5  -3   12.21    0.38
   0  -5   3   11.72    0.40
   0  -5   3   11.83    0.41
   0  -5   3   12.63    0.50
  -1   5  -3    9.33    0.34
  -1   5  -3    9.34    0.39
  -1   5  -3   10.48    0.41
  -1   5  -3    9.38    0.37
   1  -5   3    9.00    0.35
   1  -5   3    9.37    0.38
   1  -5   3    9.32    0.34
  -2   5  -3    5.98    0.28
  -2   5  -3    5.97    0.31
  -2   5  -3    5.80    0.29
  -2   5  -3    6.35    0.26
   2  -5   3    5.83    0.24
   2  -5   3    6.13    0.30
  -3   5  -3    6.20    0.26
  -3   5  -3    5.65    0.28
  -3   5  -3    6.09    0.30
  -3   5  -3    5.83    0.30
   3  -5   3    5.86    0.28
  -4   5  -3    0.28    0.12
  -4   5  -3    0.18    0.08
  -4   5  -3    0.15    0.10
  -4   5  -3    0.22    0.09
   4  -5   3    0.29    0.11
  -5   5  -3    0.49    0.11
  -5   5  -3    0.69    0.15
  -5   5  -3    0.49    0.15
  -5   5  -3    0.49    0.14
  -6   5  -3    0.16    0.15
   6   4  -3    0.64    0.23
  -6  -4   3    0.14    0.17
  -6  -4   3    0.55    0.19
  -6  -4   3    0.50    0.23
   5   4  -3    5.37    0.43
  -5  -4   3    4.68    0.34
  -5  -4   3    4.34    0.31
  -5  -4   3    5.11    0.40
   4   4  -3    0.72    0.19
  -4  -4   3    0.82    0.16
  -4  -4   3    0.69    0.16
  -4  -4   3    0.56    0.11
  -4  -4   3    0.66    0.20
   3   4  -3    4.20    0.28
  -3  -4   3    3.62    0.19
  -3  -4   3    3.97    0.30
  -3  -4   3    4.00    0.26
  -3  -4   3    4.09    0.25
  -3  -4   3    4.12    0.26
   2   4  -3   24.07    0.58
   2   4  -3   23.62    0.62
  -2  -4   3   24.52    0.67
  -2  -4   3   24.37    0.68
  -2  -4   3   24.50    0.63
  -2  -4   3   24.31    0.66
  -2  -4   3   23.49    0.56
   1   4  -3  171.27    3.09
   1   4  -3  172.63    2.92
   1   4  -3  168.71    3.06
   1   4  -3  172.88    2.98
   1   4  -3  168.47    3.07
  -1  -4   3  173.52    2.98
  -1  -4   3  175.35    3.06
  -1  -4   3  172.92    3.04
  -1  -4   3  174.11    3.10
   0   4  -3   57.93    1.19
   0   4  -3   58.51    1.20
   0   4  -3   56.62    1.12
   0   4  -3   56.06    1.14
   0  -4   3   58.10    1.16
   0  -4   3   56.05    1.12
   0  -4   3   57.84    1.14
   0  -4   3   58.54    1.19
  -1   4  -3   41.41    0.91
  -1   4  -3   40.03    0.90
  -1   4  -3   40.06    0.85
  -1   4  -3   40.37    0.86
   1  -4   3   40.11    0.87
   1  -4   3   42.47    0.91
   1  -4   3   41.46    0.87
   1  -4   3   42.37    0.85
  -2   4  -3   10.30    0.35
  -2   4  -3   10.30    0.34
  -2   4  -3    9.68    0.34
  -2   4  -3   10.70    0.31
  -2   4  -3   10.16    0.35
   2  -4   3   10.36    0.35
  -3   4  -3   12.27    0.38
  -3   4  -3   11.30    0.37
  -3   4  -3   11.80    0.40
  -3   4  -3   11.94    0.33
   3  -4   3   12.13    0.39
  -4   4  -3    9.44    0.39
  -4   4  -3    9.79    0.34
   4  -4   3    9.31    0.34
  -5   4  -3    0.44    0.13
  -5   4  -3    0.43    0.10
  -6   4  -3    0.33    0.14
   6   3  -3    0.94    0.26
  -6  -3   3    0.87    0.25
  -6  -3   3    1.44    0.30
  -6  -3   3    0.87    0.22
   5   3  -3    8.53    0.51
  -5  -3   3    8.40    0.41
  -5  -3   3    8.47    0.38
  -5  -3   3    9.17    0.52
   4   3  -3    2.32    0.28
  -4  -3   3    2.21    0.21
  -4  -3   3    2.20    0.21
  -4  -3   3    2.30    0.28
  -4  -3   3    2.24    0.22
  -4  -3   3    2.32    0.21
   3   3  -3   38.15    0.94
  -3  -3   3   37.30    0.83
  -3  -3   3   38.40    0.85
  -3  -3   3   36.14    0.86
  -3  -3   3   38.14    0.95
  -3  -3   3   37.71    0.84
  -3  -3   3   36.59    0.87
   2   3  -3   26.49    0.61
   2   3  -3   26.39    0.71
   2   3  -3   25.51    0.64
  -2  -3   3   25.35    0.62
  -2  -3   3   25.74    0.65
  -2  -3   3   25.67    0.56
  -2  -3   3   26.53    0.62
  -2  -3   3   26.35    0.67
  -2  -3   3   25.44    0.64
   1   3  -3   10.15    0.25
   1   3  -3   10.00    0.33
   1   3  -3   10.27    0.34
   1   3  -3   10.85    0.35
  -1  -3   3   10.41    0.29
  -1  -3   3    9.32    0.33
  -1  -3   3   10.13    0.32
  -1  -3   3    9.97    0.32
  -1  -3   3   10.23    0.34
  -1  -3   3   10.68    0.32
   0   3  -3   45.74    0.91
   0   3  -3   46.92    0.92
   0   3  -3   46.81    0.93
   0   3  -3   48.35    0.97
   0  -3   3   46.71    0.91
   0  -3   3   46.28    0.91
   0  -3   3   47.55    0.94
   0  -3   3   48.58    0.98
   0  -3   3   46.68    0.96
  -1   3  -3   54.98    1.09
  -1   3  -3   55.54    1.09
  -1   3  -3   56.81    1.05
  -1   3  -3   57.42    1.06
  -1   3  -3   55.88    1.07
   1  -3   3   55.49    1.09
   1  -3   3   54.87    1.07
   1  -3   3   55.22    1.06
   1  -3   3   55.57    1.04
   1  -3   3   56.12    1.01
  -2   3  -3   20.63    0.43
  -2   3  -3   19.56    0.47
  -2   3  -3   19.75    0.49
  -2   3  -3   19.40    0.49
  -2   3  -3   19.97    0.45
  -2   3  -3   20.01    0.49
   2  -3   3   19.88    0.50
  -3   3  -3    7.60    0.29
  -3   3  -3    7.87    0.28
   3  -3   3    7.36    0.27
  -4   3  -3    3.80    0.20
  -4   3  -3    3.84    0.23
  -5   3  -3    0.15    0.11
  -5   3  -3    0.51    0.10
  -6   3  -3    1.17    0.18
   6   2  -3    2.56    0.36
  -6  -2   3    3.56    0.45
  -6  -2   3    2.71    0.28
   5   2  -3    1.23    0.23
  -5  -2   3    1.52    0.19
  -5  -2   3    1.33    0.18
  -5  -2   3    1.69    0.29
   4   2  -3    2.28    0.26
  -4  -2   3    2.45    0.18
  -4  -2   3    2.48    0.18
  -4  -2   3    2.63    0.20
  -4  -2   3    2.44    0.29
  -4  -2   3    2.36    0.19
  -4  -2   3    2.23    0.22
   3   2  -3   15.78    0.51
  -3  -2   3   15.44    0.43
  -3  -2   3   15.22    0.43
  -3  -2   3   15.10    0.53
  -3  -2   3   14.93    0.43
  -3  -2   3   15.12    0.45
  -3  -2   3   15.21    0.42
   2   2  -3   19.53    0.57
   2   2  -3   19.97    0.51
  -2  -2   3   20.06    0.48
  -2  -2   3   19.20    0.54
  -2  -2   3   19.88    0.47
  -2  -2   3   19.58    0.49
  -2  -2   3   20.05    0.47
  -2  -2   3   20.13    0.50
   1   2  -3   96.04    1.69
   1   2  -3   92.90    1.66
   1   2  -3   92.65    1.68
   1   2  -3   94.90    1.71
  -1  -2   3   95.23    1.67
  -1  -2   3   93.54    1.63
  -1  -2   3   96.17    1.70
  -1  -2   3   91.68    1.68
  -1  -2   3   93.75    1.67
  -1  -2   3   93.17    1.59
  -1  -2   3   91.97    1.68
   0   2  -3  459.98    7.66
   0   2  -3  460.82    7.54
   0   2  -3  471.45    7.58
   0   2  -3  452.24    7.53
   0   2  -3  441.48    7.55
   0   2  -3  469.57    7.55
   0  -2   3  460.20    7.59
   0  -2   3  457.60    7.58
   0  -2   3  445.33    7.58
   0  -2   3  451.31    7.55
   0  -2   3  457.62    7.53
   0  -2   3  470.01    7.55
  -1   2  -3   15.83    0.38
  -1   2  -3   15.43    0.33
  -1   2  -3   15.60    0.34
  -1   2  -3   15.49    0.36
  -1   2  -3   15.75    0.36
  -1   2  -3   15.32    0.34
   1  -2   3   15.03    0.36
   1  -2   3   15.78    0.31
   1  -2   3   15.57    0.34
   1  -2   3   15.15    0.32
   1  -2   3   14.95    0.38
  -2   2  -3   51.90    1.10
  -2   2  -3   52.25    0.99
  -2   2  -3   51.53    1.00
   2  -2   3   51.16    1.00
  -3   2  -3   31.48    0.68
  -3   2  -3   31.78    0.69
  -4   2  -3    1.35    0.20
  -4   2  -3    1.03    0.13
  -4   2  -3    0.92    0.12
  -5   2  -3    1.62    0.15
  -5   2  -3    1.47    0.17
  -6   2  -3    4.65    0.29
  -7   2  -3   -0.06    0.23
  -7  -1   3    0.90    0.32
  -6  -1   3    4.19    0.32
  -6  -1   3    4.37    0.49
   5   1  -3   12.77    0.59
  -5  -1   3   13.53    0.64
   4   1  -3    0.92    0.17
  -4  -1   3    0.97    0.20
  -4  -1   3    0.85    0.11
  -4  -1   3    0.83    0.10
  -4  -1   3    1.15    0.12
  -4  -1   3    0.95    0.15
   3   1  -3   21.53    0.61
  -3  -1   3   21.31    0.48
  -3  -1   3   22.13    0.49
  -3  -1   3   21.44    0.51
  -3  -1   3   21.89    0.66
  -3  -1   3   20.83    0.51
  -3  -1   3   20.67    0.57
   2   1  -3   11.68    0.35
  -2  -1   3   10.97    0.29
  -2  -1   3   11.41    0.31
  -2  -1   3   11.24    0.29
  -2  -1   3   10.77    0.32
  -2  -1   3   11.19    0.38
  -2  -1   3   11.26    0.31
   1   1  -3   42.70    0.78
   1   1  -3   40.78    0.77
   1   1  -3   41.13    0.79
   1   1  -3   42.32    0.77
   1   1  -3   41.82    0.79
  -1  -1   3   40.78    0.83
  -1  -1   3   42.76    0.78
  -1  -1   3   42.39    0.81
  -1  -1   3   42.17    0.80
  -1  -1   3   41.90    0.78
   0   1  -3  168.73    2.80
   0   1  -3  169.65    2.82
   0   1  -3  164.90    2.80
   0   1  -3  164.41    2.77
   0   1  -3  172.10    2.82
   0  -1   3  172.62    2.82
   0  -1   3  166.04    2.81
   0  -1   3  169.12    2.79
   0  -1   3  166.28    2.80
   0  -1   3  170.04    2.77
   0  -1   3  163.14    2.74
   0  -1   3  165.64    2.80
  -1   1  -3  289.90    4.69
  -1   1  -3  288.54    4.73
  -1   1  -3  278.30    4.74
  -1   1  -3  284.17    4.77
   1  -1   3  278.82    4.74
   1  -1   3  288.40    4.70
  -2   1  -3   18.44    0.48
  -2   1  -3   17.82    0.43
  -2   1  -3   18.39    0.40
  -2   1  -3   18.94    0.51
   2  -1   3   18.17    0.51
  -3   1  -3    1.92    0.13
  -3   1  -3    2.06    0.14
  -3   1  -3    1.81    0.18
   3  -1   3    2.32    0.20
  -4   1  -3    6.86    0.25
  -4   1  -3    6.81    0.27
  -4   1  -3    6.96    0.36
  -5   1  -3    0.53    0.11
  -5   1  -3    0.65    0.20
  -5   1  -3    0.80    0.13
  -6   1  -3    2.36    0.37
  -7   1  -3    0.67    0.27
  -7   0   3    0.25    0.26
  -6   0   3    3.11    0.44
  -5   0   3    0.26    0.19
  -4   0   3    0.62    0.10
  -4   0   3    0.75    0.07
  -4   0   3    0.60    0.09
   3   0  -3    7.11    0.31
  -3   0   3    6.62    0.30
  -3   0   3    6.95    0.18
  -3   0   3    7.30    0.24
   2   0  -3   15.44    0.41
  -2   0   3   14.77    0.36
  -2   0   3   15.84    0.34
  -2   0   3   15.04    0.40
  -2   0   3   15.18    0.36
  -2   0   3   14.91    0.30
   1   0  -3    3.62    0.14
   1   0  -3    3.87    0.14
   1   0  -3    3.91    0.12
   1   0  -3    3.89    0.13
  -1   0   3    3.96    0.15
  -1   0   3    3.58    0.15
  -1   0   3    3.67    0.13
  -1   0   3    4.16    0.14
  -1   0   3    3.89    0.12
   0   0  -3   67.68    1.19
   0   0  -3   68.69    1.15
   0   0  -3   69.39    1.19
   0   0  -3   67.89    1.17
   0   0  -3   67.25    1.19
   0   0   3   71.36    1.14
   0   0   3   67.54    1.18
   0   0   3   68.15    1.17
   0   0   3   67.24    1.14
  -1   0  -3  402.02    6.57
  -1   0  -3  398.24    6.56
  -1   0  -3  391.62    6.62
  -1   0  -3  396.49    6.59
   1   0   3  405.59    6.64
   1   0   3  397.94    6.56
   1   0   3  408.65    6.61
  -2   0  -3   47.67    0.82
  -2   0  -3   46.00    0.99
  -2   0  -3   47.49    0.96
   2   0   3   47.51    1.01
  -3   0  -3    8.26    0.33
  -3   0  -3    8.22    0.22
  -3   0  -3    7.77    0.34
   3   0   3    8.06    0.37
  -4   0  -3    7.10    0.35
  -4   0  -3    7.51    0.24
  -4   0  -3    8.05    0.41
   4   0   3    7.74    0.42
  -5   0  -3    7.92    0.35
  -5   0  -3    7.97    0.48
  -5   0  -3    7.96    0.28
   5   0   3    7.99    0.50
  -6   0  -3    0.60    0.23
   6   0   3    0.41    0.20
  -7   0  -3    0.43    0.23
  -7   1   3    0.00    0.26
  -4   1   3   -0.02    0.05
  -3   1   3   17.29    0.43
  -3   1   3   16.29    0.41
  -3   1   3   17.22    0.53
  -3   1   3   17.06    0.40
  -2   1   3    9.84    0.32
  -2   1   3    9.38    0.25
  -2   1   3    9.43    0.26
  -2   1   3    9.48    0.28
   1  -1  -3   39.52    0.77
   1  -1  -3   40.47    0.77
   1  -1  -3   40.26    0.75
  -1   1   3   40.27    0.79
  -1   1   3   41.89    0.76
  -1   1   3   41.41    0.72
   0  -1  -3  172.63    2.88
   0  -1  -3  173.81    2.88
   0  -1  -3  171.67    2.91
   0   1   3  172.19    2.91
   0   1   3  173.51    2.88
   0   1   3  173.74    2.88
  -1  -1  -3  110.03    1.88
  -1  -1  -3  106.95    1.86
  -1  -1  -3  107.48    1.83
   1   1   3  110.24    1.89
   1   1   3  112.08    1.93
  -2  -1  -3   48.38    0.96
  -2  -1  -3   46.83    0.96
  -2  -1  -3   47.16    0.99
   2   1   3   48.69    0.99
   2   1   3   46.47    1.02
   2   1   3   47.79    1.00
  -3  -1  -3   69.26    1.43
  -3  -1  -3   68.62    1.39
   3   1   3   71.02    1.51
  -4  -1  -3    3.16    0.25
  -4  -1  -3    2.98    0.27
   4   1   3    3.63    0.31
  -5  -1  -3    0.41    0.19
   5   1   3    0.37    0.18
  -6  -1  -3    0.37    0.20
   6   1   3    0.15    0.17
  -7  -1  -3    1.08    0.28
   7   1   3    0.74    0.27
  -4   2   3    1.15    0.12
  -4   2   3    1.51    0.13
  -3   2   3   23.14    0.56
  -3   2   3   23.34    0.51
  -3   2   3   21.54    0.53
   2  -2  -3   24.27    0.49
   2  -2  -3   23.64    0.46
  -2   2   3   24.37    0.52
   1  -2  -3    7.13    0.21
   1  -2  -3    6.73    0.23
   1  -2  -3    6.74    0.17
  -1   2   3    6.88    0.21
  -1   2   3    7.38    0.25
  -1   2   3    6.75    0.18
  -1   2   3    7.09    0.23
   0  -2  -3   24.89    0.50
   0  -2  -3   24.49    0.52
   0  -2  -3   23.57    0.54
   0   2   3   23.80    0.51
   0   2   3   24.03    0.50
   0   2   3   24.13    0.54
  -1  -2  -3   11.45    0.31
  -1  -2  -3   11.87    0.28
  -1  -2  -3   11.78    0.32
   1   2   3   11.45    0.32
   1   2   3   11.66    0.24
   1   2   3   11.26    0.30
   1   2   3   12.12    0.31
  -2  -2  -3   11.42    0.36
  -2  -2  -3   11.07    0.29
  -2  -2  -3   11.28    0.32
   2   2   3   11.32    0.38
   2   2   3   12.22    0.38
   2   2   3   12.38    0.41
  -3  -2  -3    4.21    0.25
   3   2   3    3.85    0.25
   3   2   3    3.98    0.28
  -4  -2  -3    4.42    0.29
  -4  -2  -3    4.59    0.31
   4   2   3    4.90    0.35
  -5  -2  -3    7.67    0.45
   5   2   3    8.47    0.52
  -6  -2  -3    0.61    0.22
   6   2   3    0.43    0.21
  -5   3   3   13.55    0.49
  -5   3   3   13.49    0.42
  -4   3   3    5.48    0.28
  -4   3   3    5.46    0.24
   3  -3  -3   14.37    0.31
  -3   3   3   13.78    0.44
  -3   3   3   14.35    0.39
   2  -3  -3   23.17    0.52
   2  -3  -3   23.77    0.52
  -2   3   3   23.72    0.48
  -2   3   3   24.08    0.61
  -2   3   3   24.58    0.55
   1  -3  -3   61.51    1.08
  -1   3   3   59.74    1.14
  -1   3   3   61.06    1.22
  -1   3   3   60.61    1.17
   0  -3  -3   20.14    0.49
   0  -3  -3   20.01    0.52
   0   3   3   20.05    0.46
   0   3   3   20.46    0.50
   0   3   3   21.15    0.53
  -1  -3  -3   26.83    0.65
  -1  -3  -3   27.03    0.63
   1   3   3   27.30    0.63
   1   3   3   28.14    0.54
   1   3   3   26.99    0.62
  -2  -3  -3    5.19    0.25
  -2  -3  -3    4.85    0.23
   2   3   3    5.32    0.24
   2   3   3    5.23    0.27
   2   3   3    5.30    0.26
  -3  -3  -3   14.59    0.49
  -3  -3  -3   14.03    0.40
  -3  -3  -3   14.12    0.43
   3   3   3   15.08    0.55
   3   3   3   14.77    0.50
  -4  -3  -3    4.96    0.33
  -4  -3  -3    4.26    0.23
   4   3   3    4.50    0.35
  -5  -3  -3    4.89    0.38
   5   3   3    4.41    0.40
  -6  -3  -3    0.37    0.20
   6   3   3    0.27    0.22
  -7   4   3    0.30    0.18
  -6   4   3    4.20    0.37
  -6   4   3    4.10    0.29
  -5   4   3   17.75    0.52
  -5   4   3   18.72    0.62
  -4   4   3    9.18    0.34
  -4   4   3    9.09    0.40
   3  -4  -3    7.72    0.26
  -3   4   3    7.67    0.24
  -3   4   3    8.10    0.29
  -3   4   3    7.77    0.35
   2  -4  -3   10.16    0.33
  -2   4   3   10.29    0.33
  -2   4   3   10.18    0.39
  -2   4   3   10.25    0.28
   1  -4  -3    3.07    0.20
   1  -4  -3    2.95    0.19
   1  -4  -3    3.19    0.14
  -1   4   3    2.75    0.21
  -1   4   3    2.70    0.19
  -1   4   3    2.80    0.17
   0  -4  -3   62.10    1.26
   0   4   3   62.90    1.26
   0   4   3   62.08    1.20
   0   4   3   64.28    1.32
   0   4   3   64.58    1.22
  -1  -4  -3    1.91    0.17
  -1  -4  -3    2.35    0.18
   1   4   3    1.81    0.16
   1   4   3    2.21    0.13
   1   4   3    2.17    0.19
  -2  -4  -3    4.62    0.26
  -2  -4  -3    5.04    0.27
   2   4   3    4.96    0.28
   2   4   3    4.60    0.16
   2   4   3    4.68    0.24
  -3  -4  -3   23.30    0.69
  -3  -4  -3   22.03    0.65
   3   4   3   23.90    0.70
   3   4   3   24.54    0.77
  -4  -4  -3    0.66    0.19
   4   4   3    0.81    0.20
   4   4   3    0.61    0.16
  -5  -4  -3    1.52    0.26
   5   4   3    1.45    0.29
  -6  -4  -3    0.15    0.19
   6   4   3   -0.25    0.17
  -6   5   3    0.44    0.18
  -6   5   3    0.25    0.17
  -6   5   3    0.18    0.14
  -5   5   3    0.37    0.12
  -5   5   3    0.58    0.16
   4  -5  -3   28.33    0.64
  -4   5   3   28.86    0.84
  -4   5   3   29.15    0.73
  -4   5   3   29.19    0.63
   3  -5  -3   32.46    0.75
  -3   5   3   33.82    0.70
  -3   5   3   33.03    0.78
  -3   5   3   33.69    0.90
   2  -5  -3    1.36    0.15
  -2   5   3    1.08    0.15
  -2   5   3    1.25    0.18
  -2   5   3    1.29    0.15
   1  -5  -3    1.73    0.19
   1  -5  -3    1.81    0.12
   1  -5  -3    1.89    0.21
  -1   5   3    1.97    0.23
  -1   5   3    1.58    0.17
  -1   5   3    1.87    0.16
   0  -5  -3   11.94    0.42
   0   5   3   11.89    0.38
   0   5   3   11.52    0.44
   0   5   3   11.71    0.37
  -1  -5  -3   18.79    0.57
   1   5   3   19.32    0.59
   1   5   3   19.35    0.47
  -2  -5  -3   10.21    0.42
   2   5   3   10.20    0.39
   2   5   3    9.79    0.29
   2   5   3    9.59    0.36
  -3  -5  -3   16.49    0.59
   3   5   3   15.44    0.63
   3   5   3   15.71    0.57
  -4  -5  -3    2.99    0.33
   4   5   3    3.18    0.37
   4   5   3    3.50    0.34
  -5  -5  -3    1.62    0.27
   5   5   3    1.97    0.33
  -6   6   3    0.65    0.17
  -6   6   3    0.72    0.20
  -6   6   3    1.15    0.26
  -5   6   3    1.95    0.25
  -5   6   3    2.05    0.22
  -5   6   3    1.97    0.28
  -4   6   3    1.27    0.21
  -4   6   3    1.62    0.20
  -4   6   3    1.08    0.21
  -4   6   3    0.93    0.13
   3  -6  -3    0.66    0.14
  -3   6   3    0.81    0.16
  -3   6   3    0.82    0.15
  -3   6   3    0.89    0.18
  -2   6   3    3.16    0.22
  -2   6   3    3.00    0.27
  -2   6   3    2.89    0.26
   1  -6  -3    2.44    0.26
   1  -6  -3    2.01    0.14
  -1   6   3    1.76    0.19
  -1   6   3    1.77    0.19
  -1   6   3    2.14    0.25
   0  -6  -3    6.33    0.33
   0   6   3    6.40    0.35
   0   6   3    6.00    0.28
  -1  -6  -3    9.51    0.42
   1   6   3    9.19    0.42
   1   6   3    9.17    0.33
  -2  -6  -3   30.43    0.86
   2   6   3   30.80    0.68
   2   6   3   29.93    0.80
   2   6   3   30.84    0.81
  -3  -6  -3    2.92    0.32
   3   6   3    3.31    0.31
   3   6   3    3.40    0.35
  -4  -6  -3    0.98    0.23
   4   6   3    1.16    0.25
   4   6   3    1.31    0.24
  -5  -6  -3    0.85    0.25
   5   6   3    0.77    0.28
  -6   7   3    0.16    0.17
  -6   7   3    0.37    0.16
  -6   7   3    0.49    0.22
  -5   7   3    1.11    0.20
  -5   7   3    0.47    0.17
  -5   7   3    0.50    0.19
  -4   7   3    0.41    0.14
  -4   7   3    0.46    0.17
  -4   7   3    0.57    0.21
  -3   7   3    6.73    0.44
  -3   7   3    6.76    0.36
  -3   7   3    7.25    0.40
  -2   7   3    4.46    0.36
  -2   7   3    4.07    0.27
  -2   7   3    3.24    0.27
   1  -7  -3    3.02    0.31
   1  -7  -3    2.77    0.18
  -1   7   3    3.14    0.36
  -1   7   3    2.88    0.23
  -1   7   3    2.58    0.22
   0  -7  -3    9.72    0.45
   0   7   3    8.70    0.36
   0   7   3    8.97    0.46
  -1  -7  -3   42.72    1.08
   1   7   3   41.36    1.11
   1   7   3   43.00    0.95
  -2  -7  -3   12.51    0.55
   2   7   3   12.66    0.49
   2   7   3   12.08    0.39
  -3  -7  -3    0.42    0.20
   3   7   3    0.52    0.15
   3   7   3    0.38    0.18
  -4  -7  -3    3.45    0.38
   4   7   3    4.10    0.46
  -5   8   3    0.00    0.14
  -5   8   3   -0.03    0.17
  -5   8   3    0.20    0.16
  -4   8   3    0.48    0.15
  -4   8   3    0.03    0.14
  -4   8   3    0.36    0.20
   3  -8  -3    0.02    0.14
  -3   8   3    0.16    0.17
  -3   8   3    0.29    0.14
  -3   8   3    0.01    0.12
  -2   8   3   13.50    0.52
  -2   8   3   14.63    0.66
  -2   8   3   14.24    0.55
   1  -8  -3    0.52    0.12
   1  -8  -3    0.77    0.21
  -1   8   3    0.51    0.14
  -1   8   3    0.65    0.20
   0  -8  -3    9.09    0.47
   0   8   3    8.78    0.49
   0   8   3    8.96    0.39
  -1  -8  -3    2.39    0.31
   1   8   3    3.30    0.43
   1   8   3    2.56    0.24
  -2  -8  -3    8.57    0.49
   2   8   3    8.31    0.42
   2   8   3    8.12    0.35
  -3  -8  -3    0.26    0.19
   3   8   3    0.25    0.19
  -4  -8  -3    0.89    0.30
  -4   9   3    0.12    0.19
  -4   9   3    0.28    0.16
  -4   9   3    0.49    0.18
   3  -9  -3    0.96    0.21
  -3   9   3    0.91    0.20
  -3   9   3    0.81    0.20
  -3   9   3    0.91    0.26
  -2   9   3    1.42    0.29
  -2   9   3    1.11    0.21
  -2   9   3    1.73    0.24
   1  -9  -3    9.34    0.35
   1  -9  -3   10.00    0.54
  -1   9   3   10.35    0.58
  -1   9   3    9.18    0.45
   0  -9  -3    3.64    0.35
   0   9   3    3.57    0.31
   0   9   3    3.11    0.38
  -1  -9  -3    0.44    0.19
   1   9   3    0.57    0.14
  -2  -9  -3    1.98    0.31
  -3  -9  -3   -0.05    0.26
   3   9   3    0.22    0.20
   3 -10  -3    0.53    0.21
  -3  10   3    0.27    0.21
  -3  10   3    0.47    0.18
  -3  10   3    1.08    0.23
   2 -10  -3    1.61    0.29
  -2  10   3    1.13    0.22
  -2  10   3    0.88    0.27
   1 -10  -3    4.44    0.42
  -1  10   3    4.55    0.52
  -1  10   3    4.63    0.35
   0 -10  -3    2.08    0.31
   0  10   3    1.25    0.22
  -1 -10  -3   -0.02    0.18
   1  10   3    0.10    0.12
  -1 -10   4    0.44    0.23
  -1 -10   4    1.22    0.28
   0  10  -4    0.25    0.15
   0  10  -4    0.20    0.16
   0 -10   4    0.05    0.17
   0 -10   4    0.46    0.22
  -1  10  -4    1.76    0.33
  -1  10  -4    1.21    0.22
   1 -10   4    0.98    0.24
   1 -10   4    1.42    0.27
  -2  10  -4    0.51    0.21
  -2  10  -4    0.29    0.16
   2 -10   4    0.32    0.17
  -3  10  -4    0.97    0.27
  -3  10  -4    0.45    0.18
   3   9  -4    0.91    0.26
  -3  -9   4    0.70    0.26
  -3  -9   4    0.36    0.23
  -2  -9   4    4.06    0.43
  -2  -9   4    3.34    0.42
   1   9  -4    1.24    0.20
   1   9  -4    1.37    0.27
  -1  -9   4    1.51    0.28
  -1  -9   4    1.45    0.30
   0   9  -4    2.34    0.36
   0   9  -4    2.11    0.25
   0  -9   4    2.84    0.33
   0  -9   4    2.29    0.32
  -1   9  -4    0.53    0.19
  -1   9  -4    0.03    0.11
   1  -9   4    0.04    0.09
   1  -9   4    0.16    0.16
   1  -9   4    0.41    0.18
  -2   9  -4    5.80    0.45
  -2   9  -4    6.20    0.40
   2  -9   4    6.34    0.38
  -3   9  -4    0.46    0.16
  -3   9  -4    0.67    0.23
  -4   9  -4    0.34    0.20
  -4   9  -4    0.24    0.15
   4   8  -4    5.02    0.46
  -4  -8   4    4.18    0.44
  -4  -8   4    4.44    0.47
   3   8  -4    1.34    0.27
  -3  -8   4    1.69    0.30
  -3  -8   4    1.77    0.31
  -2  -8   4    9.18    0.50
  -2  -8   4    9.38    0.50
   1   8  -4    4.50    0.29
   1   8  -4    4.13    0.34
   1   8  -4    4.16    0.22
  -1  -8   4    4.13    0.34
  -1  -8   4    3.18    0.33
   0   8  -4    2.52    0.25
   0   8  -4    2.58    0.33
   0  -8   4    2.30    0.29
   0  -8   4    2.04    0.27
  -1   8  -4   11.94    0.49
  -1   8  -4   12.60    0.58
   1  -8   4   12.45    0.52
   1  -8   4   11.90    0.52
  -2   8  -4    9.06    0.50
  -2   8  -4    8.68    0.43
   2  -8   4    9.16    0.41
  -3   8  -4    1.91    0.30
  -3   8  -4    1.26    0.21
  -3   8  -4    1.88    0.25
   3  -8   4    1.76    0.20
  -4   8  -4    0.37    0.14
  -4   8  -4    0.30    0.15
  -4   8  -4    0.16    0.17
  -4   8  -4    0.27    0.13
  -5   8  -4    0.42    0.19
  -5   8  -4    0.56    0.16
  -5   8  -4    0.56    0.18
   4   7  -4    1.12    0.25
  -4  -7   4    1.39    0.28
  -4  -7   4    1.05    0.25
   3   7  -4    7.56    0.46
  -3  -7   4    7.51    0.45
  -3  -7   4    7.40    0.47
   2   7  -4    2.85    0.26
   2   7  -4    2.62    0.19
  -2  -7   4    2.58    0.29
  -2  -7   4    2.83    0.31
   1   7  -4   10.05    0.47
   1   7  -4    9.79    0.39
  -1  -7   4   10.35    0.47
  -1  -7   4   10.35    0.47
   0   7  -4    0.88    0.18
   0   7  -4    0.75    0.14
   0  -7   4    0.77    0.16
   0  -7   4    0.97    0.20
  -1   7  -4    3.17    0.29
  -1   7  -4    3.46    0.33
  -1   7  -4    3.74    0.27
   1  -7   4    3.13    0.26
   1  -7   4    3.00    0.27
  -2   7  -4    2.81    0.29
  -2   7  -4    1.85    0.22
  -2   7  -4    2.56    0.30
   2  -7   4    2.43    0.23
  -3   7  -4    4.41    0.31
  -3   7  -4    4.76    0.29
  -3   7  -4    4.82    0.32
  -3   7  -4    5.20    0.37
  -4   7  -4    1.47    0.21
  -4   7  -4    1.44    0.19
  -4   7  -4    1.17    0.22
  -4   7  -4    1.32    0.22
  -5   7  -4    0.37    0.13
  -5   7  -4    0.39    0.17
  -5   7  -4    0.52    0.18
  -6   7  -4   -0.14    0.14
  -6   7  -4   -0.18    0.13
   5   6  -4    2.27    0.35
  -5  -6   4    1.90    0.29
  -5  -6   4    1.87    0.32
  -5  -6   4    1.95    0.30
   4   6  -4    2.52    0.32
  -4  -6   4    2.74    0.31
  -4  -6   4    2.42    0.29
  -4  -6   4    2.66    0.34
   3   6  -4   20.55    0.72
  -3  -6   4   20.87    0.68
  -3  -6   4   19.41    0.68
  -3  -6   4   21.18    0.72
   2   6  -4   32.67    0.75
   2   6  -4   31.46    0.86
  -2  -6   4   31.50    0.87
  -2  -6   4   32.86    0.88
   1   6  -4   11.34    0.33
   1   6  -4   12.01    0.41
   1   6  -4   11.99    0.48
  -1  -6   4   11.50    0.46
  -1  -6   4   12.14    0.46
   0   6  -4   61.51    1.27
   0   6  -4   62.75    1.39
   0   6  -4   58.92    1.37
   0  -6   4   61.35    1.30
   0  -6   4   61.10    1.33
  -1   6  -4   13.21    0.50
  -1   6  -4   13.25    0.45
  -1   6  -4   13.24    0.52
   1  -6   4   12.37    0.44
   1  -6   4   13.43    0.46
  -2   6  -4    3.12    0.31
  -2   6  -4    2.07    0.22
  -2   6  -4    2.33    0.22
   2  -6   4    2.75    0.20
  -3   6  -4   25.67    0.73
  -3   6  -4   25.53    0.72
  -3   6  -4   25.75    0.76
  -3   6  -4   25.58    0.65
  -4   6  -4    2.78    0.26
  -4   6  -4    2.08    0.22
  -4   6  -4    2.57    0.26
  -4   6  -4    2.28    0.20
  -5   6  -4   -0.09    0.10
  -5   6  -4    0.34    0.12
  -5   6  -4    0.25    0.13
  -6   6  -4    0.08    0.13
  -6   6  -4    0.06    0.14
   5   5  -4    0.70    0.22
  -5  -5   4    0.23    0.16
  -5  -5   4    0.33    0.17
  -5  -5   4    0.58    0.21
   4   5  -4    9.39    0.51
  -4  -5   4    9.30    0.44
  -4  -5   4    9.18    0.49
  -4  -5   4    9.43    0.45
   3   5  -4    2.55    0.27
  -3  -5   4    2.86    0.30
  -3  -5   4    2.85    0.26
  -3  -5   4    2.56    0.27
   2   5  -4    5.92    0.30
   2   5  -4    6.13    0.25
  -2  -5   4    6.64    0.33
  -2  -5   4    6.40    0.32
  -2  -5   4    5.72    0.32
   1   5  -4    7.10    0.33
   1   5  -4    6.55    0.28
   1   5  -4    6.65    0.22
  -1  -5   4    6.79    0.32
  -1  -5   4    7.10    0.32
   0   5  -4    4.80    0.27
   0   5  -4    4.54    0.26
   0   5  -4    4.26    0.22
   0  -5   4    3.91    0.24
   0  -5   4    4.34    0.24
  -1   5  -4   45.53    1.05
  -1   5  -4   45.24    0.98
  -1   5  -4   46.39    0.99
  -1   5  -4   46.63    1.07
   1  -5   4   44.99    0.99
   1  -5   4   46.86    1.05
   1  -5   4   47.12    0.99
  -2   5  -4   10.54    0.38
  -2   5  -4   10.77    0.34
  -2   5  -4   10.40    0.40
  -2   5  -4   10.75    0.41
   2  -5   4   10.82    0.40
   2  -5   4   10.78    0.33
  -3   5  -4    2.42    0.17
  -3   5  -4    2.29    0.20
  -3   5  -4    2.39    0.20
  -3   5  -4    2.57    0.22
   3  -5   4    2.51    0.21
  -4   5  -4    0.26    0.10
  -4   5  -4    0.43    0.10
  -4   5  -4    0.30    0.10
  -4   5  -4    0.16    0.11
   4  -5   4    0.29    0.12
  -5   5  -4    5.09    0.24
  -5   5  -4    5.46    0.31
  -5   5  -4    5.54    0.33
  -5   5  -4    5.27    0.28
  -6   5  -4   -0.09    0.12
   6   4  -4    0.62    0.23
  -6  -4   4    1.13    0.28
  -6  -4   4    0.86    0.20
  -6  -4   4    0.56    0.20
   5   4  -4    0.26    0.18
  -5  -4   4    0.45    0.16
  -5  -4   4    0.81    0.22
  -5  -4   4    0.46    0.17
   4   4  -4    1.79    0.25
  -4  -4   4    1.75    0.23
  -4  -4   4    1.68    0.22
  -4  -4   4    1.80    0.26
   3   4  -4   16.19    0.56
  -3  -4   4   16.05    0.51
  -3  -4   4   16.15    0.57
  -3  -4   4   15.98    0.44
  -3  -4   4   15.56    0.54
  -3  -4   4   15.46    0.51
   2   4  -4   21.83    0.59
   2   4  -4   21.92    0.59
  -2  -4   4   21.80    0.62
  -2  -4   4   22.05    0.53
  -2  -4   4   22.06    0.60
  -2  -4   4   21.34    0.62
  -2  -4   4   21.90    0.59
   1   4  -4   92.59    1.60
   1   4  -4   92.38    1.79
   1   4  -4   90.81    1.76
   1   4  -4   92.59    1.79
  -1  -4   4   91.98    1.78
  -1  -4   4   89.92    1.73
  -1  -4   4   93.48    1.69
  -1  -4   4   93.15    1.74
  -1  -4   4   91.87    1.75
   0   4  -4   40.91    0.92
   0   4  -4   40.74    0.85
   0   4  -4   41.71    0.93
   0   4  -4   40.49    0.86
   0  -4   4   40.44    0.85
   0  -4   4   41.37    0.88
   0  -4   4   41.16    0.86
   0  -4   4   40.30    0.92
  -1   4  -4   93.24    1.72
  -1   4  -4   92.88    1.77
  -1   4  -4   92.28    1.70
  -1   4  -4   95.05    1.77
   1  -4   4   92.92    1.71
   1  -4   4   92.38    1.72
   1  -4   4   89.92    1.69
   1  -4   4   93.18    1.77
  -2   4  -4   24.76    0.62
  -2   4  -4   23.63    0.54
  -2   4  -4   23.97    0.58
  -2   4  -4   25.62    0.61
  -2   4  -4   24.09    0.61
   2  -4   4   23.63    0.62
  -3   4  -4    3.15    0.16
  -3   4  -4    3.12    0.20
  -3   4  -4    2.95    0.20
  -3   4  -4    3.02    0.19
   3  -4   4    3.44    0.21
  -4   4  -4    1.66    0.19
  -4   4  -4    1.80    0.18
   4  -4   4    1.73    0.18
  -5   4  -4    5.34    0.31
  -5   4  -4    5.13    0.26
  -6   4  -4    0.44    0.14
   6   3  -4    2.94    0.39
  -6  -3   4    3.40    0.32
  -6  -3   4    4.26    0.46
  -6  -3   4    3.01    0.29
   5   3  -4    6.58    0.45
  -5  -3   4    7.30    0.36
  -5  -3   4    7.02    0.39
  -5  -3   4    6.97    0.48
   4   3  -4    0.30    0.13
  -4  -3   4    0.34    0.16
  -4  -3   4    0.06    0.09
  -4  -3   4    0.22    0.11
  -4  -3   4    0.22    0.11
  -4  -3   4    0.19    0.10
   3   3  -4    0.66    0.13
  -3  -3   4    0.58    0.15
  -3  -3   4    0.47    0.11
  -3  -3   4    0.32    0.11
  -3  -3   4    0.51    0.11
  -3  -3   4    0.54    0.10
  -3  -3   4    0.53    0.12
   2   3  -4   13.97    0.42
   2   3  -4   14.28    0.41
   2   3  -4   14.87    0.51
  -2  -3   4   13.96    0.44
  -2  -3   4   14.35    0.46
  -2  -3   4   13.75    0.37
  -2  -3   4   14.64    0.43
  -2  -3   4   14.29    0.42
  -2  -3   4   14.39    0.44
  -2  -3   4   13.94    0.35
   1   3  -4   24.01    0.60
   1   3  -4   24.81    0.61
   1   3  -4   25.33    0.62
   1   3  -4   25.50    0.49
  -1  -3   4   25.13    0.59
  -1  -3   4   25.13    0.59
  -1  -3   4   24.70    0.61
  -1  -3   4   24.57    0.55
  -1  -3   4   24.97    0.62
  -1  -3   4   25.82    0.59
   0   3  -4   10.54    0.30
   0   3  -4   11.04    0.32
   0   3  -4   10.80    0.35
   0   3  -4   11.01    0.30
   0   3  -4   11.23    0.35
   0  -3   4   10.62    0.32
   0  -3   4   10.46    0.30
   0  -3   4   10.65    0.34
   0  -3   4   10.80    0.31
  -1   3  -4   27.22    0.64
  -1   3  -4   27.92    0.59
  -1   3  -4   28.35    0.65
  -1   3  -4   27.43    0.61
  -1   3  -4   27.94    0.64
   1  -3   4   28.14    0.56
   1  -3   4   28.54    0.62
   1  -3   4   28.33    0.65
   1  -3   4   28.65    0.58
   1  -3   4   27.90    0.60
  -2   3  -4   39.96    0.76
  -2   3  -4   39.90    0.85
  -2   3  -4   40.65    0.83
  -2   3  -4   39.62    0.81
  -2   3  -4   40.16    0.78
  -2   3  -4   39.35    0.81
   2  -3   4   39.73    0.85
   2  -3   4   40.35    0.84
  -3   3  -4   20.09    0.51
  -3   3  -4   19.47    0.51
   3  -3   4   19.35    0.52
  -4   3  -4    6.20    0.27
  -4   3  -4    6.19    0.28
  -5   3  -4    3.37    0.21
  -5   3  -4    3.53    0.25
  -6   3  -4   -0.14    0.10
   6   2  -4    0.42    0.20
  -6  -2   4   -0.09    0.16
  -6  -2   4   -0.13    0.13
  -6  -2   4    0.16    0.22
   5   2  -4    6.06    0.42
  -5  -2   4    5.80    0.33
  -5  -2   4    6.13    0.31
  -5  -2   4    6.58    0.66
  -5  -2   4    6.07    0.45
   4   2  -4   20.81    0.69
  -4  -2   4   21.21    0.58
  -4  -2   4   20.71    0.54
  -4  -2   4   22.15    0.74
  -4  -2   4   20.16    0.58
  -4  -2   4   21.18    0.63
  -4  -2   4   21.11    0.56
   3   2  -4   14.79    0.50
  -3  -2   4   15.32    0.54
  -3  -2   4   15.30    0.45
  -3  -2   4   15.40    0.44
  -3  -2   4   15.18    0.45
  -3  -2   4   15.30    0.43
  -3  -2   4   14.97    0.42
   2   2  -4    2.27    0.14
   2   2  -4    2.37    0.15
   2   2  -4    2.75    0.16
  -2  -2   4    2.52    0.14
  -2  -2   4    2.48    0.15
  -2  -2   4    2.44    0.16
  -2  -2   4    2.30    0.15
  -2  -2   4    2.42    0.18
  -2  -2   4    2.21    0.16
   1   2  -4    0.37    0.07
   1   2  -4    0.38    0.08
   1   2  -4    0.43    0.08
   1   2  -4    0.37    0.08
  -1  -2   4    0.28    0.06
  -1  -2   4    0.37    0.08
  -1  -2   4    0.54    0.09
  -1  -2   4    0.23    0.07
  -1  -2   4    0.36    0.04
  -1  -2   4    0.52    0.08
   0   2  -4   31.24    0.62
   0   2  -4   29.49    0.62
   0   2  -4   31.62    0.65
   0   2  -4   31.00    0.65
   0   2  -4   29.29    0.59
   0   2  -4   29.66    0.61
   0  -2   4   30.25    0.62
   0  -2   4   30.05    0.59
   0  -2   4   30.81    0.61
   0  -2   4   30.89    0.64
   0  -2   4   29.68    0.62
   0  -2   4   31.23    0.65
  -1   2  -4   25.48    0.50
  -1   2  -4   25.46    0.53
  -1   2  -4   25.21    0.51
  -1   2  -4   25.24    0.53
  -1   2  -4   25.87    0.56
   1  -2   4   24.93    0.49
   1  -2   4   24.63    0.50
   1  -2   4   24.78    0.47
   1  -2   4   25.10    0.56
   1  -2   4   24.67    0.52
  -2   2  -4    4.63    0.20
  -2   2  -4    4.41    0.24
  -2   2  -4    4.42    0.18
   2  -2   4    4.32    0.20
   2  -2   4    4.48    0.19
  -3   2  -4   39.24    0.84
  -3   2  -4   39.07    0.81
  -3   2  -4   39.81    0.93
  -4   2  -4    7.56    0.38
  -4   2  -4    7.31    0.29
  -4   2  -4    7.48    0.28
  -5   2  -4    3.71    0.23
  -5   2  -4    3.86    0.23
  -6   2  -4    2.18    0.31
  -7   2  -4    0.42    0.24
  -7  -1   4    2.13    0.45
  -6  -1   4    2.39    0.26
  -6  -1   4    2.72    0.30
  -6  -1   4    2.85    0.41
   5   1  -4    8.03    0.46
  -5  -1   4    8.56    0.34
  -5  -1   4    9.18    0.38
  -5  -1   4    9.97    0.67
  -5  -1   4    9.04    0.54
   4   1  -4   11.27    0.47
  -4  -1   4   10.63    0.37
  -4  -1   4   11.29    0.38
  -4  -1   4   10.73    0.51
  -4  -1   4   11.49    0.35
  -4  -1   4   10.60    0.31
  -4  -1   4   10.93    0.44
   3   1  -4    0.92    0.14
  -3  -1   4    0.90    0.18
  -3  -1   4    1.07    0.10
  -3  -1   4    0.87    0.12
  -3  -1   4    0.83    0.12
  -3  -1   4    0.83    0.11
  -3  -1   4    1.11    0.12
   2   1  -4   58.51    1.05
   2   1  -4   55.95    1.10
  -2  -1   4   57.55    1.10
  -2  -1   4   55.38    1.18
  -2  -1   4   56.28    1.06
  -2  -1   4   56.05    1.04
  -2  -1   4   55.94    1.08
  -2  -1   4   55.91    1.08
   1   1  -4   66.60    1.17
   1   1  -4   64.59    1.19
   1   1  -4   65.54    1.17
   1   1  -4   64.57    1.13
   1   1  -4   62.07    1.18
  -1  -1   4   63.25    1.21
  -1  -1   4   65.11    1.17
  -1  -1   4   66.70    1.18
  -1  -1   4   65.22    1.20
  -1  -1   4   65.07    1.19
   0   1  -4  153.33    2.65
   0   1  -4  158.90    2.63
   0   1  -4  156.84    2.65
   0   1  -4  153.53    2.59
   0   1  -4  153.90    2.63
   0  -1   4  155.64    2.63
   0  -1   4  157.98    2.66
   0  -1   4  159.50    2.63
   0  -1   4  157.77    2.59
   0  -1   4  154.86    2.57
   0  -1   4  152.64    2.64
  -1   1  -4   47.25    0.92
  -1   1  -4   46.64    0.84
  -1   1  -4   47.91    0.83
  -1   1  -4   48.73    0.89
  -1   1  -4   46.16    0.91
  -1   1  -4   48.50    0.86
   1  -1   4   47.11    0.89
   1  -1   4   48.80    0.86
   1  -1   4   47.75    0.92
  -2   1  -4   39.30    0.82
  -2   1  -4   41.25    0.86
  -2   1  -4   40.60    0.90
  -2   1  -4   41.36    0.76
   2  -1   4   40.38    0.90
  -3   1  -4    8.11    0.24
  -3   1  -4    7.75    0.29
  -3   1  -4    8.16    0.34
   3  -1   4    7.86    0.37
  -4   1  -4    0.43    0.12
  -4   1  -4    0.69    0.12
  -4   1  -4    0.83    0.10
   4  -1   4    0.66    0.16
  -5   1  -4    0.52    0.20
  -5   1  -4    0.71    0.14
  -5   1  -4    0.83    0.12
  -6   1  -4    4.49    0.43
  -7   1  -4    0.33    0.24
  -7   0   4    0.83    0.34
  -6   0   4    3.84    0.47
  -6   0   4    4.27    0.32
  -6   0   4    4.33    0.36
  -5   0   4    2.42    0.20
  -5   0   4    3.24    0.39
  -4   0   4    0.54    0.11
  -4   0   4    0.74    0.11
  -4   0   4    0.66    0.10
  -3   0   4    6.18    0.25
  -3   0   4    6.13    0.16
  -3   0   4    6.33    0.22
  -3   0   4    6.04    0.23
  -3   0   4    5.86    0.28
   2   0  -4   66.66    1.14
   2   0  -4   65.89    1.16
  -2   0   4   65.47    1.25
  -2   0   4   65.43    1.23
  -2   0   4   65.54    1.14
  -2   0   4   66.91    1.20
  -2   0   4   65.81    1.22
   1   0  -4   11.37    0.30
   1   0  -4   10.69    0.29
   1   0  -4   11.52    0.28
   1   0  -4   12.05    0.27
  -1   0   4   11.74    0.30
  -1   0   4   12.05    0.27
  -1   0   4   12.14    0.26
  -1   0   4   11.52    0.31
  -1   0   4   11.66    0.29
   0   0  -4   50.35    0.91
   0   0  -4   50.14    0.93
   0   0  -4   51.45    0.93
   0   0  -4   51.08    0.88
   0   0  -4   51.40    0.94
   0   0   4   49.90    0.90
   0   0   4   50.86    0.87
   0   0   4   49.58    0.92
   0   0   4   53.55    0.87
  -1   0  -4  270.12    4.56
  -1   0  -4  265.57    4.48
   1   0   4  275.09    4.54
   1   0   4  272.94    4.46
   1   0   4  277.54    4.58
  -2   0  -4   28.15    0.68
  -2   0  -4   27.39    0.63
  -2   0  -4   28.80    0.64
  -2   0  -4   28.02    0.51
   2   0   4   28.95    0.67
   2   0   4   28.72    0.70
  -3   0  -4   10.39    0.38
  -3   0  -4   10.54    0.25
  -3   0  -4   10.29    0.39
   3   0   4    9.82    0.42
  -4   0  -4   17.50    0.39
  -4   0  -4   17.30    0.60
  -4   0  -4   16.51    0.56
   4   0   4   16.72    0.64
  -5   0  -4    0.62    0.15
  -5   0  -4    0.79    0.22
  -5   0  -4    0.46    0.08
   5   0   4    0.53    0.19
  -6   0  -4    0.22    0.20
   6   0   4    0.42    0.21
  -7   0  -4    0.66    0.27
  -7   1   4    0.27    0.27
  -6   1   4    5.47    0.35
  -6   1   4    5.20    0.36
  -5   1   4    6.10    0.32
  -5   1   4    5.93    0.28
  -4   1   4    1.31    0.15
  -4   1   4    1.61    0.14
  -4   1   4    1.23    0.13
  -3   1   4   39.35    0.79
  -3   1   4   38.11    0.81
  -3   1   4   39.52    0.92
  -3   1   4   40.76    0.85
   2  -1  -4    5.74    0.18
  -2   1   4    5.85    0.20
  -2   1   4    5.74    0.21
  -2   1   4    5.62    0.22
   1  -1  -4  301.24    5.19
   1  -1  -4  316.44    5.16
   1  -1  -4  315.63    5.19
  -1   1   4  312.66    5.12
  -1   1   4  311.40    5.22
  -1   1   4  311.92    5.17
   0  -1  -4   16.39    0.35
   0  -1  -4   16.08    0.39
   0  -1  -4   16.44    0.34
   0   1   4   16.86    0.35
   0   1   4   16.37    0.38
   0   1   4   16.60    0.34
  -1  -1  -4    1.40    0.08
  -1  -1  -4    1.30    0.09
  -1  -1  -4    1.27    0.09
   1   1   4    1.55    0.09
   1   1   4    1.38    0.11
  -2  -1  -4   79.25    1.51
  -2  -1  -4   77.70    1.46
   2   1   4   75.53    1.49
   2   1   4   79.14    1.55
   2   1   4   78.96    1.50
  -3  -1  -4    4.45    0.25
  -3  -1  -4    4.72    0.26
   3   1   4    4.45    0.26
   3   1   4    4.75    0.30
  -4  -1  -4   13.60    0.48
  -4  -1  -4   12.69    0.51
   4   1   4   12.36    0.56
  -5  -1  -4    1.27    0.24
   5   1   4    0.98    0.23
  -6  -1  -4    1.06    0.26
   6   1   4    1.39    0.28
  -7  -1  -4    0.06    0.21
  -7   2   4    0.06    0.17
  -6   2   4    0.04    0.12
  -5   2   4    0.48    0.13
  -5   2   4    0.29    0.13
  -4   2   4    8.17    0.34
  -4   2   4    7.97    0.29
  -4   2   4    7.58    0.30
  -3   2   4    5.55    0.22
  -3   2   4    6.20    0.27
   2  -2  -4   74.58    1.31
   2  -2  -4   72.27    1.33
  -2   2   4   73.64    1.40
  -2   2   4   72.07    1.27
  -2   2   4   71.49    1.33
   1  -2  -4   29.15    0.69
   1  -2  -4   28.85    0.54
   1  -2  -4   27.96    0.58
  -1   2   4   28.13    0.59
  -1   2   4   28.40    0.55
  -1   2   4   27.52    0.61
  -1   2   4   26.98    0.64
   0  -2  -4   58.94    1.07
   0  -2  -4   57.81    1.12
   0  -2  -4   57.48    1.07
   0   2   4   57.62    1.08
   0   2   4   58.15    1.12
   0   2   4   58.38    1.06
  -1  -2  -4   45.16    0.88
  -1  -2  -4   43.67    0.89
  -1  -2  -4   46.24    0.84
   1   2   4   45.95    0.89
   1   2   4   44.37    0.86
  -2  -2  -4    2.79    0.18
  -2  -2  -4    2.41    0.14
   2   2   4    2.65    0.18
   2   2   4    2.47    0.19
   2   2   4    2.49    0.18
  -3  -2  -4   17.53    0.53
   3   2   4   17.30    0.60
   3   2   4   17.40    0.56
  -4  -2  -4    9.44    0.43
   4   2   4    9.32    0.50
  -5  -2  -4    0.47    0.18
   5   2   4    0.11    0.17
  -6  -2  -4    0.29    0.20
   6   2   4    0.55    0.24
  -7   3   4    0.10    0.18
  -6   3   4    0.31    0.16
  -6   3   4    0.02    0.12
  -5   3   4    1.33    0.20
  -5   3   4    1.09    0.16
  -4   3   4   51.37    1.06
  -4   3   4   52.13    1.16
   3  -3  -4    6.82    0.19
  -3   3   4    7.23    0.21
  -3   3   4    7.06    0.27
  -3   3   4    7.37    0.32
   2  -3  -4   40.52    0.81
   2  -3  -4   41.88    0.87
  -2   3   4   41.99    0.79
  -2   3   4   41.39    0.85
  -2   3   4   42.68    0.94
   1  -3  -4   68.97    1.21
  -1   3   4   67.99    1.36
  -1   3   4   66.34    1.26
  -1   3   4   68.04    1.30
   0  -3  -4   21.86    0.56
   0  -3  -4   21.96    0.52
   0   3   4   20.54    0.51
   0   3   4   21.62    0.49
   0   3   4   22.02    0.56
  -1  -3  -4   32.22    0.71
  -1  -3  -4   31.09    0.73
   1   3   4   32.32    0.62
   1   3   4   31.09    0.71
   1   3   4   31.37    0.70
  -2  -3  -4   10.57    0.37
  -2  -3  -4   10.46    0.36
   2   3   4   11.29    0.38
   2   3   4   10.67    0.38
   2   3   4   10.40    0.40
  -3  -3  -4    7.33    0.34
  -3  -3  -4    6.57    0.28
   3   3   4    7.91    0.36
   3   3   4    7.05    0.38
  -4  -3  -4    6.90    0.38
  -4  -3  -4    7.49    0.30
   4   3   4    6.67    0.39
   4   3   4    7.47    0.45
  -5  -3  -4    1.58    0.25
   5   3   4    1.37    0.29
  -6  -3  -4    0.21    0.18
   6   3   4    0.55    0.25
  -6   4   4    2.02    0.23
  -6   4   4    1.64    0.26
  -5   4   4    0.49    0.16
  -5   4   4    0.57    0.14
  -4   4   4    1.34    0.12
  -4   4   4    1.04    0.18
  -4   4   4    1.19    0.17
   3  -4  -4    6.31    0.23
  -3   4   4    5.77    0.26
  -3   4   4    6.28    0.22
   2  -4  -4   18.57    0.49
  -2   4   4   19.46    0.50
  -2   4   4   19.94    0.45
  -2   4   4   19.54    0.59
   1  -4  -4  120.25    2.04
   1  -4  -4  117.14    2.18
  -1   4   4  115.97    2.11
  -1   4   4  115.40    2.23
  -1   4   4  117.69    2.15
   0  -4  -4    6.14    0.27
   0   4   4    6.13    0.27
   0   4   4    6.34    0.25
   0   4   4    6.38    0.24
   0   4   4    6.41    0.30
  -1  -4  -4    3.60    0.22
  -1  -4  -4    3.29    0.22
   1   4   4    3.42    0.16
   1   4   4    3.45    0.21
  -2  -4  -4    3.68    0.24
  -2  -4  -4    3.75    0.24
   2   4   4    3.40    0.25
   2   4   4    3.57    0.14
   2   4   4    3.44    0.22
  -3  -4  -4    1.63    0.19
  -3  -4  -4    1.67    0.22
   3   4   4    1.83    0.24
   3   4   4    1.68    0.21
  -4  -4  -4    5.03    0.35
   4   4   4    5.23    0.40
   4   4   4    5.24    0.36
  -5  -4  -4    0.87    0.21
   5   4   4    0.73    0.23
  -6  -4  -4    0.42    0.21
   6   4   4    0.36    0.23
  -6   5   4    1.96    0.30
  -6   5   4    1.49    0.22
  -5   5   4    8.23    0.46
  -5   5   4    7.63    0.36
   4  -5  -4    1.61    0.16
  -4   5   4    1.91    0.17
  -4   5   4    1.62    0.23
  -4   5   4    1.71    0.20
   3  -5  -4   13.31    0.41
  -3   5   4   14.05    0.38
  -3   5   4   14.07    0.45
  -3   5   4   13.84    0.54
   2  -5  -4    0.47    0.10
  -2   5   4    0.60    0.14
  -2   5   4    0.37    0.09
   1  -5  -4   18.59    0.55
   1  -5  -4   18.77    0.45
   1  -5  -4   19.57    0.58
  -1   5   4   18.55    0.53
  -1   5   4   18.50    0.61
  -1   5   4   18.27    0.51
   0  -5  -4   11.03    0.41
   0   5   4   11.18    0.36
   0   5   4   11.45    0.44
   0   5   4   10.65    0.36
  -1  -5  -4   10.95    0.42
   1   5   4   11.41    0.43
   1   5   4   11.68    0.34
  -2  -5  -4    4.47    0.30
   2   5   4    4.22    0.24
   2   5   4    4.78    0.19
  -3  -5  -4   31.70    0.87
   3   5   4   30.85    0.87
   3   5   4   31.43    0.96
  -4  -5  -4    2.59    0.30
   4   5   4    1.78    0.26
   4   5   4    2.24    0.32
  -5  -5  -4    1.88    0.28
   5   5   4    2.09    0.35
  -6   6   4    0.34    0.16
  -6   6   4    0.34    0.17
  -6   6   4    0.28    0.19
  -5   6   4    1.26    0.19
  -5   6   4    1.21    0.21
  -5   6   4    1.51    0.25
  -4   6   4    0.28    0.15
  -4   6   4    0.41    0.12
  -4   6   4    0.45    0.14
   3  -6  -4   19.20    0.56
  -3   6   4   18.59    0.57
  -3   6   4   19.64    0.70
  -3   6   4   19.43    0.64
  -2   6   4   14.10    0.50
  -2   6   4   14.20    0.57
  -2   6   4   13.88    0.46
   1  -6  -4    1.37    0.13
   1  -6  -4    1.85    0.23
  -1   6   4    1.77    0.19
  -1   6   4    1.65    0.22
  -1   6   4    1.97    0.20
   0  -6  -4    0.54    0.14
   0   6   4    0.48    0.15
   0   6   4    0.39    0.10
  -1  -6  -4   24.27    0.71
   1   6   4   22.99    0.71
   1   6   4   23.28    0.58
  -2  -6  -4   12.89    0.53
   2   6   4   12.56    0.37
   2   6   4   12.06    0.50
  -3  -6  -4    7.00    0.42
   3   6   4    6.86    0.45
   3   6   4    6.01    0.37
  -4  -6  -4    1.05    0.24
   4   6   4    0.74    0.23
  -5  -6  -4    1.61    0.30
   5   6   4    1.97    0.35
  -5   7   4    0.44    0.17
  -5   7   4    0.29    0.18
  -5   7   4    0.40    0.15
  -4   7   4    1.17    0.19
  -4   7   4    1.03    0.24
  -4   7   4    0.97    0.20
  -3   7   4    2.11    0.26
  -3   7   4    1.59    0.22
  -3   7   4    1.76    0.28
  -2   7   4   12.26    0.57
  -2   7   4   10.97    0.47
  -2   7   4   11.58    0.45
   1  -7  -4    9.57    0.46
   1  -7  -4   10.11    0.33
  -1   7   4   10.13    0.50
  -1   7   4   10.45    0.41
  -1   7   4   10.36    0.42
   0  -7  -4    7.32    0.39
   0   7   4    6.91    0.41
   0   7   4    6.63    0.31
  -1  -7  -4   25.14    0.78
   1   7   4   25.76    0.80
   1   7   4   24.41    0.65
  -2  -7  -4    3.55    0.33
   2   7   4    4.03    0.22
  -3  -7  -4    2.89    0.34
   3   7   4    2.54    0.29
   3   7   4    2.68    0.35
  -4  -7  -4    0.96    0.26
   4   7   4    1.26    0.29
  -5   8   4    0.32    0.18
  -5   8   4    0.27    0.21
  -5   8   4    0.18    0.14
  -4   8   4    0.95    0.25
  -4   8   4    0.67    0.18
  -4   8   4    0.68    0.19
  -3   8   4    1.18    0.22
  -3   8   4    0.71    0.21
  -3   8   4    0.68    0.17
  -2   8   4    0.53    0.15
  -2   8   4    0.35    0.17
  -2   8   4    0.62    0.16
   1  -8  -4    0.40    0.11
   1  -8  -4    0.46    0.18
  -1   8   4    0.30    0.12
  -1   8   4    0.22    0.14
  -1   8   4    0.46    0.14
   0  -8  -4    5.17    0.37
   0   8   4    5.19    0.30
   0   8   4    4.52    0.37
  -1  -8  -4    7.60    0.45
   1   8   4    8.15    0.36
  -2  -8  -4    2.35    0.32
   2   8   4    2.99    0.22
   2   8   4    2.63    0.28
  -3  -8  -4    0.27    0.19
   3   8   4    0.30    0.18
  -4   9   4    1.12    0.22
  -4   9   4    1.01    0.27
  -4   9   4    0.86    0.21
   3  -9  -4    1.15    0.23
  -3   9   4    0.96    0.25
  -3   9   4    1.08    0.21
  -3   9   4    1.10    0.21
  -2   9   4    0.98    0.26
  -2   9   4    0.95    0.20
  -2   9   4    1.27    0.22
   1  -9  -4    1.44    0.27
   1  -9  -4    1.05    0.15
  -1   9   4    1.50    0.30
  -1   9   4    1.45    0.22
   0  -9  -4    0.99    0.24
   0   9   4    0.64    0.21
   0   9   4    1.09    0.19
  -1  -9  -4    0.28    0.18
   1   9   4    0.59    0.14
  -2  -9  -4    0.69    0.24
   3 -10  -4    0.06    0.19
  -3  10   4    0.09    0.20
  -3  10   4    0.10    0.15
  -3  10   4    0.24    0.17
  -2  10   4    0.62    0.19
  -2  10   4    0.91    0.26
   1 -10  -4    2.41    0.33
  -1  10   4    1.75    0.25
  -1  10   4    2.71    0.43
   0 -10  -4    2.82    0.38
   0  10   4    2.18    0.27
  -1 -10  -4    0.29    0.21
  -1 -10   5    2.36    0.35
  -1 -10   5    1.31    0.30
   0  10  -5    0.44    0.20
   0  10  -5    0.64    0.18
   0 -10   5    0.44    0.21
   0 -10   5    0.47    0.20
  -1  10  -5    1.58    0.29
  -1  10  -5    1.79    0.26
   1 -10   5    2.22    0.31
   1 -10   5    1.86    0.30
  -2  10  -5    0.57    0.23
  -2  10  -5    0.66    0.19
   2 -10   5    0.58    0.19
  -3  10  -5    0.94    0.28
  -3  10  -5    0.68    0.20
   3   9  -5    9.48    0.59
  -3  -9   5    9.22    0.58
  -3  -9   5    8.96    0.57
  -2  -9   5    0.24    0.19
  -2  -9   5    0.38    0.23
   1   9  -5    3.75    0.35
  -1  -9   5    4.31    0.37
  -1  -9   5    3.06    0.36
   0   9  -5    1.43    0.27
   0   9  -5    1.11    0.19
   0  -9   5    1.06    0.24
   0  -9   5    1.58    0.26
  -1   9  -5    0.52    0.15
  -1   9  -5    0.35    0.18
   1  -9   5    0.55    0.19
   1  -9   5    0.51    0.20
  -2   9  -5    1.02    0.25
  -2   9  -5    0.77    0.19
   2  -9   5    1.16    0.22
  -3   9  -5    1.44    0.23
  -3   9  -5    2.11    0.34
  -4   9  -5    0.02    0.13
  -4   9  -5   -0.13    0.16
   4   8  -5    3.28    0.41
  -4  -8   5    3.08    0.40
  -4  -8   5    2.56    0.36
   3   8  -5    8.31    0.52
  -3  -8   5    9.00    0.54
  -3  -8   5    9.15    0.54
  -2  -8   5    0.71    0.22
  -2  -8   5    0.65    0.21
   1   8  -5   13.73    0.61
  -1  -8   5   15.14    0.60
  -1  -8   5   13.83    0.60
   0   8  -5   11.36    0.55
   0   8  -5   10.56    0.45
   0  -8   5   11.13    0.50
   0  -8   5   10.62    0.50
  -1   8  -5    5.86    0.38
  -1   8  -5    5.24    0.39
  -1   8  -5    5.63    0.34
   1  -8   5    5.46    0.35
   1  -8   5    5.39    0.35
  -2   8  -5    6.51    0.41
  -2   8  -5    6.53    0.37
  -2   8  -5    7.20    0.45
   2  -8   5    6.27    0.35
  -3   8  -5    1.07    0.21
  -3   8  -5    1.50    0.28
  -3   8  -5    1.22    0.22
  -4   8  -5    0.50    0.15
  -4   8  -5    0.06    0.15
  -4   8  -5    0.29    0.15
  -5   8  -5    0.78    0.18
  -5   8  -5    0.57    0.22
  -5   8  -5    1.00    0.22
   4   7  -5    7.20    0.49
  -4  -7   5    7.02    0.47
  -4  -7   5    7.23    0.50
   3   7  -5    4.76    0.37
  -3  -7   5    3.55    0.36
  -3  -7   5    4.54    0.39
   2   7  -5   14.86    0.58
   2   7  -5   14.46    0.44
  -2  -7   5   13.93    0.59
  -2  -7   5   14.78    0.59
   1   7  -5    1.74    0.24
   1   7  -5    1.56    0.13
  -1  -7   5    1.70    0.25
  -1  -7   5    1.86    0.25
   0   7  -5    2.58    0.28
   0   7  -5    2.15    0.22
   0   7  -5    2.98    0.32
   0  -7   5    2.86    0.30
   0  -7   5    2.75    0.28
  -1   7  -5   16.16    0.55
  -1   7  -5   17.11    0.62
  -1   7  -5   16.95    0.64
   1  -7   5   16.42    0.57
   1  -7   5   16.27    0.55
  -2   7  -5   52.80    1.32
  -2   7  -5   52.34    1.27
  -2   7  -5   52.74    1.21
   2  -7   5   52.07    1.14
  -3   7  -5    1.95    0.27
  -3   7  -5    2.05    0.24
  -3   7  -5    1.83    0.24
  -4   7  -5    3.46    0.32
  -4   7  -5    3.10    0.30
  -4   7  -5    3.08    0.27
  -4   7  -5    3.19    0.24
  -5   7  -5    0.20    0.14
  -5   7  -5    0.31    0.17
  -5   7  -5    0.45    0.13
  -6   7  -5    0.30    0.16
  -6   7  -5    0.47    0.19
   5   6  -5   -0.02    0.14
  -5  -6   5    0.19    0.20
  -5  -6   5    0.00    0.17
  -5  -6   5    0.17    0.19
   4   6  -5    2.47    0.31
  -4  -6   5    2.26    0.28
  -4  -6   5    2.70    0.34
  -4  -6   5    2.57    0.32
   3   6  -5    5.49    0.36
  -3  -6   5    5.65    0.39
  -3  -6   5    5.67    0.37
  -3  -6   5    6.11    0.37
   2   6  -5   35.74    0.95
   2   6  -5   36.19    0.80
  -2  -6   5   36.14    0.96
  -2  -6   5   37.53    0.96
   1   6  -5    2.61    0.29
   1   6  -5    2.30    0.13
  -1  -6   5    2.28    0.24
  -1  -6   5    2.70    0.27
   0   6  -5    9.23    0.42
   0   6  -5    8.99    0.36
   0   6  -5    8.83    0.41
   0  -6   5    8.58    0.38
   0  -6   5    9.06    0.38
  -1   6  -5   22.28    0.70
  -1   6  -5   21.80    0.67
  -1   6  -5   21.73    0.62
   1  -6   5   21.61    0.61
   1  -6   5   21.55    0.62
  -2   6  -5    5.74    0.33
  -2   6  -5    6.08    0.31
  -2   6  -5    5.81    0.34
   2  -6   5    5.98    0.27
  -3   6  -5    1.99    0.22
  -3   6  -5    1.61    0.20
  -3   6  -5    2.42    0.26
  -3   6  -5    1.61    0.18
  -4   6  -5    1.64    0.18
  -4   6  -5    1.52    0.20
  -4   6  -5    1.86    0.23
  -4   6  -5    1.48    0.20
  -5   6  -5    1.21    0.21
  -5   6  -5    1.16    0.15
  -5   6  -5    0.77    0.23
  -5   6  -5    0.93    0.19
  -6   6  -5    0.52    0.17
   5   5  -5    0.67    0.22
  -5  -5   5    0.23    0.17
  -5  -5   5    0.50    0.22
  -5  -5   5    0.38    0.17
   4   5  -5    6.94    0.43
  -4  -5   5    6.47    0.38
  -4  -5   5    6.80    0.40
  -4  -5   5    5.83    0.42
   3   5  -5    6.76    0.37
   3   5  -5    6.02    0.35
  -3  -5   5    6.77    0.39
  -3  -5   5    6.02    0.35
  -3  -5   5    5.92    0.35
   2   5  -5    4.70    0.27
  -2  -5   5    4.27    0.28
  -2  -5   5    4.73    0.29
  -2  -5   5    5.08    0.29
   1   5  -5   10.74    0.42
   1   5  -5   10.08    0.42
   1   5  -5   10.41    0.27
  -1  -5   5    9.83    0.39
  -1  -5   5   10.65    0.39
   0   5  -5    6.01    0.26
   0   5  -5    5.79    0.31
   0   5  -5    6.08    0.32
   0  -5   5    5.65    0.27
   0  -5   5    5.68    0.28
  -1   5  -5   12.13    0.39
  -1   5  -5   11.98    0.40
  -1   5  -5   12.32    0.45
  -1   5  -5   12.74    0.45
   1  -5   5   11.83    0.39
   1  -5   5   12.50    0.40
  -2   5  -5   16.10    0.52
  -2   5  -5   16.16    0.52
  -2   5  -5   16.09    0.49
  -2   5  -5   16.67    0.54
   2  -5   5   14.26    0.55
   2  -5   5   15.72    0.42
  -3   5  -5    1.34    0.14
  -3   5  -5    1.44    0.17
  -3   5  -5    1.41    0.18
  -3   5  -5    1.24    0.17
   3  -5   5    1.30    0.21
  -4   5  -5    0.21    0.09
  -4   5  -5    0.28    0.11
  -4   5  -5    0.29    0.10
  -4   5  -5    0.26    0.12
  -5   5  -5    2.08    0.21
  -5   5  -5    2.39    0.19
  -5   5  -5    2.00    0.23
  -6   5  -5    0.01    0.13
   6   4  -5    0.57    0.22
  -6  -4   5    0.19    0.18
  -6  -4   5    0.01    0.17
  -6  -4   5    0.16    0.18
   5   4  -5    2.55    0.33
  -5  -4   5    2.64    0.28
  -5  -4   5    3.01    0.30
  -5  -4   5    3.11    0.37
   4   4  -5    6.26    0.39
  -4  -4   5    5.01    0.34
  -4  -4   5    5.61    0.39
  -4  -4   5    5.24    0.33
   3   4  -5    0.48    0.13
  -3  -4   5    0.62    0.19
  -3  -4   5    0.26    0.12
  -3  -4   5    0.63    0.15
  -3  -4   5    0.43    0.15
   2   4  -5    5.59    0.26
   2   4  -5    6.35    0.28
  -2  -4   5    6.07    0.29
  -2  -4   5    5.19    0.23
  -2  -4   5    5.29    0.29
  -2  -4   5    5.54    0.29
  -2  -4   5    5.27    0.29
   1   4  -5   62.26    1.10
   1   4  -5   62.50    1.30
   1   4  -5   61.45    1.27
   1   4  -5   62.62    1.30
  -1  -4   5   60.36    1.20
  -1  -4   5   63.10    1.30
  -1  -4   5   61.34    1.27
  -1  -4   5   62.44    1.25
  -1  -4   5   60.92    1.24
   0   4  -5   28.90    0.72
   0   4  -5   29.11    0.72
   0   4  -5   28.32    0.65
   0   4  -5   27.17    0.65
   0  -4   5   28.94    0.66
   0  -4   5   29.00    0.72
   0  -4   5   28.34    0.65
   0  -4   5   29.33    0.68
  -1   4  -5    5.65    0.24
  -1   4  -5    5.85    0.23
  -1   4  -5    5.35    0.23
  -1   4  -5    5.30    0.26
  -1   4  -5    5.65    0.27
   1  -4   5    6.26    0.24
   1  -4   5    5.76    0.24
   1  -4   5    5.46    0.25
   1  -4   5    5.61    0.27
  -2   4  -5   43.96    0.90
  -2   4  -5   44.38    0.93
  -2   4  -5   42.57    0.94
  -2   4  -5   43.03    0.96
   2  -4   5   44.23    0.97
  -3   4  -5    9.15    0.35
  -3   4  -5    8.71    0.34
  -3   4  -5    9.37    0.28
  -3   4  -5    8.88    0.32
  -3   4  -5    9.17    0.39
   3  -4   5    9.22    0.36
  -4   4  -5    5.02    0.26
  -4   4  -5    5.21    0.28
   4  -4   5    5.25    0.28
  -5   4  -5    7.06    0.33
  -5   4  -5    7.55    0.36
  -6   4  -5    0.66    0.16
   6   3  -5    3.63    0.42
  -6  -3   5    3.67    0.45
  -6  -3   5    3.70    0.33
  -6  -3   5    3.32    0.34
   5   3  -5    0.87    0.22
  -5  -3   5    0.98    0.18
  -5  -3   5    0.68    0.23
  -5  -3   5    0.69    0.18
  -5  -3   5    0.81    0.23
   4   3  -5    2.64    0.28
  -4  -3   5    2.71    0.22
  -4  -3   5    3.42    0.32
  -4  -3   5    3.03    0.24
  -4  -3   5    2.67    0.24
  -4  -3   5    2.28    0.21
   3   3  -5    2.34    0.21
   3   3  -5    2.28    0.15
  -3  -3   5    2.50    0.17
  -3  -3   5    2.08    0.19
  -3  -3   5    2.25    0.19
  -3  -3   5    2.17    0.20
  -3  -3   5    2.75    0.25
  -3  -3   5    2.35    0.19
   2   3  -5   63.71    1.48
   2   3  -5   61.80    1.23
   2   3  -5   61.64    1.25
   2   3  -5   64.01    1.27
  -2  -3   5   61.22    1.29
  -2  -3   5   62.28    1.26
  -2  -3   5   62.29    1.15
  -2  -3   5   62.48    1.29
  -2  -3   5   62.66    1.25
  -2  -3   5   60.82    1.24
   1   3  -5  137.11    2.50
   1   3  -5  140.27    2.51
   1   3  -5  138.93    2.51
  -1  -3   5  138.38    2.47
  -1  -3   5  135.90    2.47
  -1  -3   5  137.23    2.42
  -1  -3   5  139.56    2.50
  -1  -3   5  141.06    2.46
  -1  -3   5  142.14    2.60
   0   3  -5   14.88    0.41
   0   3  -5   15.77    0.39
   0   3  -5   15.62    0.45
   0   3  -5   15.83    0.45
   0   3  -5   15.56    0.40
   0  -3   5   16.43    0.40
   0  -3   5   15.73    0.42
   0  -3   5   16.63    0.42
   0  -3   5   16.14    0.39
   0  -3   5   16.11    0.45
  -1   3  -5   12.18    0.34
  -1   3  -5   11.67    0.37
  -1   3  -5   12.01    0.31
  -1   3  -5   11.71    0.36
  -1   3  -5   12.30    0.34
   1  -3   5   12.27    0.34
   1  -3   5   12.53    0.32
   1  -3   5   11.86    0.30
   1  -3   5   12.44    0.38
   1  -3   5   12.41    0.32
  -2   3  -5    8.94    0.32
  -2   3  -5    8.91    0.26
  -2   3  -5    8.59    0.28
  -2   3  -5    8.64    0.25
  -2   3  -5    8.93    0.29
  -2   3  -5    8.77    0.27
   2  -3   5    8.98    0.32
   2  -3   5    9.01    0.31
  -3   3  -5    1.15    0.13
  -3   3  -5    0.83    0.12
   3  -3   5    0.94    0.14
  -4   3  -5    5.83    0.34
  -4   3  -5    6.20    0.28
  -4   3  -5    5.92    0.27
  -5   3  -5    2.98    0.22
  -5   3  -5    3.26    0.24
  -6   3  -5    1.08    0.17
  -7   3  -5    0.49    0.26
   6   2  -5    6.49    0.48
  -6  -2   5    6.89    0.41
  -6  -2   5    6.33    0.36
  -6  -2   5    6.38    0.52
   5   2  -5   14.75    0.63
  -5  -2   5   15.41    0.54
  -5  -2   5   15.74    0.70
  -5  -2   5   15.15    0.50
  -5  -2   5   14.85    0.68
   4   2  -5    2.18    0.25
  -4  -2   5    1.69    0.19
  -4  -2   5    2.25    0.20
  -4  -2   5    1.84    0.19
  -4  -2   5    2.03    0.28
  -4  -2   5    1.87    0.19
  -4  -2   5    1.71    0.16
   3   2  -5    2.40    0.19
  -3  -2   5    2.08    0.17
  -3  -2   5    1.91    0.17
  -3  -2   5    1.74    0.16
  -3  -2   5    1.61    0.21
  -3  -2   5    2.00    0.15
  -3  -2   5    1.50    0.16
   2   2  -5    1.58    0.13
   2   2  -5    1.85    0.14
   2   2  -5    1.71    0.13
  -2  -2   5    1.62    0.15
  -2  -2   5    1.56    0.15
  -2  -2   5    1.46    0.14
  -2  -2   5    1.43    0.11
  -2  -2   5    1.54    0.14
  -2  -2   5    1.67    0.18
   1   2  -5   62.58    1.19
   1   2  -5   62.02    1.20
   1   2  -5   62.39    1.20
  -1  -2   5   60.94    1.07
  -1  -2   5   62.21    1.18
  -1  -2   5   62.56    1.19
  -1  -2   5   62.30    1.19
  -1  -2   5   60.59    1.20
  -1  -2   5   60.68    1.17
   0   2  -5   90.19    1.57
   0   2  -5   85.14    1.52
   0   2  -5   86.71    1.60
   0   2  -5   86.33    1.57
   0   2  -5   88.01    1.60
   0  -2   5   85.58    1.58
   0  -2   5   87.35    1.51
   0  -2   5   86.67    1.56
   0  -2   5   89.85    1.57
   0  -2   5   87.42    1.55
   0  -2   5   88.04    1.60
  -1   2  -5   92.20    1.67
  -1   2  -5   90.31    1.59
  -1   2  -5   87.92    1.61
  -1   2  -5   90.44    1.60
  -1   2  -5   88.87    1.59
  -1   2  -5   89.78    1.55
  -1   2  -5   91.93    1.59
   1  -2   5   90.72    1.58
   1  -2   5   91.49    1.61
   1  -2   5   90.64    1.54
   1  -2   5   90.44    1.66
   1  -2   5   92.16    1.56
  -2   2  -5   18.46    0.44
  -2   2  -5   18.58    0.54
  -2   2  -5   18.41    0.49
  -2   2  -5   18.52    0.48
   2  -2   5   19.20    0.50
   2  -2   5   18.45    0.45
  -3   2  -5   19.37    0.47
  -3   2  -5   19.20    0.52
  -3   2  -5   18.50    0.56
  -4   2  -5    1.43    0.14
  -4   2  -5    1.53    0.20
  -4   2  -5    1.35    0.16
  -5   2  -5    9.54    0.38
  -5   2  -5   10.75    0.37
  -6   2  -5    0.84    0.25
  -7   2  -5    1.10    0.30
  -7  -1   5    3.46    0.35
  -6  -1   5    8.52    0.44
  -6  -1   5    7.57    0.39
  -6  -1   5    7.77    0.58
   5   1  -5    0.81    0.19
  -5  -1   5    0.68    0.16
  -5  -1   5    0.87    0.25
  -5  -1   5    1.06    0.16
  -5  -1   5    0.92    0.22
   4   1  -5    5.34    0.32
  -4  -1   5    5.02    0.24
  -4  -1   5    4.94    0.26
  -4  -1   5    5.00    0.20
  -4  -1   5    5.17    0.38
  -4  -1   5    5.55    0.28
   3   1  -5   16.68    0.50
  -3  -1   5   17.25    0.44
  -3  -1   5   16.36    0.47
  -3  -1   5   17.28    0.58
  -3  -1   5   16.78    0.47
  -3  -1   5   16.04    0.47
  -3  -1   5   16.12    0.40
   2   1  -5   26.42    0.59
   2   1  -5   26.67    0.60
   2   1  -5   27.39    0.57
   2   1  -5   27.34    0.56
  -2  -1   5   26.71    0.62
  -2  -1   5   27.27    0.62
  -2  -1   5   26.07    0.57
  -2  -1   5   26.26    0.56
  -2  -1   5   26.72    0.59
  -2  -1   5   26.66    0.68
   1   1  -5   26.97    0.59
   1   1  -5   27.31    0.56
   1   1  -5   24.90    0.57
   1   1  -5   27.37    0.56
   1   1  -5   26.38    0.50
  -1  -1   5   26.29    0.56
  -1  -1   5   26.49    0.56
  -1  -1   5   26.47    0.58
  -1  -1   5   26.09    0.58
  -1  -1   5   25.27    0.58
   0   1  -5    3.34    0.15
   0   1  -5    3.55    0.14
   0   1  -5    3.72    0.16
   0   1  -5    3.30    0.14
   0  -1   5    3.67    0.14
   0  -1   5    3.49    0.14
   0  -1   5    3.29    0.15
   0  -1   5    3.46    0.11
   0  -1   5    3.41    0.15
  -1   1  -5   45.62    0.89
  -1   1  -5   44.82    0.81
  -1   1  -5   45.11    0.83
  -1   1  -5   45.93    0.85
  -1   1  -5   44.45    0.82
  -1   1  -5   46.23    0.83
   1  -1   5   45.35    0.86
   1  -1   5   45.06    0.83
   1  -1   5   45.70    0.91
  -2   1  -5   67.40    1.27
  -2   1  -5   64.25    1.26
  -2   1  -5   65.09    1.32
  -2   1  -5   65.67    1.17
   2  -1   5   66.68    1.18
   2  -1   5   64.03    1.32
  -3   1  -5   22.88    0.63
  -3   1  -5   23.19    0.59
  -3   1  -5   23.52    0.50
   3  -1   5   22.38    0.68
  -4   1  -5    3.01    0.24
  -4   1  -5    3.09    0.22
  -4   1  -5    3.13    0.16
   4  -1   5    3.13    0.28
  -5   1  -5    5.74    0.41
  -5   1  -5    5.32    0.23
  -5   1  -5    5.24    0.29
  -6   1  -5    1.30    0.28
  -7   1  -5    0.23    0.23
  -7   0   5    0.44    0.28
  -7   0   5    0.34    0.20
  -6   0   5    5.02    0.35
  -6   0   5    4.72    0.54
  -6   0   5    5.23    0.31
  -5   0   5    6.27    0.34
  -5   0   5    6.30    0.48
  -5   0   5    6.37    0.30
  -4   0   5    3.88    0.22
  -4   0   5    3.92    0.24
  -4   0   5    3.76    0.21
  -3   0   5   12.87    0.28
  -3   0   5   12.97    0.40
  -3   0   5   12.70    0.42
  -3   0   5   12.71    0.38
  -3   0   5   13.51    0.37
   2   0  -5   11.83    0.30
   2   0  -5   12.21    0.27
   2   0  -5   11.65    0.32
  -2   0   5   11.42    0.27
  -2   0   5   12.36    0.36
  -2   0   5   11.42    0.34
  -2   0   5   11.97    0.33
  -2   0   5   11.29    0.32
   1   0  -5  165.40    2.83
   1   0  -5  167.66    2.78
   1   0  -5  170.51    2.80
  -1   0   5  158.54    2.83
  -1   0   5  166.81    2.74
  -1   0   5  160.36    2.82
  -1   0   5  165.71    2.80
  -1   0   5  160.82    2.78
   0   0  -5   91.36    1.66
   0   0  -5   96.90    1.67
   0   0  -5   93.52    1.63
   0   0  -5   95.35    1.60
   0   0  -5   94.62    1.67
   0   0   5   96.46    1.58
   0   0   5   93.32    1.65
   0   0   5   94.12    1.63
   0   0   5   92.64    1.59
  -1   0  -5   47.74    0.88
  -1   0  -5   48.11    0.86
  -1   0  -5   48.05    0.94
   1   0   5   49.29    0.93
   1   0   5   49.53    0.86
   1   0   5   50.72    0.96
  -2   0  -5   28.58    0.64
  -2   0  -5   29.26    0.52
  -2   0  -5   27.62    0.68
  -2   0  -5   28.01    0.62
   2   0   5   28.54    0.53
   2   0   5   29.15    0.68
   2   0   5   28.14    0.71
  -3   0  -5   30.12    0.56
  -3   0  -5   30.51    0.74
  -3   0  -5   29.90    0.74
   3   0   5   28.22    0.81
  -4   0  -5    1.05    0.17
  -4   0  -5    1.39    0.22
  -4   0  -5    1.05    0.09
   4   0   5    1.41    0.22
  -5   0  -5    7.17    0.37
  -5   0  -5    7.85    0.45
   5   0   5    7.39    0.48
  -6   0  -5    1.42    0.28
   6   0   5    1.14    0.27
  -7   0  -5    0.06    0.20
  -7   1   5    1.78    0.41
  -7   1   5    1.40    0.24
  -6   1   5    1.34    0.19
  -6   1   5    1.34    0.21
  -5   1   5    5.74    0.28
  -5   1   5    5.56    0.32
  -4   1   5    0.96    0.15
  -4   1   5    0.73    0.11
  -4   1   5    0.78    0.11
  -3   1   5   11.10    0.37
  -3   1   5   10.05    0.38
  -3   1   5   10.98    0.33
  -3   1   5   10.36    0.34
   2  -1  -5    7.61    0.19
   2  -1  -5    8.02    0.24
   2  -1  -5    7.67    0.25
  -2   1   5    7.60    0.25
  -2   1   5    7.36    0.26
  -2   1   5    7.93    0.29
   1  -1  -5   68.05    1.31
   1  -1  -5   71.12    1.31
   1  -1  -5   71.66    1.28
  -1   1   5   70.34    1.33
  -1   1   5   70.26    1.28
  -1   1   5   71.38    1.23
   0  -1  -5   37.09    0.67
   0  -1  -5   37.47    0.71
   0  -1  -5   37.34    0.69
   0  -1  -5   36.34    0.75
   0   1   5   36.57    0.69
   0   1   5   37.76    0.75
   0   1   5   36.62    0.70
  -1  -1  -5  166.52    2.94
  -1  -1  -5  177.68    2.90
  -1  -1  -5  172.18    2.91
   1   1   5  180.62    3.00
   1   1   5  169.85    2.92
  -2  -1  -5   76.18    1.43
  -2  -1  -5   77.56    1.50
   2   1   5   77.48    1.50
   2   1   5   78.10    1.48
   2   1   5   77.45    1.55
  -3  -1  -5   18.48    0.54
  -3  -1  -5   18.69    0.54
   3   1   5   18.99    0.63
   3   1   5   19.75    0.59
  -4  -1  -5    4.72    0.31
  -4  -1  -5    4.80    0.30
   4   1   5    4.73    0.35
  -5  -1  -5    2.27    0.29
   5   1   5    2.15    0.32
  -6  -1  -5    1.03    0.25
   6   1   5    1.20    0.29
  -7   2   5    0.57    0.20
  -6   2   5    0.40    0.14
  -6   2   5    0.43    0.17
  -5   2   5    1.51    0.18
  -5   2   5    1.21    0.19
  -4   2   5    4.41    0.25
  -4   2   5    4.73    0.28
  -4   2   5    4.74    0.25
  -3   2   5    2.32    0.16
  -3   2   5    2.36    0.19
   2  -2  -5   16.76    0.44
   2  -2  -5   15.49    0.41
  -2   2   5   15.99    0.47
  -2   2   5   15.53    0.41
  -2   2   5   15.34    0.35
   1  -2  -5   87.81    1.51
  -1   2   5   87.37    1.56
  -1   2   5   87.22    1.51
  -1   2   5   86.00    1.58
  -1   2   5   85.28    1.63
   0  -2  -5    5.56    0.20
   0  -2  -5    5.33    0.22
   0   2   5    5.44    0.19
   0   2   5    5.41    0.22
   0   2   5    5.58    0.19
  -1  -2  -5    6.73    0.25
  -1  -2  -5    7.01    0.21
  -1  -2  -5    6.92    0.23
   1   2   5    6.97    0.22
   1   2   5    7.00    0.23
  -2  -2  -5   57.29    1.04
  -2  -2  -5   54.37    1.09
  -2  -2  -5   58.69    1.14
   2   2   5   58.55    1.18
   2   2   5   57.47    1.23
   2   2   5   57.13    1.18
  -3  -2  -5    4.42    0.25
   3   2   5    4.83    0.28
   3   2   5    4.14    0.30
  -4  -2  -5    4.79    0.31
   4   2   5    4.27    0.35
  -5  -2  -5    4.60    0.37
   5   2   5    4.86    0.43
  -6  -2  -5    0.61    0.22
   6   2   5    0.79    0.26
  -7   3   5    0.16    0.19
  -6   3   5    2.14    0.28
  -6   3   5    2.70    0.25
  -5   3   5    1.19    0.17
  -5   3   5    1.17    0.20
  -4   3   5   45.67    1.07
  -4   3   5   43.73    0.96
   3  -3  -5   10.48    0.26
   3  -3  -5   10.81    0.32
  -3   3   5   10.68    0.29
  -3   3   5   11.40    0.42
  -3   3   5   10.71    0.35
   2  -3  -5   32.70    0.75
  -2   3   5   34.31    0.82
  -2   3   5   32.76    0.72
  -2   3   5   33.58    0.67
   1  -3  -5  219.81    3.58
  -1   3   5  210.78    3.67
  -1   3   5  213.95    3.76
  -1   3   5  209.10    3.64
   0  -3  -5  147.85    2.71
   0  -3  -5  146.15    2.63
   0   3   5  149.67    2.64
   0   3   5  151.76    2.61
   0   3   5  155.76    2.71
  -1  -3  -5    2.31    0.16
  -1  -3  -5    2.16    0.16
   1   3   5    2.08    0.15
   1   3   5    2.06    0.11
   1   3   5    2.08    0.15
  -2  -3  -5   54.45    1.13
  -2  -3  -5   52.96    1.13
   2   3   5   54.44    1.17
   2   3   5   55.71    1.22
   2   3   5   57.47    1.17
  -3  -3  -5    0.74    0.12
  -3  -3  -5    0.76    0.15
   3   3   5    0.97    0.17
   3   3   5    1.07    0.17
  -4  -3  -5    8.88    0.42
   4   3   5    8.75    0.49
   4   3   5    7.47    0.42
  -5  -3  -5    9.29    0.49
   5   3   5    9.45    0.58
  -6  -3  -5    0.39    0.20
   6   3   5    0.34    0.23
  -6   4   5    0.66    0.20
  -6   4   5    0.88    0.19
  -5   4   5    7.37    0.42
  -5   4   5    7.42    0.35
  -4   4   5   27.60    0.79
  -4   4   5   24.87    0.57
  -4   4   5   25.35    0.67
   3  -4  -5    1.19    0.12
  -3   4   5    1.14    0.15
  -3   4   5    1.14    0.18
  -3   4   5    1.34    0.13
   2  -4  -5    8.59    0.30
  -2   4   5    8.26    0.37
  -2   4   5    7.79    0.30
   1  -4  -5   25.14    0.54
  -1   4   5   25.75    0.71
  -1   4   5   24.73    0.60
   0  -4  -5   49.40    1.04
   0   4   5   47.71    1.03
   0   4   5   50.09    1.00
   0   4   5   49.85    1.10
  -1  -4  -5    3.33    0.22
  -1  -4  -5    3.38    0.23
   1   4   5    3.08    0.20
   1   4   5    3.27    0.15
  -2  -4  -5   16.77    0.51
  -2  -4  -5   16.01    0.52
   2   4   5   16.64    0.51
   2   4   5   16.13    0.35
   2   4   5   15.35    0.54
  -3  -4  -5    3.38    0.30
  -3  -4  -5    3.57    0.28
   3   4   5    3.71    0.27
   3   4   5    3.97    0.31
  -4  -4  -5    2.57    0.29
   4   4   5    2.54    0.34
   4   4   5    2.64    0.30
  -5  -4  -5    0.41    0.18
   5   4   5    0.20    0.18
  -6  -4  -5    0.59    0.21
   6   4   5    0.51    0.26
  -6   5   5    0.44    0.21
  -6   5   5    0.40    0.16
  -5   5   5    0.52    0.15
  -5   5   5    0.50    0.18
  -4   5   5    1.74    0.25
  -4   5   5    1.70    0.16
  -4   5   5    1.78    0.20
   3  -5  -5   15.33    0.45
   3  -5  -5   15.37    0.48
  -3   5   5   14.94    0.41
  -3   5   5   15.45    0.58
  -3   5   5   14.80    0.48
   2  -5  -5    4.93    0.25
  -2   5   5    4.91    0.25
  -2   5   5    4.84    0.32
   1  -5  -5    4.15    0.27
   1  -5  -5    4.90    0.20
  -1   5   5    4.59    0.24
  -1   5   5    4.53    0.30
   0  -5  -5   56.17    1.20
   0   5   5   56.34    1.14
   0   5   5   56.17    1.27
   0   5   5   54.17    1.14
  -1  -5  -5    2.35    0.22
   1   5   5    2.20    0.19
   1   5   5    2.46    0.15
  -2  -5  -5   28.31    0.77
   2   5   5   27.58    0.59
  -3  -5  -5    0.91    0.19
   3   5   5    1.15    0.19
   3   5   5    1.05    0.21
  -4  -5  -5    2.22    0.29
   4   5   5    2.10    0.32
   4   5   5    1.67    0.26
  -5  -5  -5    1.40    0.26
   5   5   5    1.62    0.32
  -6   6   5    1.60    0.26
  -6   6   5    1.67    0.23
  -6   6   5    2.23    0.33
  -5   6   5    0.27    0.16
  -5   6   5    0.30    0.14
  -4   6   5    6.36    0.43
  -4   6   5    6.23    0.29
  -4   6   5    6.63    0.34
   3  -6  -5    3.71    0.25
  -3   6   5    4.06    0.35
  -3   6   5    3.30    0.26
  -2   6   5    2.77    0.30
  -2   6   5    2.48    0.21
  -2   6   5    2.56    0.24
   1  -6  -5    1.31    0.13
   1  -6  -5    1.39    0.21
  -1   6   5    1.62    0.24
  -1   6   5    1.40    0.18
  -1   6   5    1.50    0.18
   0  -6  -5    7.00    0.35
   0   6   5    7.11    0.30
   0   6   5    6.52    0.30
   0   6   5    6.58    0.37
  -1  -6  -5    2.39    0.26
   1   6   5    2.43    0.18
   1   6   5    2.45    0.23
  -2  -6  -5   25.03    0.77
   2   6   5   25.11    0.58
  -3  -6  -5    6.36    0.41
   3   6   5    6.01    0.43
   3   6   5    6.41    0.38
  -4  -6  -5    1.98    0.29
   4   6   5    2.04    0.34
  -5  -6  -5    0.18    0.19
   5   6   5    0.28    0.21
  -5   7   5    0.18    0.16
  -5   7   5    0.07    0.13
  -5   7   5    0.20    0.19
  -4   7   5    6.76    0.37
  -4   7   5    6.19    0.40
  -4   7   5    6.04    0.45
  -3   7   5    0.42    0.15
  -3   7   5    0.36    0.19
  -3   7   5    0.27    0.13
  -2   7   5    0.38    0.17
  -2   7   5    0.46    0.14
  -2   7   5    0.18    0.11
   1  -7  -5    5.34    0.24
   1  -7  -5    4.77    0.34
  -1   7   5    5.63    0.31
  -1   7   5    5.33    0.30
  -1   7   5    5.06    0.37
   0  -7  -5    1.62    0.23
   0   7   5    1.40    0.24
   0   7   5    1.44    0.17
  -1  -7  -5    6.08    0.38
   1   7   5    5.71    0.37
   1   7   5    5.85    0.28
  -2  -7  -5    4.74    0.36
   2   7   5    4.34    0.23
  -3  -7  -5    3.58    0.38
   3   7   5    2.69    0.35
  -4  -7  -5    3.11    0.37
   4   7   5    2.87    0.41
  -5   8   5    0.08    0.16
  -5   8   5    0.05    0.19
  -5   8   5   -0.07    0.13
  -4   8   5    1.41    0.30
  -4   8   5    1.62    0.26
  -4   8   5    1.25    0.22
  -3   8   5    3.15    0.31
  -3   8   5    3.55    0.40
  -3   8   5    2.91    0.31
  -2   8   5   -0.02    0.10
  -2   8   5   -0.23    0.11
  -2   8   5    0.01    0.11
   1  -8  -5    9.18    0.34
   1  -8  -5    9.30    0.50
  -1   8   5    9.41    0.54
  -1   8   5    9.59    0.43
  -1   8   5    9.33    0.42
   0  -8  -5    6.23    0.41
   0   8   5    5.55    0.40
   0   8   5    5.82    0.32
  -1  -8  -5   10.72    0.53
   1   8   5   10.66    0.41
  -2  -8  -5    5.29    0.41
  -3  -8  -5    0.98    0.25
   3   8   5    0.67    0.23
  -4   9   5    0.95    0.28
  -4   9   5    1.22    0.26
  -4   9   5    1.24    0.23
  -3   9   5    1.61    0.24
  -3   9   5    1.45    0.31
  -3   9   5    1.23    0.23
  -2   9   5    0.33    0.14
  -2   9   5    0.00    0.11
  -2   9   5    0.19    0.17
   1  -9  -5    1.78    0.29
  -1   9   5    1.77    0.31
  -1   9   5    1.82    0.24
   0  -9  -5    0.60    0.21
   0   9   5    1.31    0.27
   0   9   5    0.56    0.15
  -1  -9  -5    2.24    0.32
   1   9   5    2.05    0.23
  -2  -9  -5    0.14    0.20
  -2  10   5    1.93    0.27
  -2  10   5    1.54    0.33
  -1  10   5    4.40    0.51
  -1  10   5    3.61    0.34
   0 -10  -5    1.03    0.26
   0  10   5    0.86    0.19
  -1 -10  -5    1.60    0.44
  -1 -10   6    1.19    0.29
  -1 -10   6    1.52    0.30
   0  10  -6    2.91    0.42
   0  10  -6    1.51    0.23
   0 -10   6    1.46    0.28
   0 -10   6    1.73    0.30
  -1  10  -6    1.18    0.22
  -1  10  -6    0.75    0.24
   1 -10   6    1.13    0.25
   1 -10   6    1.67    0.28
  -2  10  -6    0.26    0.15
  -2  10  -6    0.49    0.21
   2 -10   6    0.40    0.19
  -3  10  -6    0.39    0.17
  -3  10  -6    0.05    0.19
   3   9  -6    0.71    0.23
  -3  -9   6    1.09    0.28
  -3  -9   6    1.09    0.30
  -2  -9   6    1.52    0.30
  -2  -9   6    0.98    0.26
   1   9  -6    0.77    0.20
  -1  -9   6    0.95    0.24
  -1  -9   6    0.71    0.22
   0   9  -6    6.49    0.38
   0   9  -6    6.73    0.46
   0  -9   6    6.86    0.42
   0  -9   6    6.71    0.43
  -1   9  -6    2.44    0.33
  -1   9  -6    3.67    0.33
   1  -9   6    2.86    0.32
   1  -9   6    2.60    0.31
  -2   9  -6    1.01    0.23
  -2   9  -6    1.10    0.22
  -2   9  -6    0.88    0.20
   2  -9   6    0.95    0.19
  -3   9  -6    1.26    0.22
  -3   9  -6    1.62    0.30
  -3   9  -6    1.57    0.26
  -4   9  -6    0.07    0.19
  -4   9  -6    0.31    0.16
  -4   9  -6    0.12    0.14
   4   8  -6    1.99    0.32
  -4  -8   6    1.49    0.30
  -4  -8   6    1.29    0.31
   3   8  -6   21.74    0.82
  -3  -8   6   21.41    0.81
  -3  -8   6   20.07    0.80
  -2  -8   6   11.06    0.56
  -2  -8   6   11.96    0.56
   1   8  -6    4.31    0.35
  -1  -8   6    4.06    0.39
  -1  -8   6    4.20    0.35
   0   8  -6    0.09    0.10
   0   8  -6    0.09    0.12
   0  -8   6    0.31    0.16
   0  -8   6    0.27    0.15
  -1   8  -6    1.04    0.25
  -1   8  -6    0.69    0.16
  -1   8  -6    0.69    0.17
   1  -8   6    0.80    0.18
   1  -8   6    1.16    0.21
  -2   8  -6    1.41    0.23
  -2   8  -6    1.90    0.28
  -2   8  -6    1.91    0.24
   2  -8   6    2.05    0.24
  -3   8  -6   13.37    0.61
  -3   8  -6   12.31    0.56
  -3   8  -6   13.60    0.55
  -4   8  -6    0.25    0.16
  -4   8  -6    0.09    0.12
  -4   8  -6    0.12    0.13
  -5   8  -6    0.08    0.15
  -5   8  -6    0.16    0.17
   4   7  -6    0.34    0.18
  -4  -7   6    0.32    0.21
  -4  -7   6    0.45    0.19
  -4  -7   6    0.44    0.19
   3   7  -6    4.56    0.36
  -3  -7   6    4.51    0.38
  -3  -7   6    4.94    0.40
   2   7  -6    1.43    0.22
  -2  -7   6    1.48    0.23
  -2  -7   6    1.64    0.25
   1   7  -6    1.02    0.20
   1   7  -6    0.88    0.10
  -1  -7   6    0.93    0.20
  -1  -7   6    0.69    0.19
   0   7  -6    1.24    0.17
   0   7  -6    1.02    0.18
   0   7  -6    1.61    0.25
   0  -7   6    1.80    0.23
   0  -7   6    1.18    0.19
  -1   7  -6    3.43    0.26
  -1   7  -6    3.32    0.31
  -1   7  -6    3.62    0.29
   1  -7   6    3.55    0.27
   1  -7   6    3.12    0.26
  -2   7  -6    7.13    0.42
  -2   7  -6    7.08    0.40
  -2   7  -6    7.72    0.38
   2  -7   6    7.40    0.34
  -3   7  -6    0.25    0.13
  -3   7  -6    0.39    0.16
  -3   7  -6    0.29    0.13
  -4   7  -6    1.02    0.19
  -4   7  -6    1.04    0.19
  -4   7  -6    0.94    0.21
  -5   7  -6    0.05    0.13
  -5   7  -6    0.16    0.15
  -5   7  -6    0.13    0.11
   5   6  -6    0.99    0.26
  -5  -6   6    0.78    0.24
  -5  -6   6    1.17    0.27
  -5  -6   6    1.54    0.30
   4   6  -6    0.96    0.23
  -4  -6   6    0.93    0.22
  -4  -6   6    1.30    0.27
  -4  -6   6    1.45    0.25
   3   6  -6    3.42    0.29
  -3  -6   6    2.39    0.27
  -3  -6   6    3.96    0.34
  -3  -6   6    3.52    0.31
   2   6  -6    7.02    0.37
  -2  -6   6    7.72    0.40
  -2  -6   6    7.88    0.41
  -2  -6   6    7.88    0.40
   1   6  -6    6.18    0.35
   1   6  -6    6.38    0.20
   1   6  -6    6.22    0.36
  -1  -6   6    6.78    0.35
  -1  -6   6    6.76    0.34
   0   6  -6    1.72    0.22
   0   6  -6    1.94    0.20
   0   6  -6    1.72    0.22
   0  -6   6    1.26    0.18
   0  -6   6    2.31    0.23
  -1   6  -6   55.56    1.22
  -1   6  -6   56.53    1.30
  -1   6  -6   56.92    1.32
   1  -6   6   56.98    1.21
   1  -6   6   55.79    1.21
  -2   6  -6    8.72    0.37
  -2   6  -6    8.90    0.42
  -2   6  -6    8.85    0.41
   2  -6   6    8.29    0.33
  -3   6  -6    2.61    0.26
  -3   6  -6    2.24    0.23
  -3   6  -6    2.03    0.23
  -4   6  -6    3.77    0.28
  -4   6  -6    3.45    0.23
  -4   6  -6    3.16    0.28
  -4   6  -6    3.20    0.26
  -5   6  -6    0.31    0.15
  -5   6  -6    0.09    0.12
  -5   6  -6    0.17    0.10
  -5   6  -6    0.04    0.10
  -6   6  -6    0.37    0.16
  -6   6  -6    0.35    0.16
   5   5  -6    1.54    0.28
  -5  -5   6    1.50    0.25
  -5  -5   6    1.39    0.29
  -5  -5   6    1.74    0.26
   4   5  -6    1.00    0.21
  -4  -5   6    0.91    0.20
  -4  -5   6    1.26    0.25
  -4  -5   6    1.02    0.20
   3   5  -6    1.76    0.22
   3   5  -6    1.79    0.28
  -3  -5   6    1.88    0.25
  -3  -5   6    1.56    0.23
  -3  -5   6    1.69    0.23
   2   5  -6    7.94    0.36
  -2  -5   6    8.47    0.38
  -2  -5   6    8.43    0.38
  -2  -5   6    8.36    0.38
   1   5  -6   21.81    0.66
   1   5  -6   22.32    0.45
   1   5  -6   22.13    0.66
  -1  -5   6   20.71    0.62
  -1  -5   6   22.41    0.61
  -1  -5   6   21.68    0.62
   0   5  -6    6.39    0.28
   0   5  -6    6.94    0.33
   0   5  -6    6.22    0.32
   0   5  -6    6.17    0.28
   0  -5   6    6.54    0.30
   0  -5   6    6.54    0.29
  -1   5  -6   12.19    0.45
  -1   5  -6   12.13    0.45
  -1   5  -6   11.85    0.40
  -1   5  -6   11.66    0.38
   1  -5   6   12.58    0.40
   1  -5   6   12.02    0.39
  -2   5  -6   18.27    0.57
  -2   5  -6   17.57    0.50
  -2   5  -6   18.80    0.57
  -2   5  -6   18.39    0.53
   2  -5   6   18.13    0.45
  -3   5  -6    2.53    0.21
  -3   5  -6    2.55    0.17
  -3   5  -6    2.56    0.22
  -3   5  -6    2.35    0.21
  -4   5  -6    0.51    0.11
  -4   5  -6    0.31    0.11
  -4   5  -6    0.55    0.14
  -4   5  -6    0.40    0.12
  -5   5  -6    3.28    0.25
  -5   5  -6    3.26    0.28
  -5   5  -6    3.17    0.25
  -6   5  -6    1.15    0.19
   6   4  -6    1.00    0.27
  -6  -4   6    1.48    0.33
  -6  -4   6    1.08    0.24
  -6  -4   6    1.01    0.23
   5   4  -6    6.09    0.44
  -5  -4   6    5.86    0.38
  -5  -4   6    6.64    0.47
  -5  -4   6    6.27    0.38
   4   4  -6    3.06    0.31
  -4  -4   6    2.28    0.21
  -4  -4   6    2.57    0.27
  -4  -4   6    3.01    0.29
  -4  -4   6    3.10    0.33
   3   4  -6   11.24    0.44
   3   4  -6   10.36    0.38
  -3  -4   6   11.66    0.48
  -3  -4   6   12.12    0.45
  -3  -4   6   12.00    0.45
   2   4  -6    9.33    0.38
   2   4  -6    8.44    0.35
   2   4  -6    9.12    0.34
  -2  -4   6    8.82    0.36
  -2  -4   6    9.54    0.37
  -2  -4   6    9.17    0.37
  -2  -4   6   10.14    0.44
   1   4  -6   10.09    0.37
   1   4  -6   10.39    0.40
   1   4  -6   10.55    0.39
  -1  -4   6    9.52    0.34
  -1  -4   6    9.60    0.36
  -1  -4   6   10.09    0.37
  -1  -4   6   11.18    0.38
   0   4  -6  133.56    2.42
   0   4  -6  134.08    2.51
   0   4  -6  135.84    2.41
   0   4  -6  138.12    2.51
   0  -4   6  137.33    2.41
   0  -4   6  133.61    2.41
   0  -4   6  138.49    2.51
   0  -4   6  133.63    2.44
  -1   4  -6    8.28    0.34
  -1   4  -6    8.95    0.31
  -1   4  -6    8.63    0.31
  -1   4  -6    9.17    0.35
  -1   4  -6    8.97    0.29
   1  -4   6    8.72    0.29
   1  -4   6    8.91    0.30
   1  -4   6    8.61    0.35
  -2   4  -6   21.98    0.56
  -2   4  -6   21.72    0.53
  -2   4  -6   21.85    0.61
  -2   4  -6   21.89    0.58
   2  -4   6   21.29    0.61
  -3   4  -6    0.68    0.09
  -3   4  -6    0.67    0.11
  -3   4  -6    0.59    0.12
  -3   4  -6    0.60    0.10
  -3   4  -6    0.58    0.11
   3  -4   6    0.71    0.14
  -4   4  -6    2.50    0.21
  -4   4  -6    2.40    0.21
  -4   4  -6    2.14    0.24
   4  -4   6    2.55    0.22
  -5   4  -6    0.73    0.14
  -5   4  -6    0.74    0.15
  -6   4  -6    0.41    0.14
   6   3  -6    1.57    0.30
  -6  -3   6    2.18    0.27
  -6  -3   6    1.72    0.34
  -6  -3   6    1.32    0.25
   5   3  -6    9.68    0.52
  -5  -3   6    8.72    0.45
  -5  -3   6    9.55    0.43
  -5  -3   6   10.46    0.58
  -5  -3   6    9.81    0.46
   4   3  -6   25.37    0.79
  -4  -3   6   27.32    0.85
  -4  -3   6   25.39    0.70
  -4  -3   6   26.02    0.73
  -4  -3   6   26.32    0.71
  -4  -3   6   24.90    0.68
   3   3  -6    0.67    0.13
  -3  -3   6    0.64    0.10
  -3  -3   6    0.57    0.12
  -3  -3   6    0.61    0.13
  -3  -3   6    0.46    0.12
  -3  -3   6    0.82    0.17
  -3  -3   6    0.49    0.12
   2   3  -6    6.70    0.28
   2   3  -6    6.61    0.26
   2   3  -6    6.84    0.29
  -2  -3   6    6.72    0.29
  -2  -3   6    6.60    0.31
  -2  -3   6    6.18    0.21
  -2  -3   6    6.43    0.28
  -2  -3   6    6.45    0.31
  -2  -3   6    6.68    0.30
   1   3  -6   56.86    1.16
   1   3  -6   54.53    1.14
   1   3  -6   55.50    1.16
  -1  -3   6   55.74    1.09
  -1  -3   6   57.69    1.14
  -1  -3   6   55.63    1.10
  -1  -3   6   55.52    1.13
  -1  -3   6   56.74    1.16
   0   3  -6   42.36    0.89
   0   3  -6   43.64    0.85
   0   3  -6   43.72    0.94
   0   3  -6   43.83    0.94
   0  -3   6   42.58    0.84
   0  -3   6   42.75    0.89
   0  -3   6   44.33    0.88
   0  -3   6   42.62    0.88
   0  -3   6   43.32    0.93
  -1   3  -6   19.64    0.51
  -1   3  -6   19.31    0.48
  -1   3  -6   18.80    0.52
  -1   3  -6   19.35    0.47
  -1   3  -6   19.50    0.44
  -1   3  -6   19.47    0.43
   1  -3   6   19.67    0.48
   1  -3   6   19.26    0.44
   1  -3   6   20.91    0.54
   1  -3   6   18.43    0.42
   1  -3   6   19.38    0.45
  -2   3  -6   14.52    0.40
  -2   3  -6   15.49    0.42
  -2   3  -6   15.48    0.38
  -2   3  -6   15.96    0.47
  -2   3  -6   15.67    0.44
  -2   3  -6   14.86    0.38
   2  -3   6   15.57    0.47
   2  -3   6   15.67    0.43
  -3   3  -6   18.45    0.56
  -3   3  -6   18.73    0.49
  -3   3  -6   19.25    0.54
   3  -3   6   18.29    0.54
  -4   3  -6    1.42    0.16
  -4   3  -6    1.35    0.19
  -4   3  -6    1.37    0.17
  -5   3  -6    1.04    0.15
  -5   3  -6    1.37    0.18
  -7   3  -6    0.24    0.24
   6   2  -6    4.61    0.41
  -6  -2   6    4.62    0.33
  -6  -2   6    4.74    0.38
  -6  -2   6    4.70    0.51
   5   2  -6    7.21    0.43
  -5  -2   6    8.05    0.37
  -5  -2   6    6.97    0.51
  -5  -2   6    7.63    0.39
  -5  -2   6    6.56    0.42
   4   2  -6    1.17    0.18
  -4  -2   6    1.58    0.19
  -4  -2   6    2.08    0.21
  -4  -2   6    1.79    0.27
  -4  -2   6    1.37    0.15
  -4  -2   6    1.52    0.19
   3   2  -6    0.48    0.11
  -3  -2   6    0.51    0.15
  -3  -2   6    0.56    0.12
  -3  -2   6    0.42    0.11
  -3  -2   6    0.61    0.11
  -3  -2   6    0.50    0.10
  -3  -2   6    0.46    0.11
   2   2  -6   15.27    0.41
   2   2  -6   15.44    0.43
   2   2  -6   14.63    0.43
  -2  -2   6   15.50    0.46
  -2  -2   6   16.03    0.43
  -2  -2   6   15.78    0.45
  -2  -2   6   15.53    0.49
  -2  -2   6   15.26    0.43
   1   2  -6   56.12    1.11
   1   2  -6   53.75    1.10
   1   2  -6   55.52    1.09
  -1  -2   6   54.62    1.11
  -1  -2   6   55.74    1.08
  -1  -2   6   53.71    1.06
  -1  -2   6   55.63    1.09
  -1  -2   6   53.96    1.09
   0   2  -6   16.42    0.43
   0   2  -6   15.48    0.35
   0   2  -6   15.14    0.40
   0   2  -6   16.30    0.43
   0  -2   6   15.71    0.34
   0  -2   6   15.16    0.39
   0  -2   6   15.37    0.42
   0  -2   6   15.44    0.38
   0  -2   6   15.65    0.39
   0  -2   6   15.13    0.34
  -1   2  -6   44.57    0.78
  -1   2  -6   44.01    0.76
  -1   2  -6   43.36    0.91
  -1   2  -6   43.09    0.84
  -1   2  -6   43.67    0.84
  -1   2  -6   42.79    0.82
  -1   2  -6   41.88    0.86
  -1   2  -6   43.49    0.83
   1  -2   6   43.73    0.91
   1  -2   6   42.95    0.80
   1  -2   6   44.03    0.85
  -2   2  -6   19.17    0.55
  -2   2  -6   19.08    0.51
  -2   2  -6   19.28    0.50
  -2   2  -6   19.54    0.45
   2  -2   6   19.17    0.52
   2  -2   6   18.95    0.46
  -3   2  -6    0.98    0.14
  -3   2  -6    1.21    0.15
  -3   2  -6    1.30    0.12
  -4   2  -6   10.84    0.45
  -4   2  -6   11.00    0.34
  -4   2  -6   10.93    0.40
  -5   2  -6    0.39    0.13
  -5   2  -6    0.10    0.09
  -6   2  -6    1.27    0.29
  -7   2  -6    0.41    0.24
  -6  -1   6   12.87    0.54
  -6  -1   6   11.72    0.48
  -6  -1   6   12.17    0.71
  -5  -1   6    1.54    0.19
  -5  -1   6    1.37    0.21
  -5  -1   6    1.92    0.31
  -5  -1   6    1.41    0.30
   4   1  -6   15.94    0.56
  -4  -1   6   15.74    0.40
  -4  -1   6   17.07    0.49
  -4  -1   6   16.85    0.66
  -4  -1   6   16.14    0.52
  -4  -1   6   15.80    0.50
   3   1  -6    8.22    0.33
  -3  -1   6    7.64    0.25
  -3  -1   6    9.14    0.31
  -3  -1   6    8.47    0.40
  -3  -1   6    7.59    0.30
  -3  -1   6    8.44    0.33
  -3  -1   6    8.11    0.32
   2   1  -6   49.55    0.94
   2   1  -6   49.48    0.95
   2   1  -6   48.60    0.97
  -2  -1   6   48.40    0.97
  -2  -1   6   46.50    0.93
  -2  -1   6   47.11    1.06
  -2  -1   6   48.03    0.92
  -2  -1   6   48.06    1.00
  -2  -1   6   47.33    0.99
   1   1  -6   18.36    0.35
   1   1  -6   19.14    0.45
   1   1  -6   19.56    0.49
   1   1  -6   18.90    0.47
  -1  -1   6   18.84    0.47
  -1  -1   6   18.60    0.47
  -1  -1   6   18.36    0.44
  -1  -1   6   17.85    0.46
  -1  -1   6   18.15    0.45
   0   1  -6   61.89    1.04
   0   1  -6   59.57    1.13
   0   1  -6   60.20    1.07
   0   1  -6   61.01    1.11
   0   1  -6   61.49    1.15
   0   1  -6   57.38    1.13
   0  -1   6   59.01    1.12
   0  -1   6   59.59    1.15
   0  -1   6   58.32    1.11
   0  -1   6   61.51    1.05
   0  -1   6   61.08    1.11
  -1   1  -6  167.46    2.84
  -1   1  -6  157.49    2.79
  -1   1  -6  161.68    2.87
  -1   1  -6  164.89    2.77
  -1   1  -6  163.79    2.78
   1  -1   6  165.70    2.84
   1  -1   6  166.99    2.78
   1  -1   6  166.07    2.88
   1  -1   6  165.93    2.81
  -2   1  -6   74.19    1.45
  -2   1  -6   75.92    1.43
  -2   1  -6   74.19    1.49
  -2   1  -6   75.32    1.33
   2  -1   6   77.00    1.35
   2  -1   6   76.09    1.51
  -3   1  -6    9.38    0.35
  -3   1  -6    9.20    0.36
  -3   1  -6    9.27    0.26
   3  -1   6    9.13    0.41
  -4   1  -6    0.32    0.07
  -4   1  -6    0.12    0.11
  -4   1  -6    0.38    0.14
  -4   1  -6    0.28    0.11
   4  -1   6    0.36    0.15
  -5   1  -6    3.14    0.25
  -5   1  -6    3.33    0.35
  -5   1  -6    2.62    0.17
  -6   1  -6    2.55    0.36
  -7   1  -6    0.44    0.23
  -7   0   6    0.48    0.41
  -7   0   6    0.13    0.19
  -6   0   6    4.02    0.50
  -6   0   6    4.90    0.31
  -6   0   6    4.85    0.37
  -5   0   6    3.44    0.28
  -5   0   6    3.76    0.26
  -4   0   6    0.24    0.11
  -4   0   6    0.62    0.12
  -4   0   6    0.54    0.12
  -3   0   6    7.81    0.31
  -3   0   6    8.34    0.32
  -3   0   6    7.97    0.21
  -3   0   6    8.21    0.31
  -3   0   6    8.65    0.30
   2   0  -6  192.29    3.22
   2   0  -6  188.68    3.18
   2   0  -6  186.27    3.25
  -2   0   6  190.00    3.18
  -2   0   6  189.96    3.30
  -2   0   6  192.71    3.25
  -2   0   6  185.63    3.23
  -2   0   6  187.04    3.28
   1   0  -6   22.61    0.49
   1   0  -6   22.44    0.48
   1   0  -6   21.42    0.52
   1   0  -6   22.12    0.51
  -1   0   6   21.92    0.52
  -1   0   6   20.89    0.51
  -1   0   6   22.04    0.48
  -1   0   6   20.83    0.45
   0   0  -6   12.93    0.28
   0   0  -6   12.52    0.34
   0   0  -6   13.14    0.32
   0   0  -6   12.63    0.35
   0   0  -6   12.86    0.34
   0   0   6   12.90    0.27
   0   0   6   12.35    0.31
   0   0   6   12.59    0.27
   0   0   6   12.63    0.33
  -1   0  -6    8.95    0.23
  -1   0  -6    8.82    0.27
  -1   0  -6    9.17    0.25
   1   0   6    9.37    0.29
   1   0   6    9.00    0.26
  -2   0  -6   57.51    1.20
  -2   0  -6   58.05    1.11
   2   0   6   60.22    1.20
   2   0   6   60.00    1.25
   2   0   6   59.92    1.03
  -3   0  -6   35.68    0.66
  -3   0  -6   36.87    0.85
  -3   0  -6   36.74    0.84
   3   0   6   35.34    0.94
  -4   0  -6    3.75    0.28
  -4   0  -6    3.80    0.27
  -4   0  -6    4.21    0.28
   4   0   6    4.12    0.33
  -5   0  -6    3.11    0.33
  -5   0  -6    2.77    0.27
   5   0   6    3.13    0.36
  -6   0  -6    0.51    0.20
   6   0   6    0.62    0.23
  -7   0  -6   -0.04    0.19
  -7   1   6    1.36    0.39
  -7   1   6    1.14    0.24
  -6   1   6    1.98    0.23
  -6   1   6    1.95    0.26
  -5   1   6   24.15    0.71
  -5   1   6   25.34    0.66
  -4   1   6    4.74    0.26
  -4   1   6    4.29    0.24
  -4   1   6    4.82    0.28
  -3   1   6    3.64    0.19
  -3   1   6    3.22    0.20
  -3   1   6    3.49    0.22
  -3   1   6    3.76    0.22
   2  -1  -6  127.65    2.23
   2  -1  -6  121.65    2.12
  -2   1   6  124.82    2.27
  -2   1   6  125.15    2.25
  -2   1   6  125.17    2.21
   1  -1  -6    2.84    0.16
  -1   1   6    2.24    0.11
  -1   1   6    2.96    0.15
  -1   1   6    2.77    0.17
   0  -1  -6   19.63    0.40
   0  -1  -6   19.61    0.48
   0  -1  -6   19.72    0.44
   0   1   6   19.99    0.44
   0   1   6   19.03    0.47
   0   1   6   19.11    0.41
  -1  -1  -6   65.43    1.16
  -1  -1  -6   64.45    1.21
  -1  -1  -6   64.57    1.16
   1   1   6   66.33    1.13
   1   1   6   67.12    1.25
   1   1   6   62.74    1.16
  -2  -1  -6    6.33    0.27
  -2  -1  -6    6.14    0.23
   2   1   6    6.27    0.25
   2   1   6    6.54    0.30
   2   1   6    6.09    0.27
  -3  -1  -6   18.57    0.53
   3   1   6   18.76    0.59
   3   1   6   18.71    0.63
  -4  -1  -6   24.28    0.71
  -4  -1  -6   22.92    0.69
   4   1   6   24.14    0.83
  -5  -1  -6    0.94    0.21
   5   1   6    1.03    0.25
  -6  -1  -6    0.65    0.24
  -6  -1  -6    0.94    0.23
   6   1   6    0.17    0.20
  -7   2   6    0.19    0.20
  -6   2   6    0.13    0.15
  -6   2   6    0.24    0.14
  -5   2   6    1.03    0.17
  -5   2   6    0.98    0.18
  -4   2   6    0.52    0.12
  -4   2   6   -0.09    0.11
  -4   2   6    0.13    0.13
  -3   2   6    4.26    0.22
  -3   2   6    4.43    0.26
   2  -2  -6   28.90    0.67
  -2   2   6   28.48    0.65
  -2   2   6   29.10    0.72
  -2   2   6   28.91    0.59
   1  -2  -6   14.32    0.34
  -1   2   6   14.65    0.44
  -1   2   6   14.44    0.39
  -1   2   6   14.87    0.39
   0  -2  -6   10.37    0.34
   0  -2  -6   10.11    0.29
   0   2   6   10.35    0.34
   0   2   6   10.37    0.29
   0   2   6   10.48    0.29
  -1  -2  -6    3.72    0.19
  -1  -2  -6    3.83    0.18
   1   2   6    4.02    0.17
   1   2   6    3.81    0.17
   1   2   6    3.82    0.19
   1   2   6    4.10    0.15
  -2  -2  -6    6.99    0.27
  -2  -2  -6    6.65    0.22
  -2  -2  -6    6.69    0.25
   2   2   6    7.30    0.29
   2   2   6    7.30    0.30
   2   2   6    7.15    0.32
  -3  -2  -6    6.90    0.31
   3   2   6    7.01    0.38
   3   2   6    6.96    0.34
  -4  -2  -6    0.90    0.18
   4   2   6    0.77    0.17
   4   2   6    0.52    0.17
  -5  -2  -6    5.13    0.37
   5   2   6    5.07    0.44
  -6  -2  -6    0.56    0.21
   6   2   6    0.83    0.26
  -7   3   6   -0.18    0.16
  -6   3   6    3.43    0.35
  -6   3   6    3.44    0.29
  -5   3   6    7.55    0.41
  -5   3   6    6.68    0.33
  -4   3   6    5.63    0.22
  -4   3   6    5.65    0.35
  -4   3   6    6.25    0.31
   3  -3  -6   13.00    0.32
  -3   3   6   14.18    0.49
  -3   3   6   13.54    0.35
  -3   3   6   13.58    0.42
   2  -3  -6   13.43    0.41
  -2   3   6   12.14    0.38
  -2   3   6   13.15    0.34
  -2   3   6   13.16    0.46
   1  -3  -6   64.26    1.14
  -1   3   6   61.29    1.20
  -1   3   6   61.24    1.29
  -1   3   6   60.84    1.21
   0  -3  -6    4.90    0.22
   0   3   6    4.50    0.20
   0   3   6    4.98    0.25
   0   3   6    4.93    0.22
  -1  -3  -6    9.66    0.32
  -1  -3  -6    9.03    0.34
   1   3   6    8.55    0.30
   1   3   6    8.79    0.31
   1   3   6    9.03    0.27
  -2  -3  -6   30.58    0.73
  -2  -3  -6   30.82    0.75
   2   3   6   31.58    0.82
   2   3   6   32.12    0.77
   2   3   6   31.06    0.78
  -3  -3  -6    9.50    0.38
  -3  -3  -6    9.52    0.36
   3   3   6   10.01    0.47
   3   3   6    9.87    0.42
  -4  -3  -6    0.50    0.15
   4   3   6    0.28    0.13
   4   3   6    0.20    0.13
  -5  -3  -6   10.73    0.52
   5   3   6   11.20    0.64
  -6  -3  -6    0.55    0.20
   6   3   6    0.47    0.24
  -6   4   6    0.43    0.17
  -6   4   6    0.36    0.20
  -5   4   6    2.29    0.28
  -5   4   6    2.79    0.26
  -4   4   6    6.32    0.33
  -4   4   6    6.15    0.25
  -4   4   6    6.16    0.39
   3  -4  -6    3.09    0.17
   3  -4  -6    3.16    0.21
  -3   4   6    2.87    0.22
  -3   4   6    2.93    0.18
  -3   4   6    3.10    0.28
  -2   4   6    5.95    0.26
  -2   4   6    5.94    0.32
   1  -4  -6   45.98    0.90
  -1   4   6   48.11    1.10
  -1   4   6   45.12    0.97
   0  -4  -6   42.78    0.95
   0   4   6   42.48    0.91
   0   4   6   44.19    1.03
   0   4   6   43.95    1.01
  -1  -4  -6   18.08    0.53
   1   4   6   18.57    0.54
   1   4   6   18.68    0.44
  -2  -4  -6    4.06    0.26
  -2  -4  -6    3.21    0.24
   2   4   6    3.84    0.14
   2   4   6    4.09    0.27
  -3  -4  -6   14.84    0.52
   3   4   6   15.80    0.57
   3   4   6   14.41    0.60
  -4  -4  -6    2.15    0.27
   4   4   6    2.18    0.27
   4   4   6    1.40    0.27
  -5  -4  -6    1.61    0.27
   5   4   6    2.39    0.37
  -6  -4  -6    0.41    0.20
   6   4   6    0.64    0.28
  -6   5   6    0.07    0.16
  -6   5   6    0.06    0.15
  -5   5   6   11.02    0.45
  -5   5   6   10.26    0.36
  -5   5   6   11.23    0.55
  -4   5   6    5.57    0.39
  -4   5   6    5.03    0.30
  -4   5   6    5.38    0.26
   3  -5  -6    2.73    0.22
   3  -5  -6    2.69    0.19
  -3   5   6    3.23    0.30
  -3   5   6    2.86    0.23
  -3   5   6    2.60    0.18
   2  -5  -6   11.73    0.41
  -2   5   6   12.81    0.52
  -2   5   6   12.23    0.42
   1  -5  -6    4.60    0.20
  -1   5   6    4.97    0.25
  -1   5   6    5.04    0.31
   0  -5  -6    9.48    0.39
   0   5   6    9.26    0.41
   0   5   6    9.74    0.34
   0   5   6    9.44    0.34
  -1  -5  -6    4.45    0.28
   1   5   6    4.84    0.28
   1   5   6    4.70    0.21
  -2  -5  -6   12.25    0.48
   2   5   6   12.38    0.32
   2   5   6   12.12    0.50
  -3  -5  -6    4.86    0.34
   3   5   6    4.37    0.35
   3   5   6    4.76    0.32
  -4  -5  -6    5.08    0.37
   4   5   6    4.87    0.42
  -5  -5  -6    1.02    0.24
   5   5   6    1.64    0.34
  -6   6   6    0.58    0.18
  -6   6   6    0.60    0.23
  -5   6   6    1.52    0.21
  -5   6   6    1.78    0.29
  -4   6   6    0.73    0.21
  -4   6   6    0.62    0.15
   3  -6  -6    0.62    0.14
  -3   6   6    0.67    0.15
  -3   6   6    0.79    0.20
   2  -6  -6    4.66    0.19
  -2   6   6    4.28    0.34
  -2   6   6    4.50    0.27
   1  -6  -6    1.35    0.21
   1  -6  -6    1.18    0.13
  -1   6   6    1.25    0.17
  -1   6   6    1.26    0.20
  -1   6   6    1.24    0.17
   0  -6  -6   20.05    0.64
   0   6   6   20.13    0.57
   0   6   6   20.64    0.59
   0   6   6   20.54    0.69
  -1  -6  -6   34.61    0.90
   1   6   6   33.22    0.90
   1   6   6   32.77    0.75
  -2  -6  -6    7.55    0.41
   2   6   6    7.71    0.27
  -3  -6  -6    0.53    0.18
   3   6   6    0.54    0.16
   3   6   6    0.46    0.17
  -4  -6  -6    4.09    0.37
   4   6   6    3.47    0.42
  -5  -6  -6    0.66    0.23
   5   6   6    0.51    0.25
  -5   7   6    0.22    0.16
  -5   7   6    0.55    0.22
  -5   7   6    0.22    0.15
  -4   7   6    0.67    0.21
  -4   7   6    0.58    0.17
  -4   7   6    0.88    0.18
  -3   7   6    0.88    0.18
  -3   7   6    0.80    0.22
  -3   7   6    0.63    0.16
   2  -7  -6    0.28    0.08
  -2   7   6    0.41    0.18
  -2   7   6    0.41    0.14
  -2   7   6    0.23    0.12
   1  -7  -6    3.99    0.22
   1  -7  -6    4.05    0.32
  -1   7   6    3.92    0.28
  -1   7   6    4.35    0.29
  -1   7   6    4.21    0.35
   0  -7  -6    7.14    0.40
   0   7   6    7.29    0.33
   0   7   6    6.72    0.41
  -1  -7  -6    0.74    0.18
   1   7   6    0.64    0.12
   1   7   6    0.39    0.15
  -2  -7  -6   22.14    0.76
   2   7   6   22.03    0.56
  -3  -7  -6    1.06    0.24
   3   7   6    1.24    0.26
  -4  -7  -6    2.29    0.34
   4   7   6    1.73    0.35
  -5   8   6    0.31    0.21
  -5   8   6    0.11    0.15
  -5   8   6    0.26    0.27
  -4   8   6    1.32    0.23
  -4   8   6    1.41    0.25
  -4   8   6    1.64    0.32
  -3   8   6    3.07    0.32
  -3   8   6    3.12    0.31
  -3   8   6    2.72    0.37
   2  -8  -6    1.25    0.13
  -2   8   6    1.46    0.22
  -2   8   6    1.23    0.20
  -2   8   6    1.58    0.29
   1  -8  -6    0.14    0.10
   1  -8  -6    0.17    0.15
  -1   8   6    0.36    0.14
  -1   8   6    0.13    0.10
  -1   8   6    0.33    0.17
   0  -8  -6   11.09    0.53
   0   8   6    9.96    0.42
   0   8   6   10.81    0.55
  -1  -8  -6    0.95    0.23
   1   8   6    0.68    0.14
  -2  -8  -6    3.24    0.36
  -3  -8  -6    2.96    0.37
   3   8   6    3.72    0.45
  -4   9   6    2.54    0.31
  -4   9   6    2.14    0.37
  -4   9   6    2.73    0.40
  -3   9   6    0.10    0.18
  -3   9   6    0.52    0.18
  -3   9   6    0.61    0.19
  -2   9   6    2.52    0.29
  -2   9   6    2.79    0.32
  -2   9   6    2.77    0.40
  -1   9   6    3.12    0.30
  -1   9   6    3.12    0.40
   0  -9  -6    4.18    0.38
   0   9   6    4.09    0.30
  -1  -9  -6    1.07    0.26
   1   9   6    0.83    0.16
  -2  -9  -6    0.75    0.24
  -2  10   6    0.48    0.18
  -2  10   6    0.24    0.16
  -2  10   6    0.66    0.24
  -1  10   6    2.72    0.31
  -1  10   6    3.91    0.49
   0 -10  -6    1.37    0.28
   0  10   6    1.39    0.22
  -1 -10   7    6.03    0.49
  -1 -10   7    5.57    0.45
   0  10  -7    0.75    0.25
   0  10  -7    0.48    0.17
   0 -10   7    0.41    0.20
   0 -10   7    0.45    0.23
  -1  10  -7    0.30    0.20
  -1  10  -7    0.80    0.20
   1 -10   7    0.60    0.20
   1 -10   7    0.51    0.21
  -2  10  -7    1.95    0.34
  -2  10  -7    2.32    0.30
   2 -10   7    1.96    0.28
  -3  10  -7    0.47    0.24
  -3  10  -7    0.52    0.20
   3   9  -7    0.53    0.22
  -3  -9   7    1.33    0.32
  -3  -9   7    0.88    0.27
  -2  -9   7    5.93    0.47
  -2  -9   7    6.77    0.48
   1   9  -7    0.81    0.21
  -1  -9   7    0.83    0.24
  -1  -9   7    0.84    0.23
   0   9  -7    1.77    0.32
   0   9  -7    1.33    0.21
   0  -9   7    1.04    0.22
   0  -9   7    1.73    0.28
  -1   9  -7    1.27    0.21
  -1   9  -7    0.90    0.24
  -1   9  -7    0.99    0.22
   1  -9   7    1.22    0.23
   1  -9   7    1.03    0.23
  -2   9  -7    0.58    0.21
  -2   9  -7    0.46    0.16
  -2   9  -7    0.14    0.14
   2  -9   7    0.28    0.15
  -3   9  -7    0.41    0.15
  -3   9  -7    0.06    0.15
  -3   9  -7    0.11    0.13
  -4   9  -7    2.31    0.30
  -4   9  -7    2.67    0.38
  -4   9  -7    2.51    0.31
  -4  -8   7    5.89    0.54
   3   8  -7    7.48    0.48
  -3  -8   7    7.75    0.51
  -3  -8   7    8.17    0.51
  -2  -8   7    5.29    0.40
  -2  -8   7    3.29    0.35
   1   8  -7    0.24    0.15
  -1  -8   7    0.37    0.18
  -1  -8   7    0.53    0.19
   0   8  -7   12.61    0.58
   0   8  -7   13.49    0.61
   0   8  -7   13.85    0.53
   0  -8   7   13.56    0.54
   0  -8   7   13.10    0.55
  -1   8  -7    2.27    0.34
  -1   8  -7    1.81    0.23
  -1   8  -7    2.07    0.28
   1  -8   7    1.98    0.26
   1  -8   7    1.59    0.24
  -2   8  -7    2.88    0.34
  -2   8  -7    3.86    0.33
  -2   8  -7    3.07    0.33
   2  -8   7    3.25    0.27
  -3   8  -7    6.16    0.44
  -3   8  -7    5.10    0.35
  -3   8  -7    6.36    0.41
  -4   8  -7    0.71    0.19
  -4   8  -7    0.67    0.22
  -4   8  -7    0.64    0.18
  -5   8  -7    0.09    0.17
  -5   8  -7    0.11    0.14
   4   7  -7    4.13    0.38
  -4  -7   7    4.64    0.45
  -4  -7   7    4.17    0.44
  -4  -7   7    3.53    0.37
   3   7  -7    5.48    0.40
  -3  -7   7    5.74    0.41
  -3  -7   7    6.45    0.42
  -3  -7   7    6.27    0.43
   2   7  -7   14.37    0.58
  -2  -7   7   15.80    0.60
  -2  -7   7   14.02    0.59
   1   7  -7    0.35    0.14
   1   7  -7    0.12    0.11
  -1  -7   7    0.39    0.16
  -1  -7   7    0.51    0.17
   0   7  -7    5.07    0.30
   0   7  -7    5.30    0.35
   0   7  -7    5.43    0.37
   0  -7   7    5.12    0.32
   0  -7   7    5.24    0.33
  -1   7  -7    2.64    0.25
  -1   7  -7    2.79    0.30
  -1   7  -7    2.37    0.28
   1  -7   7    2.51    0.26
   1  -7   7    2.22    0.24
  -2   7  -7   36.99    1.02
  -2   7  -7   38.81    0.97
  -2   7  -7   37.77    1.06
   2  -7   7   37.42    0.89
  -3   7  -7    8.50    0.46
  -3   7  -7    6.61    0.40
  -3   7  -7    7.38    0.39
  -4   7  -7    1.89    0.25
  -4   7  -7    1.71    0.25
  -4   7  -7    1.38    0.22
  -5   7  -7    0.16    0.14
  -5   7  -7    0.16    0.13
   5   6  -7    0.10    0.17
  -5  -6   7    0.44    0.21
  -5  -6   7    0.18    0.20
  -5  -6   7    0.60    0.24
   4   6  -7    2.12    0.30
  -4  -6   7    2.00    0.31
  -4  -6   7    2.02    0.28
  -4  -6   7    1.70    0.26
   3   6  -7    0.12    0.12
  -3  -6   7    0.32    0.15
  -3  -6   7    0.04    0.12
  -3  -6   7    0.11    0.15
   2   6  -7    1.47    0.23
  -2  -6   7    1.41    0.21
  -2  -6   7    0.94    0.19
  -2  -6   7    1.30    0.21
   1   6  -7    4.83    0.32
   1   6  -7    4.38    0.31
  -1  -6   7    4.66    0.30
  -1  -6   7    4.64    0.29
   0   6  -7    8.24    0.35
   0   6  -7    7.92    0.39
   0   6  -7    8.47    0.42
   0  -6   7    7.78    0.35
   0  -6   7    7.25    0.35
  -1   6  -7   25.69    0.76
  -1   6  -7   25.48    0.69
  -1   6  -7   25.60    0.77
   1  -6   7   25.13    0.67
   1  -6   7   24.58    0.67
  -2   6  -7    4.69    0.32
  -2   6  -7    4.86    0.32
  -2   6  -7    4.69    0.28
   2  -6   7    5.21    0.25
  -3   6  -7    9.75    0.44
  -3   6  -7    9.66    0.41
  -3   6  -7    9.44    0.44
  -4   6  -7    0.58    0.15
  -4   6  -7    0.61    0.15
  -4   6  -7    0.54    0.15
  -5   6  -7    1.69    0.23
  -5   6  -7    1.84    0.25
  -5   6  -7    1.21    0.19
  -5   6  -7    1.92    0.19
  -6   6  -7    0.18    0.15
   5   5  -7    0.41    0.19
  -5  -5   7    0.40    0.21
  -5  -5   7    0.12    0.17
  -5  -5   7    0.52    0.18
   4   5  -7    4.85    0.36
  -4  -5   7    5.12    0.40
  -4  -5   7    5.63    0.37
  -4  -5   7    5.83    0.39
   3   5  -7    9.94    0.44
  -3  -5   7   10.59    0.47
  -3  -5   7   10.12    0.46
  -3  -5   7    9.89    0.47
   2   5  -7    1.06    0.18
   2   5  -7    0.80    0.16
  -2  -5   7    0.80    0.16
  -2  -5   7    0.63    0.15
  -2  -5   7    0.72    0.16
   1   5  -7    3.64    0.26
   1   5  -7    3.42    0.25
  -1  -5   7    4.05    0.26
  -1  -5   7    3.65    0.24
  -1  -5   7    3.63    0.25
   0   5  -7    5.73    0.26
   0   5  -7    5.68    0.27
   0   5  -7    5.86    0.32
   0  -5   7    5.85    0.27
   0  -5   7    5.64    0.28
  -1   5  -7   26.45    0.74
  -1   5  -7   27.08    0.75
  -1   5  -7   26.65    0.68
  -1   5  -7   27.12    0.65
   1  -5   7   26.81    0.65
   1  -5   7   26.86    0.66
  -2   5  -7    6.60    0.33
  -2   5  -7    6.41    0.29
  -2   5  -7    6.60    0.28
  -2   5  -7    6.63    0.34
  -2   5  -7    7.44    0.32
   2  -5   7    7.18    0.26
  -3   5  -7    0.56    0.13
  -3   5  -7    0.71    0.15
  -3   5  -7    0.89    0.14
  -4   5  -7    6.40    0.33
  -4   5  -7    5.99    0.33
  -4   5  -7    6.18    0.26
  -4   5  -7    6.07    0.31
  -5   5  -7    0.09    0.10
  -5   5  -7    0.06    0.10
  -5   5  -7   -0.09    0.09
  -6   5  -7    0.45    0.16
   6   4  -7    1.25    0.29
  -6  -4   7    1.21    0.24
  -6  -4   7    0.96    0.24
  -6  -4   7    1.39    0.32
   5   4  -7    1.52    0.26
  -5  -4   7    1.86    0.26
  -5  -4   7    2.51    0.35
  -5  -4   7    2.04    0.27
   4   4  -7   20.33    0.70
  -4  -4   7   20.19    0.66
  -4  -4   7   20.88    0.74
  -4  -4   7   20.59    0.67
  -4  -4   7   19.54    0.56
   3   4  -7    6.53    0.33
   3   4  -7    6.40    0.30
  -3  -4   7    7.13    0.36
  -3  -4   7    7.00    0.38
  -3  -4   7    6.89    0.35
   2   4  -7    1.52    0.19
   2   4  -7    1.71    0.20
   2   4  -7    1.73    0.15
  -2  -4   7    1.57    0.19
  -2  -4   7    1.68    0.21
  -2  -4   7    1.97    0.20
   1   4  -7    1.19    0.16
   1   4  -7    1.15    0.16
   1   4  -7    1.32    0.17
  -1  -4   7    0.90    0.14
  -1  -4   7    0.96    0.14
  -1  -4   7    1.15    0.14
  -1  -4   7    0.92    0.15
   0   4  -7    8.11    0.29
   0   4  -7    7.81    0.34
   0   4  -7    8.72    0.35
   0  -4   7    8.33    0.31
   0  -4   7    8.02    0.32
   0  -4   7    8.50    0.29
   0  -4   7    7.55    0.34
  -1   4  -7    0.94    0.13
  -1   4  -7    0.98    0.15
  -1   4  -7    1.07    0.13
  -1   4  -7    0.94    0.15
  -1   4  -7    1.19    0.12
   1  -4   7    1.39    0.14
   1  -4   7    1.17    0.13
   1  -4   7    1.09    0.15
  -2   4  -7    3.68    0.19
  -2   4  -7    3.58    0.23
  -2   4  -7    3.84    0.23
  -2   4  -7    3.58    0.19
  -2   4  -7    3.69    0.21
   2  -4   7    3.88    0.25
  -3   4  -7    3.02    0.19
  -3   4  -7    2.90    0.22
  -3   4  -7    3.58    0.24
  -3   4  -7    3.01    0.20
  -3   4  -7    3.02    0.20
   3  -4   7    3.09    0.35
  -4   4  -7    0.09    0.10
  -4   4  -7    0.39    0.12
  -4   4  -7    0.38    0.11
  -5   4  -7    0.19    0.11
  -5   4  -7   -0.12    0.09
  -6   4  -7    0.49    0.14
   6   3  -7    1.82    0.29
  -6  -3   7    1.46    0.24
  -6  -3   7    1.42    0.33
  -6  -3   7    2.16    0.30
   5   3  -7    1.16    0.22
  -5  -3   7    1.21    0.19
  -5  -3   7    1.52    0.30
  -5  -3   7    1.26    0.21
  -5  -3   7    1.46    0.21
   4   3  -7    9.21    0.44
  -4  -3   7   10.29    0.52
  -4  -3   7    8.95    0.39
  -4  -3   7    8.91    0.38
  -4  -3   7   10.16    0.44
  -4  -3   7   10.54    0.43
   3   3  -7    0.59    0.12
   3   3  -7    0.19    0.09
  -3  -3   7    0.48    0.15
  -3  -3   7    0.45    0.13
  -3  -3   7    0.44    0.09
  -3  -3   7    0.32    0.12
  -3  -3   7    0.38    0.11
  -3  -3   7    0.31    0.13
   2   3  -7    0.15    0.07
   2   3  -7    0.18    0.08
   2   3  -7    0.18    0.06
  -2  -3   7    0.10    0.09
  -2  -3   7    0.22    0.06
  -2  -3   7    0.12    0.08
  -2  -3   7    0.17    0.08
  -2  -3   7    0.13    0.09
   1   3  -7   75.21    1.48
   1   3  -7   76.34    1.49
   1   3  -7   75.37    1.51
  -1  -3   7   77.77    1.48
  -1  -3   7   75.46    1.49
  -1  -3   7   73.86    1.46
  -1  -3   7   75.85    1.43
  -1  -3   7   75.88    1.43
   0   3  -7   15.51    0.46
   0   3  -7   14.61    0.46
   0   3  -7   15.05    0.38
   0  -3   7   15.79    0.46
   0  -3   7   14.96    0.37
   0  -3   7   15.41    0.42
   0  -3   7   14.99    0.41
   0  -3   7   15.20    0.42
  -1   3  -7   33.11    0.78
  -1   3  -7   34.38    0.66
  -1   3  -7   33.33    0.72
  -1   3  -7   33.22    0.76
  -1   3  -7   33.06    0.72
  -1   3  -7   33.45    0.66
   1  -3   7   33.77    0.79
   1  -3   7   34.08    0.67
   1  -3   7   32.24    0.69
   1  -3   7   33.83    0.72
  -2   3  -7    2.91    0.15
  -2   3  -7    3.05    0.18
  -2   3  -7    3.36    0.22
  -2   3  -7    3.21    0.18
  -2   3  -7    3.39    0.15
  -2   3  -7    2.80    0.17
   2  -3   7    3.71    0.19
   2  -3   7    3.27    0.22
  -3   3  -7    4.20    0.25
  -3   3  -7    4.35    0.21
  -3   3  -7    4.23    0.25
   3  -3   7    4.56    0.26
  -4   3  -7    4.21    0.26
  -4   3  -7    4.44    0.24
  -4   3  -7    4.71    0.30
  -5   3  -7    0.68    0.13
  -5   3  -7    0.56    0.15
  -6  -2   7    1.37    0.32
  -6  -2   7    1.47    0.23
  -6  -2   7    1.61    0.25
   5   2  -7   10.58    0.52
  -5  -2   7   11.62    0.47
  -5  -2   7   10.95    0.61
  -5  -2   7   11.52    0.49
  -5  -2   7   10.35    0.50
   4   2  -7    8.50    0.40
  -4  -2   7    8.89    0.39
  -4  -2   7    8.32    0.36
  -4  -2   7    7.91    0.46
  -4  -2   7    7.80    0.31
  -4  -2   7    8.50    0.38
   3   2  -7   23.84    0.59
   3   2  -7   22.99    0.62
  -3  -2   7   23.20    0.58
  -3  -2   7   23.54    0.72
  -3  -2   7   22.25    0.61
  -3  -2   7   23.39    0.65
  -3  -2   7   23.68    0.64
   2   2  -7   53.97    1.11
   2   2  -7   52.09    1.04
   2   2  -7   53.97    1.09
  -2  -2   7   53.38    1.11
  -2  -2   7   52.74    1.14
  -2  -2   7   54.53    1.16
  -2  -2   7   55.75    1.13
  -2  -2   7   54.21    1.09
   1   2  -7   38.88    0.86
   1   2  -7   39.86    0.84
  -1  -2   7   38.06    0.82
  -1  -2   7   37.92    0.80
  -1  -2   7   38.65    0.84
  -1  -2   7   39.44    0.84
   0   2  -7   78.71    1.49
   0   2  -7   78.32    1.49
   0   2  -7   77.22    1.38
   0   2  -7   77.28    1.46
   0  -2   7   78.87    1.44
   0  -2   7   75.81    1.32
   0  -2   7   77.78    1.44
   0  -2   7   79.43    1.49
   0  -2   7   77.72    1.35
   0  -2   7   80.40    1.37
   0  -2   7   76.48    1.42
  -1   2  -7   37.39    0.77
  -1   2  -7   37.86    0.80
  -1   2  -7   39.18    0.77
  -1   2  -7   36.70    0.79
  -1   2  -7   37.65    0.73
  -1   2  -7   37.96    0.84
  -1   2  -7   38.26    0.69
   1  -2   7   39.83    0.77
   1  -2   7   37.80    0.73
   1  -2   7   38.06    0.84
  -2   2  -7   11.12    0.31
  -2   2  -7   10.27    0.29
  -2   2  -7   10.50    0.27
  -2   2  -7   10.78    0.34
  -2   2  -7   10.41    0.37
  -2   2  -7   10.89    0.39
   2  -2   7   11.02    0.32
   2  -2   7   11.00    0.38
  -3   2  -7   20.57    0.58
  -3   2  -7   20.61    0.49
  -3   2  -7   20.50    0.59
  -4   2  -7   16.79    0.45
  -4   2  -7   16.40    0.57
  -4   2  -7   16.94    0.54
  -5   2  -7    0.76    0.16
  -5   2  -7    0.45    0.11
  -6   2  -7    0.73    0.23
  -7   2  -7    0.33    0.23
  -6  -1   7    5.81    0.55
  -6  -1   7    6.67    0.38
  -6  -1   7    7.26    0.43
  -5  -1   7   12.62    0.51
  -5  -1   7   13.28    0.67
  -5  -1   7   12.62    0.47
  -4  -1   7   20.69    0.74
  -4  -1   7   20.38    0.61
  -4  -1   7   18.73    0.47
  -4  -1   7   20.43    0.57
  -4  -1   7   19.75    0.62
   3   1  -7   16.92    0.49
   3   1  -7   16.61    0.42
   3   1  -7   15.48    0.43
  -3  -1   7   17.23    0.49
  -3  -1   7   15.96    0.46
  -3  -1   7   17.22    0.51
  -3  -1   7   16.71    0.42
  -3  -1   7   17.47    0.60
  -3  -1   7   16.94    0.51
   2   1  -7    0.77    0.09
   2   1  -7    0.98    0.13
   2   1  -7    0.98    0.11
  -2  -1   7    1.01    0.14
  -2  -1   7    0.86    0.08
  -2  -1   7    0.90    0.14
  -2  -1   7    1.06    0.11
  -2  -1   7    0.86    0.12
  -2  -1   7    0.71    0.12
   1   1  -7   37.23    0.82
   1   1  -7   38.51    0.79
  -1  -1   7   38.85    0.80
  -1  -1   7   39.85    0.80
  -1  -1   7   36.80    0.82
  -1  -1   7   39.04    0.83
  -1  -1   7   37.91    0.80
   0   1  -7  205.21    3.56
   0   1  -7  210.73    3.59
   0   1  -7  206.89    3.48
   0   1  -7  198.43    3.57
   0   1  -7  208.37    3.44
   0  -1   7  209.40    3.53
   0  -1   7  213.59    3.59
   0  -1   7  205.37    3.54
   0  -1   7  217.41    3.46
  -1   1  -7   14.23    0.42
  -1   1  -7   14.87    0.39
  -1   1  -7   14.45    0.37
  -1   1  -7   15.08    0.35
  -1   1  -7   14.84    0.36
   1  -1   7   14.34    0.42
   1  -1   7   14.62    0.39
   1  -1   7   14.59    0.37
   1  -1   7   14.23    0.34
   1  -1   7   15.06    0.32
  -2   1  -7   14.15    0.36
  -2   1  -7   13.97    0.39
  -2   1  -7   13.88    0.33
  -2   1  -7   13.87    0.44
  -2   1  -7   14.37    0.45
   2  -1   7   13.29    0.42
   2  -1   7   13.72    0.34
   2  -1   7   12.90    0.44
  -3   1  -7   18.69    0.53
  -3   1  -7   18.50    0.42
  -3   1  -7   17.87    0.54
  -3   1  -7   18.56    0.55
   3  -1   7   18.77    0.62
  -4   1  -7   12.08    0.45
  -4   1  -7   12.13    0.48
  -4   1  -7   11.68    0.32
  -4   1  -7   11.33    0.47
   4  -1   7   10.98    0.52
  -5   1  -7    0.17    0.15
  -5   1  -7   -0.03    0.11
  -5   1  -7   -0.05    0.06
  -6   1  -7    0.42    0.19
  -7   0   7    1.10    0.25
  -6   0   7    0.78    0.21
  -6   0   7    0.67    0.17
  -6   0   7    1.50    0.35
  -5   0   7    1.70    0.22
  -5   0   7    1.90    0.22
  -4   0   7    7.10    0.31
  -4   0   7    6.74    0.34
  -4   0   7    6.44    0.32
   3   0  -7   30.40    0.67
   3   0  -7   30.97    0.61
  -3   0   7   31.28    0.62
  -3   0   7   30.51    0.75
  -3   0   7   32.27    0.73
  -3   0   7   31.02    0.74
  -3   0   7   31.48    0.77
   2   0  -7    3.87    0.16
   2   0  -7    3.62    0.20
  -2   0   7    3.25    0.21
  -2   0   7    3.50    0.16
  -2   0   7    3.33    0.20
  -2   0   7    3.86    0.17
  -2   0   7    3.51    0.22
   1   0  -7   26.46    0.57
   1   0  -7   26.72    0.61
  -1   0   7   25.26    0.57
  -1   0   7   25.72    0.61
  -1   0   7   25.25    0.61
   0   0  -7    5.89    0.23
   0   0  -7    6.19    0.23
   0   0  -7    6.16    0.18
   0   0  -7    6.79    0.22
   0   0  -7    6.17    0.24
   0   0   7    6.02    0.22
   0   0   7    6.32    0.21
   0   0   7    5.80    0.17
  -1   0  -7   37.78    0.76
  -1   0  -7   36.26    0.74
  -1   0  -7   36.31    0.81
  -1   0  -7   35.89    0.70
   1   0   7   36.72    0.78
   1   0   7   36.77    0.67
  -2   0  -7    4.27    0.23
  -2   0  -7    4.14    0.17
   2   0   7    4.50    0.14
   2   0   7    4.28    0.22
   2   0   7    4.44    0.25
  -3   0  -7   10.76    0.37
  -3   0  -7   10.71    0.39
   3   0   7   10.40    0.46
   3   0   7   10.56    0.42
  -4   0  -7    3.22    0.27
  -4   0  -7    2.80    0.24
  -4   0  -7    2.86    0.26
   4   0   7    2.70    0.31
  -5   0  -7    1.09    0.20
  -5   0  -7    1.24    0.24
   5   0   7    1.06    0.24
  -6   0  -7    1.20    0.32
  -6   0  -7    1.51    0.28
   6   0   7    1.05    0.27
  -7   1   7    0.28    0.19
  -6   1   7    0.51    0.16
  -6   1   7    0.52    0.18
  -5   1   7    8.26    0.37
  -5   1   7    9.18    0.44
  -4   1   7    7.40    0.37
  -4   1   7    7.99    0.34
  -4   1   7    8.33    0.35
   3  -1  -7   10.27    0.35
   3  -1  -7    7.68    0.28
  -3   1   7    9.63    0.36
  -3   1   7    9.53    0.37
  -3   1   7    9.56    0.35
  -3   1   7    9.80    0.33
   2  -1  -7  183.23    3.12
   2  -1  -7  176.21    3.01
  -2   1   7  176.26    3.09
  -2   1   7  174.09    3.15
  -2   1   7  178.69    3.02
  -2   1   7  179.59    3.14
   1  -1  -7   41.03    0.87
   1  -1  -7   42.14    0.78
  -1   1   7   41.80    0.84
  -1   1   7   39.12    0.88
   0  -1  -7   41.74    0.77
   0  -1  -7   39.98    0.86
   0   1   7   41.53    0.85
   0   1   7   42.34    0.82
   0   1   7   41.22    0.77
  -1  -1  -7    5.24    0.18
  -1  -1  -7    5.03    0.17
  -1  -1  -7    5.02    0.21
   1   1   7    5.13    0.16
   1   1   7    5.04    0.17
   1   1   7    4.98    0.22
  -2  -1  -7   24.20    0.55
  -2  -1  -7   25.18    0.56
  -2  -1  -7   25.31    0.51
   2   1   7   25.71    0.69
   2   1   7   24.99    0.60
   2   1   7   25.07    0.64
  -3  -1  -7    5.45    0.26
   3   1   7    4.94    0.29
  -4  -1  -7   23.25    0.68
   4   1   7   23.14    0.82
  -5  -1  -7    2.10    0.27
   5   1   7    2.01    0.31
  -6  -1  -7   -0.03    0.16
  -6  -1  -7    0.34    0.17
   6   1   7    0.03    0.17
  -7   2   7    0.28    0.20
  -6   2   7    0.32    0.15
  -6   2   7   -0.05    0.15
  -5   2   7    2.94    0.26
  -5   2   7    2.62    0.27
  -4   2   7    1.64    0.19
  -4   2   7    1.70    0.19
  -4   2   7    1.77    0.22
   3  -2  -7    1.75    0.08
  -3   2   7    1.89    0.17
  -3   2   7    1.82    0.13
  -3   2   7    1.87    0.20
   2  -2  -7   71.99    1.40
  -2   2   7   70.38    1.30
  -2   2   7   72.42    1.37
  -2   2   7   71.06    1.46
   1  -2  -7   29.50    0.59
  -1   2   7   28.05    0.71
  -1   2   7   28.48    0.64
  -1   2   7   28.97    0.64
  -1   2   7   28.10    0.58
   0  -2  -7   25.35    0.63
   0  -2  -7   26.04    0.53
   0  -2  -7   25.78    0.56
   0   2   7   26.23    0.57
   0   2   7   25.40    0.56
   0   2   7   25.63    0.62
  -1  -2  -7   46.92    0.92
  -1  -2  -7   46.75    0.98
   1   2   7   46.28    0.92
   1   2   7   47.90    0.88
   1   2   7   47.33    0.98
   1   2   7   46.22    0.93
  -2  -2  -7    8.57    0.30
  -2  -2  -7    8.15    0.30
   2   2   7    8.56    0.32
   2   2   7    8.89    0.34
   2   2   7    8.42    0.36
  -3  -2  -7    1.17    0.16
   3   2   7    0.70    0.14
   3   2   7    0.72    0.16
  -4  -2  -7    3.70    0.27
   4   2   7    3.65    0.37
   4   2   7    3.21    0.31
  -5  -2  -7    0.67    0.19
   5   2   7    0.52    0.20
  -6  -2  -7    1.57    0.27
   6   2   7    1.48    0.33
  -6   3   7    4.56    0.40
  -6   3   7    3.96    0.32
  -5   3   7    1.32    0.23
  -5   3   7    1.44    0.20
  -4   3   7    3.85    0.20
  -4   3   7    4.69    0.28
  -4   3   7    3.71    0.31
   3  -3  -7   15.94    0.46
   3  -3  -7   14.79    0.36
  -3   3   7   15.14    0.47
  -3   3   7   16.06    0.55
  -3   3   7   15.99    0.40
   2  -3  -7    3.96    0.23
  -2   3   7    3.86    0.21
  -2   3   7    4.00    0.26
  -2   3   7    4.14    0.18
   1  -3  -7   44.61    0.85
  -1   3   7   43.07    1.00
  -1   3   7   43.27    0.92
  -1   3   7   43.30    0.91
   0  -3  -7   51.00    1.04
   0   3   7   50.70    1.03
   0   3   7   51.45    1.10
   0   3   7   51.12    1.01
  -1  -3  -7   60.82    1.28
  -1  -3  -7   62.88    1.22
   1   3   7   61.54    1.22
   1   3   7   62.74    1.16
   1   3   7   60.48    1.22
  -2  -3  -7    3.77    0.22
  -2  -3  -7    3.77    0.23
   2   3   7    3.98    0.26
   2   3   7    3.77    0.23
   2   3   7    3.65    0.23
  -3  -3  -7   14.23    0.47
  -3  -3  -7   15.44    0.50
   3   3   7   14.68    0.59
   3   3   7   15.90    0.56
  -4  -3  -7    4.80    0.32
   4   3   7    5.06    0.35
   4   3   7    4.34    0.37
  -5  -3  -7    5.48    0.39
   5   3   7    6.52    0.51
  -6  -3  -7    3.53    0.38
   6   3   7    3.62    0.48
  -6   4   7    1.40    0.26
  -6   4   7    1.19    0.21
  -5   4   7    0.88    0.20
  -5   4   7    1.22    0.20
  -5   4   7    0.94    0.14
  -4   4   7    9.66    0.47
  -4   4   7    8.51    0.31
  -4   4   7    8.89    0.38
   3  -4  -7   22.47    0.54
   3  -4  -7   22.99    0.62
  -3   4   7   23.24    0.55
  -3   4   7   24.71    0.75
  -3   4   7   23.20    0.63
  -2   4   7    3.33    0.21
  -2   4   7    3.83    0.27
   1  -4  -7    7.61    0.25
  -1   4   7    7.03    0.35
  -1   4   7    6.80    0.28
   0  -4  -7    2.28    0.19
   0   4   7    2.15    0.19
   0   4   7    2.18    0.16
  -1  -4  -7    2.72    0.21
   1   4   7    2.49    0.14
   1   4   7    2.35    0.18
  -2  -4  -7    3.44    0.25
  -2  -4  -7    3.80    0.26
   2   4   7    4.50    0.29
   2   4   7    4.15    0.14
  -3  -4  -7    5.32    0.32
   3   4   7    5.37    0.37
   3   4   7    5.28    0.33
  -4  -4  -7    2.44    0.28
   4   4   7    2.28    0.33
   4   4   7    1.95    0.28
  -5  -4  -7    4.64    0.37
   5   4   7    3.71    0.45
  -6   5   7    1.13    0.26
  -6   5   7    0.73    0.20
  -5   5   7    1.40    0.26
  -5   5   7    1.12    0.21
  -5   5   7    1.66    0.24
  -4   5   7    5.13    0.39
  -4   5   7    5.10    0.32
  -4   5   7    4.99    0.26
   3  -5  -7    2.84    0.23
   3  -5  -7    2.87    0.20
  -3   5   7    2.86    0.24
  -3   5   7    2.74    0.19
  -3   5   7    2.66    0.29
   2  -5  -7    1.80    0.13
  -2   5   7    1.69    0.23
  -2   5   7    1.46    0.17
   1  -5  -7    8.09    0.27
  -1   5   7    6.54    0.37
  -1   5   7    7.25    0.31
   0  -5  -7    2.37    0.22
   0   5   7    2.29    0.22
   0   5   7    2.54    0.19
  -1  -5  -7   19.58    0.60
   1   5   7   19.15    0.49
   1   5   7   19.68    0.61
  -2  -5  -7   26.31    0.74
   2   5   7   25.61    0.55
   2   5   7   25.45    0.79
  -3  -5  -7    1.63    0.24
   3   5   7    1.67    0.23
   3   5   7    1.63    0.25
  -4  -5  -7    0.16    0.16
   4   5   7    0.43    0.18
  -5  -5  -7    1.08    0.23
   5   5   7    0.63    0.24
  -6   6   7    1.12    0.23
  -6   6   7    1.33    0.29
  -5   6   7    5.76    0.37
  -5   6   7    6.49    0.49
  -4   6   7    0.32    0.17
  -4   6   7    0.63    0.15
   3  -6  -7    0.26    0.11
  -3   6   7    0.61    0.15
  -3   6   7    0.47    0.17
   2  -6  -7    0.28    0.08
  -2   6   7    0.35    0.12
  -2   6   7    0.24    0.14
   1  -6  -7    0.57    0.11
  -1   6   7    0.48    0.12
  -1   6   7    0.47    0.16
   0  -6  -7    3.90    0.28
   0   6   7    3.22    0.28
   0   6   7    3.47    0.24
   0   6   7    3.05    0.22
  -1  -6  -7   11.99    0.49
   1   6   7   11.27    0.37
   1   6   7   11.38    0.48
  -2  -6  -7    2.42    0.28
   2   6   7    1.85    0.14
  -3  -6  -7   12.10    0.55
   3   6   7   12.65    0.58
   3   6   7   12.50    0.62
  -4  -6  -7    1.08    0.24
   4   6   7    1.26    0.27
  -5   7   7    1.85    0.26
  -5   7   7    1.99    0.35
  -4   7   7    0.36    0.14
  -4   7   7    0.41    0.20
  -3   7   7    2.29    0.25
  -3   7   7    2.39    0.33
   2  -7  -7    0.33    0.09
  -2   7   7    0.43    0.13
  -2   7   7    0.26    0.12
  -2   7   7    0.43    0.17
   1  -7  -7    8.15    0.31
  -1   7   7    8.52    0.39
  -1   7   7    8.15    0.47
  -1   7   7    8.06    0.38
   0  -7  -7    4.60    0.34
   0   7   7    4.65    0.27
   0   7   7    4.51    0.28
   0   7   7    5.00    0.36
  -1  -7  -7    8.17    0.44
   1   7   7    9.15    0.56
   1   7   7    8.30    0.34
  -2  -7  -7    0.89    0.22
   2   7   7    0.64    0.13
  -3  -7  -7    0.40    0.20
   3   7   7    0.39    0.19
  -4  -7  -7    5.02    0.44
   4   7   7    5.41    0.57
  -4   8   7    0.31    0.16
  -4   8   7    0.08    0.17
  -4   8   7   -0.09    0.12
  -3   8   7    0.06    0.12
  -3   8   7    0.14    0.15
  -3   8   7   -0.04    0.12
   2  -8  -7    7.11    0.27
  -2   8   7    7.67    0.40
  -2   8   7    8.08    0.43
  -2   8   7    8.06    0.52
   1  -8  -7    3.70    0.24
  -1   8   7    4.99    0.33
  -1   8   7    3.88    0.42
  -1   8   7    3.95    0.30
   0  -8  -7    2.99    0.34
   0   8   7    2.99    0.38
   0   8   7    3.21    0.25
  -1  -8  -7    5.83    0.41
   1   8   7    6.03    0.31
  -2  -8  -7    2.68    0.34
  -3  -8  -7    1.59    0.31
   3   8   7    2.16    0.36
  -4   9   7    0.10    0.20
  -4   9   7    0.20    0.17
  -3   9   7    0.74    0.21
  -3   9   7    0.68    0.24
  -3   9   7    0.50    0.18
  -2   9   7    0.64    0.18
  -2   9   7    0.62    0.23
  -2   9   7    0.41    0.16
  -1   9   7    0.73    0.23
  -1   9   7    0.53    0.16
   0  -9  -7    3.66    0.41
   0   9   7    2.96    0.28
  -1  -9  -7    0.14    0.19
  -2  -9  -7    2.71    0.38
  -2  10   7    1.58    0.33
  -2  10   7    1.38    0.26
  -2  10   7    1.52    0.25
  -1  10   7    0.29    0.15
   0 -10  -7    0.95    0.26
   0  10   7    1.24    0.21
  -1 -10   8   10.78    0.58
  -1 -10   8    8.89    0.57
   0  10  -8    0.80    0.25
   0 -10   8    0.23    0.22
   0 -10   8    0.57    0.20
  -1  10  -8    0.39    0.16
  -1  10  -8    0.83    0.25
   1 -10   8    0.40    0.19
   1 -10   8    0.93    0.23
  -2  10  -8    1.14    0.25
  -2  10  -8    1.17    0.23
  -2  10  -8    1.26    0.27
   2 -10   8    0.89    0.22
  -3  10  -8    0.46    0.24
  -3  10  -8    0.38    0.18
  -2  -9   8    1.76    0.31
  -2  -9   8    2.35    0.34
   1   9  -8    1.60    0.28
  -1  -9   8    1.40    0.26
  -1  -9   8    1.10    0.24
   0   9  -8    0.85    0.19
   0   9  -8    0.83    0.24
   0  -9   8    0.90    0.23
   0  -9   8    1.12    0.23
  -1   9  -8    1.15    0.20
  -1   9  -8    0.86    0.21
  -1   9  -8    1.02    0.26
   1  -9   8    1.26    0.23
   1  -9   8    1.22    0.24
  -2   9  -8    1.95    0.26
  -2   9  -8    2.09    0.32
  -2   9  -8    2.05    0.29
   2  -9   8    1.87    0.25
  -3   9  -8    1.03    0.22
  -3   9  -8    1.08    0.21
  -3   9  -8    1.02    0.25
  -4   9  -8    0.12    0.15
  -4   9  -8    0.40    0.17
  -4   9  -8    0.78    0.26
   3   8  -8    4.27    0.38
  -3  -8   8    4.10    0.43
  -3  -8   8    3.29    0.37
  -2  -8   8    1.64    0.28
  -2  -8   8    2.06    0.30
   1   8  -8    8.28    0.48
  -1  -8   8    7.84    0.46
  -1  -8   8    7.67    0.43
   0   8  -8    7.37    0.39
   0   8  -8    7.35    0.45
   0   8  -8    7.05    0.45
   0  -8   8    7.61    0.41
   0  -8   8    7.65    0.43
  -1   8  -8    1.62    0.24
  -1   8  -8    1.81    0.23
  -1   8  -8    1.31    0.26
   1  -8   8    1.81    0.25
   1  -8   8    1.54    0.23
  -2   8  -8    1.20    0.20
  -2   8  -8    1.37    0.23
  -2   8  -8    1.67    0.29
   2  -8   8    1.17    0.19
  -3   8  -8    4.35    0.33
  -3   8  -8    4.01    0.35
  -3   8  -8    4.47    0.39
  -4   8  -8    1.62    0.29
  -4   8  -8    1.50    0.25
  -4   8  -8    1.26    0.21
  -5   8  -8    0.35    0.17
  -5   8  -8    0.62    0.23
   4   7  -8    2.37    0.31
  -4  -7   8    2.04    0.30
  -4  -7   8    2.47    0.33
  -4  -7   8    3.73    0.41
   3   7  -8    0.39    0.16
  -3  -7   8    0.14    0.16
  -3  -7   8    0.36    0.17
  -3  -7   8    0.23    0.18
   2   7  -8    8.32    0.44
  -2  -7   8    7.77    0.44
  -2  -7   8    8.20    0.44
   1   7  -8    7.76    0.44
   1   7  -8    7.32    0.42
  -1  -7   8    7.85    0.40
  -1  -7   8    7.88    0.42
   0   7  -8    1.13    0.21
   0   7  -8    1.54    0.24
   0   7  -8    1.43    0.19
   0  -7   8    1.23    0.21
   0  -7   8    1.34    0.21
  -1   7  -8    3.45    0.31
  -1   7  -8    2.89    0.27
  -1   7  -8    3.42    0.29
   1  -7   8    3.10    0.26
   1  -7   8    2.96    0.28
  -2   7  -8    7.09    0.41
  -2   7  -8    6.89    0.41
  -2   7  -8    6.14    0.36
   2  -7   8    7.23    0.33
  -3   7  -8    9.96    0.49
  -3   7  -8    9.49    0.47
  -3   7  -8    9.17    0.44
  -4   7  -8    1.16    0.20
  -4   7  -8    1.13    0.20
  -4   7  -8    1.06    0.22
  -5   7  -8    0.03    0.13
  -5   7  -8    0.28    0.20
  -5   7  -8    0.53    0.18
   5   6  -8    0.11    0.17
  -5  -6   8    0.33    0.21
  -5  -6   8    0.43    0.23
  -5  -6   8    0.44    0.23
   4   6  -8    3.36    0.36
  -4  -6   8    4.01    0.38
  -4  -6   8    4.07    0.41
  -4  -6   8    4.34    0.42
   3   6  -8    0.12    0.12
  -3  -6   8    0.01    0.14
  -3  -6   8    0.27    0.16
  -3  -6   8    0.12    0.14
   2   6  -8    3.69    0.37
   2   6  -8    3.27    0.33
  -2  -6   8    2.06    0.25
  -2  -6   8    2.88    0.28
  -2  -6   8    2.26    0.25
   1   6  -8    3.22    0.32
   1   6  -8    3.11    0.27
  -1  -6   8    3.19    0.25
  -1  -6   8    3.24    0.26
   0   6  -8   10.49    0.46
   0   6  -8   10.91    0.48
   0   6  -8   10.52    0.41
   0  -6   8   10.78    0.41
   0  -6   8   10.62    0.43
  -1   6  -8    3.49    0.28
  -1   6  -8    3.29    0.27
  -1   6  -8    3.36    0.24
   1  -6   8    3.32    0.24
   1  -6   8    3.50    0.24
  -2   6  -8   16.28    0.53
  -2   6  -8   15.51    0.58
  -2   6  -8   15.74    0.58
   2  -6   8   15.48    0.45
  -3   6  -8    1.59    0.20
  -3   6  -8    1.51    0.23
  -3   6  -8    1.66    0.22
  -4   6  -8    0.09    0.11
  -4   6  -8    0.25    0.13
  -4   6  -8    0.02    0.10
  -4   6  -8    0.17    0.12
  -5   6  -8    2.55    0.28
  -5   6  -8    2.08    0.25
  -5   6  -8    2.06    0.25
  -6   6  -8    0.08    0.13
   5   5  -8   -0.02    0.14
  -5  -5   8    0.34    0.19
  -5  -5   8    0.38    0.20
  -5  -5   8    0.15    0.20
   4   5  -8    1.35    0.22
  -4  -5   8    2.08    0.30
  -4  -5   8    1.99    0.27
  -4  -5   8    1.77    0.25
   3   5  -8    2.30    0.25
  -3  -5   8    2.81    0.29
  -3  -5   8    2.04    0.25
  -3  -5   8    2.00    0.25
   2   5  -8    0.35    0.12
   2   5  -8    0.68    0.15
  -2  -5   8    0.37    0.13
  -2  -5   8    0.53    0.15
  -2  -5   8    0.42    0.14
   1   5  -8    2.42    0.22
   1   5  -8    2.68    0.24
  -1  -5   8    2.69    0.23
  -1  -5   8    2.31    0.23
  -1  -5   8    2.47    0.20
   0   5  -8   12.01    0.47
   0   5  -8   11.83    0.39
   0   5  -8   11.27    0.45
   0  -5   8   11.83    0.42
   0  -5   8   12.52    0.40
  -1   5  -8    5.58    0.31
  -1   5  -8    6.17    0.29
  -1   5  -8    6.21    0.26
  -1   5  -8    5.91    0.32
   1  -5   8    6.22    0.29
   1  -5   8    6.17    0.27
  -2   5  -8   42.76    0.96
  -2   5  -8   39.91    0.92
  -2   5  -8   40.67    0.99
  -2   5  -8   41.36    0.89
  -2   5  -8   41.10    1.02
  -3   5  -8    0.57    0.14
  -3   5  -8    0.55    0.13
  -3   5  -8    0.65    0.13
  -3   5  -8    0.38    0.12
  -4   5  -8    1.28    0.20
  -4   5  -8    1.21    0.18
  -4   5  -8    1.55    0.20
  -4   5  -8    1.44    0.18
  -5   5  -8    0.29    0.13
  -5   5  -8    0.17    0.11
  -6   5  -8    2.10    0.24
   6   4  -8    2.38    0.35
  -6  -4   8    2.71    0.34
  -6  -4   8    3.23    0.45
  -6  -4   8    2.70    0.34
   5   4  -8    0.77    0.20
  -5  -4   8    0.85    0.24
  -5  -4   8    1.10    0.22
  -5  -4   8    0.48    0.18
   4   4  -8    5.07    0.34
  -4  -4   8    5.38    0.40
  -4  -4   8    5.35    0.35
  -4  -4   8    5.17    0.28
  -4  -4   8    6.02    0.37
   3   4  -8    3.39    0.24
   3   4  -8    3.65    0.24
  -3  -4   8    3.48    0.18
  -3  -4   8    3.26    0.28
  -3  -4   8    3.41    0.29
  -3  -4   8    3.96    0.30
   2   4  -8    4.27    0.26
   2   4  -8    3.75    0.24
   2   4  -8    3.87    0.21
  -2  -4   8    3.58    0.25
  -2  -4   8    3.61    0.26
  -2  -4   8    3.64    0.25
   1   4  -8    2.29    0.19
   1   4  -8    2.46    0.20
   1   4  -8    2.16    0.19
  -1  -4   8    2.20    0.18
  -1  -4   8    2.28    0.17
  -1  -4   8    2.05    0.19
   0   4  -8   44.08    0.93
   0   4  -8   45.53    1.04
   0   4  -8   44.37    1.04
   0  -4   8   44.74    0.92
   0  -4   8   45.37    0.98
   0  -4   8   44.05    0.97
   0  -4   8   47.46    1.14
  -1   4  -8   17.79    0.55
  -1   4  -8   17.09    0.39
  -1   4  -8   17.46    0.43
  -1   4  -8   17.51    0.54
  -1   4  -8   17.33    0.49
  -1   4  -8   16.34    0.48
   1  -4   8   17.03    0.67
   1  -4   8   17.50    0.46
   1  -4   8   17.78    0.44
  -2   4  -8    6.73    0.27
  -2   4  -8    6.60    0.32
  -2   4  -8    7.14    0.29
  -2   4  -8    6.79    0.25
  -2   4  -8    6.76    0.27
  -2   4  -8    6.93    0.31
  -3   4  -8   14.83    0.46
  -3   4  -8   14.78    0.51
  -3   4  -8   14.17    0.48
  -3   4  -8   15.23    0.46
  -3   4  -8   14.12    0.42
  -4   4  -8    0.44    0.13
  -4   4  -8    0.08    0.09
  -4   4  -8    0.32    0.11
  -5   4  -8    3.49    0.27
  -5   4  -8    3.76    0.26
   6   3  -8    1.39    0.28
  -6  -3   8    1.63    0.27
  -6  -3   8    1.67    0.27
  -6  -3   8    2.14    0.38
   5   3  -8   -0.01    0.11
  -5  -3   8    0.11    0.14
  -5  -3   8    0.45    0.20
  -5  -3   8   -0.04    0.12
  -5  -3   8    0.33    0.15
   4   3  -8   48.86    1.19
  -4  -3   8   48.26    1.10
  -4  -3   8   51.53    1.30
  -4  -3   8   49.25    1.15
  -4  -3   8   49.99    1.18
  -4  -3   8   49.74    1.11
   3   3  -8   20.23    0.58
   3   3  -8   20.02    0.58
   3   3  -8   21.16    0.60
  -3  -3   8   21.21    0.67
  -3  -3   8   20.25    0.53
  -3  -3   8   20.41    0.59
  -3  -3   8   20.87    0.63
  -3  -3   8   21.50    0.62
   2   3  -8    0.49    0.11
   2   3  -8    0.20    0.09
   2   3  -8    0.29    0.07
  -2  -3   8    0.25    0.11
  -2  -3   8    0.30    0.09
  -2  -3   8    0.12    0.09
  -2  -3   8    0.19    0.05
  -2  -3   8    0.13    0.08
   1   3  -8  101.85    1.93
   1   3  -8  101.06    1.91
   1   3  -8   98.42    1.89
  -1  -3   8   97.89    1.88
  -1  -3   8   99.96    1.90
  -1  -3   8   99.46    1.83
  -1  -3   8  101.94    1.92
  -1  -3   8  100.33    1.89
   0   3  -8   59.19    1.13
   0   3  -8   60.82    1.25
   0   3  -8   59.59    1.24
   0  -3   8   59.17    1.18
   0  -3   8   58.69    1.16
   0  -3   8   58.81    1.24
   0  -3   8   59.28    1.18
   0  -3   8   59.61    1.11
   0  -3   8   61.67    1.10
  -1   3  -8    5.01    0.22
  -1   3  -8    5.36    0.17
  -1   3  -8    5.18    0.26
  -1   3  -8    5.27    0.17
  -1   3  -8    5.26    0.23
  -1   3  -8    5.22    0.25
   1  -3   8    5.03    0.22
   1  -3   8    4.99    0.26
   1  -3   8    5.40    0.18
   1  -3   8    5.03    0.21
  -2   3  -8   34.63    0.75
  -2   3  -8   35.97    0.71
  -2   3  -8   37.07    0.88
  -2   3  -8   35.72    0.79
  -2   3  -8   35.35    0.79
  -2   3  -8   36.71    0.79
   2  -3   8   37.60    0.88
   2  -3   8   36.46    0.79
  -3   3  -8    3.02    0.19
  -3   3  -8    3.40    0.22
  -3   3  -8    3.09    0.23
   3  -3   8    3.22    0.28
  -4   3  -8    2.26    0.19
  -4   3  -8    2.01    0.23
  -4   3  -8    2.12    0.22
  -5   3  -8    4.51    0.26
  -5   3  -8    4.37    0.30
  -6   3  -8    0.54    0.21
  -6  -2   8    0.21    0.24
  -6  -2   8    0.07    0.16
  -6  -2   8    0.23    0.17
   5   2  -8    0.69    0.17
  -5  -2   8    0.05    0.12
  -5  -2   8    0.30    0.15
  -5  -2   8    0.44    0.22
  -5  -2   8    0.18    0.14
   4   2  -8    2.73    0.24
  -4  -2   8    2.23    0.22
  -4  -2   8    2.49    0.32
  -4  -2   8    2.44    0.19
  -4  -2   8    1.98    0.22
  -4  -2   8    2.58    0.25
   3   2  -8   23.26    0.61
   3   2  -8   21.28    0.58
   3   2  -8   23.06    0.59
  -3  -2   8   23.93    0.67
  -3  -2   8   23.39    0.59
  -3  -2   8   23.59    0.66
  -3  -2   8   23.23    0.72
  -3  -2   8   23.35    0.64
   2   2  -8   12.71    0.42
   2   2  -8   12.19    0.34
   2   2  -8   12.33    0.39
  -2  -2   8   12.88    0.42
  -2  -2   8   13.02    0.40
  -2  -2   8   12.98    0.44
  -2  -2   8   12.32    0.43
   1   2  -8    3.87    0.21
   1   2  -8    3.48    0.21
   1   2  -8    3.63    0.11
  -1  -2   8    3.27    0.20
  -1  -2   8    3.64    0.20
  -1  -2   8    3.11    0.17
  -1  -2   8    3.58    0.20
   0   2  -8    4.56    0.22
   0   2  -8    4.45    0.23
   0   2  -8    4.23    0.21
   0   2  -8    4.34    0.16
   0  -2   8    4.05    0.13
   0  -2   8    4.93    0.24
   0  -2   8    4.45    0.15
   0  -2   8    4.45    0.20
   0  -2   8    4.65    0.16
   0  -2   8    4.34    0.20
   0  -2   8    4.51    0.19
  -1   2  -8    2.10    0.10
  -1   2  -8    1.96    0.14
  -1   2  -8    2.01    0.14
  -1   2  -8    2.13    0.17
   1  -2   8    2.15    0.18
   1  -2   8    2.24    0.13
   1  -2   8    1.91    0.12
   1  -2   8    2.13    0.14
   1  -2   8    2.11    0.13
  -2   2  -8    4.72    0.18
  -2   2  -8    4.71    0.26
  -2   2  -8    4.59    0.26
  -2   2  -8    4.45    0.21
  -2   2  -8    4.87    0.20
  -2   2  -8    4.83    0.18
  -2   2  -8    4.92    0.20
   2  -2   8    4.59    0.20
   2  -2   8    4.88    0.26
  -3   2  -8    4.09    0.26
  -3   2  -8    4.13    0.24
  -3   2  -8    4.06    0.19
   3  -2   8    3.81    0.20
  -4   2  -8    5.53    0.24
  -4   2  -8    5.47    0.32
  -4   2  -8    5.10    0.32
  -5   2  -8    2.91    0.32
  -5   2  -8    2.40    0.18
  -5   2  -8    2.55    0.26
  -6   2  -8    0.10    0.17
  -6  -1   8    3.79    0.49
  -6  -1   8    3.31    0.31
  -6  -1   8    2.98    0.32
  -5  -1   8   12.28    0.48
  -5  -1   8   13.45    0.68
  -5  -1   8   12.64    0.53
  -4  -1   8   12.57    0.44
  -4  -1   8   11.55    0.46
  -4  -1   8   11.14    0.56
  -4  -1   8   11.08    0.33
   3   1  -8   34.67    0.73
   3   1  -8   33.32    0.75
  -3  -1   8   32.74    0.72
  -3  -1   8   33.17    0.79
  -3  -1   8   33.77    0.92
  -3  -1   8   33.61    0.83
  -3  -1   8   31.72    0.73
  -3  -1   8   34.37    0.84
   2   1  -8   19.68    0.49
   2   1  -8   20.54    0.54
  -2  -1   8   20.56    0.56
  -2  -1   8   20.07    0.50
  -2  -1   8   19.34    0.42
  -2  -1   8   19.65    0.55
  -2  -1   8   19.13    0.58
   1   1  -8   13.19    0.41
   1   1  -8   13.22    0.38
  -1  -1   8   13.79    0.39
  -1  -1   8   12.27    0.33
  -1  -1   8   13.13    0.38
  -1  -1   8   12.67    0.40
  -1  -1   8   12.59    0.37
   0   1  -8    4.99    0.17
   0   1  -8    4.83    0.13
   0   1  -8    4.79    0.23
   0   1  -8    4.94    0.22
   0   1  -8    4.77    0.22
   0  -1   8    5.03    0.21
   0  -1   8    5.03    0.15
   0  -1   8    4.85    0.20
   0  -1   8    5.06    0.23
  -1   1  -8    9.37    0.34
  -1   1  -8    9.02    0.29
  -1   1  -8    9.63    0.22
  -1   1  -8    9.37    0.29
  -1   1  -8    9.49    0.28
  -1   1  -8    9.37    0.29
   1  -1   8    9.87    0.25
   1  -1   8   10.28    0.31
   1  -1   8    9.87    0.29
   1  -1   8    9.53    0.27
  -2   1  -8   18.18    0.53
  -2   1  -8   18.57    0.54
  -2   1  -8   18.77    0.42
   2  -1   8   18.10    0.51
   2  -1   8   19.33    0.56
   2  -1   8   18.24    0.42
  -3   1  -8   45.82    1.06
  -3   1  -8   47.13    0.99
  -3   1  -8   46.19    0.88
  -3   1  -8   46.60    1.03
   3  -1   8   46.59    1.14
  -4   1  -8    8.74    0.40
  -4   1  -8    8.76    0.42
  -4   1  -8    8.50    0.40
  -4   1  -8    8.65    0.26
   4  -1   8    8.67    0.47
  -5   1  -8    0.29    0.14
  -5   1  -8    0.25    0.16
  -6   1  -8    0.22    0.18
  -6   0   8    0.32    0.18
  -6   0   8    0.21    0.15
  -6   0   8    0.20    0.24
  -5   0   8    1.03    0.19
  -5   0   8    1.37    0.20
  -4   0   8    2.93    0.30
  -4   0   8    2.77    0.24
  -4   0   8    2.82    0.23
   3   0  -8   19.89    0.53
   3   0  -8   21.15    0.47
  -3   0   8   22.18    0.62
  -3   0   8   21.45    0.60
  -3   0   8   21.18    0.56
  -3   0   8   22.31    0.48
  -3   0   8   22.24    0.58
   2   0  -8   26.63    0.65
   2   0  -8   27.24    0.59
  -2   0   8   26.33    0.57
  -2   0   8   26.44    0.68
  -2   0   8   27.50    0.65
  -2   0   8   26.04    0.66
  -2   0   8   27.06    0.59
   1   0  -8  209.89    3.60
   1   0  -8  208.01    3.55
  -1   0   8  204.59    3.55
  -1   0   8  206.57    3.49
  -1   0   8  206.53    3.61
   0   0  -8    6.34    0.19
   0   0  -8    5.81    0.24
   0   0  -8    5.93    0.25
   0   0  -8    6.11    0.25
   0   0   8    5.83    0.23
   0   0   8    6.10    0.18
   0   0   8    5.95    0.22
  -1   0  -8   46.11    0.89
  -1   0  -8   47.52    0.93
  -1   0  -8   45.77    1.00
  -1   0  -8   47.00    0.92
   1   0   8   46.31    0.96
   1   0   8   47.52    0.85
  -2   0  -8    5.06    0.27
  -2   0  -8    5.24    0.18
  -2   0  -8    5.16    0.17
  -2   0  -8    5.16    0.25
   2   0   8    5.25    0.28
   2   0   8    5.22    0.16
   2   0   8    5.21    0.25
  -3   0  -8   22.14    0.57
  -3   0  -8   22.10    0.66
   3   0   8   22.16    0.66
   3   0   8   22.92    0.73
  -4   0  -8    9.64    0.45
  -4   0  -8   10.31    0.43
  -4   0  -8    9.71    0.41
   4   0   8    9.76    0.51
  -5   0  -8    1.48    0.23
  -5   0  -8    1.33    0.22
   5   0   8    1.37    0.27
  -6   0  -8   -0.04    0.14
  -6   0  -8    0.42    0.18
   6   0   8    0.13    0.18
  -6   1   8    0.25    0.16
  -6   1   8    0.27    0.16
  -5   1   8    6.30    0.34
  -5   1   8    6.66    0.39
  -4   1   8    7.38    0.33
  -4   1   8    7.42    0.38
  -4   1   8    7.77    0.44
   3  -1  -8    5.98    0.25
   3  -1  -8    6.02    0.18
  -3   1   8    5.82    0.27
  -3   1   8    5.79    0.29
  -3   1   8    5.93    0.28
  -3   1   8    6.08    0.31
   2  -1  -8   44.15    0.86
   2  -1  -8   43.90    0.95
  -2   1   8   43.37    0.96
  -2   1   8   43.83    0.86
  -2   1   8   43.87    0.99
  -2   1   8   43.75    0.93
   1  -1  -8  150.06    2.66
   1  -1  -8  151.58    2.54
   1  -1  -8  145.74    2.61
  -1   1   8  148.88    2.61
  -1   1   8  148.15    2.54
  -1   1   8  146.38    2.67
   0  -1  -8   18.00    0.39
   0  -1  -8   16.39    0.47
   0   1   8   16.93    0.38
   0   1   8   17.34    0.42
   0   1   8   17.03    0.46
  -1  -1  -8   38.82    0.73
  -1  -1  -8   38.55    0.82
   1   1   8   38.82    0.73
   1   1   8   37.54    0.73
   1   1   8   39.29    0.84
  -2  -1  -8  115.96    2.00
  -2  -1  -8  114.65    2.03
  -2  -1  -8  111.38    2.05
   2   1   8  118.45    2.22
   2   1   8  113.46    2.08
   2   1   8  117.78    2.15
   2   1   8  115.41    1.93
  -3  -1  -8    0.85    0.13
   3   1   8    0.91    0.16
   3   1   8    0.72    0.17
  -4  -1  -8   11.49    0.44
   4   1   8   11.23    0.51
   4   1   8   12.17    0.59
  -5  -1  -8    5.34    0.37
   5   1   8    5.13    0.44
  -6  -1  -8    0.04    0.16
  -6  -1  -8    0.29    0.17
   6   1   8   -0.21    0.14
  -6   2   8    1.24    0.22
  -6   2   8    1.03    0.22
  -5   2   8    2.50    0.27
  -5   2   8    2.71    0.26
  -4   2   8    2.54    0.27
  -4   2   8    2.40    0.23
   3  -2  -8   15.79    0.36
   3  -2  -8   16.32    0.47
  -3   2   8   16.39    0.56
  -3   2   8   16.61    0.49
  -3   2   8   15.97    0.41
   2  -2  -8    6.15    0.28
  -2   2   8    5.97    0.22
  -2   2   8    6.05    0.26
  -2   2   8    6.12    0.31
   1  -2  -8   36.96    0.72
  -1   2   8   35.50    0.76
  -1   2   8   34.97    0.84
  -1   2   8   35.17    0.71
  -1   2   8   35.79    0.78
   0  -2  -8    9.94    0.27
   0  -2  -8    9.59    0.29
   0  -2  -8   10.38    0.37
   0   2   8    9.50    0.34
   0   2   8    9.07    0.29
   0   2   8    9.10    0.28
  -1  -2  -8   16.81    0.42
  -1  -2  -8   16.41    0.48
   1   2   8   16.88    0.40
   1   2   8   16.84    0.44
   1   2   8   16.90    0.42
   1   2   8   17.46    0.48
  -2  -2  -8   13.37    0.39
  -2  -2  -8   13.15    0.41
   2   2   8   13.57    0.48
   2   2   8   14.06    0.45
   2   2   8   13.58    0.42
  -3  -2  -8    3.25    0.21
  -3  -2  -8    2.95    0.19
   3   2   8    2.99    0.24
   3   2   8    3.06    0.28
  -4  -2  -8    2.56    0.24
   4   2   8    2.34    0.31
   4   2   8    2.58    0.29
  -5  -2  -8    1.91    0.25
   5   2   8    1.71    0.33
  -6  -2  -8    0.37    0.18
   6   2   8    0.20    0.20
  -6   3   8    0.76    0.19
  -6   3   8    0.96    0.24
  -5   3   8    3.67    0.34
  -5   3   8    2.66    0.20
  -5   3   8    3.36    0.28
  -4   3   8    0.28    0.09
  -4   3   8    0.27    0.14
  -4   3   8    0.26    0.13
   3  -3  -8    1.82    0.17
  -3   3   8    1.42    0.21
  -3   3   8    1.68    0.15
  -3   3   8    1.77    0.18
   2  -3  -8    0.51    0.11
  -2   3   8    0.57    0.13
  -2   3   8    0.57    0.10
  -2   3   8    0.56    0.09
   1  -3  -8    3.03    0.15
  -1   3   8    2.75    0.18
  -1   3   8    3.05    0.22
  -1   3   8    2.44    0.17
   0  -3  -8   31.83    0.73
   0   3   8   32.96    0.80
   0   3   8   32.63    0.73
   0   3   8   32.11    0.72
  -1  -3  -8   11.15    0.41
  -1  -3  -8   11.54    0.37
   1   3   8   11.98    0.37
   1   3   8   11.93    0.33
   1   3   8   12.01    0.38
  -2  -3  -8    2.25    0.18
  -2  -3  -8    1.90    0.18
   2   3   8    1.95    0.22
   2   3   8    2.45    0.27
  -3  -3  -8    0.25    0.12
  -3  -3  -8    0.03    0.10
   3   3   8    0.13    0.10
   3   3   8   -0.03    0.09
  -4  -3  -8    1.31    0.20
   4   3   8    1.42    0.26
   4   3   8    1.04    0.21
  -5  -3  -8    1.40    0.22
   5   3   8    1.18    0.28
  -6  -3  -8    5.30    0.42
   6   3   8    5.12    0.57
  -6   4   8    2.07    0.26
  -6   4   8    2.04    0.31
  -5   4   8    3.75    0.32
  -5   4   8    3.81    0.38
  -5   4   8    3.06    0.22
  -4   4   8    3.27    0.22
  -4   4   8    3.16    0.33
  -4   4   8    3.56    0.28
   3  -4  -8   21.16    0.53
   3  -4  -8   22.00    0.62
  -3   4   8   21.78    0.54
  -3   4   8   21.93    0.62
  -3   4   8   22.43    0.73
  -2   4   8    7.70    0.32
  -2   4   8    7.35    0.38
   1  -4  -8    2.55    0.15
  -1   4   8    2.51    0.22
  -1   4   8    2.62    0.18
   0  -4  -8   67.78    1.37
   0   4   8   66.09    1.32
   0   4   8   68.15    1.45
  -1  -4  -8    5.81    0.28
   1   4   8    6.21    0.29
   1   4   8    5.42    0.23
  -2  -4  -8    0.70    0.14
  -2  -4  -8    0.80    0.16
   2   4   8    1.14    0.18
  -3  -4  -8    0.94    0.18
   3   4   8    1.17    0.20
   3   4   8    0.75    0.18
  -4  -4  -8    1.74    0.25
   4   4   8    1.74    0.31
  -5  -4  -8    0.67    0.20
   5   4   8    0.72    0.26
  -6   5   8    0.59    0.24
  -6   5   8    0.44    0.19
  -5   5   8    0.50    0.20
  -5   5   8    0.29    0.16
  -4   5   8   35.95    1.05
  -4   5   8   33.59    0.79
  -4   5   8   34.50    0.89
   3  -5  -8    1.77    0.21
   3  -5  -8    1.44    0.16
  -3   5   8    1.77    0.26
  -3   5   8    1.87    0.21
   2  -5  -8    2.24    0.14
  -2   5   8    2.08    0.26
  -2   5   8    2.34    0.20
   1  -5  -8    2.49    0.16
  -1   5   8    2.85    0.26
  -1   5   8    2.42    0.20
   0  -5  -8    0.97    0.17
   0   5   8    0.99    0.19
   0   5   8    0.82    0.13
  -1  -5  -8   21.72    0.64
   1   5   8   21.68    0.53
   1   5   8   20.95    0.64
  -2  -5  -8   11.86    0.47
   2   5   8   12.16    0.32
   2   5   8   13.23    0.54
  -3  -5  -8    0.84    0.19
   3   5   8    0.80    0.20
   3   5   8    0.72    0.18
  -4  -5  -8    2.78    0.31
   4   5   8    2.82    0.37
  -5  -5  -8    1.50    0.27
   5   5   8    1.61    0.35
  -6   6   8    1.86    0.34
  -5   6   8    1.86    0.31
  -5   6   8    1.62    0.24
  -4   6   8    0.78    0.18
  -4   6   8    0.69    0.21
  -3   6   8   17.66    0.72
  -3   6   8   18.56    0.60
   2  -6  -8    1.92    0.15
  -2   6   8    1.69    0.25
  -2   6   8    1.63    0.20
   1  -6  -8    1.83    0.16
  -1   6   8    2.29    0.28
  -1   6   8    1.80    0.20
   0  -6  -8   11.38    0.47
   0   6   8   10.55    0.40
   0   6   8   10.74    0.41
   0   6   8   11.19    0.50
  -1  -6  -8    6.08    0.36
   1   6   8    6.14    0.35
   1   6   8    6.68    0.28
  -2  -6  -8    5.48    0.36
   2   6   8    5.35    0.22
   2   6   8    5.72    0.39
  -3  -6  -8    1.33    0.24
   3   6   8    2.21    0.31
  -4  -6  -8    0.13    0.17
   4   6   8    0.29    0.18
  -5   7   8    2.30    0.28
  -5   7   8    3.11    0.41
  -4   7   8    0.50    0.16
  -4   7   8    0.58    0.23
  -3   7   8    0.01    0.11
  -3   7   8   -0.03    0.13
   2  -7  -8    6.06    0.25
  -2   7   8    5.94    0.34
  -2   7   8    6.16    0.44
  -2   7   8    6.05    0.36
   1  -7  -8    2.16    0.18
  -1   7   8    2.03    0.29
  -1   7   8    1.97    0.23
  -1   7   8    2.34    0.24
   0  -7  -8    3.47    0.31
   0   7   8    3.82    0.32
   0   7   8    2.24    0.24
   0   7   8    2.87    0.23
  -1  -7  -8    4.77    0.35
   1   7   8    4.52    0.25
  -2  -7  -8    5.23    0.38
  -3  -7  -8    1.34    0.26
   3   7   8    1.10    0.25
  -4  -7  -8    1.76    0.30
   4   7   8    1.83    0.35
  -4   8   8    0.13    0.15
  -4   8   8   -0.08    0.13
  -4   8   8   -0.12    0.16
  -3   8   8    1.08    0.21
  -3   8   8    1.34    0.29
  -3   8   8    1.47    0.24
   2  -8  -8    1.27    0.14
  -2   8   8    1.18    0.21
  -2   8   8    1.35    0.22
  -2   8   8    0.97    0.24
  -1   8   8    1.02    0.25
  -1   8   8    0.82    0.19
  -1   8   8    1.26    0.20
   0  -8  -8    0.23    0.18
   0   8   8    0.32    0.11
   0   8   8    0.33    0.16
  -1  -8  -8    8.81    0.49
   1   8   8    7.77    0.36
  -2  -8  -8    1.40    0.27
  -3  -8  -8    4.68    0.43
   3   8   8    4.77    0.53
  -3   9   8    1.36    0.25
  -3   9   8    1.35    0.25
  -3   9   8    1.33    0.31
  -2   9   8    0.25    0.20
  -2   9   8    0.12    0.14
  -2   9   8    0.21    0.13
  -1   9   8    6.96    0.40
  -1   9   8    6.33    0.50
  -1   9   8    7.01    0.41
   0  -9  -8    3.05    0.37
   0   9   8    2.64    0.27
  -1  -9  -8    0.37    0.21
  -2  -9  -8    0.54    0.24
  -1 -10   9    1.44    0.29
  -1 -10   9    1.77    0.33
   0  10  -9    0.56    0.22
   0 -10   9    0.67    0.22
   0 -10   9    1.33    0.27
  -1  10  -9    2.50    0.41
  -1  10  -9    2.27    0.30
  -1  10  -9    2.77    0.37
   1 -10   9    3.12    0.35
   1 -10   9    1.84    0.29
  -2  10  -9    0.32    0.17
  -2  10  -9    0.31    0.19
  -2  10  -9    0.24    0.16
   2 -10   9    0.17    0.17
  -2  -9   9    6.05    0.46
  -2  -9   9    5.89    0.47
   1   9  -9    1.48    0.28
  -1  -9   9    1.50    0.29
  -1  -9   9    1.29    0.27
   0   9  -9   -0.04    0.11
   0   9  -9    0.12    0.17
   0  -9   9    0.21    0.17
   0  -9   9   -0.14    0.13
  -1   9  -9    2.28    0.28
  -1   9  -9    2.66    0.38
  -1   9  -9    2.43    0.32
   1  -9   9    2.29    0.29
   1  -9   9    1.80    0.26
  -2   9  -9    0.09    0.11
  -2   9  -9    0.01    0.14
  -2   9  -9   -0.07    0.15
   2  -9   9    0.06    0.14
  -3   9  -9    0.27    0.20
  -3   9  -9   -0.08    0.12
  -3   9  -9    0.08    0.15
  -4   9  -9    1.24    0.23
  -4   9  -9    1.78    0.35
  -4   9  -9    1.09    0.25
   3   8  -9    2.11    0.30
  -3  -8   9    2.53    0.35
  -3  -8   9    3.14    0.40
  -2  -8   9    3.79    0.36
  -2  -8   9    4.30    0.45
   1   8  -9    5.69    0.41
   1   8  -9    5.46    0.40
  -1  -8   9    5.58    0.40
  -1  -8   9    5.39    0.37
   0   8  -9    0.89    0.21
   0   8  -9    0.90    0.21
   0  -8   9    0.89    0.20
   0  -8   9    0.79    0.19
  -1   8  -9    2.77    0.33
  -1   8  -9    3.04    0.29
  -1   8  -9    3.47    0.41
   1  -8   9    3.35    0.29
   1  -8   9    3.46    0.33
  -2   8  -9    1.13    0.20
  -2   8  -9    0.82    0.22
  -2   8  -9    0.94    0.20
   2  -8   9    0.73    0.17
  -3   8  -9    1.92    0.31
  -3   8  -9    1.61    0.24
  -3   8  -9    1.68    0.26
  -4   8  -9    3.25    0.35
  -4   8  -9    3.29    0.34
  -4   8  -9    3.09    0.37
  -5   8  -9    0.11    0.18
  -5   8  -9    0.49    0.18
   4   7  -9    1.55    0.28
  -4  -7   9    1.49    0.29
  -4  -7   9    1.30    0.28
  -4  -7   9    1.65    0.30
   3   7  -9    3.59    0.32
  -3  -7   9    3.14    0.34
  -3  -7   9    3.91    0.38
  -3  -7   9    3.37    0.36
   2   7  -9    0.07    0.10
  -2  -7   9    0.10    0.14
  -2  -7   9    0.05    0.15
   1   7  -9   11.84    0.55
   1   7  -9   12.40    0.56
  -1  -7   9   12.14    0.50
  -1  -7   9   12.49    0.54
   0   7  -9    7.75    0.45
   0   7  -9    8.12    0.44
   0  -7   9    7.84    0.38
   0  -7   9    8.09    0.41
  -1   7  -9   12.05    0.55
  -1   7  -9   12.39    0.48
  -1   7  -9   11.93    0.53
   1  -7   9   11.91    0.46
   1  -7   9   12.08    0.48
  -2   7  -9    1.04    0.21
  -2   7  -9    1.43    0.22
  -2   7  -9    1.09    0.19
   2  -7   9    1.16    0.17
  -3   7  -9    9.91    0.50
  -3   7  -9    8.97    0.47
  -3   7  -9    9.17    0.44
  -4   7  -9    0.18    0.14
  -4   7  -9    0.20    0.14
  -4   7  -9    0.25    0.14
  -5   7  -9    0.44    0.16
  -5   7  -9    0.24    0.17
  -5   7  -9    0.31    0.17
   5   6  -9    3.85    0.52
  -5  -6   9    3.51    0.39
  -5  -6   9    3.46    0.40
  -5  -6   9    3.87    0.43
   4   6  -9    0.57    0.18
  -4  -6   9    0.76    0.21
  -4  -6   9    0.35    0.19
  -4  -6   9    0.69    0.22
   3   6  -9    2.71    0.28
  -3  -6   9    1.96    0.26
  -3  -6   9    2.65    0.31
  -3  -6   9    2.19    0.28
   2   6  -9    2.11    0.26
   2   6  -9    2.23    0.28
  -2  -6   9    2.15    0.25
  -2  -6   9    2.27    0.27
  -2  -6   9    2.46    0.27
   1   6  -9    4.96    0.33
   1   6  -9    4.45    0.31
  -1  -6   9    4.30    0.30
  -1  -6   9    4.28    0.29
  -1  -6   9    4.02    0.30
   0   6  -9   11.41    0.49
   0   6  -9   12.00    0.51
   0  -6   9   11.54    0.42
   0  -6   9   10.63    0.44
  -1   6  -9    6.63    0.33
  -1   6  -9    6.63    0.37
  -1   6  -9    6.60    0.21
  -1   6  -9    6.88    0.39
   1  -6   9    6.99    0.32
   1  -6   9    6.67    0.33
  -2   6  -9   13.23    0.42
  -2   6  -9   14.10    0.55
  -2   6  -9   13.66    0.54
  -2   6  -9   14.05    0.50
   2  -6   9   13.36    0.42
  -3   6  -9    1.19    0.20
  -3   6  -9    1.87    0.21
  -3   6  -9    1.61    0.22
  -3   6  -9    1.80    0.21
  -4   6  -9    0.39    0.13
  -4   6  -9    0.25    0.13
  -4   6  -9    0.46    0.14
  -4   6  -9    0.26    0.13
  -5   6  -9    1.11    0.22
  -5   6  -9    0.74    0.18
  -5   6  -9    1.12    0.20
  -6   6  -9    0.07    0.15
   5   5  -9    4.27    0.39
  -5  -5   9    6.09    0.47
  -5  -5   9    5.16    0.41
  -5  -5   9    5.13    0.44
   4   5  -9    0.66    0.17
  -4  -5   9    0.43    0.16
  -4  -5   9    0.69    0.20
  -4  -5   9    0.46    0.18
   3   5  -9    4.92    0.30
  -3  -5   9    5.03    0.35
  -3  -5   9    4.59    0.33
  -3  -5   9    5.40    0.36
   2   5  -9   10.97    0.39
   2   5  -9    9.97    0.45
   2   5  -9   10.81    0.46
  -2  -5   9   10.01    0.45
  -2  -5   9   11.16    0.44
  -2  -5   9   10.88    0.46
   1   5  -9    2.55    0.23
   1   5  -9    2.78    0.28
  -1  -5   9    2.83    0.21
  -1  -5   9    2.42    0.23
  -1  -5   9    2.20    0.22
   0   5  -9    3.09    0.20
   0   5  -9    3.70    0.27
   0   5  -9    3.32    0.25
   0  -5   9    3.51    0.21
   0  -5   9    3.43    0.24
  -1   5  -9   29.48    0.82
  -1   5  -9   30.09    0.69
  -1   5  -9   30.30    0.83
  -1   5  -9   30.35    0.60
  -1   5  -9   29.34    0.75
   1  -5   9   30.28    0.73
   1  -5   9   30.43    0.70
  -2   5  -9    1.28    0.19
  -2   5  -9    1.03    0.15
  -2   5  -9    1.19    0.19
  -2   5  -9    1.22    0.14
  -2   5  -9    0.96    0.15
  -2   5  -9    1.37    0.15
  -3   5  -9    9.36    0.43
  -3   5  -9   10.11    0.39
  -3   5  -9    8.91    0.38
  -3   5  -9    9.25    0.40
  -4   5  -9    0.88    0.16
  -4   5  -9    0.87    0.17
  -4   5  -9    1.14    0.17
  -4   5  -9    0.79    0.17
  -5   5  -9    0.69    0.15
  -5   5  -9    0.61    0.16
  -6   5  -9    1.13    0.32
  -6  -4   9    1.23    0.26
   5   4  -9    0.71    0.20
  -5  -4   9    0.65    0.24
  -5  -4   9    0.58    0.20
  -5  -4   9    1.04    0.22
   4   4  -9    0.60    0.16
  -4  -4   9    0.49    0.19
  -4  -4   9    0.48    0.13
  -4  -4   9    0.40    0.16
  -4  -4   9    0.58    0.17
   3   4  -9    8.23    0.39
   3   4  -9    8.56    0.37
   3   4  -9    8.36    0.37
  -3  -4   9    9.12    0.44
  -3  -4   9    8.69    0.42
  -3  -4   9    7.89    0.40
  -3  -4   9    8.54    0.29
   2   4  -9    5.17    0.29
   2   4  -9    4.87    0.23
   2   4  -9    4.75    0.29
  -2  -4   9    4.88    0.31
  -2  -4   9    5.31    0.29
  -2  -4   9    4.45    0.28
   1   4  -9   21.10    0.65
   1   4  -9   23.01    0.66
   1   4  -9   22.46    0.63
  -1  -4   9   23.04    0.63
  -1  -4   9   20.65    0.61
  -1  -4   9   22.71    0.57
   0   4  -9   16.96    0.55
   0   4  -9   17.62    0.47
   0   4  -9   17.09    0.56
   0  -4   9   17.12    0.50
   0  -4   9   17.09    0.42
   0  -4   9   17.65    0.45
   0  -4   9   17.38    0.51
  -1   4  -9   10.20    0.30
  -1   4  -9    9.96    0.35
  -1   4  -9   10.54    0.42
  -1   4  -9   10.07    0.40
  -1   4  -9   10.08    0.26
  -1   4  -9   10.96    0.44
   1  -4   9    9.33    0.33
   1  -4   9   10.41    0.31
  -2   4  -9    8.93    0.33
  -2   4  -9    9.77    0.32
  -2   4  -9    9.68    0.38
  -2   4  -9    9.85    0.36
  -2   4  -9    9.64    0.41
  -2   4  -9   10.15    0.30
  -3   4  -9    2.86    0.21
  -3   4  -9    2.67    0.18
  -3   4  -9    2.68    0.18
  -3   4  -9    3.07    0.25
  -3   4  -9    2.86    0.21
  -3   4  -9    3.05    0.21
  -4   4  -9    3.71    0.24
  -4   4  -9    3.68    0.28
  -4   4  -9    3.60    0.28
  -5   4  -9    0.32    0.14
  -5   4  -9    0.44    0.13
  -6  -3   9    9.32    0.64
  -6  -3   9    9.13    0.53
  -6  -3   9    8.90    0.50
   5   3  -9    1.32    0.23
  -5  -3   9    1.17    0.26
  -5  -3   9    1.23    0.23
  -5  -3   9    0.81    0.21
   4   3  -9    8.93    0.42
  -4  -3   9    8.69    0.50
  -4  -3   9    9.83    0.46
  -4  -3   9    9.76    0.44
  -4  -3   9    9.21    0.38
   3   3  -9    0.62    0.14
   3   3  -9    0.21    0.10
   3   3  -9    0.42    0.11
  -3  -3   9    0.30    0.09
  -3  -3   9    0.23    0.13
  -3  -3   9    0.30    0.11
  -3  -3   9    0.48    0.14
  -3  -3   9    0.51    0.16
   2   3  -9    3.64    0.18
   2   3  -9    3.61    0.23
   2   3  -9    3.53    0.23
  -2  -3   9    3.52    0.25
  -2  -3   9    3.85    0.24
  -2  -3   9    3.73    0.15
  -2  -3   9    3.56    0.24
  -2  -3   9    3.79    0.24
   1   3  -9   12.42    0.41
   1   3  -9   13.13    0.45
   1   3  -9   12.38    0.43
  -1  -3   9   12.52    0.42
  -1  -3   9   12.94    0.38
  -1  -3   9   12.87    0.44
  -1  -3   9   12.70    0.42
   0   3  -9   19.18    0.57
   0   3  -9   19.16    0.47
   0   3  -9   18.67    0.56
   0  -3   9   20.13    0.44
   0  -3   9   19.66    0.52
   0  -3   9   19.70    0.57
   0  -3   9   19.43    0.44
   0  -3   9   19.76    0.52
  -1   3  -9    6.42    0.26
  -1   3  -9    6.29    0.30
  -1   3  -9    6.14    0.28
   1  -3   9    6.13    0.25
   1  -3   9    6.40    0.31
   1  -3   9    6.32    0.24
  -2   3  -9   16.88    0.46
  -2   3  -9   16.60    0.48
  -2   3  -9   16.86    0.39
  -2   3  -9   16.30    0.45
  -2   3  -9   17.36    0.54
  -2   3  -9   16.27    0.44
   2  -3   9   17.94    0.51
   2  -3   9   18.01    0.79
  -3   3  -9    0.58    0.14
  -3   3  -9    0.83    0.10
  -3   3  -9    0.78    0.13
  -3   3  -9    0.72    0.11
  -4   3  -9    1.68    0.21
  -4   3  -9    1.85    0.23
  -4   3  -9    2.06    0.18
  -5   3  -9    0.25    0.10
  -5   3  -9    0.60    0.16
  -6   3  -9    0.31    0.20
  -6  -2   9    0.02    0.16
  -6  -2   9    0.24    0.24
  -6  -2   9    0.12    0.17
  -5  -2   9    0.88    0.20
  -5  -2   9    0.73    0.25
  -5  -2   9    1.20    0.22
  -5  -2   9    0.63    0.17
   4   2  -9   18.59    0.59
  -4  -2   9   18.53    0.60
  -4  -2   9   18.20    0.52
  -4  -2   9   18.91    0.63
  -4  -2   9   18.62    0.72
   3   2  -9    6.69    0.29
   3   2  -9    6.58    0.30
   3   2  -9    6.45    0.28
  -3  -2   9    6.45    0.32
  -3  -2   9    6.68    0.34
  -3  -2   9    6.35    0.28
  -3  -2   9    6.54    0.38
   2   2  -9   22.69    0.59
   2   2  -9   22.05    0.61
   2   2  -9   22.34    0.50
  -2  -2   9   22.80    0.63
  -2  -2   9   22.05    0.58
  -2  -2   9   22.03    0.62
   1   2  -9   25.09    0.66
   1   2  -9   26.30    0.65
  -1  -2   9   25.12    0.59
  -1  -2   9   25.24    0.64
  -1  -2   9   24.97    0.64
  -1  -2   9   24.02    0.62
   0   2  -9    5.82    0.27
   0   2  -9    6.40    0.19
   0   2  -9    6.36    0.28
   0   2  -9    6.48    0.32
   0  -2   9    5.71    0.27
   0  -2   9    6.40    0.19
   0  -2   9    5.86    0.24
   0  -2   9    6.41    0.25
   0  -2   9    5.91    0.17
  -1   2  -9   28.92    0.70
  -1   2  -9   30.75    0.75
  -1   2  -9   29.64    0.59
  -1   2  -9   30.29    0.68
  -1   2  -9   31.04    0.69
   1  -2   9   29.94    0.64
   1  -2   9   29.83    0.66
   1  -2   9   30.25    0.75
   1  -2   9   30.97    0.63
   1  -2   9   30.05    0.63
  -2   2  -9   11.58    0.42
  -2   2  -9   11.07    0.35
  -2   2  -9   11.27    0.34
  -2   2  -9   12.19    0.43
  -2   2  -9   11.46    0.33
   2  -2   9   11.02    0.42
   2  -2   9   11.36    0.34
  -3   2  -9    5.33    0.22
  -3   2  -9    4.96    0.27
  -3   2  -9    4.74    0.30
   3  -2   9    5.55    0.24
  -4   2  -9    6.95    0.36
  -4   2  -9    6.90    0.37
  -4   2  -9    7.33    0.27
  -4   2  -9    6.20    0.36
  -5   2  -9   12.92    0.55
  -5   2  -9   11.92    0.37
  -5   2  -9   12.49    0.52
  -6   2  -9    0.79    0.23
  -6  -1   9    0.51    0.29
  -6  -1   9    0.46    0.17
  -6  -1   9    0.19    0.18
  -5  -1   9    2.55    0.28
  -5  -1   9    3.44    0.29
  -5  -1   9    3.51    0.43
  -4  -1   9    1.50    0.20
  -4  -1   9    1.50    0.21
  -4  -1   9    1.90    0.29
  -4  -1   9    1.49    0.14
   3   1  -9   56.88    1.19
   3   1  -9   57.23    1.14
  -3  -1   9   58.27    1.23
  -3  -1   9   59.79    1.28
  -3  -1   9   57.43    1.13
  -3  -1   9   60.42    1.42
  -3  -1   9   57.77    1.15
  -3  -1   9   57.52    1.36
   2   1  -9   70.16    1.37
   2   1  -9   71.11    1.43
  -2  -1   9   71.23    1.45
  -2  -1   9   71.51    1.38
  -2  -1   9   71.25    1.47
  -2  -1   9   72.41    1.42
   1   1  -9   18.87    0.53
   1   1  -9   19.24    0.50
  -1  -1   9   17.62    0.47
  -1  -1   9   18.62    0.50
  -1  -1   9   18.70    0.50
  -1  -1   9   18.01    0.51
  -1  -1   9   18.44    0.43
   0   1  -9    5.39    0.19
   0   1  -9    5.22    0.25
   0   1  -9    5.25    0.24
   0   1  -9    5.11    0.14
   0   1  -9    5.32    0.24
   0  -1   9    5.21    0.25
   0  -1   9    5.13    0.22
   0  -1   9    5.28    0.22
   0  -1   9    5.53    0.17
  -1   1  -9   74.22    1.41
  -1   1  -9   75.14    1.30
  -1   1  -9   73.97    1.42
  -1   1  -9   75.77    1.50
  -1   1  -9   75.71    1.40
   1  -1   9   75.12    1.41
   1  -1   9   74.19    1.36
   1  -1   9   74.27    1.38
   1  -1   9   74.95    1.33
  -2   1  -9   14.49    0.48
  -2   1  -9   13.81    0.36
  -2   1  -9   13.83    0.45
  -2   1  -9   14.08    0.35
   2  -1   9   14.47    0.47
   2  -1   9   14.49    0.45
   2  -1   9   14.07    0.36
  -3   1  -9   28.76    0.73
  -3   1  -9   28.27    0.78
  -3   1  -9   29.17    0.67
   3  -1   9   28.95    0.62
   3  -1   9   27.54    0.82
  -4   1  -9   28.27    0.80
  -4   1  -9   28.79    0.77
  -4   1  -9   30.58    0.84
   4  -1   9   28.34    0.92
  -5   1  -9    1.15    0.21
  -5   1  -9    0.99    0.21
  -6   1  -9    0.07    0.17
  -6   1  -9    0.16    0.19
  -6   0   9    0.38    0.26
  -6   0   9    0.13    0.15
  -6   0   9    0.17    0.17
  -5   0   9    7.61    0.43
  -5   0   9    8.54    0.40
  -4   0   9    0.24    0.12
  -4   0   9    0.17    0.11
   3   0  -9    9.87    0.29
   3   0  -9    9.59    0.35
  -3   0   9   10.31    0.38
  -3   0   9    9.97    0.41
  -3   0   9    9.63    0.33
  -3   0   9    9.59    0.39
   2   0  -9    6.12    0.28
   2   0  -9    6.23    0.24
  -2   0   9    6.10    0.30
  -2   0   9    6.36    0.23
  -2   0   9    6.33    0.28
  -2   0   9    5.71    0.20
   1   0  -9    6.81    0.27
   1   0  -9    6.84    0.29
  -1   0   9    7.08    0.30
  -1   0   9    6.80    0.27
  -1   0   9    6.99    0.23
   0   0  -9    5.32    0.25
   0   0  -9    4.97    0.23
   0   0  -9    5.13    0.23
   0   0  -9    5.23    0.18
   0   0   9    5.35    0.17
   0   0   9    4.92    0.21
   0   0   9    5.22    0.23
  -1   0  -9    8.67    0.30
  -1   0  -9    7.67    0.33
  -1   0  -9    7.80    0.26
   1   0   9    8.46    0.23
   1   0   9    8.33    0.30
  -2   0  -9   10.28    0.31
  -2   0  -9   10.45    0.29
  -2   0  -9   10.68    0.41
  -2   0  -9   10.91    0.27
   2   0   9   11.00    0.38
   2   0   9   10.87    0.27
   2   0   9   10.41    0.41
  -3   0  -9   39.21    0.99
  -3   0  -9   38.92    0.84
   3   0   9   39.64    0.99
   3   0   9   40.01    1.05
  -4   0  -9    1.09    0.18
  -4   0  -9    0.56    0.20
   4   0   9    0.90    0.22
  -5   0  -9    0.29    0.16
  -5   0  -9    0.31    0.16
   5   0   9    0.31    0.18
  -6   0  -9    0.10    0.16
  -6   0  -9    0.06    0.15
   6   0   9    0.07    0.17
  -6   1   9    0.38    0.17
  -6   1   9    0.57    0.20
  -5   1   9    0.88    0.19
  -5   1   9    0.82    0.20
  -4   1   9    6.88    0.38
  -4   1   9    6.70    0.33
   3  -1  -9    2.66    0.13
   3  -1  -9    2.64    0.19
  -3   1   9    3.05    0.25
  -3   1   9    2.94    0.20
  -3   1   9    3.01    0.24
  -3   1   9    2.68    0.20
   2  -1  -9   14.29    0.39
   2  -1  -9   14.92    0.45
  -2   1   9   14.41    0.37
  -2   1   9   14.43    0.48
  -2   1   9   14.71    0.44
   1  -1  -9    3.92    0.23
   1  -1  -9    3.93    0.21
   1  -1  -9    4.10    0.17
  -1   1   9    3.91    0.23
  -1   1   9    3.88    0.17
  -1   1   9    4.00    0.21
   0  -1  -9    0.17    0.07
   0  -1  -9    0.22    0.06
   0   1   9    0.14    0.06
   0   1   9    0.13    0.06
   0   1   9    0.16    0.05
  -1  -1  -9    1.49    0.10
  -1  -1  -9    1.46    0.14
   1   1   9    1.51    0.09
   1   1   9    1.64    0.14
   1   1   9    1.39    0.11
   1   1   9    1.43    0.10
  -2  -1  -9   10.43    0.34
  -2  -1  -9   11.00    0.31
   2   1   9   11.14    0.25
   2   1   9   10.99    0.43
   2   1   9   11.11    0.39
   2   1   9   10.94    0.34
  -3  -1  -9   17.81    0.48
   3   1   9   17.79    0.59
   3   1   9   16.96    0.63
  -4  -1  -9    8.61    0.37
   4   1   9    7.34    0.47
   4   1   9    8.46    0.44
  -5  -1  -9    8.86    0.44
   5   1   9    9.89    0.59
  -6  -1  -9    0.17    0.17
  -6  -1  -9    0.12    0.18
   6   1   9    0.16    0.19
  -6   2   9    1.39    0.23
  -6   2   9    1.45    0.27
  -5   2   9    0.34    0.14
  -5   2   9   -0.03    0.14
  -4   2   9    4.73    0.33
  -4   2   9    4.03    0.28
  -4   2   9    3.85    0.21
   3  -2  -9    6.55    0.29
   3  -2  -9    6.46    0.21
  -3   2   9    6.79    0.36
  -3   2   9    6.35    0.25
  -3   2   9    6.15    0.29
   2  -2  -9    3.32    0.22
   2  -2  -9    2.92    0.17
  -2   2   9    3.12    0.20
  -2   2   9    2.98    0.23
  -2   2   9    3.12    0.16
   1  -2  -9   80.32    1.44
   1  -2  -9   78.71    1.57
  -1   2   9   78.60    1.48
  -1   2   9   78.57    1.59
  -1   2   9   79.70    1.43
  -1   2   9   79.04    1.51
   0  -2  -9   17.12    0.41
   0   2   9   17.42    0.43
   0   2   9   17.59    0.45
   0   2   9   17.93    0.51
  -1  -2  -9   25.29    0.57
  -1  -2  -9   25.06    0.66
   1   2   9   24.95    0.57
   1   2   9   26.34    0.56
   1   2   9   26.23    0.65
   1   2   9   25.34    0.60
  -2  -2  -9   14.69    0.45
  -2  -2  -9   14.82    0.42
   2   2   9   14.43    0.44
   2   2   9   15.95    0.49
   2   2   9   15.05    0.52
  -3  -2  -9   12.90    0.42
  -3  -2  -9   13.15    0.43
   3   2   9   13.42    0.51
   3   2   9   13.93    0.57
  -4  -2  -9    0.81    0.15
   4   2   9    0.59    0.17
   4   2   9    0.80    0.21
  -5  -2  -9    3.31    0.30
   5   2   9    4.40    0.47
  -6  -2  -9    0.30    0.16
   6   2   9    0.29    0.22
  -6   3   9    1.11    0.25
  -6   3   9    1.26    0.24
  -5   3   9    9.28    0.35
  -5   3   9   10.25    0.53
  -5   3   9    9.25    0.44
  -4   3   9    7.83    0.45
  -4   3   9    7.48    0.36
  -4   3   9    7.35    0.29
   3  -3  -9   29.97    0.76
   3  -3  -9   28.10    0.64
  -3   3   9   29.66    0.76
  -3   3   9   30.19    0.68
  -3   3   9   31.56    0.87
   2  -3  -9    9.30    0.38
  -2   3   9    9.71    0.36
  -2   3   9    9.52    0.30
  -2   3   9    9.64    0.42
   1  -3  -9    4.55    0.19
  -1   3   9    4.80    0.23
  -1   3   9    4.44    0.27
  -1   3   9    4.47    0.23
   0  -3  -9   20.16    0.53
   0  -3  -9   19.82    0.47
   0   3   9   20.54    0.59
   0   3   9   19.81    0.52
   0   3   9   20.94    0.52
  -1  -3  -9   23.82    0.59
  -1  -3  -9   23.54    0.66
   1   3   9   23.56    0.61
   1   3   9   22.97    0.58
   1   3   9   24.28    0.55
  -2  -3  -9    2.23    0.19
  -2  -3  -9    1.82    0.20
   2   3   9    2.11    0.23
  -3  -3  -9    0.75    0.15
   3   3   9    0.69    0.17
   3   3   9    0.78    0.16
  -4  -3  -9    0.82    0.17
   4   3   9    0.31    0.18
   4   3   9    0.27    0.14
  -5  -3  -9    0.09    0.13
   5   3   9    0.24    0.19
  -6  -3  -9    2.25    0.30
   6   3   9    1.90    0.37
  -6   4   9    0.12    0.15
  -6   4   9    0.46    0.22
  -5   4   9    0.09    0.14
  -5   4   9    0.17    0.17
  -4   4   9    4.86    0.26
  -4   4   9    5.88    0.42
  -4   4   9    5.16    0.33
   3  -4  -9   38.11    0.95
  -3   4   9   38.76    0.85
  -3   4   9   41.85    1.09
  -3   4   9   39.24    0.94
  -2   4   9   12.82    0.44
  -2   4   9   13.13    0.53
   1  -4  -9    6.67    0.25
  -1   4   9    6.58    0.29
  -1   4   9    6.82    0.36
   0  -4  -9   12.44    0.42
   0  -4  -9   11.86    0.35
   0   4   9   12.09    0.39
   0   4   9   12.39    0.47
  -1  -4  -9    7.46    0.33
   1   4   9    7.56    0.28
   1   4   9    7.28    0.33
  -2  -4  -9   20.85    0.73
  -2  -4  -9   21.40    0.62
   2   4   9   20.52    0.44
   2   4   9   21.98    0.70
  -3  -4  -9    3.76    0.29
   3   4   9    4.16    0.31
   3   4   9    4.05    0.34
  -4  -4  -9    0.05    0.13
   4   4   9   -0.05    0.12
  -5  -4  -9    0.27    0.17
   5   4   9   -0.12    0.16
  -6   5   9    1.20    0.29
  -6   5   9    1.57    0.26
  -5   5   9    1.52    0.31
  -5   5   9    1.42    0.23
  -4   5   9    1.21    0.20
  -4   5   9    1.47    0.27
   3  -5  -9   10.46    0.44
   3  -5  -9    9.02    0.36
  -3   5   9   10.62    0.52
  -3   5   9   10.38    0.43
   2  -5  -9    3.58    0.18
  -2   5   9    3.20    0.29
  -2   5   9    3.76    0.25
   1  -5  -9    0.55    0.10
  -1   5   9    0.64    0.13
  -1   5   9    0.55    0.15
   0  -5  -9   20.87    0.62
   0   5   9   19.55    0.57
   0   5   9   21.76    0.69
  -1  -5  -9   11.75    0.46
   1   5   9   11.89    0.37
   1   5   9   11.81    0.46
  -2  -5  -9    0.35    0.15
   2   5   9    0.24    0.07
   2   5   9    0.29    0.12
  -3  -5  -9    2.57    0.28
   3   5   9    2.71    0.30
   3   5   9    2.36    0.31
  -4  -5  -9    0.78    0.20
   4   5   9    0.76    0.23
  -5  -5  -9    0.12    0.17
   5   5   9   -0.02    0.17
  -5   6   9    1.74    0.25
  -5   6   9    1.86    0.33
  -4   6   9    5.88    0.36
  -4   6   9    5.56    0.44
  -3   6   9    4.00    0.29
  -3   6   9    4.29    0.38
   2  -6  -9    0.47    0.10
  -2   6   9    0.68    0.19
  -2   6   9    0.69    0.15
   1  -6  -9    1.07    0.14
  -1   6   9    0.63    0.14
  -1   6   9    1.00    0.21
   0  -6  -9   10.90    0.47
   0   6   9   10.92    0.40
   0   6   9   11.29    0.51
   0   6   9   11.03    0.42
  -1  -6  -9    3.88    0.31
   1   6   9    4.02    0.30
   1   6   9    3.93    0.23
  -2  -6  -9    2.52    0.29
   2   6   9    2.13    0.28
   2   6   9    1.74    0.14
  -3  -6  -9    6.49    0.41
   3   6   9    7.74    0.50
  -4  -6  -9    0.44    0.19
   4   6   9    0.93    0.26
  -5   7   9    0.42    0.23
  -5   7   9    0.21    0.16
  -4   7   9    2.05    0.34
  -4   7   9    1.11    0.20
  -3   7   9    0.17    0.15
  -3   7   9    0.20    0.13
   2  -7  -9    5.99    0.25
  -2   7   9    6.30    0.45
  -2   7   9    6.02    0.35
   1  -7  -9    2.81    0.20
  -1   7   9    2.37    0.25
  -1   7   9    2.22    0.31
  -1   7   9    2.96    0.29
   0  -7  -9   11.19    0.51
   0   7   9   11.74    0.46
   0   7   9   11.77    0.44
   0   7   9   11.30    0.55
  -1  -7  -9    0.66    0.18
   1   7   9    0.32    0.10
  -2  -7  -9    2.43    0.30
   2   7   9    2.07    0.30
  -3  -7  -9    0.35    0.20
   3   7   9    0.18    0.18
  -4   8   9    0.20    0.15
  -4   8   9    0.49    0.18
  -4   8   9    0.54    0.23
  -3   8   9    0.72    0.24
  -3   8   9    0.59    0.18
  -3   8   9    0.66    0.18
   2  -8  -9    0.34    0.10
  -2   8   9    0.11    0.12
  -2   8   9    0.20    0.13
  -2   8   9    0.18    0.16
  -1   8   9    5.33    0.35
  -1   8   9    5.55    0.43
  -1   8   9    5.23    0.34
   0  -8  -9    7.27    0.45
   0   8   9    6.54    0.35
  -1  -8  -9    3.75    0.39
   1   8   9    3.47    0.25
  -2  -8  -9    0.67    0.22
   2   8   9    1.10    0.26
  -3  -8  -9    1.93    0.32
   3   8   9    1.64    0.33
  -3   9   9    0.66    0.28
  -3   9   9    0.51    0.19
  -3   9   9    0.52    0.21
  -2   9   9    1.21    0.22
  -2   9   9    1.06    0.30
  -2   9   9    1.25    0.24
  -1   9   9    1.66    0.24
  -1   9   9    1.57    0.25
  -1   9   9    1.28    0.28
   0  -9  -9    0.53    0.21
   0   9   9    0.41    0.14
  -1  -9  -9    4.20    0.44
   0  10 -10    7.67    0.55
   0 -10  10    8.35    0.52
   0 -10  10    7.77    0.48
  -1  10 -10    0.65    0.25
  -1  10 -10    0.84    0.20
   1 -10  10    0.76    0.25
   1 -10  10    0.59    0.20
  -2  10 -10    0.22    0.19
  -2  10 -10    0.23    0.18
  -2  10 -10    0.23    0.19
  -2  -9  10    3.82    0.40
  -2  -9  10    4.28    0.43
   1   9 -10    2.00    0.33
  -1  -9  10    2.03    0.30
  -1  -9  10    1.68    0.30
   0   9 -10    8.21    0.51
   0   9 -10    6.36    0.47
   0  -9  10    6.48    0.41
   0  -9  10    7.27    0.46
  -1   9 -10    0.53    0.21
  -1   9 -10    0.70    0.18
  -1   9 -10    0.45    0.17
   1  -9  10    0.96    0.21
   1  -9  10    0.67    0.22
  -2   9 -10   -0.08    0.16
  -2   9 -10    0.08    0.12
  -2   9 -10   -0.01    0.12
   2  -9  10    0.20    0.15
  -3   9 -10    0.90    0.22
  -3   9 -10    1.10    0.27
  -3   9 -10    1.03    0.21
  -4   9 -10    0.88    0.23
  -4   9 -10    1.41    0.33
  -4   9 -10    0.55    0.19
   3   8 -10    0.56    0.19
  -3  -8  10    1.04    0.25
  -3  -8  10    0.56    0.22
  -2  -8  10    1.58    0.27
  -2  -8  10    2.04    0.30
   1   8 -10    1.83    0.29
   1   8 -10    1.94    0.29
  -1  -8  10    2.03    0.28
  -1  -8  10    2.19    0.30
   0   8 -10    5.75    0.40
   0   8 -10    5.24    0.41
   0  -8  10    5.94    0.39
   0  -8  10    5.37    0.35
  -1   8 -10   14.53    0.64
  -1   8 -10   14.92    0.57
  -1   8 -10   14.48    0.67
   1  -8  10   14.02    0.57
   1  -8  10   15.20    0.56
  -2   8 -10    0.36    0.14
  -2   8 -10    0.33    0.16
  -2   8 -10    0.59    0.20
   2  -8  10    0.11    0.12
  -3   8 -10    0.14    0.14
  -3   8 -10    0.26    0.14
  -3   8 -10    0.44    0.18
  -4   8 -10    1.36    0.25
  -4   8 -10    1.91    0.31
  -4   8 -10    2.05    0.27
  -4  -7  10    1.63    0.29
  -4  -7  10    1.86    0.30
  -4  -7  10    1.76    0.31
   3   7 -10    2.62    0.30
  -3  -7  10    2.87    0.35
  -3  -7  10    3.20    0.36
  -3  -7  10    3.05    0.33
   2   7 -10    3.54    0.38
   2   7 -10    3.26    0.31
  -2  -7  10    4.17    0.35
  -2  -7  10    3.53    0.32
  -2  -7  10    4.23    0.35
   1   7 -10    1.13    0.22
   1   7 -10    0.72    0.18
  -1  -7  10    1.03    0.21
  -1  -7  10    1.58    0.24
   0   7 -10    2.40    0.30
   0   7 -10    2.05    0.28
   0  -7  10    2.96    0.31
   0  -7  10    2.56    0.26
  -1   7 -10    2.07    0.23
  -1   7 -10    2.02    0.29
  -1   7 -10    2.11    0.27
   1  -7  10    2.32    0.25
   1  -7  10    1.82    0.23
  -2   7 -10    1.04    0.17
  -2   7 -10    0.77    0.19
  -2   7 -10    0.94    0.18
  -2   7 -10    1.15    0.23
   2  -7  10    0.72    0.15
  -3   7 -10    7.58    0.44
  -3   7 -10    8.37    0.42
  -3   7 -10    8.73    0.48
  -4   7 -10    0.79    0.17
  -4   7 -10    0.53    0.17
  -4   7 -10    0.72    0.20
  -5   7 -10    0.23    0.16
  -5   7 -10    0.00    0.14
  -5   7 -10    0.06    0.13
  -5  -6  10    2.32    0.34
  -5  -6  10    1.79    0.32
   4   6 -10    0.95    0.22
  -4  -6  10    1.01    0.24
  -4  -6  10    0.82    0.23
  -4  -6  10    0.41    0.19
   3   6 -10    2.47    0.26
  -3  -6  10    2.67    0.31
  -3  -6  10    2.66    0.31
  -3  -6  10    2.00    0.29
   2   6 -10    0.49    0.15
   2   6 -10    0.47    0.15
  -2  -6  10    0.32    0.16
  -2  -6  10    0.62    0.18
  -2  -6  10    0.34    0.15
   1   6 -10    8.73    0.45
   1   6 -10    8.83    0.45
  -1  -6  10    8.94    0.43
  -1  -6  10    9.48    0.40
  -1  -6  10    8.19    0.42
   0   6 -10    0.90    0.19
   0   6 -10    0.61    0.15
   0  -6  10    1.07    0.19
   0  -6  10    0.86    0.16
  -1   6 -10   21.96    0.72
  -1   6 -10   21.62    0.72
  -1   6 -10   21.27    0.64
   1  -6  10   21.02    0.62
   1  -6  10   20.73    0.59
  -2   6 -10    8.09    0.42
  -2   6 -10    7.60    0.41
  -2   6 -10    7.77    0.37
  -2   6 -10    7.44    0.29
   2  -6  10    7.83    0.31
  -3   6 -10    1.07    0.18
  -3   6 -10    1.19    0.17
  -3   6 -10    0.79    0.18
  -3   6 -10    0.64    0.17
  -4   6 -10    3.37    0.29
  -4   6 -10    3.49    0.30
  -4   6 -10    3.53    0.28
  -4   6 -10    3.53    0.31
  -5   6 -10    0.16    0.13
  -5   6 -10    0.38    0.17
  -5   6 -10    0.29    0.13
  -5  -5  10    9.07    0.55
  -5  -5  10    8.39    0.55
  -5  -5  10    8.86    0.52
   4   5 -10    4.38    0.32
  -4  -5  10    4.63    0.39
  -4  -5  10    4.36    0.40
  -4  -5  10    4.33    0.38
   3   5 -10    1.53    0.20
   3   5 -10    1.31    0.21
  -3  -5  10    1.63    0.24
  -3  -5  10    1.44    0.23
  -3  -5  10    1.09    0.21
   2   5 -10    4.03    0.29
   2   5 -10    3.61    0.28
   2   5 -10    4.12    0.23
  -2  -5  10    4.23    0.32
  -2  -5  10    3.94    0.30
  -2  -5  10    4.31    0.29
   1   5 -10   23.21    0.71
   1   5 -10   22.35    0.72
  -1  -5  10   23.16    0.68
  -1  -5  10   22.49    0.61
  -1  -5  10   21.65    0.67
   0   5 -10    1.75    0.21
   0   5 -10    1.81    0.17
   0   5 -10    2.19    0.26
   0  -5  10    1.82    0.19
   0  -5  10    2.12    0.15
   0  -5  10    1.93    0.18
   0  -5  10    1.78    0.20
  -1   5 -10   28.25    0.81
  -1   5 -10   28.08    0.66
  -1   5 -10   28.44    0.81
  -1   5 -10   27.98    0.73
   1  -5  10   28.35    0.66
   1  -5  10   28.38    0.71
  -2   5 -10    0.76    0.12
  -2   5 -10    0.49    0.10
  -2   5 -10    0.59    0.13
  -2   5 -10    0.43    0.14
  -2   5 -10    0.85    0.16
  -2   5 -10    0.47    0.14
  -3   5 -10    4.17    0.31
  -3   5 -10    4.19    0.22
  -3   5 -10    4.33    0.26
  -3   5 -10    3.88    0.28
  -3   5 -10    4.16    0.26
  -4   5 -10    0.01    0.10
  -4   5 -10    0.14    0.12
  -4   5 -10    0.17    0.11
  -4   5 -10    0.16    0.11
  -5   5 -10    0.37    0.15
  -5   5 -10    0.33    0.13
  -5   5 -10    0.55    0.14
   5   4 -10    2.61    0.31
  -5  -4  10    1.97    0.33
  -5  -4  10    2.21    0.31
  -5  -4  10    2.43    0.31
   4   4 -10    2.57    0.27
  -4  -4  10    2.22    0.28
  -4  -4  10    2.62    0.32
  -4  -4  10    2.63    0.31
   3   4 -10   26.82    0.71
   3   4 -10   26.61    0.76
   3   4 -10   26.10    0.76
  -3  -4  10   28.62    0.82
  -3  -4  10   26.65    0.60
  -3  -4  10   26.18    0.79
  -3  -4  10   27.26    0.80
   2   4 -10   15.41    0.55
   2   4 -10   16.03    0.55
   2   4 -10   15.57    0.44
  -2  -4  10   15.63    0.55
  -2  -4  10   17.00    0.53
  -2  -4  10   16.72    0.57
   1   4 -10   16.01    0.51
   1   4 -10   16.78    0.56
   1   4 -10   15.90    0.54
  -1  -4  10   15.64    0.52
  -1  -4  10   16.17    0.52
  -1  -4  10   16.31    0.47
   0   4 -10    0.37    0.12
   0   4 -10    0.54    0.10
   0   4 -10    0.36    0.12
   0  -4  10    0.58    0.09
   0  -4  10    0.18    0.09
   0  -4  10    0.41    0.11
   0  -4  10    0.49    0.10
  -1   4 -10   14.13    0.50
  -1   4 -10   13.80    0.36
  -1   4 -10   13.83    0.50
   1  -4  10   14.16    0.42
   1  -4  10   13.21    0.36
  -2   4 -10    8.68    0.37
  -2   4 -10    8.56    0.33
  -2   4 -10    9.04    0.30
  -2   4 -10    9.66    0.35
  -2   4 -10    9.04    0.41
  -2   4 -10    9.07    0.28
  -3   4 -10    1.82    0.20
  -3   4 -10    2.09    0.16
  -3   4 -10    1.97    0.20
  -3   4 -10    2.34    0.25
  -3   4 -10    2.16    0.20
  -3   4 -10    1.87    0.17
  -4   4 -10    2.61    0.21
  -4   4 -10    2.46    0.26
  -4   4 -10    2.27    0.25
  -5   4 -10    1.26    0.20
  -5   4 -10    1.70    0.20
  -6  -3  10    4.70    0.42
  -6  -3  10    3.97    0.38
  -6  -3  10    4.14    0.48
   5   3 -10    0.24    0.14
  -5  -3  10    0.33    0.18
  -5  -3  10    0.41    0.23
  -5  -3  10    0.31    0.17
   4   3 -10    0.58    0.13
  -4  -3  10    0.73    0.14
  -4  -3  10    0.73    0.19
  -4  -3  10    0.75    0.21
  -4  -3  10    0.35    0.16
   3   3 -10   45.25    1.00
   3   3 -10   45.79    1.07
   3   3 -10   46.03    1.06
  -3  -3  10   46.23    0.97
  -3  -3  10   45.71    1.14
  -3  -3  10   46.80    1.12
  -3  -3  10   46.56    1.10
   2   3 -10   18.31    0.58
   2   3 -10   18.89    0.56
   2   3 -10   17.75    0.45
  -2  -3  10   17.88    0.56
  -2  -3  10   18.37    0.58
  -2  -3  10   18.29    0.56
  -2  -3  10   18.41    0.56
   1   3 -10    4.21    0.26
   1   3 -10    4.46    0.26
  -1  -3  10    4.15    0.24
  -1  -3  10    3.69    0.20
  -1  -3  10    4.13    0.25
  -1  -3  10    3.98    0.24
   0   3 -10   35.09    0.87
   0   3 -10   36.18    0.88
   0   3 -10   35.27    0.75
   0  -3  10   36.52    0.89
   0  -3  10   35.74    0.81
   0  -3  10   35.26    0.71
   0  -3  10   36.74    0.71
   0  -3  10   35.12    0.81
  -1   3 -10   31.01    0.78
  -1   3 -10   32.41    0.74
  -1   3 -10   30.82    0.74
  -1   3 -10   31.48    0.81
   1  -3  10   32.38    0.69
  -2   3 -10    9.78    0.36
  -2   3 -10    9.41    0.31
  -2   3 -10    9.52    0.33
  -2   3 -10    9.70    0.33
  -2   3 -10    9.43    0.41
  -3   3 -10   17.29    0.53
  -3   3 -10   16.80    0.49
  -3   3 -10   18.41    0.49
  -3   3 -10   16.84    0.45
  -3   3 -10   18.15    0.60
  -3   3 -10   17.06    0.43
  -4   3 -10    1.35    0.21
  -4   3 -10    1.72    0.17
  -4   3 -10    1.43    0.19
  -5   3 -10    0.93    0.19
  -5   3 -10    0.79    0.14
  -6   3 -10    0.82    0.35
  -6  -2  10    1.37    0.26
  -6  -2  10    1.41    0.25
  -6  -2  10    0.83    0.30
  -5  -2  10    4.83    0.37
  -5  -2  10    5.07    0.44
  -5  -2  10    4.74    0.35
  -5  -2  10    4.61    0.36
  -4  -2  10    0.22    0.18
  -4  -2  10    0.34    0.15
  -4  -2  10    0.30    0.14
   3   2 -10    1.10    0.13
   3   2 -10    1.33    0.17
   3   2 -10    1.12    0.15
  -3  -2  10    1.14    0.18
  -3  -2  10    1.17    0.21
  -3  -2  10    1.12    0.18
  -3  -2  10    0.93    0.14
   2   2 -10   18.13    0.56
   2   2 -10   18.86    0.41
   2   2 -10   18.94    0.53
  -2  -2  10   19.17    0.57
  -2  -2  10   18.57    0.54
  -2  -2  10   18.46    0.55
  -2  -2  10   19.11    0.58
   1   2 -10    2.05    0.18
   1   2 -10    2.46    0.19
  -1  -2  10    2.48    0.15
  -1  -2  10    2.24    0.18
  -1  -2  10    1.84    0.18
  -1  -2  10    2.35    0.19
  -1  -2  10    2.26    0.16
   0   2 -10    2.02    0.10
   0   2 -10    2.17    0.18
   0   2 -10    1.84    0.17
   0  -2  10    2.03    0.18
   0  -2  10    2.04    0.16
   0  -2  10    1.93    0.11
   0  -2  10    2.04    0.16
  -1   2 -10    7.57    0.28
  -1   2 -10    7.90    0.34
  -1   2 -10    7.71    0.22
  -1   2 -10    7.35    0.29
  -1   2 -10    7.19    0.30
   1  -2  10    7.55    0.34
   1  -2  10    8.06    0.25
   1  -2  10    7.62    0.25
   1  -2  10    7.19    0.25
   1  -2  10    7.24    0.26
  -2   2 -10    0.96    0.16
  -2   2 -10    1.10    0.13
  -2   2 -10    0.84    0.12
  -2   2 -10    1.29    0.18
   2  -2  10    1.15    0.12
  -3   2 -10    2.93    0.21
  -3   2 -10    3.25    0.28
   3  -2  10    2.89    0.19
  -4   2 -10    4.08    0.31
  -4   2 -10    5.93    0.25
  -4   2 -10    5.36    0.32
  -4   2 -10    5.47    0.36
  -5   2 -10    2.17    0.26
  -5   2 -10    2.29    0.29
  -6   2 -10    0.24    0.18
  -6  -1  10    0.29    0.17
  -6  -1  10    0.43    0.28
  -6  -1  10   -0.15    0.16
  -5  -1  10    0.89    0.20
  -5  -1  10    1.30    0.29
  -5  -1  10    0.35    0.17
  -4  -1  10   14.61    0.52
  -4  -1  10   14.86    0.57
  -4  -1  10   15.12    0.49
  -4  -1  10   15.40    0.66
   3   1 -10    0.61    0.12
   3   1 -10    0.61    0.11
  -3  -1  10    0.73    0.19
  -3  -1  10    0.59    0.11
  -3  -1  10    0.50    0.14
  -3  -1  10    0.47    0.13
  -3  -1  10    0.46    0.08
   2   1 -10   59.29    1.19
   2   1 -10   59.73    1.25
  -2  -1  10   59.83    1.20
  -2  -1  10   56.62    1.21
  -2  -1  10   58.24    1.26
  -2  -1  10   58.16    1.27
   1   1 -10    6.10    0.29
   1   1 -10    6.11    0.27
  -1  -1  10    5.73    0.27
  -1  -1  10    5.82    0.26
  -1  -1  10    6.25    0.22
  -1  -1  10    5.58    0.27
  -1  -1  10    6.00    0.25
   0   1 -10   14.58    0.51
   0   1 -10   14.58    0.45
   0   1 -10   14.20    0.36
   0   1 -10   14.33    0.44
   0  -1  10   13.54    0.44
   0  -1  10   14.65    0.33
   0  -1  10   13.56    0.41
   0  -1  10   13.96    0.40
  -1   1 -10   21.71    0.60
  -1   1 -10   20.99    0.53
  -1   1 -10   21.21    0.51
  -1   1 -10   20.91    0.43
  -1   1 -10   20.16    0.54
   1  -1  10   20.54    0.49
   1  -1  10   19.96    0.47
   1  -1  10   20.72    0.52
   1  -1  10   20.13    0.50
   1  -1  10   21.20    0.46
  -2   1 -10   17.12    0.45
  -2   1 -10   17.30    0.56
  -2   1 -10   17.64    0.59
   2  -1  10   17.24    0.54
   2  -1  10   17.47    0.42
   2  -1  10   17.53    0.51
  -3   1 -10    2.76    0.18
  -3   1 -10    2.54    0.26
   3  -1  10    2.55    0.27
   3  -1  10    2.48    0.16
  -4   1 -10   52.61    1.16
  -4   1 -10   49.93    1.25
  -4   1 -10   54.69    1.33
   4  -1  10   53.61    1.38
  -5   1 -10    0.86    0.20
  -5   1 -10    0.81    0.20
  -6   1 -10    0.55    0.19
  -6   1 -10    0.25    0.17
  -6   0  10    0.93    0.23
  -6   0  10    1.39    0.35
  -6   0  10    1.41    0.25
  -5   0  10    1.39    0.24
  -5   0  10    1.55    0.24
  -4   0  10    5.09    0.31
  -4   0  10    6.06    0.37
   3   0 -10    0.04    0.05
   3   0 -10    0.17    0.08
  -3   0  10    0.03    0.10
  -3   0  10    0.04    0.09
  -3   0  10    0.05    0.06
   2   0 -10   54.81    1.16
   2   0 -10   54.36    1.08
  -2   0  10   51.91    1.11
  -2   0  10   53.57    1.18
  -2   0  10   53.08    0.98
  -2   0  10   52.44    1.04
   1   0 -10   82.94    1.64
   1   0 -10   85.15    1.60
  -1   0  10   82.53    1.59
  -1   0  10   81.25    1.63
  -1   0  10   84.19    1.50
   0   0 -10    2.72    0.20
   0   0 -10    2.91    0.20
   0   0 -10    2.90    0.14
   0   0 -10    3.00    0.20
   0   0  10    3.26    0.14
   0   0  10    3.24    0.19
   0   0  10    3.34    0.18
  -1   0 -10    4.85    0.23
  -1   0 -10    4.88    0.27
  -1   0 -10    4.92    0.16
   1   0  10    4.39    0.19
   1   0  10    4.78    0.23
   1   0  10    5.13    0.18
  -2   0 -10   12.09    0.45
  -2   0 -10   11.54    0.35
   2   0  10   11.21    0.29
   2   0  10   11.77    0.44
   2   0  10   11.90    0.41
  -3   0 -10    3.51    0.28
  -3   0 -10    3.15    0.18
   3   0  10    3.33    0.15
   3   0  10    3.25    0.26
   3   0  10    3.28    0.29
  -4   0 -10   23.78    0.65
  -4   0 -10   24.90    0.79
   4   0  10   22.74    0.84
  -5   0 -10    0.15    0.14
  -5   0 -10    0.10    0.16
   5   0  10    0.53    0.20
  -6   0 -10    0.11    0.16
  -6   0 -10    0.18    0.17
   6   0  10   -0.08    0.17
  -6   1  10    2.44    0.32
  -6   1  10    2.79    0.31
  -5   1  10    5.77    0.35
  -5   1  10    5.98    0.41
  -4   1  10    5.82    0.37
  -4   1  10    5.45    0.31
   3  -1 -10    1.43    0.18
   3  -1 -10    1.42    0.11
  -3   1  10    1.64    0.15
  -3   1  10    1.48    0.21
  -3   1  10    1.41    0.17
  -3   1  10    1.60    0.16
   2  -1 -10    8.47    0.30
   2  -1 -10    9.31    0.36
  -2   1  10    8.56    0.34
  -2   1  10    8.69    0.28
  -2   1  10    8.62    0.38
   1  -1 -10   17.92    0.53
   1  -1 -10   18.16    0.44
   1  -1 -10   18.30    0.51
  -1   1  10   18.14    0.50
  -1   1  10   17.69    0.54
  -1   1  10   18.39    0.43
   0  -1 -10   29.15    0.61
   0   1  10   28.59    0.62
   0   1  10   29.07    0.70
   0   1  10   28.91    0.59
   0   1  10   29.59    0.66
  -1  -1 -10    1.13    0.09
  -1  -1 -10    1.22    0.15
   1   1  10    1.08    0.12
   1   1  10    1.33    0.12
   1   1  10    1.08    0.13
   1   1  10    0.87    0.08
  -2  -1 -10    4.24    0.22
  -2  -1 -10    4.28    0.18
   2   1  10    4.30    0.24
   2   1  10    4.15    0.20
   2   1  10    4.31    0.27
   2   1  10    4.03    0.14
  -3  -1 -10    6.40    0.26
   3   1  10    5.96    0.33
   3   1  10    6.76    0.39
  -4  -1 -10    4.55    0.27
   4   1  10    4.02    0.32
   4   1  10    4.48    0.38
  -5  -1 -10    4.83    0.39
  -5  -1 -10    5.06    0.33
   5   1  10    4.54    0.47
  -6  -1 -10    1.24    0.23
  -6  -1 -10    1.11    0.25
   6   1  10    1.26    0.30
  -6   2  10    2.25    0.28
  -6   2  10    2.15    0.31
  -5   2  10    2.14    0.26
  -5   2  10    1.97    0.28
  -4   2  10    1.49    0.23
  -4   2  10    1.71    0.17
  -4   2  10    1.89    0.22
   3  -2 -10   10.57    0.40
   3  -2 -10   10.60    0.31
  -3   2  10   10.26    0.40
  -3   2  10   10.35    0.34
  -3   2  10   11.08    0.48
   2  -2 -10   23.72    0.65
   2  -2 -10   22.65    0.57
  -2   2  10   22.75    0.61
  -2   2  10   23.56    0.69
  -2   2  10   22.29    0.53
   1  -2 -10    5.08    0.20
   1  -2 -10    5.35    0.28
  -1   2  10    4.87    0.24
  -1   2  10    4.74    0.22
  -1   2  10    5.13    0.28
   0  -2 -10    1.12    0.11
   0   2  10    1.21    0.11
   0   2  10    1.18    0.13
   0   2  10    1.21    0.16
  -1  -2 -10   15.24    0.39
  -1  -2 -10   15.24    0.48
   1   2  10   15.53    0.47
   1   2  10   14.62    0.39
   1   2  10   14.59    0.38
   1   2  10   14.52    0.42
  -2  -2 -10    1.62    0.18
  -2  -2 -10    1.90    0.16
   2   2  10    2.01    0.22
   2   2  10    2.03    0.20
   2   2  10    1.75    0.15
  -3  -2 -10   10.90    0.40
  -3  -2 -10   11.66    0.39
   3   2  10   11.87    0.53
   3   2  10   12.34    0.50
  -4  -2 -10    0.31    0.12
   4   2  10    0.31    0.14
   4   2  10    0.67    0.21
  -5  -2 -10    4.27    0.31
   5   2  10    3.63    0.45
  -6  -2 -10    0.46    0.17
   6   2  10    0.19    0.22
  -6   3  10    0.34    0.21
  -6   3  10    0.73    0.19
  -5   3  10    4.59    0.35
  -5   3  10    3.53    0.31
  -5   3  10    3.42    0.36
  -4   3  10    6.38    0.29
  -4   3  10    7.30    0.45
  -4   3  10    6.97    0.36
   3  -3 -10    2.24    0.21
   3  -3 -10    2.29    0.16
  -3   3  10    2.81    0.24
  -3   3  10    2.06    0.18
  -3   3  10    1.94    0.25
   2  -3 -10   15.44    0.53
  -2   3  10   16.49    0.58
  -2   3  10   16.24    0.50
   1  -3 -10    2.79    0.16
  -1   3  10    2.51    0.22
  -1   3  10    2.57    0.19
  -1   3  10    2.61    0.19
   0  -3 -10    4.23    0.19
   0   3  10    4.34    0.22
   0   3  10    4.17    0.22
   0   3  10    4.39    0.26
  -1  -3 -10   22.42    0.57
   1   3  10   22.35    0.53
   1   3  10   21.01    0.56
   1   3  10   22.64    0.60
   1   3  10   23.63    0.64
  -2  -3 -10    3.83    0.23
  -2  -3 -10    3.65    0.25
   2   3  10    4.13    0.29
  -3  -3 -10    1.74    0.20
   3   3  10    1.46    0.24
   3   3  10    1.22    0.19
  -4  -3 -10    3.86    0.28
   4   3  10    4.05    0.42
  -5  -3 -10    0.33    0.15
   5   3  10   -0.10    0.15
  -6   4  10    0.37    0.20
  -6   4  10    0.08    0.17
  -5   4  10    2.49    0.28
  -5   4  10    2.88    0.36
  -4   4  10    0.18    0.14
  -4   4  10    0.26    0.17
  -4   4  10    0.28    0.12
   3  -4 -10   30.27    0.82
  -3   4  10   30.34    0.81
  -3   4  10   32.08    0.95
  -3   4  10   31.14    0.72
   2  -4 -10   13.79    0.51
  -2   4  10   13.37    0.55
  -2   4  10   14.26    0.48
   1  -4 -10    7.15    0.27
  -1   4  10    6.92    0.31
  -1   4  10    7.69    0.39
   0  -4 -10    5.18    0.28
   0  -4 -10    4.70    0.22
   0   4  10    5.01    0.25
   0   4  10    5.33    0.31
  -1  -4 -10   41.19    0.94
   1   4  10   40.71    0.88
   1   4  10   40.82    0.96
  -2  -4 -10    4.87    0.29
   2   4  10    5.20    0.18
   2   4  10    5.42    0.35
  -3  -4 -10    2.52    0.26
   3   4  10    2.65    0.33
   3   4  10    2.47    0.28
  -4  -4 -10    0.17    0.14
   4   4  10    0.19    0.16
  -5  -4 -10    0.88    0.21
   5   4  10    0.96    0.28
  -6   5  10    0.50    0.21
  -6   5  10    0.95    0.28
  -5   5  10    3.53    0.41
  -5   5  10    2.95    0.32
  -4   5  10    1.21    0.20
  -4   5  10    1.43    0.27
   3  -5 -10    7.93    0.41
  -3   5  10    8.67    0.50
  -3   5  10    7.77    0.38
   2  -5 -10    2.40    0.16
  -2   5  10    2.28    0.28
  -2   5  10    2.15    0.23
   1  -5 -10    0.24    0.09
  -1   5  10    0.42    0.12
  -1   5  10    0.15    0.12
   0  -5 -10    0.61    0.15
   0  -5 -10    0.39    0.10
   0   5  10    0.66    0.14
   0   5  10    0.63    0.16
  -1  -5 -10   13.64    0.50
   1   5  10   14.68    0.52
   1   5  10   14.55    0.44
   1   5  10   14.19    0.42
  -2  -5 -10    2.93    0.27
   2   5  10    2.96    0.15
   2   5  10    3.71    0.36
  -3  -5 -10   -0.03    0.13
   3   5  10    0.08    0.13
  -4  -5 -10    0.60    0.19
   4   5  10    0.91    0.25
  -5  -5 -10    0.72    0.22
   5   5  10    0.67    0.27
  -5   6  10    6.00    0.53
  -5   6  10    5.18    0.38
  -4   6  10    0.68    0.18
  -4   6  10    0.67    0.23
  -3   6  10    1.29    0.26
  -3   6  10    1.39    0.20
   2  -6 -10   14.94    0.42
  -2   6  10   14.85    0.54
  -2   6  10   15.52    0.66
   1  -6 -10   11.61    0.38
  -1   6  10   10.97    0.44
  -1   6  10   10.91    0.54
   0  -6 -10    3.55    0.29
   0   6  10    3.33    0.25
   0   6  10    3.40    0.30
  -1  -6 -10   32.33    0.89
   1   6  10   31.68    0.75
  -2  -6 -10    4.61    0.34
   2   6  10    5.01    0.38
  -3  -6 -10    3.02    0.33
   3   6  10    3.81    0.43
  -4  -6 -10    1.65    0.28
   4   6  10    1.28    0.30
  -5   7  10    1.59    0.33
  -5   7  10    0.94    0.22
  -4   7  10    0.91    0.25
  -4   7  10    0.72    0.19
  -3   7  10    0.02    0.11
  -3   7  10   -0.04    0.15
   2  -7 -10    2.58    0.19
  -2   7  10    2.70    0.29
  -2   7  10    2.74    0.38
  -1   7  10    0.74    0.17
  -1   7  10    0.39    0.18
  -1   7  10    0.54    0.13
   0  -7 -10    2.34    0.29
   0   7  10    1.69    0.20
   0   7  10    1.77    0.28
   0   7  10    2.04    0.24
  -1  -7 -10    7.62    0.43
   1   7  10    6.95    0.32
  -2  -7 -10    2.99    0.34
   2   7  10    2.74    0.35
  -3  -7 -10    0.81    0.23
   3   7  10    1.16    0.28
  -4   8  10    2.75    0.33
  -4   8  10    2.69    0.41
  -3   8  10    1.03    0.22
  -3   8  10    1.27    0.23
  -3   8  10    1.29    0.28
   2  -8 -10    0.17    0.11
  -2   8  10    0.16    0.13
  -2   8  10    0.17    0.17
  -2   8  10    0.02    0.12
  -1   8  10    0.34    0.13
  -1   8  10    0.12    0.14
  -1   8  10   -0.03    0.14
   0  -8 -10    1.24    0.25
   0   8  10    1.33    0.20
  -1  -8 -10    0.67    0.21
  -2  -8 -10    6.85    0.47
   2   8  10    7.72    0.52
  -3   9  10    0.25    0.21
  -3   9  10    0.11    0.14
  -3   9  10    0.21    0.17
  -2   9  10    1.84    0.28
  -2   9  10    1.73    0.26
  -2   9  10    1.64    0.33
  -1   9  10    0.17    0.13
  -1   9  10    0.37    0.17
   0  -9 -10    0.40    0.18
   0   9  10    0.24    0.12
  -1  -9 -10    0.92    0.25
   0  10 -11    1.34    0.30
   0 -10  11    0.74    0.25
   0 -10  11    0.87    0.24
  -1  10 -11    0.64    0.24
   1 -10  11    0.45    0.22
   1 -10  11    0.57    0.20
  -2  10 -11    1.52    0.32
  -2  -9  11    0.59    0.24
  -2  -9  11    0.48    0.23
   1   9 -11    0.88    0.28
   1   9 -11    1.00    0.24
  -1  -9  11    1.46    0.29
  -1  -9  11    1.05    0.25
   0   9 -11    0.36    0.16
   0   9 -11    0.60    0.22
   0  -9  11    0.07    0.14
   0  -9  11    0.28    0.19
  -1   9 -11    1.07    0.28
  -1   9 -11    1.35    0.28
   1  -9  11    1.34    0.23
   1  -9  11    0.65    0.20
  -2   9 -11    0.08    0.18
  -2   9 -11    0.11    0.12
  -2   9 -11    0.19    0.15
   2  -9  11    0.07    0.15
  -3   9 -11    0.10    0.14
  -3   9 -11    0.46    0.21
  -3   9 -11    0.20    0.16
  -3  -8  11    0.42    0.22
  -3  -8  11    0.63    0.23
  -2  -8  11    5.65    0.43
  -2  -8  11    6.02    0.42
   1   8 -11    4.36    0.39
   1   8 -11    5.27    0.40
  -1  -8  11    5.47    0.40
  -1  -8  11    5.69    0.38
   0   8 -11    5.07    0.39
   0   8 -11    5.63    0.43
   0  -8  11    4.53    0.37
   0  -8  11    5.41    0.35
  -1   8 -11    1.82    0.29
  -1   8 -11    1.23    0.25
  -1   8 -11    1.08    0.20
   1  -8  11    1.50    0.22
   1  -8  11    1.36    0.24
  -2   8 -11    0.58    0.18
  -2   8 -11    0.37    0.14
  -2   8 -11    0.45    0.19
   2  -8  11    0.45    0.15
  -3   8 -11    1.81    0.31
  -3   8 -11    1.75    0.24
  -3   8 -11    1.17    0.23
  -4   8 -11    3.41    0.35
  -4   8 -11    3.42    0.41
  -4   8 -11    3.24    0.36
  -4  -7  11    3.41    0.39
  -4  -7  11    2.05    0.32
  -4  -7  11    2.81    0.37
   3   7 -11    1.63    0.23
  -3  -7  11    1.24    0.24
  -3  -7  11    1.36    0.27
  -3  -7  11    1.72    0.29
   2   7 -11    1.84    0.28
   2   7 -11    1.80    0.29
  -2  -7  11    2.05    0.27
  -2  -7  11    2.37    0.32
  -2  -7  11    1.70    0.25
   1   7 -11    1.23    0.22
   1   7 -11    1.47    0.26
  -1  -7  11    1.22    0.22
  -1  -7  11    1.61    0.26
   0   7 -11   30.51    0.96
   0   7 -11   31.03    0.95
   0  -7  11   29.70    0.88
   0  -7  11   30.13    0.80
   0  -7  11   30.02    0.70
  -1   7 -11    0.64    0.18
  -1   7 -11    0.82    0.21
   1  -7  11    1.08    0.18
   1  -7  11    0.97    0.19
  -2   7 -11    1.97    0.27
  -2   7 -11    2.96    0.29
  -2   7 -11    3.13    0.37
   2  -7  11    2.69    0.22
  -3   7 -11    2.14    0.29
  -3   7 -11    2.31    0.27
  -3   7 -11    1.96    0.28
  -4   7 -11    1.12    0.25
  -4   7 -11    1.13    0.21
  -4   7 -11    0.64    0.18
  -5   7 -11    0.68    0.21
  -5   7 -11    0.31    0.15
  -5   7 -11    0.44    0.16
  -4  -6  11    4.70    0.41
  -4  -6  11    5.16    0.44
  -4  -6  11    5.23    0.42
   3   6 -11    0.60    0.15
  -3  -6  11    0.56    0.19
  -3  -6  11    0.45    0.18
  -3  -6  11    0.28    0.18
   2   6 -11    2.76    0.22
   2   6 -11    3.05    0.32
   2   6 -11    2.86    0.33
  -2  -6  11    2.69    0.28
  -2  -6  11    2.28    0.26
  -2  -6  11    2.51    0.28
   1   6 -11    0.27    0.13
   1   6 -11    0.38    0.15
  -1  -6  11    0.15    0.14
  -1  -6  11    0.34    0.15
  -1  -6  11    0.18    0.13
   0   6 -11   10.62    0.50
   0   6 -11    9.72    0.47
   0  -6  11    9.77    0.33
   0  -6  11   10.37    0.39
   0  -6  11    9.70    0.44
  -1   6 -11    3.25    0.29
  -1   6 -11    3.31    0.29
   1  -6  11    3.10    0.25
   1  -6  11    3.08    0.23
  -2   6 -11    3.63    0.27
  -2   6 -11    3.74    0.32
  -2   6 -11    4.40    0.33
  -2   6 -11    3.76    0.20
   2  -6  11    4.10    0.24
  -3   6 -11    1.18    0.22
  -3   6 -11    1.33    0.18
  -3   6 -11    1.54    0.24
  -3   6 -11    1.86    0.23
  -4   6 -11    0.46    0.16
  -4   6 -11    0.68    0.17
  -4   6 -11    0.63    0.17
  -4   6 -11    0.90    0.17
  -5   6 -11    0.06    0.12
  -5   6 -11    0.21    0.15
  -5   6 -11   -0.09    0.12
  -5  -5  11    0.96    0.26
  -5  -5  11    0.91    0.26
  -5  -5  11    1.02    0.26
   4   5 -11    3.11    0.30
  -4  -5  11    4.02    0.39
  -4  -5  11    4.05    0.40
  -4  -5  11    4.16    0.37
   3   5 -11    5.73    0.31
   3   5 -11    5.73    0.36
  -3  -5  11    5.36    0.36
  -3  -5  11    5.21    0.37
  -3  -5  11    5.71    0.40
   2   5 -11    9.42    0.35
   2   5 -11    9.69    0.46
   2   5 -11    9.25    0.44
  -2  -5  11    8.61    0.44
  -2  -5  11    9.38    0.46
  -2  -5  11   10.47    0.43
   1   5 -11    3.49    0.27
   1   5 -11    3.44    0.28
  -1  -5  11    2.72    0.26
  -1  -5  11    2.64    0.26
  -1  -5  11    3.18    0.23
   0   5 -11   19.65    0.56
   0   5 -11   19.77    0.67
   0   5 -11   20.01    0.66
   0  -5  11   19.67    0.60
   0  -5  11   20.66    0.54
   0  -5  11   20.01    0.60
   0  -5  11   20.09    0.49
  -1   5 -11    2.29    0.26
  -1   5 -11    2.44    0.28
  -1   5 -11    2.32    0.16
   1  -5  11    2.26    0.21
   1  -5  11    2.13    0.17
  -2   5 -11   13.89    0.48
  -2   5 -11   12.68    0.38
  -2   5 -11   13.55    0.52
  -2   5 -11   13.02    0.38
  -2   5 -11   13.29    0.54
  -3   5 -11    0.07    0.10
  -3   5 -11    0.07    0.11
  -3   5 -11    0.41    0.14
  -3   5 -11    0.17    0.09
  -4   5 -11    0.74    0.18
  -4   5 -11    0.89    0.17
  -4   5 -11    0.75    0.15
  -4   5 -11    0.87    0.17
  -5   5 -11    0.30    0.15
  -5   5 -11    0.31    0.13
  -5  -4  11    0.40    0.20
  -5  -4  11    0.02    0.16
  -5  -4  11    0.09    0.19
   4   4 -11    0.62    0.14
  -4  -4  11    0.90    0.23
  -4  -4  11    0.81    0.19
  -4  -4  11    0.87    0.22
   3   4 -11    8.09    0.39
   3   4 -11    8.62    0.40
   3   4 -11    8.41    0.35
  -3  -4  11    8.65    0.44
  -3  -4  11    8.94    0.44
  -3  -4  11    8.57    0.44
  -3  -4  11    8.59    0.28
   2   4 -11    1.69    0.22
   2   4 -11    1.27    0.20
   2   4 -11    1.46    0.14
  -2  -4  11    1.63    0.21
  -2  -4  11    1.36    0.20
  -2  -4  11    1.95    0.23
   1   4 -11    1.87    0.23
   1   4 -11    2.01    0.22
   1   4 -11    1.92    0.24
  -1  -4  11    2.19    0.23
  -1  -4  11    2.08    0.18
  -1  -4  11    2.38    0.22
   0   4 -11   25.69    0.62
   0   4 -11   25.73    0.74
   0   4 -11   25.95    0.75
   0  -4  11   26.06    0.56
   0  -4  11   24.77    0.67
   0  -4  11   25.62    0.67
   0  -4  11   25.38    0.58
  -1   4 -11   10.18    0.42
  -1   4 -11   10.01    0.43
   1  -4  11   10.16    0.35
  -2   4 -11    0.68    0.13
  -2   4 -11    0.68    0.12
  -2   4 -11    0.73    0.16
  -2   4 -11    0.66    0.12
  -2   4 -11    0.62    0.10
  -3   4 -11    1.68    0.19
  -3   4 -11    2.08    0.16
  -3   4 -11    2.21    0.25
  -3   4 -11    2.44    0.22
  -3   4 -11    1.91    0.20
  -4   4 -11    2.43    0.25
  -4   4 -11    1.77    0.19
  -4   4 -11    1.61    0.19
  -4   4 -11    2.10    0.24
  -5   4 -11    0.12    0.10
  -5   4 -11    0.23    0.15
  -6  -3  11    0.22    0.26
  -6  -3  11    0.33    0.20
  -6  -3  11    0.38    0.20
  -5  -3  11    0.51    0.23
  -5  -3  11    0.61    0.22
  -5  -3  11    0.77    0.21
   4   3 -11    1.46    0.19
  -4  -3  11    2.13    0.30
  -4  -3  11    1.42    0.18
  -4  -3  11    1.69    0.24
  -4  -3  11    1.71    0.26
   3   3 -11   48.24    1.14
   3   3 -11   48.28    1.03
   3   3 -11   47.49    1.11
  -3  -3  11   50.37    1.20
  -3  -3  11   48.25    1.16
  -3  -3  11   47.70    1.01
  -3  -3  11   50.29    1.19
   2   3 -11    1.80    0.20
   2   3 -11    1.51    0.20
   2   3 -11    1.47    0.12
  -2  -3  11    1.82    0.20
  -2  -3  11    1.92    0.23
  -2  -3  11    1.53    0.19
   1   3 -11    2.80    0.22
   1   3 -11    2.69    0.23
  -1  -3  11    2.44    0.16
  -1  -3  11    2.64    0.17
  -1  -3  11    2.56    0.20
  -1  -3  11    2.30    0.21
   0   3 -11   28.28    0.76
   0   3 -11   27.19    0.75
   0  -3  11   27.99    0.57
   0  -3  11   26.94    0.68
   0  -3  11   26.87    0.68
   0  -3  11   28.15    0.58
  -1   3 -11   43.40    1.01
  -1   3 -11   45.01    0.96
  -1   3 -11   43.30    0.98
  -1   3 -11   45.39    1.06
   1  -3  11   43.61    0.91
   1  -3  11   44.12    0.91
  -2   3 -11   24.66    0.73
  -2   3 -11   24.70    0.66
  -2   3 -11   24.69    0.51
  -2   3 -11   25.38    0.63
  -3   3 -11   27.11    0.78
  -3   3 -11   26.93    0.65
  -3   3 -11   25.57    0.63
  -3   3 -11   25.66    0.67
  -3   3 -11   26.76    0.69
  -4   3 -11    1.13    0.18
  -4   3 -11    1.37    0.16
  -4   3 -11    1.04    0.20
  -5   3 -11    0.27    0.17
  -5   3 -11    0.50    0.12
  -5   3 -11    0.07    0.14
  -6  -2  11    1.19    0.35
  -6  -2  11    1.18    0.24
  -6  -2  11    0.69    0.22
  -5  -2  11    2.45    0.29
  -5  -2  11    2.98    0.39
  -5  -2  11    2.34    0.30
  -5  -2  11    3.25    0.41
   4   2 -11    0.58    0.12
  -4  -2  11    0.75    0.21
  -4  -2  11    0.55    0.18
  -4  -2  11    0.35    0.15
   3   2 -11   46.60    1.08
   3   2 -11   46.77    1.04
  -3  -2  11   46.53    1.13
  -3  -2  11   46.70    1.10
  -3  -2  11   47.61    1.18
  -3  -2  11   45.59    1.03
   2   2 -11   14.76    0.48
   2   2 -11   15.12    0.52
  -2  -2  11   15.92    0.49
  -2  -2  11   15.01    0.52
  -2  -2  11   15.14    0.51
  -2  -2  11   15.08    0.50
   1   2 -11   31.02    0.80
   1   2 -11   31.48    0.78
  -1  -2  11   30.69    0.67
  -1  -2  11   31.40    0.78
  -1  -2  11   29.77    0.75
  -1  -2  11   30.45    0.69
  -1  -2  11   31.09    0.77
   0   2 -11    2.37    0.20
   0   2 -11    2.54    0.20
   0   2 -11    2.55    0.11
   0  -2  11    2.46    0.12
   0  -2  11    2.25    0.17
   0  -2  11    2.61    0.18
   0  -2  11    2.65    0.25
  -1   2 -11    5.29    0.26
  -1   2 -11    4.71    0.24
  -1   2 -11    5.00    0.18
  -1   2 -11    4.92    0.28
  -1   2 -11    4.97    0.22
   1  -2  11    4.95    0.21
   1  -2  11    4.78    0.21
   1  -2  11    5.09    0.21
   1  -2  11    4.82    0.22
  -2   2 -11    0.62    0.11
  -2   2 -11    0.99    0.13
  -2   2 -11    0.76    0.14
   2  -2  11    0.87    0.11
   2  -2  11    1.03    0.14
  -3   2 -11    5.80    0.35
  -3   2 -11    6.25    0.27
   3  -2  11    5.90    0.26
  -4   2 -11    0.52    0.16
  -4   2 -11    0.80    0.20
  -4   2 -11    0.80    0.17
  -5   2 -11    4.79    0.34
  -5   2 -11    4.71    0.36
  -6   2 -11   -0.07    0.24
  -6  -1  11    1.88    0.28
  -6  -1  11    1.12    0.25
  -6  -1  11    1.67    0.37
  -5  -1  11    1.77    0.33
  -5  -1  11    1.16    0.23
  -5  -1  11    1.65    0.25
   4   1 -11    5.30    0.24
  -4  -1  11    5.98    0.35
  -4  -1  11    6.50    0.45
  -4  -1  11    6.07    0.39
   3   1 -11    2.86    0.22
   3   1 -11    2.74    0.18
  -3  -1  11    3.00    0.32
  -3  -1  11    2.73    0.23
  -3  -1  11    2.46    0.15
  -3  -1  11    2.81    0.27
  -3  -1  11    2.67    0.19
   2   1 -11   20.51    0.61
   2   1 -11   19.40    0.54
  -2  -1  11   19.76    0.50
  -2  -1  11   20.29    0.62
  -2  -1  11   20.31    0.61
  -2  -1  11   20.26    0.56
  -2  -1  11   19.71    0.58
   1   1 -11   12.16    0.41
   1   1 -11   12.25    0.43
  -1  -1  11   11.83    0.41
  -1  -1  11   11.78    0.37
  -1  -1  11   12.07    0.33
  -1  -1  11   11.00    0.41
  -1  -1  11   11.97    0.40
   0   1 -11   21.50    0.60
   0   1 -11   22.15    0.51
   0   1 -11   22.37    0.62
   0  -1  11   22.45    0.62
   0  -1  11   22.16    0.56
   0  -1  11   22.61    0.46
   0  -1  11   21.82    0.57
  -1   1 -11    2.43    0.15
  -1   1 -11    1.94    0.17
  -1   1 -11    2.52    0.21
  -1   1 -11    2.16    0.12
  -1   1 -11    2.23    0.18
   1  -1  11    2.32    0.15
   1  -1  11    2.52    0.15
   1  -1  11    2.42    0.14
   1  -1  11    2.19    0.14
   1  -1  11    2.50    0.16
  -2   1 -11   17.14    0.47
  -2   1 -11   17.59    0.48
  -2   1 -11   17.75    0.58
   2  -1  11   17.47    0.43
   2  -1  11   17.60    0.52
   2  -1  11   17.16    0.55
  -3   1 -11    9.54    0.45
   3  -1  11    9.03    0.29
   3  -1  11    9.08    0.44
   3  -1  11    8.53    0.40
  -4   1 -11   10.16    0.39
  -4   1 -11   10.20    0.50
   4  -1  11    9.68    0.52
  -5   1 -11    4.91    0.32
  -5   1 -11    4.88    0.39
  -6   1 -11    0.18    0.17
  -6   0  11   -0.19    0.15
  -6   0  11   -0.34    0.15
  -6   0  11   -0.32    0.20
  -5   0  11    2.76    0.29
  -5   0  11    2.32    0.29
   4   0 -11    6.49    0.23
  -4   0  11    6.65    0.36
  -4   0  11    6.74    0.40
   3   0 -11   13.24    0.46
   3   0 -11   13.30    0.39
  -3   0  11   12.67    0.38
  -3   0  11   13.02    0.46
  -3   0  11   13.47    0.52
   2   0 -11   19.41    0.52
   2   0 -11   19.38    0.58
  -2   0  11   19.88    0.56
  -2   0  11   19.94    0.49
  -2   0  11   20.01    0.61
  -2   0  11   19.08    0.41
   1   0 -11    3.86    0.24
   1   0 -11    3.74    0.22
  -1   0  11    3.22    0.23
  -1   0  11    3.28    0.21
  -1   0  11    3.27    0.16
   0   0 -11    4.68    0.19
   0   0 -11    4.47    0.25
   0   0 -11    4.87    0.26
   0   0  11    4.52    0.23
   0   0  11    4.56    0.17
   0   0  11    4.24    0.21
  -1   0 -11    2.41    0.21
  -1   0 -11    2.42    0.18
  -1   0 -11    2.50    0.12
   1   0  11    2.14    0.16
   1   0  11    2.40    0.14
   1   0  11    2.22    0.14
  -2   0 -11    1.49    0.20
  -2   0 -11    1.84    0.16
   2   0  11    1.85    0.12
   2   0  11    1.68    0.18
   2   0  11    2.02    0.22
  -3   0 -11   16.73    0.61
  -3   0 -11   16.48    0.46
  -3   0 -11   17.27    0.44
   3   0  11   17.55    0.60
   3   0  11   17.88    0.65
   3   0  11   17.94    0.40
  -4   0 -11   17.44    0.66
  -4   0 -11   18.01    0.52
   4   0  11   17.42    0.73
  -5   0 -11    1.37    0.21
  -5   0 -11    0.71    0.21
   5   0  11    1.05    0.26
  -6   0 -11   -0.04    0.16
   6   0  11    0.11    0.17
  -6   1  11    1.11    0.26
  -6   1  11    1.55    0.25
  -5   1  11    0.84    0.21
  -5   1  11    0.94    0.20
  -4   1  11    3.18    0.27
  -4   1  11    2.96    0.21
  -4   1  11    2.89    0.30
   3  -1 -11   10.05    0.32
   3  -1 -11   10.64    0.41
  -3   1  11   11.77    0.49
  -3   1  11   10.78    0.35
  -3   1  11   10.72    0.42
  -3   1  11   11.42    0.38
   2  -1 -11    2.16    0.20
   2  -1 -11    2.32    0.17
  -2   1  11    2.25    0.22
  -2   1  11    2.08    0.22
  -2   1  11    1.90    0.15
   1  -1 -11    7.14    0.31
   1  -1 -11    7.53    0.33
   1  -1 -11    7.79    0.26
  -1   1  11    7.49    0.30
  -1   1  11    7.42    0.34
  -1   1  11    7.43    0.25
   0  -1 -11   11.64    0.41
   0  -1 -11   11.95    0.43
   0  -1 -11   11.81    0.32
   0   1  11   10.80    0.32
   0   1  11   11.25    0.36
   0   1  11   11.11    0.39
   0   1  11   11.26    0.30
  -1  -1 -11    4.10    0.16
  -1  -1 -11    3.56    0.23
   1   1  11    4.22    0.23
   1   1  11    3.99    0.18
   1   1  11    4.07    0.20
  -2  -1 -11    2.50    0.19
  -2  -1 -11    2.59    0.14
   2   1  11    2.88    0.21
   2   1  11    2.41    0.12
   2   1  11    2.59    0.22
   2   1  11    2.60    0.16
  -3  -1 -11    5.82    0.25
  -3  -1 -11    5.44    0.27
   3   1  11    6.13    0.34
   3   1  11    6.00    0.38
  -4  -1 -11    2.81    0.22
   4   1  11    2.83    0.31
   4   1  11    2.49    0.33
  -5  -1 -11    2.25    0.25
  -5  -1 -11    1.69    0.28
   5   1  11    2.12    0.34
  -6  -1 -11    0.75    0.24
   6   1  11    0.60    0.26
  -6   2  11    2.34    0.30
  -6   2  11    2.26    0.33
  -5   2  11    3.16    0.32
  -5   2  11    2.48    0.32
  -4   2  11   12.59    0.56
  -4   2  11   11.07    0.38
  -4   2  11   10.94    0.46
   3  -2 -11    5.36    0.23
   3  -2 -11    5.80    0.31
  -3   2  11    4.97    0.30
  -3   2  11    5.52    0.36
  -3   2  11    5.54    0.25
   2  -2 -11   14.36    0.44
   2  -2 -11   14.77    0.50
  -2   2  11   14.67    0.47
  -2   2  11   14.34    0.53
   1  -2 -11    6.67    0.25
   1  -2 -11    7.22    0.34
  -1   2  11    6.81    0.34
  -1   2  11    6.78    0.29
  -1   2  11    6.69    0.27
   0  -2 -11    4.41    0.19
   0   2  11    3.94    0.19
   0   2  11    4.38    0.22
   0   2  11    4.34    0.25
  -1  -2 -11    2.23    0.22
  -1  -2 -11    1.78    0.14
   1   2  11    1.74    0.12
   1   2  11    1.70    0.15
   1   2  11    2.06    0.17
   1   2  11    1.90    0.14
  -2  -2 -11    7.45    0.33
  -2  -2 -11    7.60    0.28
   2   2  11    7.91    0.35
   2   2  11    7.54    0.30
   2   2  11    7.92    0.38
  -3  -2 -11    0.32    0.11
   3   2  11    0.28    0.13
   3   2  11    0.34    0.13
  -4  -2 -11    1.64    0.20
   4   2  11    1.76    0.28
   4   2  11    1.38    0.23
  -5  -2 -11    2.72    0.26
   5   2  11    2.02    0.34
  -6  -2 -11    0.58    0.25
   6   2  11    1.29    0.35
  -6   3  11    2.45    0.30
  -6   3  11    2.62    0.36
  -5   3  11    0.18    0.17
  -5   3  11    0.39    0.16
  -4   3  11    0.77    0.21
  -4   3  11    0.93    0.15
  -4   3  11    0.56    0.17
   3  -3 -11    9.64    0.42
   3  -3 -11    9.33    0.33
  -3   3  11   10.19    0.50
  -3   3  11    9.23    0.34
  -3   3  11    9.64    0.41
   2  -3 -11   17.22    0.57
  -2   3  11   17.04    0.53
  -2   3  11   15.97    0.44
  -2   3  11   16.41    0.60
   1  -3 -11   45.89    0.93
  -1   3  11   44.82    1.10
  -1   3  11   46.10    1.01
   0  -3 -11   18.43    0.46
   0   3  11   17.38    0.50
   0   3  11   18.75    0.58
   0   3  11   17.29    0.49
  -1  -3 -11    1.72    0.17
   1   3  11    1.46    0.18
   1   3  11    1.32    0.18
   1   3  11    1.55    0.17
   1   3  11    1.16    0.14
  -2  -3 -11    7.48    0.32
  -2  -3 -11    7.18    0.38
   2   3  11    7.78    0.39
  -3  -3 -11   -0.02    0.09
   3   3  11   -0.02    0.09
   3   3  11   -0.05    0.11
  -4  -3 -11    0.52    0.16
   4   3  11    0.51    0.18
  -5  -3 -11    0.40    0.16
   5   3  11    0.47    0.22
  -6   4  11    1.81    0.32
  -6   4  11    2.26    0.30
  -5   4  11    2.58    0.36
  -5   4  11    2.12    0.27
  -4   4  11    3.35    0.37
  -4   4  11    3.27    0.30
   3  -4 -11   15.17    0.55
  -3   4  11   16.13    0.66
  -3   4  11   15.97    0.55
  -3   4  11   15.87    0.47
   2  -4 -11   23.83    0.73
  -2   4  11   22.84    0.77
  -2   4  11   23.30    0.66
   1  -4 -11    7.82    0.29
  -1   4  11    7.80    0.34
  -1   4  11    7.92    0.41
   0  -4 -11   10.19    0.40
   0  -4 -11   10.02    0.34
   0   4  11   10.61    0.45
   0   4  11    9.76    0.37
  -1  -4 -11    2.23    0.21
   1   4  11    2.11    0.23
   1   4  11    2.11    0.17
  -2  -4 -11   12.71    0.46
   2   4  11   12.74    0.33
   2   4  11   13.93    0.56
  -3  -4 -11    2.07    0.24
   3   4  11    1.63    0.27
   3   4  11    1.62    0.24
  -4  -4 -11    0.97    0.20
   4   4  11    0.88    0.23
  -5  -4 -11    0.40    0.18
   5   4  11    0.59    0.26
  -5   5  11    0.25    0.17
  -5   5  11   -0.09    0.17
  -4   5  11    0.24    0.17
  -4   5  11    0.48    0.16
   3  -5 -11    1.37    0.27
  -3   5  11    1.81    0.29
  -3   5  11    1.58    0.21
   2  -5 -11    2.07    0.16
  -2   5  11    1.90    0.22
  -2   5  11    2.18    0.29
   1  -5 -11    2.14    0.17
  -1   5  11    1.94    0.22
  -1   5  11    1.74    0.25
   0  -5 -11    5.11    0.32
   0  -5 -11    5.29    0.26
   0   5  11    5.79    0.30
   0   5  11    5.41    0.35
  -1  -5 -11    1.47    0.21
   1   5  11    1.03    0.15
   1   5  11    1.44    0.22
  -2  -5 -11    4.54    0.31
   2   5  11    5.00    0.20
   2   5  11    5.40    0.38
  -3  -5 -11    2.33    0.28
   3   5  11    2.94    0.35
  -4  -5 -11    1.24    0.24
   4   5  11    1.41    0.30
  -5   6  11    2.38    0.29
  -5   6  11    2.37    0.38
  -4   6  11    0.54    0.22
  -4   6  11    0.75    0.18
  -3   6  11    0.03    0.10
  -3   6  11    0.12    0.17
   2  -6 -11    2.34    0.18
  -2   6  11    2.07    0.31
  -2   6  11    2.27    0.25
   1  -6 -11    7.85    0.32
  -1   6  11    7.53    0.37
  -1   6  11    7.39    0.45
   0  -6 -11    3.20    0.32
   0   6  11    2.94    0.24
   0   6  11    2.95    0.33
  -1  -6 -11    8.46    0.43
   1   6  11    8.42    0.34
  -2  -6 -11    2.46    0.29
   2   6  11    2.56    0.32
  -3  -6 -11    1.36    0.25
   3   6  11    2.03    0.34
  -4  -6 -11    0.06    0.17
   4   6  11    0.11    0.18
  -4   7  11    3.11    0.42
  -4   7  11    2.54    0.30
  -3   7  11    0.46    0.15
  -3   7  11    0.76    0.23
   2  -7 -11    0.33    0.10
  -2   7  11    0.43    0.15
  -2   7  11    0.46    0.20
  -1   7  11    1.67    0.30
  -1   7  11    2.25    0.26
   0  -7 -11    2.83    0.32
   0   7  11    2.40    0.26
   0   7  11    2.39    0.33
   0   7  11    2.54    0.25
  -1  -7 -11    5.18    0.37
   1   7  11    4.92    0.27
  -2  -7 -11    3.31    0.36
   2   7  11    3.67    0.41
  -3  -7 -11    1.01    0.24
   3   7  11    0.95    0.26
  -4   8  11    1.49    0.26
  -4   8  11    1.88    0.35
  -3   8  11   -0.03    0.12
  -3   8  11   -0.11    0.15
  -2   8  11    0.27    0.14
  -2   8  11    0.12    0.14
  -2   8  11    0.17    0.17
  -1   8  11    2.12    0.27
  -1   8  11    1.87    0.24
  -1   8  11    1.65    0.30
   0  -8 -11    0.70    0.21
   0   8  11    0.94    0.18
  -1  -8 -11    0.22    0.18
  -2  -8 -11    6.23    0.45
   2   8  11    6.56    0.51
  -2   9  11    0.06    0.19
  -2   9  11    0.05    0.13
  -2   9  11   -0.05    0.14
  -1   9  11    3.41    0.35
  -1   9  11    3.63    0.35
   0  -9 -11    2.22    0.33
   0   9  11    2.16    0.28
  -1  10 -12    1.26    0.33
   1 -10  12    1.49    0.26
  -2  -9  12    0.44    0.23
  -2  -9  12    0.97    0.25
   1   9 -12    9.56    0.58
  -1  -9  12    8.83    0.55
  -1  -9  12    9.88    0.51
   0   9 -12    0.30    0.20
   0   9 -12    0.49    0.19
   0  -9  12    0.22    0.16
   0  -9  12    0.21    0.19
  -1   9 -12    2.59    0.35
  -1   9 -12    2.42    0.38
   1  -9  12    2.55    0.32
   1  -9  12    2.65    0.29
  -2   9 -12    1.64    0.25
  -2   9 -12    1.46    0.30
  -2   9 -12    1.73    0.29
  -3   9 -12    1.01    0.25
  -3   9 -12    1.52    0.32
  -3   9 -12    0.74    0.20
  -3  -8  12    0.80    0.26
  -3  -8  12    0.78    0.23
  -3  -8  12    1.41    0.27
   2   8 -12    2.69    0.36
  -2  -8  12    2.24    0.32
  -2  -8  12    2.80    0.34
   1   8 -12    0.60    0.20
   1   8 -12    0.37    0.17
  -1  -8  12    0.36    0.18
  -1  -8  12    0.35    0.18
   0   8 -12    3.07    0.36
   0   8 -12    2.80    0.34
   0  -8  12    3.07    0.21
   0  -8  12    3.58    0.38
   0  -8  12    3.03    0.31
  -1   8 -12    5.99    0.44
  -1   8 -12    6.98    0.48
   1  -8  12    6.00    0.35
   1  -8  12    6.21    0.39
  -2   8 -12    2.22    0.30
  -2   8 -12    2.43    0.29
  -2   8 -12    2.68    0.35
   2  -8  12    2.33    0.24
  -3   8 -12    0.51    0.18
  -3   8 -12    0.37    0.19
  -3   8 -12    0.29    0.15
  -4   8 -12    0.40    0.19
  -4   8 -12    0.23    0.17
  -4   8 -12    0.35    0.15
  -4  -7  12    2.02    0.33
  -4  -7  12    1.64    0.30
  -4  -7  12    1.83    0.34
  -3  -7  12    0.86    0.22
  -3  -7  12    0.44    0.20
  -3  -7  12    0.79    0.22
   2   7 -12    2.67    0.33
   2   7 -12    2.76    0.24
   2   7 -12    2.43    0.41
  -2  -7  12    2.56    0.31
  -2  -7  12    2.32    0.28
  -2  -7  12    2.63    0.33
   1   7 -12    4.18    0.35
   1   7 -12    4.22    0.35
  -1  -7  12    4.13    0.32
  -1  -7  12    4.11    0.35
   0   7 -12    2.60    0.35
   0   7 -12    1.76    0.27
   0  -7  12    2.17    0.28
   0  -7  12    2.28    0.25
   0  -7  12    1.92    0.17
  -1   7 -12    4.58    0.36
  -1   7 -12    4.84    0.39
   1  -7  12    4.70    0.33
   1  -7  12    4.94    0.29
  -2   7 -12    1.92    0.23
  -2   7 -12    1.21    0.23
  -2   7 -12    1.69    0.26
   2  -7  12    1.96    0.21
  -3   7 -12    1.05    0.19
  -3   7 -12    1.04    0.24
  -3   7 -12    0.65    0.18
  -4   7 -12    0.63    0.19
  -4   7 -12    0.34    0.17
  -4   7 -12    0.52    0.15
  -5   7 -12    0.43    0.21
  -5   7 -12    0.58    0.17
  -5   7 -12    0.45    0.19
  -4  -6  12    1.67    0.30
  -4  -6  12    2.14    0.33
  -4  -6  12    1.95    0.31
   3   6 -12    1.03    0.18
   3   6 -12    0.65    0.18
  -3  -6  12    1.19    0.23
  -3  -6  12    0.61    0.21
  -3  -6  12    0.54    0.19
   2   6 -12    5.46    0.37
   2   6 -12    5.46    0.28
   2   6 -12    5.30    0.37
  -2  -6  12    5.34    0.38
  -2  -6  12    4.75    0.37
  -2  -6  12    5.74    0.35
   1   6 -12    1.39    0.23
   1   6 -12    0.96    0.22
  -1  -6  12    1.07    0.22
  -1  -6  12    1.44    0.20
  -1  -6  12    1.21    0.22
   0   6 -12    6.02    0.38
   0   6 -12    5.29    0.38
   0  -6  12    5.85    0.24
   0  -6  12    5.67    0.29
   0  -6  12    6.05    0.35
  -1   6 -12   13.88    0.58
  -1   6 -12   15.25    0.61
   1  -6  12   14.74    0.51
   1  -6  12   14.57    0.46
  -2   6 -12    7.76    0.38
  -2   6 -12    7.92    0.44
  -2   6 -12    7.45    0.43
  -2   6 -12    7.32    0.26
  -3   6 -12    1.72    0.25
  -3   6 -12    2.40    0.28
  -3   6 -12    2.65    0.26
  -3   6 -12    2.83    0.21
  -4   6 -12    1.88    0.23
  -4   6 -12    1.95    0.27
  -4   6 -12    1.76    0.26
  -5   6 -12   -0.17    0.12
  -5   6 -12   -0.01    0.12
  -5   6 -12    0.03    0.13
  -5  -5  12    0.48    0.24
  -5  -5  12    0.04    0.20
  -5  -5  12    0.22    0.21
  -4  -5  12    6.19    0.44
  -4  -5  12    6.31    0.43
  -4  -5  12    6.10    0.45
   3   5 -12    2.04    0.27
   3   5 -12    1.49    0.19
  -3  -5  12    1.97    0.29
  -3  -5  12    2.34    0.28
  -3  -5  12    2.08    0.28
   2   5 -12    3.35    0.35
   2   5 -12    3.30    0.28
   2   5 -12    2.80    0.19
  -2  -5  12    3.03    0.32
  -2  -5  12    2.54    0.28
  -2  -5  12    2.60    0.25
   1   5 -12    3.11    0.29
   1   5 -12    2.93    0.29
  -1  -5  12    2.90    0.22
  -1  -5  12    2.63    0.27
  -1  -5  12    2.92    0.28
   0   5 -12   25.45    0.80
   0   5 -12   25.60    0.68
   0   5 -12   25.49    0.79
   0  -5  12   27.32    0.59
   0  -5  12   25.22    0.72
   0  -5  12   27.04    0.64
   0  -5  12   25.92    0.72
  -1   5 -12    9.65    0.32
  -1   5 -12    9.69    0.45
  -1   5 -12    9.81    0.46
   1  -5  12   10.07    0.38
   1  -5  12    9.41    0.32
  -2   5 -12   41.46    0.87
  -2   5 -12   42.83    1.08
  -2   5 -12   43.78    1.12
  -2   5 -12   41.80    0.87
  -3   5 -12    1.66    0.23
  -3   5 -12    2.06    0.22
  -3   5 -12    1.78    0.18
  -3   5 -12    1.76    0.24
  -4   5 -12    0.68    0.16
  -4   5 -12    0.46    0.17
  -4   5 -12    0.90    0.16
  -4   5 -12    0.66    0.16
  -5   5 -12    0.07    0.12
  -5   5 -12    0.10    0.12
  -5   5 -12   -0.15    0.11
  -5  -4  12    0.85    0.24
  -5  -4  12    0.66    0.25
  -5  -4  12    0.64    0.23
   4   4 -12    5.91    0.41
  -4  -4  12    6.32    0.43
  -4  -4  12    6.16    0.41
  -4  -4  12    5.99    0.43
   3   4 -12    1.88    0.17
   3   4 -12    2.02    0.24
   3   4 -12    1.95    0.30
  -3  -4  12    1.43    0.23
  -3  -4  12    1.56    0.23
  -3  -4  12    2.03    0.26
   2   4 -12   53.07    1.24
   2   4 -12   51.40    1.03
   2   4 -12   54.02    1.27
  -2  -4  12   53.64    1.24
  -2  -4  12   51.52    1.16
  -2  -4  12   49.95    1.22
   1   4 -12    4.71    0.30
   1   4 -12    4.36    0.30
  -1  -4  12    5.19    0.31
  -1  -4  12    4.64    0.24
  -1  -4  12    4.74    0.29
   0   4 -12    3.47    0.27
   0   4 -12    3.03    0.26
   0   4 -12    3.18    0.19
   0  -4  12    3.07    0.16
   0  -4  12    2.87    0.23
   0  -4  12    3.05    0.18
   0  -4  12    3.02    0.23
  -1   4 -12    1.52    0.21
  -1   4 -12    1.73    0.18
  -1   4 -12    1.65    0.22
   1  -4  12    1.78    0.18
  -2   4 -12   16.54    0.56
  -2   4 -12   15.79    0.52
  -2   4 -12   16.27    0.59
  -3   4 -12    4.09    0.25
  -3   4 -12    3.11    0.22
  -3   4 -12    3.56    0.30
  -4   4 -12    0.78    0.17
  -4   4 -12    0.58    0.15
  -4   4 -12    0.77    0.16
  -4   4 -12    0.61    0.13
  -5   4 -12    0.11    0.14
  -5   4 -12    0.00    0.09
  -5  -3  12    1.90    0.33
  -5  -3  12    1.79    0.27
  -5  -3  12    1.42    0.27
   4   3 -12    1.78    0.22
   4   3 -12    1.61    0.19
  -4  -3  12    1.54    0.25
  -4  -3  12    1.43    0.23
  -4  -3  12    1.51    0.28
   3   3 -12    2.02    0.23
   3   3 -12    2.65    0.29
   3   3 -12    2.01    0.16
  -3  -3  12    2.07    0.25
  -3  -3  12    2.52    0.29
  -3  -3  12    2.31    0.26
   2   3 -12   21.86    0.68
   2   3 -12   21.84    0.65
  -2  -3  12   20.97    0.67
  -2  -3  12   21.00    0.62
   1   3 -12    7.60    0.37
   1   3 -12    7.31    0.35
  -1  -3  12    7.37    0.28
  -1  -3  12    7.61    0.35
  -1  -3  12    7.45    0.35
  -1  -3  12    7.47    0.28
   0   3 -12    3.62    0.26
   0   3 -12    3.54    0.16
   0   3 -12    3.45    0.26
   0  -3  12    4.11    0.24
   0  -3  12    4.16    0.24
   0  -3  12    4.24    0.17
   0  -3  12    3.67    0.14
  -1   3 -12    6.73    0.28
  -1   3 -12    6.67    0.33
  -1   3 -12    6.62    0.35
   1  -3  12    7.16    0.28
   1  -3  12    6.80    0.27
  -2   3 -12    8.24    0.36
  -2   3 -12    7.63    0.24
  -2   3 -12    7.83    0.32
  -2   3 -12    7.77    0.39
  -3   3 -12   11.22    0.49
  -3   3 -12   10.88    0.41
  -4   3 -12    5.25    0.30
  -4   3 -12    6.14    0.39
  -5   3 -12    0.37    0.16
  -6  -2  12    0.17    0.19
  -6  -2  12    0.41    0.27
  -6  -2  12    0.30    0.20
  -5  -2  12    2.45    0.38
  -5  -2  12    2.11    0.28
  -5  -2  12    1.65    0.28
   4   2 -12    2.20    0.21
  -4  -2  12    2.05    0.26
  -4  -2  12    2.40    0.33
  -4  -2  12    1.56    0.24
   3   2 -12    5.69    0.32
   3   2 -12    5.65    0.29
  -3  -2  12    5.80    0.31
  -3  -2  12    5.64    0.38
  -3  -2  12    6.01    0.37
  -3  -2  12    6.28    0.35
   2   2 -12   24.96    0.73
   2   2 -12   24.74    0.67
  -2  -2  12   24.75    0.72
  -2  -2  12   24.01    0.68
  -2  -2  12   24.02    0.68
  -2  -2  12   24.42    0.69
   1   2 -12    3.59    0.23
   1   2 -12    3.49    0.25
  -1  -2  12    3.39    0.19
  -1  -2  12    3.01    0.22
  -1  -2  12    3.40    0.24
  -1  -2  12    3.39    0.18
  -1  -2  12    3.15    0.27
   0   2 -12    2.27    0.21
   0   2 -12    2.20    0.10
   0   2 -12    2.40    0.21
   0  -2  12    2.02    0.18
   0  -2  12    2.28    0.12
   0  -2  12    2.12    0.18
  -1   2 -12    0.94    0.15
  -1   2 -12    0.86    0.11
  -1   2 -12    1.22    0.17
  -1   2 -12    0.90    0.10
  -1   2 -12    0.81    0.15
   1  -2  12    0.96    0.12
   1  -2  12    0.93    0.11
   1  -2  12    0.87    0.12
  -2   2 -12    2.78    0.27
  -2   2 -12    2.89    0.19
  -2   2 -12    2.91    0.12
  -2   2 -12    2.91    0.21
   2  -2  12    2.90    0.21
   2  -2  12    2.67    0.20
  -3   2 -12   12.10    0.51
  -3   2 -12   10.59    0.36
  -3   2 -12   10.91    0.38
   3  -2  12   11.22    0.37
  -4   2 -12    8.57    0.35
  -4   2 -12    8.92    0.47
  -5   2 -12    0.61    0.19
  -6   2 -12    0.47    0.22
  -6  -1  12    0.18    0.27
  -6  -1  12   -0.24    0.15
  -6  -1  12    0.27    0.20
  -5  -1  12    0.76    0.20
  -5  -1  12    0.53    0.24
  -5  -1  12    0.31    0.17
   4   1 -12   12.30    0.39
  -4  -1  12   12.39    0.55
  -4  -1  12   13.16    0.52
  -4  -1  12   12.97    0.62
   3   1 -12    5.86    0.27
   3   1 -12    5.05    0.30
  -3  -1  12    5.46    0.35
  -3  -1  12    5.52    0.32
  -3  -1  12    6.12    0.39
  -3  -1  12    5.57    0.28
   2   1 -12    1.44    0.17
   2   1 -12    1.40    0.19
  -2  -1  12    1.62    0.18
  -2  -1  12    1.49    0.19
  -2  -1  12    1.48    0.21
  -2  -1  12    1.69    0.22
   1   1 -12   28.30    0.75
   1   1 -12   27.51    0.71
  -1  -1  12   26.77    0.65
  -1  -1  12   27.61    0.69
  -1  -1  12   26.94    0.72
  -1  -1  12   27.65    0.72
  -1  -1  12   26.93    0.60
   0   1 -12    0.62    0.09
   0   1 -12    0.40    0.11
   0   1 -12    0.43    0.12
   0  -1  12    0.61    0.11
   0  -1  12    0.39    0.10
  -1   1 -12    1.65    0.21
  -1   1 -12    1.70    0.18
  -1   1 -12    1.58    0.13
  -1   1 -12    1.93    0.18
  -1   1 -12    1.70    0.12
   1  -1  12    1.59    0.14
   1  -1  12    1.62    0.14
   1  -1  12    1.67    0.13
   1  -1  12    1.51    0.14
   1  -1  12    1.75    0.14
  -2   1 -12    3.41    0.26
  -2   1 -12    2.94    0.20
  -2   1 -12    3.49    0.21
   2  -1  12    3.47    0.22
   2  -1  12    3.05    0.23
   2  -1  12    2.95    0.17
  -3   1 -12    0.73    0.18
  -3   1 -12    0.47    0.10
   3  -1  12    0.77    0.16
   3  -1  12    0.64    0.10
   3  -1  12    0.65    0.17
  -4   1 -12    1.14    0.23
  -4   1 -12    1.22    0.16
   4  -1  12    0.76    0.20
  -5   1 -12    9.16    0.46
  -5   1 -12    9.81    0.53
  -6   1 -12    0.04    0.18
  -6   0  12    0.53    0.21
  -6   0  12    0.13    0.21
  -6   0  12    0.33    0.30
  -5   0  12    2.12    0.28
  -5   0  12    1.77    0.28
   4   0 -12    3.89    0.19
  -4   0  12    4.15    0.35
  -4   0  12    4.63    0.32
   3   0 -12   20.74    0.63
   3   0 -12   21.40    0.55
  -3   0  12   20.47    0.50
  -3   0  12   20.73    0.55
  -3   0  12   21.08    0.69
  -3   0  12   21.34    0.63
   2   0 -12   10.55    0.37
   2   0 -12   10.61    0.42
  -2   0  12   10.88    0.41
  -2   0  12   10.09    0.44
   1   0 -12    0.08    0.08
   1   0 -12    0.14    0.09
  -1   0  12    0.13    0.08
  -1   0  12    0.09    0.06
  -1   0  12    0.03    0.08
   0   0 -12    0.54    0.13
   0   0 -12    0.76    0.14
   0   0 -12    0.64    0.09
   0   0  12    0.61    0.11
   0   0  12    0.80    0.13
   0   0  12    0.77    0.09
  -1   0 -12    2.80    0.23
  -1   0 -12    2.97    0.21
  -1   0 -12    2.92    0.21
  -1   0 -12    2.65    0.14
   1   0  12    2.90    0.16
   1   0  12    2.98    0.17
   1   0  12    3.22    0.20
  -2   0 -12    2.64    0.19
  -2   0 -12    2.69    0.27
   2   0  12    2.57    0.22
   2   0  12    2.36    0.14
   2   0  12    2.36    0.19
  -3   0 -12    2.47    0.19
  -3   0 -12    2.81    0.16
  -3   0 -12    2.69    0.29
   3   0  12    2.76    0.15
   3   0  12    2.66    0.29
   3   0  12    2.24    0.24
  -4   0 -12    4.79    0.25
  -4   0 -12    4.83    0.39
   4   0  12    4.81    0.41
   4   0  12    5.06    0.36
  -5   0 -12    2.96    0.25
  -5   0 -12    3.26    0.36
   5   0  12    2.80    0.39
  -6   0 -12    0.67    0.23
   6   0  12    0.60    0.25
  -6   1  12    0.12    0.18
  -6   1  12    0.05    0.19
  -5   1  12    2.41    0.31
  -5   1  12    3.18    0.32
   4  -1 -12    3.51    0.16
  -4   1  12    3.47    0.33
  -4   1  12    3.24    0.23
  -4   1  12    3.44    0.29
   3  -1 -12    8.21    0.37
   3  -1 -12    7.19    0.28
  -3   1  12    7.49    0.30
  -3   1  12    7.66    0.37
  -3   1  12    8.51    0.43
  -3   1  12    7.92    0.31
   2  -1 -12    7.28    0.35
   2  -1 -12    8.21    0.32
  -2   1  12    7.89    0.34
  -2   1  12    8.01    0.39
   1  -1 -12   13.92    0.49
   1  -1 -12   13.93    0.39
   1  -1 -12   13.43    0.46
  -1   1  12   13.51    0.37
  -1   1  12   13.68    0.49
  -1   1  12   14.34    0.45
   0  -1 -12    8.35    0.37
   0  -1 -12    7.86    0.35
   0  -1 -12    8.04    0.27
   0   1  12    7.99    0.27
   0   1  12    8.26    0.24
   0   1  12    8.49    0.31
   0   1  12    7.72    0.33
  -1  -1 -12    2.11    0.13
  -1  -1 -12    1.89    0.20
   1   1  12    2.05    0.17
   1   1  12    1.89    0.14
   1   1  12    1.51    0.14
  -2  -1 -12    0.41    0.11
  -2  -1 -12    0.50    0.09
   2   1  12    0.51    0.13
   2   1  12    0.48    0.07
   2   1  12    0.69    0.13
  -3  -1 -12    7.10    0.27
   3   1  12    7.31    0.39
   3   1  12    7.25    0.42
  -4  -1 -12    0.27    0.19
  -4  -1 -12    0.41    0.11
   4   1  12    0.41    0.16
   4   1  12    0.10    0.16
  -5  -1 -12    1.67    0.21
  -5  -1 -12    1.63    0.29
   5   1  12    1.65    0.32
  -6  -1 -12   -0.03    0.18
   6   1  12    0.39    0.23
  -6   2  12   -0.13    0.17
  -6   2  12    0.10    0.20
  -5   2  12    0.95    0.23
  -5   2  12    1.08    0.21
  -4   2  12    0.26    0.11
  -4   2  12    0.34    0.18
  -4   2  12    0.39    0.15
   3  -2 -12    1.93    0.16
   3  -2 -12    2.07    0.24
  -3   2  12    1.99    0.26
  -3   2  12    2.04    0.18
  -3   2  12    2.22    0.24
   2  -2 -12    7.26    0.32
   2  -2 -12    7.52    0.37
  -2   2  12    7.23    0.28
  -2   2  12    7.61    0.40
  -2   2  12    7.51    0.34
   1  -2 -12   43.40    1.03
   1  -2 -12   41.20    0.86
  -1   2  12   40.30    0.88
  -1   2  12   41.62    1.02
  -1   2  12   39.84    0.93
   0  -2 -12   24.57    0.57
   0   2  12   24.66    0.61
   0   2  12   24.98    0.68
   0   2  12   23.87    0.57
  -1  -2 -12    7.62    0.26
   1   2  12    6.97    0.29
   1   2  12    7.02    0.25
   1   2  12    7.43    0.26
   1   2  12    7.26    0.33
  -2  -2 -12    1.39    0.18
  -2  -2 -12    1.78    0.15
   2   2  12    1.34    0.20
   2   2  12    1.32    0.18
   2   2  12    1.78    0.18
  -3  -2 -12    3.12    0.21
   3   2  12    3.40    0.32
   3   2  12    3.35    0.35
  -4  -2 -12    0.59    0.14
   4   2  12    0.38    0.18
  -5  -2 -12    0.29    0.14
   5   2  12    0.37    0.20
  -6   3  12    0.25    0.21
  -6   3  12    0.30    0.19
  -5   3  12    0.15    0.16
  -5   3  12    0.04    0.19
  -4   3  12    2.48    0.27
  -4   3  12    2.98    0.35
   3  -3 -12   16.24    0.56
   3  -3 -12   15.90    0.47
  -3   3  12   14.93    0.45
  -3   3  12   16.25    0.65
  -3   3  12   15.62    0.54
   2  -3 -12    3.88    0.29
  -2   3  12    3.87    0.26
  -2   3  12    3.86    0.21
  -2   3  12    3.96    0.32
   1  -3 -12    1.39    0.15
  -1   3  12    1.10    0.16
  -1   3  12    0.98    0.17
   0  -3 -12   15.99    0.43
   0   3  12   14.71    0.46
   0   3  12   14.82    0.45
   0   3  12   15.59    0.53
  -1  -3 -12    0.45    0.11
   1   3  12    0.36    0.11
   1   3  12    0.40    0.10
   1   3  12    0.35    0.11
   1   3  12    0.41    0.10
  -2  -3 -12    3.38    0.22
   2   3  12    4.02    0.30
  -3  -3 -12    5.08    0.29
   3   3  12    5.22    0.39
   3   3  12    5.62    0.36
  -4  -3 -12    0.01    0.11
   4   3  12    0.33    0.18
  -5  -3 -12    0.21    0.14
   5   3  12    0.26    0.20
  -6   4  12    4.37    0.49
  -6   4  12    4.79    0.43
  -5   4  12    1.35    0.29
  -5   4  12    1.35    0.24
  -4   4  12    0.06    0.16
  -4   4  12    0.20    0.14
   3  -4 -12    2.70    0.26
  -3   4  12    2.75    0.34
  -3   4  12    3.37    0.36
  -3   4  12    2.79    0.28
   2  -4 -12   41.77    1.08
  -2   4  12   40.20    0.99
  -2   4  12   41.44    1.13
   1  -4 -12    0.72    0.12
  -1   4  12    0.89    0.18
  -1   4  12    0.98    0.16
   0  -4 -12   50.28    1.04
   0   4  12   49.99    1.10
   0   4  12   51.14    1.22
  -1  -4 -12    3.73    0.25
   1   4  12    3.92    0.27
   1   4  12    4.10    0.22
   1   4  12    3.83    0.26
  -2  -4 -12    2.54    0.24
   2   4  12    1.97    0.26
  -3  -4 -12    0.02    0.11
   3   4  12    0.03    0.12
  -4  -4 -12    0.35    0.17
   4   4  12    0.59    0.21
  -5  -4 -12    0.43    0.18
   5   4  12    0.34    0.22
  -5   5  12    0.39    0.20
  -5   5  12    0.04    0.21
  -4   5  12    5.74    0.47
  -4   5  12    5.72    0.37
  -3   5  12    2.98    0.35
  -3   5  12    3.55    0.28
   2  -5 -12    1.89    0.17
  -2   5  12    1.93    0.30
  -2   5  12    1.69    0.21
   1  -5 -12    5.36    0.26
  -1   5  12    5.67    0.38
  -1   5  12    5.37    0.31
   0  -5 -12   15.84    0.48
   0   5  12   16.11    0.53
   0   5  12   17.06    0.62
  -1  -5 -12    0.72    0.17
   1   5  12    0.84    0.15
  -2  -5 -12    0.04    0.13
   2   5  12    0.40    0.16
  -3  -5 -12    0.10    0.14
   3   5  12    0.55    0.19
  -4  -5 -12    0.13    0.16
   4   5  12    0.55    0.22
  -5   6  12    0.12    0.23
  -5   6  12   -0.04    0.15
  -4   6  12    2.89    0.38
  -4   6  12    3.08    0.32
  -3   6  12    1.29    0.26
  -3   6  12    1.03    0.19
   2  -6 -12    1.91    0.18
  -2   6  12    1.94    0.30
  -2   6  12    1.55    0.22
  -1   6  12    0.69    0.16
  -1   6  12    0.50    0.18
   0  -6 -12    5.75    0.36
   0   6  12    5.15    0.31
   0   6  12    5.73    0.39
  -1  -6 -12    4.28    0.33
   1   6  12    3.68    0.23
  -2  -6 -12    6.09    0.39
   2   6  12    6.90    0.45
  -3  -6 -12    0.05    0.15
   3   6  12    0.21    0.17
  -4  -6 -12    4.66    0.39
   4   6  12    4.40    0.52
  -4   7  12    2.05    0.36
  -4   7  12    2.10    0.30
  -3   7  12    1.59    0.24
  -3   7  12    1.61    0.32
   2  -7 -12    0.40    0.11
  -2   7  12    0.41    0.19
  -2   7  12    0.80    0.19
  -1   7  12    1.81    0.30
  -1   7  12    1.74    0.24
   0  -7 -12    6.37    0.40
   0   7  12    6.42    0.34
   0   7  12    6.13    0.36
  -1  -7 -12    4.17    0.35
   1   7  12    4.00    0.36
  -2  -7 -12    3.02    0.34
   2   7  12    2.85    0.38
  -3  -7 -12    1.42    0.26
   3   7  12    2.24    0.38
  -3   8  12    1.88    0.36
  -3   8  12    2.18    0.31
  -2   8  12    1.58    0.25
  -2   8  12    1.56    0.31
  -2   8  12    1.42    0.25
  -1   8  12    0.70    0.23
  -1   8  12    0.45    0.16
  -1   8  12    0.62    0.17
   0   8  12    1.87    0.25
   0   8  12    2.03    0.24
  -1  -8 -12    0.39    0.19
  -2  -8 -12    0.19    0.19
   2   8  12    0.29    0.19
  -1   9  12    0.59    0.20
  -1   9  12    0.04    0.14
  -1  -9  13    2.16    0.31
  -1  -9  13    2.47    0.36
   0   9 -13    0.88    0.27
   0   9 -13    0.64    0.21
   0  -9  13    0.22    0.19
   0  -9  13    0.43    0.19
  -1   9 -13    0.36    0.18
  -1   9 -13    0.12    0.18
   1  -9  13    0.27    0.16
   1  -9  13   -0.01    0.16
  -2   9 -13    0.87    0.23
  -2   9 -13    1.41    0.31
  -3   9 -13    0.74    0.21
  -3   9 -13    0.40    0.21
  -3   9 -13    0.24    0.18
  -3  -8  13    0.72    0.25
  -3  -8  13    1.43    0.28
   2   8 -13    2.43    0.37
  -2  -8  13    2.32    0.33
  -2  -8  13    2.82    0.38
   1   8 -13    5.39    0.42
   1   8 -13    4.62    0.40
  -1  -8  13    4.60    0.46
  -1  -8  13    5.17    0.36
   0   8 -13    0.43    0.16
   0   8 -13    0.76    0.21
   0  -8  13    0.49    0.13
   0  -8  13    0.35    0.16
   0  -8  13    0.60    0.20
  -1   8 -13    1.22    0.24
  -1   8 -13    1.14    0.25
   1  -8  13    1.52    0.24
   1  -8  13    1.73    0.23
  -2   8 -13    0.60    0.22
  -2   8 -13    0.72    0.20
   2  -8  13    0.75    0.19
  -3   8 -13    0.33    0.16
  -3   8 -13    0.61    0.24
  -3   8 -13    0.58    0.18
  -4   8 -13    2.25    0.35
  -4   8 -13    2.32    0.30
  -4   8 -13    1.55    0.29
  -3  -7  13    0.54    0.22
  -3  -7  13    0.30    0.19
  -3  -7  13    0.55    0.20
   2   7 -13    1.09    0.24
  -2  -7  13    0.69    0.20
  -2  -7  13    0.64    0.20
  -2  -7  13    0.96    0.23
   1   7 -13    6.58    0.44
   1   7 -13    6.85    0.44
  -1  -7  13    7.04    0.43
  -1  -7  13    6.34    0.37
   0   7 -13    1.06    0.23
   0   7 -13    1.42    0.28
   0  -7  13    1.03    0.19
   0  -7  13    0.88    0.20
   0  -7  13    0.99    0.13
  -1   7 -13   27.64    0.93
  -1   7 -13   27.02    0.91
   1  -7  13   27.61    0.73
   1  -7  13   26.99    0.78
  -2   7 -13    3.11    0.34
  -2   7 -13    2.78    0.34
   2  -7  13    3.25    0.24
  -3   7 -13    0.31    0.18
  -3   7 -13    0.39    0.14
  -3   7 -13    0.31    0.15
  -4   7 -13    0.89    0.22
  -4   7 -13    1.07    0.24
  -4   7 -13    0.77    0.18
  -4  -6  13    0.01    0.19
  -4  -6  13    0.28    0.20
  -4  -6  13    0.14    0.18
   3   6 -13    1.67    0.26
  -3  -6  13    1.38    0.26
  -3  -6  13    1.80    0.28
  -3  -6  13    1.84    0.26
   2   6 -13    0.79    0.19
   2   6 -13    0.61    0.18
   2   6 -13    0.61    0.13
  -2  -6  13    1.27    0.21
  -2  -6  13    0.93    0.22
  -2  -6  13    0.63    0.19
   1   6 -13    2.09    0.27
   1   6 -13    1.87    0.28
  -1  -6  13    1.65    0.24
  -1  -6  13    1.91    0.23
  -1  -6  13    1.79    0.24
   0   6 -13   -0.07    0.10
   0   6 -13   -0.07    0.12
   0  -6  13    0.07    0.12
   0  -6  13    0.15    0.11
   0  -6  13    0.09    0.09
  -1   6 -13    1.75    0.25
  -1   6 -13    2.63    0.33
   1  -6  13    2.15    0.23
   1  -6  13    2.45    0.19
  -2   6 -13    1.02    0.20
  -2   6 -13    1.30    0.23
   2  -6  13    1.34    0.16
  -3   6 -13    0.70    0.16
  -3   6 -13    0.39    0.17
  -3   6 -13    0.51    0.17
  -4   6 -13    0.48    0.15
  -4   6 -13    0.35    0.17
  -4   6 -13    0.19    0.15
  -5   6 -13    0.01    0.12
  -5   6 -13   -0.17    0.13
  -5   6 -13    0.32    0.18
  -5  -5  13    1.02    0.27
  -5  -5  13    1.59    0.31
  -5  -5  13    1.22    0.28
  -4  -5  13    5.37    0.45
  -4  -5  13    5.77    0.43
  -4  -5  13    5.81    0.43
   3   5 -13    4.77    0.34
  -3  -5  13    5.61    0.36
  -3  -5  13    4.33    0.36
  -3  -5  13    4.18    0.38
   2   5 -13    0.38    0.14
   2   5 -13    0.35    0.13
   2   5 -13    0.40    0.09
  -2  -5  13    0.34    0.17
  -2  -5  13    0.40    0.13
  -2  -5  13    0.26    0.15
   1   5 -13   11.83    0.53
   1   5 -13   13.12    0.54
  -1  -5  13   12.32    0.41
  -1  -5  13   11.87    0.42
  -1  -5  13   11.29    0.49
  -1  -5  13   12.41    0.51
   0   5 -13    5.90    0.37
   0   5 -13    5.45    0.36
   0   5 -13    5.53    0.29
   0  -5  13    5.67    0.33
   0  -5  13    6.19    0.33
   0  -5  13    5.97    0.23
   0  -5  13    5.84    0.27
  -1   5 -13    2.99    0.31
  -1   5 -13    3.08    0.33
  -1   5 -13    2.37    0.17
   1  -5  13    2.47    0.22
   1  -5  13    3.00    0.18
  -2   5 -13    5.02    0.36
  -2   5 -13    5.58    0.36
  -3   5 -13    5.48    0.36
  -3   5 -13    5.41    0.38
  -3   5 -13    5.28    0.27
  -4   5 -13    0.19    0.11
  -4   5 -13    0.39    0.16
  -4   5 -13    0.08    0.13
  -5   5 -13    0.89    0.18
  -5   5 -13    0.89    0.21
  -5   5 -13    0.79    0.19
  -5  -4  13    1.22    0.29
  -5  -4  13    1.06    0.27
  -5  -4  13    0.96    0.25
   4   4 -13    0.70    0.16
  -4  -4  13    0.98    0.23
  -4  -4  13    0.66    0.21
  -4  -4  13    0.84    0.22
   3   4 -13    7.37    0.39
   3   4 -13    7.71    0.31
  -3  -4  13    7.38    0.44
  -3  -4  13    7.51    0.43
  -3  -4  13    8.14    0.42
   2   4 -13    2.05    0.25
   2   4 -13    2.20    0.27
   2   4 -13    2.07    0.13
  -2  -4  13    2.00    0.24
  -2  -4  13    1.98    0.25
  -2  -4  13    2.10    0.23
   1   4 -13    3.61    0.29
   1   4 -13    3.36    0.29
  -1  -4  13    3.71    0.33
  -1  -4  13    3.59    0.22
  -1  -4  13    3.72    0.22
  -1  -4  13    3.62    0.29
   0   4 -13    1.16    0.21
   0   4 -13    1.48    0.17
   0   4 -13    1.18    0.19
   0  -4  13    1.11    0.16
   0  -4  13    1.17    0.17
   0  -4  13    1.23    0.13
   0  -4  13    1.23    0.12
  -1   4 -13   10.07    0.45
  -1   4 -13    9.77    0.44
  -1   4 -13    9.70    0.37
   1  -4  13    9.96    0.36
  -2   4 -13   12.06    0.48
  -2   4 -13   11.84    0.51
  -3   4 -13    1.88    0.24
  -3   4 -13    1.65    0.24
  -4   4 -13    0.27    0.14
  -4   4 -13    0.45    0.16
  -5   4 -13    0.43    0.17
  -5  -3  13    0.38    0.19
  -5  -3  13    0.35    0.19
  -5  -3  13    0.59    0.23
   4   3 -13    1.30    0.19
  -4  -3  13    1.55    0.27
  -4  -3  13    0.85    0.20
  -4  -3  13    0.79    0.22
   3   3 -13    4.58    0.29
   3   3 -13    4.61    0.31
  -3  -3  13    4.98    0.34
  -3  -3  13    3.90    0.31
  -3  -3  13    4.57    0.35
   2   3 -13   22.42    0.68
   2   3 -13   21.45    0.70
  -2  -3  13   21.61    0.68
  -2  -3  13   22.46    0.70
  -2  -3  13   22.18    0.64
   1   3 -13   14.97    0.55
   1   3 -13   14.67    0.52
  -1  -3  13   14.32    0.51
  -1  -3  13   14.43    0.41
  -1  -3  13   14.37    0.41
  -1  -3  13   14.90    0.51
   0   3 -13    4.34    0.30
   0   3 -13    4.51    0.29
   0   3 -13    4.94    0.18
   0  -3  13    4.45    0.16
   0  -3  13    4.68    0.26
   0  -3  13    4.71    0.18
   0  -3  13    4.67    0.27
  -1   3 -13   -0.04    0.08
  -1   3 -13    0.21    0.08
  -1   3 -13    0.11    0.10
   1  -3  13    0.23    0.08
   1  -3  13    0.16    0.08
  -2   3 -13    9.20    0.40
  -2   3 -13    9.30    0.28
  -2   3 -13    9.27    0.37
  -2   3 -13    9.74    0.45
  -3   3 -13   12.61    0.54
  -3   3 -13   11.74    0.44
  -4   3 -13    4.16    0.34
  -5   3 -13    0.75    0.20
  -6  -2  13    1.50    0.31
  -6  -2  13    1.97    0.40
  -5  -2  13    0.07    0.20
  -5  -2  13    0.34    0.20
  -5  -2  13    0.39    0.18
   4   2 -13    6.22    0.31
  -4  -2  13    6.57    0.46
  -4  -2  13    6.31    0.43
  -4  -2  13    5.94    0.39
   3   2 -13    5.95    0.34
   3   2 -13    6.50    0.32
  -3  -2  13    5.92    0.39
  -3  -2  13    5.67    0.38
  -3  -2  13    6.06    0.36
   2   2 -13   34.84    0.87
   2   2 -13   35.33    0.93
  -2  -2  13   34.14    0.86
  -2  -2  13   34.31    0.78
  -2  -2  13   34.70    0.92
  -2  -2  13   33.45    0.88
   1   2 -13   15.06    0.51
   1   2 -13   14.09    0.53
  -1  -2  13   14.85    0.41
  -1  -2  13   14.78    0.42
  -1  -2  13   13.98    0.48
  -1  -2  13   15.06    0.51
   0   2 -13    3.25    0.24
   0   2 -13    2.97    0.24
   0  -2  13    3.08    0.22
   0  -2  13    2.90    0.14
   0  -2  13    3.27    0.21
  -1   2 -13    0.45    0.12
  -1   2 -13    0.26    0.11
  -1   2 -13    0.27    0.07
  -1   2 -13    0.30    0.13
  -1   2 -13    0.26    0.07
   1  -2  13    0.29    0.09
   1  -2  13    0.22    0.07
   1  -2  13    0.34    0.09
  -2   2 -13    9.56    0.39
  -2   2 -13    9.64    0.37
  -2   2 -13    9.87    0.27
  -2   2 -13   10.01    0.45
   2  -2  13   10.14    0.38
  -3   2 -13    5.23    0.28
  -3   2 -13    5.56    0.37
  -4   2 -13    8.01    0.46
  -5   2 -13    0.96    0.22
  -6   2 -13    2.99    0.36
  -6  -1  13    0.14    0.26
  -6  -1  13    0.00    0.20
  -6  -1  13   -0.09    0.17
  -5  -1  13    0.02    0.16
  -5  -1  13   -0.01    0.16
  -5  -1  13    0.44    0.24
   4   1 -13    4.11    0.23
  -4  -1  13    3.91    0.33
  -4  -1  13    4.25    0.43
  -4  -1  13    3.82    0.36
   3   1 -13    9.19    0.41
   3   1 -13    8.67    0.35
  -3  -1  13    8.80    0.41
  -3  -1  13    9.01    0.37
  -3  -1  13    8.52    0.45
  -3  -1  13    9.41    0.48
  -3  -1  13    8.55    0.34
   2   1 -13   22.05    0.68
   2   1 -13   22.23    0.62
  -2  -1  13   22.48    0.66
  -2  -1  13   22.02    0.68
  -2  -1  13   21.50    0.55
  -2  -1  13   21.23    0.64
  -2  -1  13   22.19    0.63
   1   1 -13    0.88    0.15
   1   1 -13    0.82    0.15
  -1  -1  13    0.75    0.11
  -1  -1  13    0.65    0.14
  -1  -1  13    0.74    0.12
  -1  -1  13    0.86    0.15
   0   1 -13    4.13    0.26
   0   1 -13    3.95    0.26
   0   1 -13    3.66    0.19
   0  -1  13    3.82    0.23
   0  -1  13    4.00    0.22
  -1   1 -13    7.36    0.36
  -1   1 -13    6.98    0.25
  -1   1 -13    7.11    0.24
  -1   1 -13    6.86    0.32
  -1   1 -13    7.76    0.34
   1  -1  13    7.04    0.27
   1  -1  13    6.71    0.28
   1  -1  13    7.39    0.26
   1  -1  13    7.34    0.28
  -2   1 -13   13.39    0.45
  -2   1 -13   13.45    0.32
  -2   1 -13   13.26    0.45
  -2   1 -13   14.27    0.55
   2  -1  13   13.86    0.47
   2  -1  13   14.19    0.39
   2  -1  13   12.98    0.48
  -3   1 -13    1.83    0.25
   3  -1  13    1.82    0.25
   3  -1  13    2.07    0.24
   3  -1  13    1.90    0.16
  -4   1 -13    1.52    0.26
   4  -1  13    1.60    0.26
  -5   1 -13    2.52    0.32
  -6   1 -13    0.08    0.20
  -6   0  13    0.43    0.20
  -6   0  13    0.69    0.32
  -6   0  13    0.27    0.22
  -5   0  13    0.95    0.24
  -5   0  13    1.11    0.22
  -5   0  13    1.89    0.36
   4   0 -13   12.60    0.38
  -4   0  13   13.57    0.59
  -4   0  13   12.78    0.60
  -4   0  13   12.97    0.52
   3   0 -13    0.00    0.09
   3   0 -13    0.18    0.08
  -3   0  13    0.08    0.09
  -3   0  13   -0.02    0.11
  -3   0  13    0.07    0.06
  -3   0  13    0.00    0.13
   2   0 -13   17.33    0.58
   2   0 -13   18.16    0.53
  -2   0  13   16.01    0.54
  -2   0  13   18.27    0.61
  -2   0  13   17.61    0.47
   1   0 -13    3.91    0.27
   1   0 -13    3.45    0.24
  -1   0  13    3.02    0.22
  -1   0  13    3.16    0.24
  -1   0  13    3.33    0.17
   0   0 -13   10.99    0.44
   0   0 -13   11.54    0.44
   0   0 -13   11.10    0.34
   0   0  13   11.24    0.40
   0   0  13   10.98    0.37
   0   0  13   11.13    0.31
  -1   0 -13    2.32    0.21
  -1   0 -13    2.07    0.20
  -1   0 -13    2.39    0.25
  -1   0 -13    2.17    0.13
   1   0  13    2.46    0.18
   1   0  13    2.35    0.17
   1   0  13    2.28    0.15
  -2   0 -13    5.98    0.29
  -2   0 -13    5.72    0.35
   2   0  13    5.99    0.22
   2   0  13    5.74    0.30
   2   0  13    5.38    0.32
  -3   0 -13    2.41    0.29
   3   0  13    2.04    0.14
   3   0  13    2.17    0.25
   3   0  13    2.14    0.27
  -4   0 -13    3.48    0.21
  -4   0 -13    4.14    0.36
   4   0  13    3.57    0.39
   4   0  13    3.82    0.37
  -5   0 -13    2.08    0.30
   5   0  13    1.84    0.33
  -6   0 -13    0.90    0.26
   6   0  13    0.50    0.24
  -6   1  13    0.33    0.23
  -6   1  13    0.37    0.19
  -5   1  13    0.00    0.15
  -5   1  13   -0.04    0.16
   4  -1 -13    0.62    0.11
  -4   1  13    0.33    0.15
  -4   1  13    0.34    0.16
   3  -1 -13    0.30    0.09
   3  -1 -13    0.41    0.13
  -3   1  13    0.51    0.15
  -3   1  13    0.61    0.13
  -3   1  13    0.63    0.17
  -3   1  13    0.34    0.10
   2  -1 -13    8.29    0.34
   2  -1 -13    8.37    0.39
  -2   1  13    9.06    0.43
  -2   1  13    8.40    0.37
  -2   1  13    8.43    0.30
   1  -1 -13    8.51    0.30
   1  -1 -13    8.52    0.37
   1  -1 -13    8.81    0.40
  -1   1  13    8.15    0.39
  -1   1  13    8.36    0.29
  -1   1  13    8.68    0.28
  -1   1  13    8.49    0.35
   0  -1 -13    0.46    0.09
   0  -1 -13    0.32    0.12
   0  -1 -13    0.77    0.15
   0   1  13    0.42    0.08
   0   1  13    0.86    0.14
   0   1  13    0.49    0.08
   0   1  13    0.48    0.11
  -1  -1 -13   19.02    0.70
  -1  -1 -13   17.27    0.43
  -1  -1 -13   17.83    0.61
   1   1  13   17.88    0.45
   1   1  13   17.22    0.53
   1   1  13   17.33    0.49
  -2  -1 -13    4.56    0.28
  -2  -1 -13    4.46    0.33
   2   1  13    4.77    0.28
   2   1  13    4.62    0.19
   2   1  13    5.12    0.31
  -3  -1 -13    2.66    0.18
  -3  -1 -13    2.61    0.31
   3   1  13    2.44    0.27
   3   1  13    2.61    0.30
  -4  -1 -13    0.58    0.20
  -4  -1 -13    0.86    0.15
   4   1  13    0.83    0.22
  -5  -1 -13    2.75    0.36
   5   1  13    3.06    0.43
  -6   2  13    0.76    0.26
  -6   2  13    0.33    0.20
  -5   2  13    4.60    0.36
  -5   2  13    3.12    0.36
  -4   2  13    0.73    0.17
  -4   2  13    0.65    0.19
   3  -2 -13    9.01    0.42
   3  -2 -13    9.57    0.35
  -3   2  13    9.50    0.42
  -3   2  13    9.04    0.34
  -3   2  13   10.16    0.51
   2  -2 -13   12.33    0.43
   2  -2 -13   11.96    0.48
  -2   2  13   11.44    0.37
  -2   2  13   10.79    0.43
  -2   2  13   12.16    0.52
   1  -2 -13   16.91    0.56
   1  -2 -13   17.19    0.46
   1  -2 -13   17.19    0.60
  -1   2  13   16.14    0.51
  -1   2  13   15.78    0.46
  -1   2  13   16.55    0.58
   0  -2 -13   16.40    0.44
   0   2  13   16.97    0.55
   0   2  13   16.54    0.48
   0   2  13   15.96    0.46
   0   2  13   16.50    0.44
  -1  -2 -13    7.94    0.27
   1   2  13    8.24    0.29
   1   2  13    8.13    0.32
   1   2  13    7.90    0.27
   1   2  13    8.24    0.36
  -2  -2 -13    7.10    0.27
   2   2  13    7.10    0.35
   2   2  13    6.15    0.27
   2   2  13    7.14    0.38
  -3  -2 -13    2.87    0.21
   3   2  13    3.21    0.31
   3   2  13    3.09    0.34
  -4  -2 -13    2.35    0.22
   4   2  13    1.91    0.31
   5   2  13   -0.10    0.16
  -6   3  13    0.12    0.22
  -6   3  13    0.16    0.20
  -5   3  13    2.84    0.31
  -5   3  13    2.53    0.36
  -4   3  13    1.97    0.30
  -4   3  13    2.40    0.28
   3  -3 -13    5.45    0.28
   3  -3 -13    4.95    0.33
  -3   3  13    6.83    0.44
  -3   3  13    6.28    0.35
  -3   3  13    5.56    0.28
   2  -3 -13   22.37    0.71
   2  -3 -13   21.75    0.64
  -2   3  13   22.04    0.66
  -2   3  13   22.07    0.75
   1  -3 -13   36.60    0.97
   1  -3 -13   35.19    0.79
  -1   3  13   35.40    0.97
  -1   3  13   36.29    0.88
   0  -3 -13    6.32    0.27
   0   3  13    6.35    0.35
   0   3  13    6.03    0.28
   0   3  13    6.20    0.30
  -1  -3 -13   22.27    0.58
   1   3  13   22.15    0.56
   1   3  13   21.57    0.61
   1   3  13   23.02    0.67
   1   3  13   20.89    0.56
  -2  -3 -13    0.09    0.10
   2   3  13    0.02    0.11
  -3  -3 -13    0.64    0.14
   3   3  13    0.93    0.19
   3   3  13    0.70    0.20
  -4  -3 -13    0.34    0.14
   4   3  13    0.56    0.21
   5   3  13    0.38    0.22
  -5   4  13    2.04    0.29
  -5   4  13    1.88    0.34
  -4   4  13   -0.15    0.12
  -4   4  13    0.16    0.17
   3  -4 -13    2.14    0.22
   3  -4 -13    2.83    0.27
  -3   4  13    2.32    0.31
  -3   4  13    2.08    0.24
   2  -4 -13    2.45    0.28
  -2   4  13    2.33    0.24
  -2   4  13    2.50    0.31
   1  -4 -13   13.03    0.41
  -1   4  13   13.19    0.56
  -1   4  13   12.24    0.46
   0  -4 -13   30.82    0.74
   0   4  13   32.42    0.90
   0   4  13   31.46    0.79
  -1  -4 -13   20.44    0.60
   1   4  13   20.06    0.55
   1   4  13   21.77    0.64
   1   4  13   20.80    0.67
  -2  -4 -13    1.65    0.21
   2   4  13    1.14    0.21
  -3  -4 -13    2.03    0.24
   3   4  13    1.95    0.30
  -4  -4 -13   -0.02    0.13
   4   4  13    0.14    0.17
  -5   5  13    2.74    0.33
  -5   5  13    3.37    0.44
  -4   5  13    0.83    0.25
  -4   5  13    0.89    0.19
  -3   5  13    0.15    0.13
  -3   5  13    0.13    0.15
   2  -5 -13    3.57    0.33
   2  -5 -13    3.36    0.21
  -2   5  13    3.32    0.27
  -2   5  13    2.54    0.33
   1  -5 -13    7.52    0.31
  -1   5  13    6.83    0.43
  -1   5  13    6.45    0.35
   0   5  13    0.81    0.19
   0   5  13    0.41    0.12
  -1  -5 -13   20.47    0.64
   1   5  13   20.31    0.58
  -2  -5 -13    0.15    0.13
   2   5  13    0.13    0.13
  -3  -5 -13    0.51    0.17
   3   5  13    0.69    0.21
  -4  -5 -13    0.37    0.17
   4   5  13    0.17    0.19
  -5   6  13    0.39    0.25
  -4   6  13    2.55    0.39
  -4   6  13    2.79    0.32
  -3   6  13    2.05    0.26
  -3   6  13    1.81    0.32
   2  -6 -13    2.95    0.21
  -2   6  13    3.14    0.30
  -2   6  13    2.85    0.37
  -1   6  13    2.99    0.30
  -1   6  13    2.84    0.37
   0   6  13    0.27    0.12
   0   6  13    0.40    0.15
  -1  -6 -13    1.11    0.21
   1   6  13    0.92    0.15
  -2  -6 -13    4.25    0.33
   2   6  13    4.65    0.46
  -3  -6 -13    0.77    0.20
   3   6  13    1.21    0.28
  -4   7  13    1.88    0.28
  -4   7  13    1.25    0.31
  -3   7  13    1.98    0.35
  -3   7  13    1.54    0.26
   2  -7 -13    1.42    0.17
  -2   7  13    1.71    0.25
  -2   7  13    1.54    0.30
  -1   7  13    2.82    0.31
  -1   7  13    3.21    0.40
   0   7  13    1.35    0.19
   0   7  13    1.34    0.21
  -1  -7 -13   -0.08    0.12
  -2  -7 -13    2.16    0.30
   2   7  13    1.55    0.29
  -3   8  13    2.10    0.38
  -3   8  13    1.43    0.26
  -2   8  13    0.64    0.23
  -2   8  13    0.39    0.18
  -1   8  13    0.08    0.13
  -1   8  13    0.13    0.12
   0   8  13    0.44    0.15
   0   8  13    0.35    0.15
  -1  -8 -13    1.01    0.24
  -1  -9  14    2.46    0.36
  -1  -9  14    2.42    0.31
   0   9 -14    9.64    0.60
   0  -9  14    8.33    0.45
   0  -9  14    9.32    0.54
  -1   9 -14    0.06    0.18
   1  -9  14    0.14    0.18
  -2   9 -14    1.61    0.31
   2   8 -14    1.42    0.30
  -2  -8  14    1.28    0.27
  -2  -8  14    1.19    0.29
   1   8 -14    0.81    0.21
   1   8 -14    0.44    0.19
  -1  -8  14    0.67    0.19
  -1  -8  14    0.48    0.20
   0   8 -14    4.00    0.46
   0   8 -14    3.02    0.37
   0  -8  14    3.14    0.29
   0  -8  14    3.02    0.34
  -1   8 -14    0.47    0.19
  -1   8 -14    0.67    0.19
   1  -8  14    0.73    0.17
   1  -8  14    1.00    0.22
  -2   8 -14    3.13    0.38
  -2   8 -14    5.07    0.52
  -3   8 -14    0.30    0.19
  -3   8 -14    0.66    0.19
  -3   8 -14    0.47    0.19
   3   7 -14    0.62    0.20
  -3  -7  14    0.60    0.24
  -3  -7  14    1.11    0.25
  -3  -7  14    0.65    0.24
   2   7 -14    1.23    0.25
  -2  -7  14    1.08    0.24
  -2  -7  14    0.81    0.25
  -2  -7  14    1.24    0.22
   1   7 -14    4.59    0.37
   1   7 -14    5.32    0.42
  -1  -7  14    4.39    0.37
  -1  -7  14    5.23    0.34
  -1  -7  14    4.68    0.37
   0   7 -14    3.94    0.41
   0   7 -14    3.03    0.36
   0  -7  14    3.39    0.20
   0  -7  14    2.88    0.30
   0  -7  14    2.95    0.26
  -1   7 -14   10.10    0.54
  -1   7 -14   10.26    0.56
   1  -7  14   10.34    0.41
   1  -7  14   11.32    0.47
  -2   7 -14    1.23    0.23
  -2   7 -14    1.82    0.30
   2  -7  14    1.12    0.17
  -3   7 -14    0.88    0.22
  -3   7 -14    0.93    0.24
  -4   7 -14    1.23    0.28
  -4   7 -14    1.40    0.23
  -4   7 -14    1.39    0.26
  -4  -6  14    0.81    0.26
  -4  -6  14    1.01    0.25
  -4  -6  14    0.88    0.25
   3   6 -14    2.61    0.34
  -3  -6  14    2.05    0.30
  -3  -6  14    2.48    0.35
  -3  -6  14    2.49    0.31
   2   6 -14    0.40    0.15
   2   6 -14    0.49    0.17
  -2  -6  14    0.67    0.18
  -2  -6  14    0.39    0.18
  -2  -6  14    0.54    0.19
   1   6 -14    0.60    0.17
   1   6 -14    0.85    0.21
  -1  -6  14    0.45    0.16
  -1  -6  14    0.65    0.16
  -1  -6  14    0.51    0.17
  -1  -6  14    0.71    0.14
   0   6 -14    6.48    0.42
   0   6 -14    6.64    0.42
   0  -6  14    5.93    0.29
   0  -6  14    5.94    0.24
   0  -6  14    5.79    0.37
  -1   6 -14    5.88    0.39
  -1   6 -14    5.90    0.41
   1  -6  14    5.45    0.32
   1  -6  14    5.64    0.27
  -2   6 -14    5.39    0.39
  -2   6 -14    5.23    0.39
  -3   6 -14    0.53    0.18
  -3   6 -14    0.21    0.15
  -4   6 -14    0.42    0.20
  -4   6 -14    0.54    0.15
  -4   6 -14    0.75    0.21
  -5   6 -14    0.27    0.19
  -5   6 -14    0.14    0.14
  -5   6 -14    0.04    0.15
  -4  -5  14    0.19    0.19
  -4  -5  14    0.34    0.22
  -4  -5  14    0.48    0.21
   3   5 -14    1.74    0.25
  -3  -5  14    1.33    0.25
  -3  -5  14    2.09    0.27
  -3  -5  14    1.35    0.25
   2   5 -14    1.16    0.21
   2   5 -14    0.90    0.20
  -2  -5  14    1.18    0.23
  -2  -5  14    0.92    0.21
  -2  -5  14    1.19    0.19
   1   5 -14    0.27    0.13
   1   5 -14    0.13    0.14
  -1  -5  14    0.21    0.11
  -1  -5  14    0.20    0.11
  -1  -5  14    0.23    0.15
  -1  -5  14    0.33    0.16
   0   5 -14    5.96    0.39
   0   5 -14    6.04    0.38
   0  -5  14    6.00    0.35
   0  -5  14    6.15    0.23
   0  -5  14    6.45    0.35
   0  -5  14    6.15    0.27
  -1   5 -14    0.64    0.19
  -1   5 -14    0.40    0.15
   1  -5  14    0.57    0.14
  -2   5 -14    5.99    0.40
  -2   5 -14    5.13    0.36
  -3   5 -14   16.99    0.64
  -3   5 -14   16.09    0.66
  -4   5 -14    0.07    0.14
  -4   5 -14    0.21    0.18
  -5   5 -14    1.03    0.24
  -5   5 -14    1.59    0.25
  -5  -4  14    2.19    0.32
  -5  -4  14    2.74    0.39
  -5  -4  14    2.23    0.36
   4   4 -14    0.08    0.09
  -4  -4  14   -0.01    0.15
  -4  -4  14   -0.02    0.17
  -4  -4  14    0.11    0.17
   3   4 -14   13.53    0.55
  -3  -4  14   13.78    0.58
  -3  -4  14   14.36    0.61
  -3  -4  14   13.75    0.56
   2   4 -14   16.11    0.59
   2   4 -14   15.41    0.61
  -2  -4  14   16.43    0.54
  -2  -4  14   15.84    0.60
  -2  -4  14   16.30    0.61
   1   4 -14   29.22    0.86
   1   4 -14   30.22    0.90
  -1  -4  14   29.88    0.70
  -1  -4  14   29.42    0.82
  -1  -4  14   29.47    0.70
  -1  -4  14   29.37    0.83
   0   4 -14    8.79    0.44
   0   4 -14    9.15    0.45
   0   4 -14    8.26    0.28
   0  -4  14    8.22    0.26
   0  -4  14    8.71    0.38
   0  -4  14    8.70    0.38
   0  -4  14    8.39    0.28
  -1   4 -14    6.06    0.29
  -1   4 -14    6.43    0.37
  -1   4 -14    6.37    0.38
   1  -4  14    6.46    0.29
  -2   4 -14    1.00    0.19
  -2   4 -14    1.04    0.18
  -3   4 -14    8.11    0.46
  -3   4 -14    8.42    0.42
  -3   4 -14    7.34    0.26
  -4   4 -14    0.35    0.16
  -4   4 -14    0.25    0.16
  -5   4 -14    0.05    0.14
  -5  -3  14    2.79    0.34
  -5  -3  14    3.52    0.42
  -5  -3  14    3.25    0.38
   4   3 -14    0.45    0.14
  -4  -3  14    0.58    0.20
  -4  -3  14    0.37    0.18
  -4  -3  14    0.69    0.22
   3   3 -14    1.46    0.21
   3   3 -14    1.70    0.24
  -3  -3  14    1.54    0.25
  -3  -3  14    1.61    0.26
  -3  -3  14    1.48    0.23
   2   3 -14    0.03    0.09
   2   3 -14    0.22    0.12
  -2  -3  14    0.05    0.13
  -2  -3  14    0.07    0.11
  -2  -3  14    0.11    0.09
  -2  -3  14    0.01    0.11
   1   3 -14   10.99    0.47
   1   3 -14   10.43    0.48
  -1  -3  14   10.91    0.35
  -1  -3  14   10.44    0.35
  -1  -3  14   10.83    0.45
  -1  -3  14   10.21    0.43
   0   3 -14   11.47    0.49
   0   3 -14   11.97    0.49
   0  -3  14   12.32    0.44
   0  -3  14   12.46    0.43
   0  -3  14   11.31    0.31
   0  -3  14   12.43    0.32
  -1   3 -14    1.85    0.23
  -1   3 -14    1.30    0.21
  -1   3 -14    1.74    0.15
   1  -3  14    1.67    0.18
   1  -3  14    1.79    0.17
   1  -3  14    1.49    0.14
  -2   3 -14    0.46    0.15
  -2   3 -14    0.57    0.09
  -2   3 -14    0.58    0.15
  -3   3 -14    0.62    0.19
  -3   3 -14    0.72    0.17
  -4   3 -14    1.48    0.25
  -4   3 -14    1.27    0.19
  -5   3 -14    0.61    0.20
  -5  -2  14    0.76    0.23
  -5  -2  14    1.27    0.29
  -5  -2  14    0.89    0.23
   4   2 -14    0.27    0.12
  -4  -2  14    0.31    0.19
  -4  -2  14    0.37    0.20
  -4  -2  14    0.15    0.15
   3   2 -14    6.06    0.36
   3   2 -14    6.25    0.32
  -3  -2  14    5.57    0.37
  -3  -2  14    6.47    0.40
  -3  -2  14    6.18    0.40
   2   2 -14    3.50    0.25
   2   2 -14    3.49    0.28
  -2  -2  14    3.57    0.28
  -2  -2  14    3.52    0.22
  -2  -2  14    3.44    0.26
  -2  -2  14    3.64    0.30
   1   2 -14    3.11    0.24
   1   2 -14    2.74    0.26
  -1  -2  14    2.57    0.17
  -1  -2  14    2.68    0.17
  -1  -2  14    2.47    0.24
  -1  -2  14    2.58    0.26
   0   2 -14    5.86    0.33
   0   2 -14    5.94    0.34
   0  -2  14    5.97    0.29
   0  -2  14    6.03    0.30
   0  -2  14    6.55    0.20
  -1   2 -14    2.41    0.22
  -1   2 -14    2.32    0.15
  -1   2 -14    2.06    0.15
  -1   2 -14    2.36    0.26
   1  -2  14    2.08    0.16
   1  -2  14    2.28    0.17
   1  -2  14    1.99    0.16
  -2   2 -14    0.51    0.08
  -2   2 -14    0.55    0.16
  -2   2 -14    0.51    0.13
  -2   2 -14    0.46    0.14
   2  -2  14    0.74    0.13
  -3   2 -14    6.57    0.33
  -3   2 -14    6.01    0.41
  -4   2 -14    2.14    0.29
  -4   2 -14    2.20    0.22
  -5   2 -14    0.22    0.17
  -6   2 -14    0.68    0.24
  -5  -1  14    0.35    0.24
  -5  -1  14    0.15    0.19
  -5  -1  14    0.30    0.18
   4   1 -14    0.83    0.14
  -4  -1  14    1.24    0.27
  -4  -1  14    1.04    0.22
  -4  -1  14    0.96    0.22
   3   1 -14   10.10    0.46
   3   1 -14   10.60    0.40
  -3  -1  14   10.31    0.46
  -3  -1  14   11.15    0.52
  -3  -1  14   10.00    0.38
  -3  -1  14   11.18    0.52
   2   1 -14    3.64    0.25
   2   1 -14    3.82    0.29
  -2  -1  14    3.93    0.28
  -2  -1  14    3.31    0.26
  -2  -1  14    4.12    0.31
  -2  -1  14    3.46    0.21
   1   1 -14    3.23    0.28
   1   1 -14    3.11    0.24
  -1  -1  14    3.51    0.25
  -1  -1  14    3.00    0.18
  -1  -1  14    3.38    0.26
  -1  -1  14    3.26    0.20
   0   1 -14    0.87    0.16
   0   1 -14    0.82    0.12
   0   1 -14    1.06    0.18
   0  -1  14    0.84    0.14
   0  -1  14    0.82    0.14
  -1   1 -14    0.21    0.11
  -1   1 -14    0.18    0.07
  -1   1 -14    0.01    0.09
   1  -1  14    0.23    0.09
   1  -1  14    0.14    0.07
   1  -1  14    0.15    0.07
  -2   1 -14    0.92    0.19
  -2   1 -14    0.94    0.16
  -2   1 -14    0.89    0.15
  -2   1 -14    1.06    0.10
   2  -1  14    1.15    0.16
   2  -1  14    0.90    0.15
  -3   1 -14    0.49    0.13
  -3   1 -14    0.42    0.16
   3  -1  14    0.45    0.13
   3  -1  14    0.41    0.14
   3  -1  14    0.37    0.10
  -4   1 -14    0.92    0.23
   4  -1  14    0.89    0.22
  -5   1 -14    2.75    0.35
  -6   1 -14   -0.07    0.19
  -6   0  14    0.68    0.27
  -6   0  14    0.33    0.22
  -6   0  14    0.41    0.29
  -5   0  14    0.96    0.31
  -5   0  14    0.61    0.23
  -5   0  14    0.53    0.19
   4   0 -14   10.13    0.37
  -4   0  14   11.19    0.55
  -4   0  14   10.79    0.49
   3   0 -14    2.18    0.21
   3   0 -14    2.19    0.26
  -3   0  14    2.17    0.26
  -3   0  14    2.03    0.20
  -3   0  14    1.62    0.24
   2   0 -14   27.58    0.73
   2   0 -14   28.52    0.81
  -2   0  14   29.54    0.84
  -2   0  14   27.41    0.76
  -2   0  14   27.50    0.66
   1   0 -14    6.52    0.34
   1   0 -14    6.46    0.37
  -1   0  14    6.53    0.35
  -1   0  14    6.54    0.32
  -1   0  14    6.91    0.25
   0   0 -14   10.05    0.43
   0   0 -14   10.25    0.43
   0   0 -14   10.26    0.33
   0   0  14   10.29    0.40
   0   0  14    9.63    0.36
   0   0  14    9.36    0.29
  -1   0 -14    4.10    0.29
  -1   0 -14    4.14    0.27
  -1   0 -14    4.09    0.19
   1   0  14    4.65    0.24
   1   0  14    4.04    0.22
   1   0  14    4.12    0.20
  -2   0 -14   10.08    0.46
  -2   0 -14    9.31    0.46
   2   0  14    8.86    0.30
   2   0  14    9.11    0.39
   2   0  14    9.70    0.43
  -3   0 -14    2.13    0.29
   3   0  14    2.83    0.31
   3   0  14    2.10    0.24
   3   0  14    2.46    0.17
  -4   0 -14    1.90    0.29
   4   0  14    2.06    0.31
   4   0  14    1.79    0.27
  -5   0 -14    0.37    0.19
   5   0  14    0.14    0.18
  -6   1  14    0.09    0.20
  -6   1  14   -0.17    0.20
  -5   1  14    0.05    0.15
  -5   1  14   -0.26    0.15
  -4   1  14   11.45    0.57
  -4   1  14   11.55    0.50
   3  -1 -14    0.59    0.16
   3  -1 -14    0.33    0.10
  -3   1  14    0.53    0.17
  -3   1  14    0.47    0.12
  -3   1  14    0.25    0.13
   2  -1 -14   -0.11    0.09
   2  -1 -14   -0.05    0.08
  -2   1  14    0.14    0.08
  -2   1  14   -0.02    0.10
  -2   1  14   -0.05    0.09
   1  -1 -14   10.64    0.36
   1  -1 -14   11.20    0.45
   1  -1 -14   10.10    0.46
  -1   1  14   10.50    0.34
  -1   1  14   10.52    0.41
  -1   1  14   10.53    0.45
   0  -1 -14    9.53    0.43
   0  -1 -14    9.54    0.43
   0  -1 -14    8.39    0.30
   0   1  14    9.16    0.38
   0   1  14    8.99    0.31
   0   1  14    8.88    0.27
   0   1  14    8.66    0.34
  -1  -1 -14    6.46    0.24
  -1  -1 -14    7.02    0.39
   1   1  14    6.72    0.31
   1   1  14    6.52    0.28
   1   1  14    6.44    0.26
  -2  -1 -14   10.49    0.50
   2   1  14   10.04    0.31
   2   1  14   10.68    0.46
   2   1  14   10.50    0.43
  -3  -1 -14    3.93    0.35
   3   1  14    3.71    0.30
   3   1  14    4.35    0.35
  -4  -1 -14    2.11    0.31
   4   1  14    1.75    0.29
  -5  -1 -14    1.94    0.32
   5   1  14    1.34    0.30
  -6   2  14    2.35    0.39
  -5   2  14    0.69    0.20
  -5   2  14    0.41    0.21
  -4   2  14    0.15    0.13
  -4   2  14    0.33    0.18
   3  -2 -14    0.50    0.12
   3  -2 -14    0.85    0.18
  -3   2  14    0.57    0.18
  -3   2  14    0.38    0.11
  -3   2  14    0.22    0.14
   2  -2 -14    0.85    0.18
   2  -2 -14    0.93    0.15
  -2   2  14    0.96    0.20
  -2   2  14    1.26    0.16
  -2   2  14    0.94    0.17
   1  -2 -14   14.33    0.43
   1  -2 -14   13.74    0.52
   1  -2 -14   14.54    0.56
  -1   2  14   13.65    0.54
  -1   2  14   14.03    0.43
  -1   2  14   14.40    0.49
   0  -2 -14   33.52    0.75
   0   2  14   33.02    0.80
   0   2  14   34.06    0.87
   0   2  14   33.05    0.78
   0   2  14   33.22    0.73
  -1  -2 -14    3.38    0.19
   1   2  14    3.41    0.23
   1   2  14    3.73    0.25
   1   2  14    3.46    0.20
   1   2  14    3.33    0.18
  -2  -2 -14   13.92    0.39
   2   2  14   13.73    0.52
   2   2  14   14.91    0.57
   2   2  14   13.57    0.42
  -3  -2 -14    1.24    0.16
   3   2  14    1.33    0.25
   3   2  14    0.85    0.18
  -4  -2 -14    1.80    0.26
   4   2  14    2.36    0.34
  -5  -2 -14    0.60    0.23
   5   2  14    0.86    0.26
  -5   3  14    1.81    0.33
  -5   3  14    1.75    0.27
  -4   3  14    0.78    0.23
  -4   3  14    0.98    0.20
   3  -3 -14    0.10    0.12
   3  -3 -14    0.11    0.09
  -3   3  14    0.09    0.12
  -3   3  14    0.02    0.14
   2  -3 -14   12.90    0.49
   2  -3 -14   13.23    0.55
  -2   3  14   12.09    0.48
  -2   3  14   12.87    0.57
   1  -3 -14    4.46    0.34
   1  -3 -14    4.74    0.24
  -1   3  14    4.64    0.33
  -1   3  14    4.79    0.29
   0  -3 -14    2.95    0.20
   0   3  14    2.72    0.23
   0   3  14    2.98    0.31
  -1  -3 -14    1.77    0.16
  -1  -3 -14    2.03    0.20
   1   3  14    1.82    0.18
   1   3  14    2.06    0.24
   1   3  14    1.77    0.16
   1   3  14    1.77    0.21
  -2  -3 -14    3.67    0.23
   2   3  14    3.65    0.31
  -3  -3 -14    0.97    0.17
   3   3  14    1.12    0.23
  -4  -3 -14    0.56    0.18
   4   3  14    0.59    0.22
   5   3  14    0.51    0.24
  -5   4  14    0.64    0.26
  -5   4  14    1.05    0.24
  -4   4  14    0.59    0.18
  -4   4  14    0.48    0.21
   3  -4 -14    0.55    0.14
  -3   4  14    0.65    0.19
  -3   4  14    0.40    0.14
   2  -4 -14   23.93    0.79
  -2   4  14   22.81    0.70
  -2   4  14   23.11    0.82
   1  -4 -14    3.45    0.22
  -1   4  14    3.01    0.33
  -1   4  14    3.93    0.27
   0  -4 -14    2.84    0.24
   0   4  14    2.71    0.23
   0   4  14    2.95    0.28
  -1  -4 -14    7.51    0.34
   1   4  14    7.54    0.32
   1   4  14    7.42    0.40
  -2  -4 -14    7.75    0.36
   2   4  14    7.21    0.44
  -3  -4 -14    3.71    0.28
   3   4  14    3.00    0.37
  -4  -4 -14    0.11    0.17
   4   4  14    0.38    0.20
  -5   5  14    1.12    0.30
  -5   5  14    1.10    0.24
  -4   5  14    1.09    0.22
  -4   5  14    0.32    0.20
  -3   5  14    1.47    0.28
  -3   5  14    0.94    0.19
   2  -5 -14    4.97    0.39
   2  -5 -14    5.40    0.27
  -2   5  14    5.31    0.41
  -2   5  14    5.17    0.34
  -1   5  14   24.75    0.84
  -1   5  14   22.98    0.70
   0   5  14    4.09    0.27
   0   5  14    3.84    0.33
  -1  -5 -14   10.98    0.45
   1   5  14   10.43    0.40
   1   5  14   11.28    0.51
  -2  -5 -14    0.40    0.15
   2   5  14    0.42    0.17
  -3  -5 -14    1.95    0.25
   3   5  14    3.34    0.40
   4   5  14    0.03    0.17
  -4   6  14    0.73    0.20
  -4   6  14    0.95    0.28
  -3   6  14    2.09    0.34
  -3   6  14    1.72    0.26
   2  -6 -14    0.11    0.16
   2  -6 -14    0.21    0.10
  -2   6  14    0.20    0.13
  -2   6  14    0.13    0.16
  -1   6  14    8.19    0.41
  -1   6  14    7.54    0.48
   0   6  14    5.15    0.32
  -1  -6 -14    1.25    0.21
   1   6  14    0.98    0.15
  -2  -6 -14    0.86    0.20
   2   6  14    1.16    0.25
  -3  -6 -14    0.54    0.20
   3   6  14    0.68    0.24
  -3   7  14    2.38    0.38
  -3   7  14    1.69    0.27
   2  -7 -14    0.15    0.12
  -2   7  14    0.07    0.17
  -2   7  14    0.55    0.18
  -1   7  14    3.07    0.39
  -1   7  14    2.61    0.29
   0   7  14    2.07    0.23
   0   7  14    2.00    0.25
  -1  -7 -14    0.66    0.18
  -2  -7 -14    1.37    0.26
   2   7  14    2.00    0.34
  -2   8  14    0.21    0.16
  -2   8  14   -0.03    0.18
  -1   8  14    4.00    0.37
  -1   8  14    4.01    0.36
   0   8  14    0.25    0.14
  -1  -8 -14    2.51    0.33
   0   9 -15    2.87    0.40
   0  -9  15    3.35    0.39
  -1   9 -15    2.61    0.39
   1  -9  15    2.30    0.30
  -2   9 -15    0.18    0.21
   2   8 -15    0.87    0.24
  -2  -8  15    1.12    0.25
  -2  -8  15    1.15    0.28
   1   8 -15    1.10    0.25
   1   8 -15    1.22    0.27
  -1  -8  15    1.25    0.27
  -1  -8  15    1.11    0.23
   0   8 -15    4.58    0.47
   0   8 -15    4.48    0.43
   0  -8  15    4.45    0.38
   0  -8  15    4.21    0.31
  -1   8 -15    0.67    0.22
  -1   8 -15    0.86    0.23
   1  -8  15    1.12    0.21
  -2   8 -15    1.05    0.24
  -2   8 -15    1.47    0.31
  -3   8 -15    0.01    0.18
  -3   8 -15   -0.03    0.14
   3   7 -15    0.81    0.23
  -3  -7  15    0.75    0.25
  -3  -7  15    0.80    0.25
  -3  -7  15    1.18    0.25
   2   7 -15    0.40    0.17
  -2  -7  15    0.09    0.15
  -2  -7  15   -0.05    0.17
  -2  -7  15   -0.04    0.17
   1   7 -15    0.18    0.14
   1   7 -15    0.14    0.15
  -1  -7  15    0.14    0.18
  -1  -7  15   -0.03    0.13
  -1  -7  15    0.10    0.15
  -1  -7  15    0.20    0.16
   0   7 -15    0.35    0.18
   0   7 -15    0.28    0.15
   0  -7  15    0.52    0.18
   0  -7  15    0.36    0.14
  -1   7 -15    1.81    0.29
  -1   7 -15    1.72    0.28
   1  -7  15    2.18    0.25
   1  -7  15    2.40    0.28
  -2   7 -15    6.29    0.45
  -2   7 -15    7.60    0.50
  -3   7 -15    1.45    0.29
  -3   7 -15    1.65    0.29
  -4   7 -15    0.69    0.23
  -4   7 -15    1.00    0.25
  -4  -6  15    4.54    0.42
  -4  -6  15    4.17    0.46
  -4  -6  15    4.33    0.46
   3   6 -15    0.14    0.14
  -3  -6  15    0.34    0.17
  -3  -6  15   -0.08    0.17
  -3  -6  15    0.23    0.17
   2   6 -15    0.06    0.11
   2   6 -15    0.00    0.12
  -2  -6  15    0.22    0.14
  -2  -6  15    0.07    0.16
  -2  -6  15   -0.01    0.14
   1   6 -15    0.03    0.13
   1   6 -15    0.16    0.12
  -1  -6  15    0.15    0.11
  -1  -6  15    0.03    0.12
  -1  -6  15    0.09    0.12
  -1  -6  15    0.03    0.13
   0   6 -15    4.22    0.35
   0   6 -15    4.19    0.37
   0  -6  15    4.58    0.26
   0  -6  15    4.03    0.32
   0  -6  15    4.53    0.20
  -1   6 -15    0.58    0.19
  -1   6 -15    0.58    0.18
   1  -6  15    0.63    0.16
  -2   6 -15    2.05    0.29
  -2   6 -15    2.01    0.29
  -3   6 -15    0.39    0.18
  -3   6 -15    0.20    0.15
  -4   6 -15    3.59    0.39
  -4   6 -15    2.86    0.35
   4   5 -15    1.54    0.25
  -4  -5  15    2.01    0.33
  -4  -5  15    1.82    0.30
  -4  -5  15    1.56    0.29
   3   5 -15    2.33    0.29
  -3  -5  15    2.52    0.29
  -3  -5  15    2.36    0.33
  -3  -5  15    2.41    0.32
   2   5 -15    7.25    0.42
   2   5 -15    7.11    0.45
  -2  -5  15    7.30    0.45
  -2  -5  15    7.19    0.36
  -2  -5  15    6.71    0.42
   1   5 -15    7.13    0.42
   1   5 -15    7.33    0.45
  -1  -5  15    7.34    0.42
  -1  -5  15    7.42    0.31
  -1  -5  15    7.49    0.32
  -1  -5  15    7.65    0.42
   0   5 -15   12.13    0.55
   0   5 -15   11.91    0.56
   0  -5  15   11.06    0.36
   0  -5  15   11.36    0.47
   0  -5  15   11.10    0.32
   0  -5  15   10.76    0.46
  -1   5 -15    3.02    0.32
  -1   5 -15    2.83    0.32
   1  -5  15    3.17    0.24
  -2   5 -15    0.74    0.20
  -2   5 -15    0.98    0.22
  -3   5 -15    2.12    0.29
  -3   5 -15    1.90    0.27
  -4   5 -15    0.39    0.18
  -4   5 -15    0.33    0.18
  -5   5 -15    2.70    0.33
  -5   5 -15    2.22    0.33
  -5  -4  15   -0.11    0.18
  -5  -4  15    0.39    0.22
  -5  -4  15    0.21    0.23
   4   4 -15    3.25    0.33
  -4  -4  15    2.97    0.34
  -4  -4  15    2.78    0.35
  -4  -4  15    3.62    0.38
   3   4 -15    2.34    0.29
  -3  -4  15    1.83    0.27
  -3  -4  15    2.29    0.28
  -3  -4  15    1.94    0.28
   2   4 -15    3.66    0.33
   2   4 -15    3.69    0.29
  -2  -4  15    3.81    0.31
  -2  -4  15    3.86    0.26
  -2  -4  15    3.61    0.33
  -2  -4  15    3.07    0.31
   1   4 -15    3.48    0.32
   1   4 -15    3.60    0.30
  -1  -4  15    3.61    0.31
  -1  -4  15    3.77    0.31
  -1  -4  15    3.23    0.22
  -1  -4  15    3.02    0.21
   0   4 -15    4.21    0.33
   0   4 -15    4.04    0.32
   0   4 -15    3.84    0.21
   0  -4  15    3.56    0.17
   0  -4  15    3.85    0.28
   0  -4  15    3.72    0.28
  -1   4 -15    0.47    0.15
  -1   4 -15    0.71    0.17
  -1   4 -15    0.67    0.12
   1  -4  15    0.48    0.13
  -2   4 -15    0.39    0.16
  -2   4 -15    0.46    0.16
  -3   4 -15    8.79    0.49
  -3   4 -15    8.94    0.45
  -3   4 -15    7.83    0.35
  -4   4 -15    0.38    0.17
  -4   4 -15    0.66    0.18
  -5   4 -15   -0.13    0.15
  -5  -3  15    0.38    0.22
  -5  -3  15    0.60    0.23
  -5  -3  15    1.33    0.30
   4   3 -15    0.09    0.10
  -4  -3  15    0.03    0.14
  -4  -3  15    0.33    0.18
  -4  -3  15    0.01    0.16
   3   3 -15    2.94    0.29
   3   3 -15    3.02    0.44
  -3  -3  15    2.79    0.30
  -3  -3  15    2.02    0.27
  -3  -3  15    2.24    0.28
   2   3 -15    8.25    0.41
   2   3 -15    9.29    0.46
  -2  -3  15    8.85    0.46
  -2  -3  15    8.38    0.34
  -2  -3  15    8.87    0.38
  -2  -3  15    8.07    0.43
   1   3 -15   19.19    0.65
   1   3 -15   19.32    0.68
  -1  -3  15   18.91    0.50
  -1  -3  15   17.78    0.61
  -1  -3  15   19.11    0.63
  -1  -3  15   18.92    0.49
   0   3 -15    0.64    0.16
   0   3 -15    0.72    0.17
   0  -3  15    0.82    0.09
   0  -3  15    0.71    0.15
   0  -3  15    1.03    0.10
   0  -3  15    0.97    0.17
  -1   3 -15    3.97    0.31
  -1   3 -15    4.22    0.22
  -1   3 -15    4.51    0.32
   1  -3  15    4.54    0.24
   1  -3  15    4.42    0.24
   1  -3  15    4.34    0.22
  -2   3 -15    1.59    0.14
  -2   3 -15    1.57    0.22
  -2   3 -15    1.38    0.23
  -3   3 -15    4.41    0.32
  -3   3 -15    4.18    0.35
  -4   3 -15    1.18    0.20
  -4   3 -15    1.00    0.23
  -5   3 -15    0.39    0.17
  -5  -2  15    2.06    0.32
  -5  -2  15    1.55    0.28
  -5  -2  15    1.56    0.34
   4   2 -15    2.74    0.26
  -4  -2  15    2.84    0.33
  -4  -2  15    3.28    0.38
  -4  -2  15    2.60    0.33
   3   2 -15   16.42    0.56
   3   2 -15   16.39    0.62
  -3  -2  15   15.29    0.61
  -3  -2  15   16.44    0.65
  -3  -2  15   16.89    0.63
   2   2 -15   28.97    0.87
   2   2 -15   29.97    0.82
  -2  -2  15   29.07    0.86
  -2  -2  15   29.55    0.79
  -2  -2  15   29.38    0.83
  -2  -2  15   28.31    0.70
   1   2 -15    8.71    0.44
   1   2 -15    8.45    0.40
  -1  -2  15    8.47    0.30
  -1  -2  15    8.72    0.39
  -1  -2  15    9.03    0.31
  -1  -2  15    8.85    0.41
   0   2 -15    5.82    0.34
   0   2 -15    5.79    0.35
   0  -2  15    6.10    0.32
   0  -2  15    5.93    0.30
  -1   2 -15    1.80    0.23
  -1   2 -15    2.04    0.15
  -1   2 -15    1.49    0.14
  -1   2 -15    1.69    0.23
   1  -2  15    1.63    0.16
   1  -2  15    1.43    0.15
   1  -2  15    1.87    0.18
  -2   2 -15    0.81    0.19
  -2   2 -15    1.17    0.19
  -2   2 -15    0.94    0.11
   2  -2  15    1.00    0.16
  -3   2 -15    3.16    0.33
  -3   2 -15    2.89    0.27
  -4   2 -15    0.60    0.15
  -4   2 -15    0.14    0.16
  -5   2 -15    0.38    0.20
  -5  -1  15    0.63    0.21
  -5  -1  15    0.56    0.23
  -5  -1  15    0.38    0.24
   4   1 -15    4.46    0.28
  -4  -1  15    4.37    0.39
  -4  -1  15    4.72    0.42
  -4  -1  15    4.67    0.36
   3   1 -15   22.69    0.73
   3   1 -15   21.77    0.65
  -3  -1  15   23.24    0.78
  -3  -1  15   21.92    0.71
  -3  -1  15   23.46    0.78
   2   1 -15    0.02    0.10
   2   1 -15   -0.03    0.08
  -2  -1  15   -0.10    0.11
  -2  -1  15   -0.17    0.09
  -2  -1  15    0.09    0.12
  -2  -1  15    0.22    0.10
   1   1 -15   12.79    0.49
   1   1 -15   12.39    0.52
  -1  -1  15   12.98    0.38
  -1  -1  15   12.92    0.40
  -1  -1  15   12.78    0.50
   0   1 -15    4.21    0.22
   0   1 -15    4.24    0.30
   0   1 -15    3.98    0.29
   0  -1  15    4.19    0.27
   0  -1  15    4.23    0.25
  -1   1 -15    4.10    0.29
  -1   1 -15    4.17    0.20
  -1   1 -15    3.98    0.30
   1  -1  15    3.74    0.22
   1  -1  15    3.69    0.22
   1  -1  15    3.95    0.21
  -2   1 -15    3.07    0.25
  -2   1 -15    3.48    0.35
  -2   1 -15    2.62    0.15
   2  -1  15    3.12    0.24
   2  -1  15    2.57    0.23
  -3   1 -15    4.53    0.30
  -3   1 -15    5.64    0.39
   3  -1  15    5.02    0.34
   3  -1  15    5.62    0.37
  -4   1 -15    0.08    0.15
   4  -1  15    0.00    0.13
  -5   1 -15    0.68    0.21
  -5   0  15    0.11    0.18
  -5   0  15    0.00    0.22
  -5   0  15    0.02    0.16
  -4   0  15    0.85    0.22
  -4   0  15    1.17    0.22
   3   0 -15    7.77    0.41
   3   0 -15    7.63    0.35
  -3   0  15    8.83    0.48
  -3   0  15    8.40    0.42
   2   0 -15   10.46    0.42
   2   0 -15   10.86    0.48
  -2   0  15   10.64    0.36
  -2   0  15   11.16    0.46
  -2   0  15   10.65    0.49
   1   0 -15   15.66    0.55
   1   0 -15   15.29    0.58
  -1   0  15   15.85    0.43
  -1   0  15   16.09    0.57
  -1   0  15   15.72    0.53
   0   0 -15    7.60    0.29
   0   0 -15    8.02    0.39
   0   0 -15    7.21    0.39
   0   0  15    7.47    0.35
   0   0  15    7.64    0.33
   0   0  15    7.72    0.26
  -1   0 -15    3.57    0.19
  -1   0 -15    3.56    0.28
  -1   0 -15    3.63    0.29
   1   0  15    3.62    0.22
   1   0  15    3.69    0.20
   1   0  15    3.73    0.23
  -2   0 -15    0.67    0.18
  -2   0 -15    0.80    0.16
  -2   0 -15    0.72    0.10
   2   0  15    0.82    0.16
   2   0  15    0.77    0.14
   2   0  15    0.88    0.12
  -3   0 -15    4.00    0.35
   3   0  15    4.23    0.34
   3   0  15    3.95    0.31
  -4   0 -15    0.76    0.22
   4   0  15    0.51    0.19
  -5   0 -15    0.48    0.22
   5   0  15    0.59    0.23
  -5   1  15    2.85    0.33
  -5   1  15    2.38    0.34
  -4   1  15    3.33    0.33
  -4   1  15    2.87    0.34
   3  -1 -15    2.48    0.29
   3  -1 -15    2.21    0.20
  -3   1  15    2.08    0.25
  -3   1  15    1.88    0.27
   2  -1 -15    1.51    0.23
   2  -1 -15    1.44    0.20
  -2   1  15    1.37    0.21
  -2   1  15    1.49    0.24
  -2   1  15    1.52    0.17
   1  -1 -15   10.29    0.44
   1  -1 -15   10.33    0.48
  -1   1  15    9.90    0.45
  -1   1  15   10.09    0.33
  -1   1  15    9.63    0.28
  -1   1  15   10.07    0.41
   0  -1 -15    2.12    0.18
   0  -1 -15    3.10    0.32
   0  -1 -15    2.96    0.30
   0   1  15    2.58    0.26
   0   1  15    2.61    0.24
   0   1  15    2.29    0.17
  -1  -1 -15    0.47    0.10
  -1  -1 -15    0.29    0.15
   1   1  15    0.40    0.11
   1   1  15    0.47    0.12
   1   1  15    0.45    0.10
  -2  -1 -15    0.34    0.16
   2   1  15    0.19    0.12
   2   1  15    0.20    0.07
   2   1  15    0.20    0.10
  -3  -1 -15    3.46    0.38
   3   1  15    3.56    0.34
   3   1  15    3.46    0.37
  -4  -1 -15    1.01    0.24
   4   1  15    0.85    0.22
  -5  -1 -15    0.67    0.25
   5   1  15    0.68    0.24
  -5   2  15    0.61    0.21
  -5   2  15    0.38    0.21
  -4   2  15    1.66    0.28
  -4   2  15    1.69    0.25
   3  -2 -15    2.06    0.20
   3  -2 -15    1.64    0.23
  -3   2  15    1.93    0.24
  -3   2  15    1.63    0.26
   2  -2 -15    2.64    0.31
   2  -2 -15    2.24    0.24
  -2   2  15    2.09    0.18
  -2   2  15    2.24    0.27
  -2   2  15    2.76    0.29
   1  -2 -15    3.59    0.32
   1  -2 -15    3.93    0.22
   1  -2 -15    4.41    0.31
  -1   2  15    3.90    0.27
  -1   2  15    3.73    0.27
  -1   2  15    4.36    0.32
   0  -2 -15   38.05    1.02
   0  -2 -15   35.99    0.82
   0  -2 -15   38.36    1.01
   0   2  15   37.11    0.86
   0   2  15   35.33    0.79
   0   2  15   35.43    0.86
   0   2  15   37.32    0.95
  -1  -2 -15    3.71    0.21
   1   2  15    3.76    0.19
   1   2  15    3.99    0.25
   1   2  15    4.07    0.22
   1   2  15    4.11    0.27
  -2  -2 -15    2.95    0.18
   2   2  15    3.05    0.31
   2   2  15    3.21    0.26
  -3  -2 -15    5.75    0.27
   3   2  15    5.92    0.43
   3   2  15    5.57    0.62
  -4  -2 -15    0.53    0.22
   4   2  15    0.62    0.23
  -5  -2 -15    0.64    0.27
   5   2  15    0.66    0.27
  -5   3  15    1.51    0.32
  -5   3  15    1.51    0.27
  -4   3  15   -0.04    0.12
  -4   3  15    0.07    0.16
   3  -3 -15    0.62    0.17
   3  -3 -15    0.56    0.13
  -3   3  15    0.62    0.17
  -3   3  15    0.60    0.19
   2  -3 -15    1.59    0.24
   2  -3 -15    1.78    0.22
  -2   3  15    1.23    0.20
  -2   3  15    1.23    0.23
   1  -3 -15   18.35    0.52
   1  -3 -15   18.62    0.69
  -1   3  15   18.17    0.66
  -1   3  15   18.08    0.59
   0  -3 -15   39.12    0.88
   0   3  15   40.22    1.03
   0   3  15   39.05    0.93
   0   3  15   39.29    0.93
  -1  -3 -15    1.00    0.15
   1   3  15    1.11    0.15
   1   3  15    1.44    0.20
   1   3  15    1.58    0.22
  -2  -3 -15    6.05    0.29
   2   3  15    6.18    0.40
  -3  -3 -15    3.11    0.24
   3   3  15    3.21    0.38
   4   3  15    1.81    0.33
  -5   4  15    0.18    0.22
  -5   4  15   -0.05    0.16
  -4   4  15    4.90    0.45
  -4   4  15    4.15    0.36
   3  -4 -15    0.39    0.13
  -3   4  15    0.60    0.18
  -3   4  15    0.66    0.21
   2  -4 -15    1.46    0.25
  -2   4  15    1.04    0.19
  -2   4  15    1.30    0.25
   1  -4 -15    7.50    0.37
  -1   4  15    7.62    0.45
  -1   4  15    7.18    0.37
   0   4  15    8.88    0.38
   0   4  15    9.59    0.46
  -1  -4 -15    9.71    0.40
   1   4  15    8.67    0.35
   1   4  15   10.00    0.47
  -2  -4 -15    0.81    0.16
   2   4  15    1.04    0.22
  -3  -4 -15    2.76    0.26
   3   4  15    2.99    0.38
   4   4  15    2.41    0.40
  -4   5  15    0.24    0.16
  -4   5  15    0.17    0.20
  -3   5  15    0.47    0.17
  -3   5  15    0.29    0.19
   2  -5 -15    0.72    0.21
  -2   5  15    0.66    0.17
  -2   5  15    1.00    0.24
  -1   5  15    0.94    0.22
  -1   5  15    0.96    0.17
   0   5  15    2.52    0.26
  -1  -5 -15    0.34    0.14
   1   5  15    0.37    0.12
   1   5  15    0.65    0.17
  -2  -5 -15    0.41    0.15
   2   5  15    0.21    0.15
  -3  -5 -15    0.78    0.20
   3   5  15    0.85    0.24
  -4   6  15    0.09    0.17
  -4   6  15    0.15    0.21
  -3   6  15    2.06    0.28
  -3   6  15    2.45    0.37
   2  -6 -15    0.69    0.15
   2  -6 -15    0.78    0.23
  -2   6  15    0.93    0.20
  -2   6  15    0.82    0.24
  -1   6  15    0.92    0.19
  -1   6  15    1.30    0.28
   0   6  15    2.62    0.27
  -1  -6 -15    2.52    0.30
   1   6  15    1.82    0.27
  -2  -6 -15    0.26    0.15
   2   6  15    0.06    0.15
  -3  -6 -15    0.57    0.21
   3   6  15    0.85    0.27
  -3   7  15    3.21    0.46
  -3   7  15    3.18    0.37
  -2   7  15    1.38    0.25
  -2   7  15    1.46    0.32
  -1   7  15    1.60    0.25
   0   7  15    2.70    0.29
  -1  -7 -15    0.36    0.17
   1   7  15    0.64    0.20
  -2  -7 -15    0.45    0.19
   2   7  15    0.30    0.20
  -1   8  15    0.39    0.15
  -1   8  15    0.44    0.18
   0   8  15    0.13    0.14
   1   8 -16    3.34    0.42
   1   8 -16    3.08    0.40
  -1  -8  16    3.46    0.40
  -1  -8  16    2.62    0.35
   0   8 -16    0.61    0.23
   0   8 -16    0.23    0.17
   0  -8  16    0.32    0.19
  -1   8 -16    1.31    0.27
  -1   8 -16    1.99    0.35
   1  -8  16    1.92    0.27
  -2   8 -16    0.76    0.23
  -2   8 -16    0.70    0.24
  -3   8 -16    1.54    0.32
   3   7 -16    2.57    0.36
  -3  -7  16    2.94    0.34
  -3  -7  16    2.32    0.36
  -3  -7  16    2.52    0.38
   2   7 -16    0.10    0.13
  -2  -7  16   -0.13    0.17
  -2  -7  16    0.05    0.15
  -2  -7  16   -0.15    0.17
   1   7 -16    4.04    0.39
   1   7 -16    2.99    0.36
  -1  -7  16    3.29    0.29
  -1  -7  16    3.54    0.35
  -1  -7  16    3.47    0.37
   0   7 -16    1.05    0.24
   0   7 -16    0.64    0.21
   0  -7  16    0.84    0.21
  -1   7 -16    0.62    0.20
  -1   7 -16    1.02    0.24
   1  -7  16    1.01    0.20
  -2   7 -16    4.79    0.41
  -2   7 -16    5.96    0.47
  -3   7 -16   -0.02    0.17
  -3   7 -16    0.12    0.14
  -4   7 -16    0.11    0.18
  -4   7 -16    0.09    0.19
   3   6 -16    0.23    0.15
  -3  -6  16    0.61    0.22
  -3  -6  16    0.27    0.21
  -3  -6  16    0.65    0.21
   2   6 -16    2.63    0.35
   2   6 -16    2.63    0.34
  -2  -6  16    1.93    0.28
  -2  -6  16    2.28    0.30
  -2  -6  16    2.49    0.28
   1   6 -16    4.85    0.40
   1   6 -16    4.86    0.38
  -1  -6  16    4.92    0.38
  -1  -6  16    5.05    0.37
  -1  -6  16    4.80    0.29
  -1  -6  16    4.92    0.27
   0   6 -16    0.33    0.16
   0   6 -16    0.54    0.19
   0  -6  16    0.20    0.15
   0  -6  16    0.28    0.12
  -1   6 -16    3.10    0.36
  -1   6 -16    2.81    0.37
   1  -6  16    2.77    0.27
  -2   6 -16    1.42    0.27
  -2   6 -16    1.51    0.27
  -3   6 -16    0.37    0.17
  -3   6 -16    0.42    0.19
  -4   6 -16    0.17    0.17
  -4   6 -16    0.25    0.18
   4   5 -16    3.64    0.38
  -4  -5  16    3.58    0.40
  -4  -5  16    3.70    0.41
  -4  -5  16    3.50    0.39
   3   5 -16    0.06    0.12
  -3  -5  16    0.24    0.15
  -3  -5  16    0.28    0.20
  -3  -5  16    0.14    0.18
   2   5 -16    2.55    0.34
   2   5 -16    2.03    0.28
  -2  -5  16    2.17    0.28
  -2  -5  16    2.82    0.32
  -2  -5  16    2.12    0.24
   1   5 -16    2.40    0.32
   1   5 -16    2.31    0.29
  -1  -5  16    2.00    0.28
  -1  -5  16    2.34    0.20
  -1  -5  16    2.64    0.30
  -1  -5  16    2.66    0.20
   0   5 -16    1.80    0.29
   0   5 -16    1.31    0.23
   0  -5  16    1.10    0.20
   0  -5  16    1.63    0.23
  -1   5 -16    4.19    0.35
  -1   5 -16    3.92    0.33
   1  -5  16    3.96    0.27
  -2   5 -16    0.16    0.13
  -2   5 -16    0.32    0.18
  -3   5 -16    1.02    0.23
  -3   5 -16    1.03    0.23
  -4   5 -16    0.77    0.22
  -4   5 -16    0.88    0.24
  -5   5 -16    0.68    0.23
  -5   5 -16    1.54    0.29
   4   4 -16    4.25    0.34
  -4  -4  16    5.31    0.43
  -4  -4  16    5.03    0.40
  -4  -4  16    4.31    0.44
   3   4 -16    2.15    0.27
  -3  -4  16    2.38    0.28
  -3  -4  16    2.21    0.32
  -3  -4  16    1.65    0.27
   2   4 -16    0.47    0.15
   2   4 -16    0.68    0.19
  -2  -4  16    0.53    0.19
  -2  -4  16    0.62    0.15
  -2  -4  16    0.57    0.19
   1   4 -16   31.02    0.93
   1   4 -16   31.27    0.96
  -1  -4  16   30.93    0.72
  -1  -4  16   32.41    0.90
  -1  -4  16   31.26    0.73
  -1  -4  16   30.64    0.88
   0   4 -16   11.35    0.54
   0   4 -16   10.65    0.52
   0  -4  16   11.43    0.46
   0  -4  16   11.35    0.46
  -1   4 -16    0.74    0.19
  -1   4 -16    0.40    0.16
   1  -4  16    0.59    0.14
  -2   4 -16    4.14    0.35
  -2   4 -16    3.91    0.33
  -3   4 -16    1.62    0.26
  -3   4 -16    2.18    0.29
  -4   4 -16    1.81    0.27
  -4   4 -16    1.28    0.26
  -5   4 -16    0.74    0.24
  -5   4 -16    0.36    0.21
  -5  -3  16    2.11    0.34
  -5  -3  16    1.73    0.30
  -5  -3  16    1.89    0.34
   4   3 -16    3.28    0.27
  -4  -3  16    3.69    0.39
  -4  -3  16    3.29    0.37
  -4  -3  16    3.03    0.35
   3   3 -16    0.48    0.15
  -3  -3  16    0.04    0.14
  -3  -3  16    0.36    0.16
  -3  -3  16    0.33    0.17
   2   3 -16    5.12    0.34
   2   3 -16    4.96    0.37
  -2  -3  16    5.41    0.29
  -2  -3  16    5.71    0.39
  -2  -3  16    5.20    0.36
  -2  -3  16    5.45    0.31
   1   3 -16    9.11    0.45
   1   3 -16    9.84    0.49
  -1  -3  16    8.93    0.42
  -1  -3  16    9.24    0.33
  -1  -3  16    9.73    0.46
  -1  -3  16    8.97    0.32
   0   3 -16   18.63    0.66
   0   3 -16   18.94    0.68
   0  -3  16   17.95    0.57
   0  -3  16   18.70    0.59
   0  -3  16   17.69    0.44
  -1   3 -16    5.56    0.37
  -1   3 -16    6.06    0.38
  -1   3 -16    5.58    0.30
   1  -3  16    6.10    0.29
   1  -3  16    5.78    0.30
   1  -3  16    5.97    0.26
  -2   3 -16    3.11    0.19
  -2   3 -16    3.07    0.32
  -2   3 -16    2.84    0.30
  -3   3 -16    0.41    0.16
  -3   3 -16    0.47    0.18
  -4   3 -16    2.05    0.30
  -4   3 -16    1.67    0.25
  -5   3 -16    0.16    0.17
  -5  -2  16    0.92    0.25
  -5  -2  16    1.09    0.32
  -5  -2  16    0.84    0.26
   4   2 -16    2.88    0.32
  -4  -2  16    2.96    0.35
  -4  -2  16    3.00    0.38
  -4  -2  16    3.14    0.34
   3   2 -16    3.41    0.41
   3   2 -16    2.80    0.28
  -3  -2  16    3.30    0.34
  -3  -2  16    2.58    0.30
  -3  -2  16    2.19    0.29
   2   2 -16   18.16    0.63
   2   2 -16   19.31    0.69
  -2  -2  16   18.35    0.64
  -2  -2  16   18.99    0.60
  -2  -2  16   18.35    0.53
  -2  -2  16   19.17    0.68
   1   2 -16    0.10    0.13
   1   2 -16    0.01    0.10
  -1  -2  16    0.09    0.08
  -1  -2  16    0.25    0.10
  -1  -2  16    0.14    0.13
  -1  -2  16    0.03    0.11
   0   2 -16    4.14    0.32
   0   2 -16    4.56    0.33
   0  -2  16    4.78    0.28
   0  -2  16    4.40    0.29
  -1   2 -16    2.46    0.18
  -1   2 -16    2.56    0.29
  -1   2 -16    2.46    0.29
  -1   2 -16    2.24    0.16
   1  -2  16    2.36    0.18
   1  -2  16    2.35    0.19
   1  -2  16    2.27    0.19
  -2   2 -16    8.26    0.45
  -2   2 -16    7.81    0.41
  -2   2 -16    6.95    0.26
   2  -2  16    6.98    0.34
  -3   2 -16    0.31    0.16
  -3   2 -16    0.26    0.15
  -4   2 -16    0.55    0.21
  -4   2 -16    0.38    0.16
  -5   2 -16   -0.14    0.16
  -5  -1  16   -0.18    0.19
  -5  -1  16    0.14    0.23
  -5  -1  16    0.14    0.18
  -4  -1  16    2.12    0.29
  -4  -1  16    2.13    0.32
  -4  -1  16    3.00    0.38
   3   1 -16    1.88    0.22
   3   1 -16    2.24    0.29
  -3  -1  16    1.87    0.28
  -3  -1  16    1.75    0.27
  -3  -1  16    1.21    0.21
   2   1 -16    0.51    0.16
   2   1 -16    0.54    0.15
  -2  -1  16    0.27    0.14
  -2  -1  16    0.51    0.12
  -2  -1  16    0.34    0.16
  -2  -1  16    0.42    0.16
   1   1 -16    3.88    0.28
   1   1 -16    3.34    0.31
  -1  -1  16    3.48    0.22
  -1  -1  16    3.86    0.29
  -1  -1  16    3.56    0.20
  -1  -1  16    3.44    0.29
   0   1 -16    1.23    0.21
   0   1 -16    1.32    0.21
   0  -1  16    1.32    0.18
   0  -1  16    1.72    0.21
  -1   1 -16    1.02    0.19
  -1   1 -16    1.32    0.20
  -1   1 -16    1.18    0.14
   1  -1  16    1.18    0.15
   1  -1  16    1.20    0.16
   1  -1  16    1.18    0.15
  -2   1 -16    0.49    0.09
  -2   1 -16    0.48    0.15
  -2   1 -16    0.46    0.16
   2  -1  16    0.38    0.12
   2  -1  16    0.15    0.11
  -3   1 -16    3.92    0.32
  -3   1 -16    3.63    0.37
   3  -1  16    4.17    0.31
   3  -1  16    4.50    0.34
  -4   1 -16    0.61    0.21
  -4   1 -16    0.39    0.15
  -5   1 -16    0.09    0.18
  -5   0  16   -0.24    0.19
  -5   0  16    0.09    0.18
  -5   0  16   -0.08    0.20
  -4   0  16    2.17    0.28
  -4   0  16    1.86    0.29
   3   0 -16   15.31    0.53
   3   0 -16   16.63    0.62
  -3   0  16   15.85    0.66
  -3   0  16   16.60    0.61
   2   0 -16    3.07    0.29
   2   0 -16    2.64    0.26
  -2   0  16    2.43    0.19
  -2   0  16    2.91    0.30
  -2   0  16    2.52    0.28
   1   0 -16   16.89    0.63
   1   0 -16   16.66    0.59
  -1   0  16   16.75    0.56
  -1   0  16   16.31    0.44
  -1   0  16   16.22    0.59
   0   0 -16   11.65    0.50
   0   0 -16   11.54    0.50
   0   0 -16   11.12    0.38
   0   0  16   11.20    0.42
   0   0  16   11.18    0.45
   0   0  16   11.22    0.33
  -1   0 -16    1.21    0.22
  -1   0 -16    1.34    0.15
  -1   0 -16    0.91    0.20
   1   0  16    1.46    0.16
   1   0  16    1.45    0.17
   1   0  16    1.31    0.16
  -2   0 -16    7.20    0.39
  -2   0 -16    6.66    0.42
  -2   0 -16    6.50    0.25
   2   0  16    7.31    0.36
   2   0  16    6.86    0.37
  -3   0 -16    1.28    0.24
   3   0  16    0.97    0.19
   3   0  16    1.18    0.23
  -4   0 -16   -0.19    0.13
   4   0  16   -0.05    0.14
  -5   0 -16    1.63    0.31
   5   0  16    1.33    0.31
  -5   1  16    0.50    0.26
  -5   1  16    0.92    0.25
  -4   1  16    2.59    0.33
  -4   1  16    2.80    0.32
   3  -1 -16    9.90    0.47
   3  -1 -16    9.12    0.39
  -3   1  16   10.15    0.47
  -3   1  16   10.60    0.54
   2  -1 -16    1.39    0.20
   2  -1 -16    1.91    0.25
  -2   1  16    1.30    0.23
  -2   1  16    1.85    0.25
  -2   1  16    1.54    0.17
   1  -1 -16    5.01    0.36
   1  -1 -16    5.39    0.34
  -1   1  16    5.31    0.20
  -1   1  16    5.42    0.25
  -1   1  16    5.29    0.31
  -1   1  16    5.65    0.35
   0  -1 -16    1.68    0.24
   0  -1 -16    2.02    0.20
   0  -1 -16    1.84    0.25
   0   1  16    2.14    0.23
   0   1  16    1.82    0.17
   0   1  16    1.71    0.23
  -1  -1 -16   16.45    0.47
  -1  -1 -16   17.51    0.66
  -1  -1 -16   17.76    0.63
   1   1  16   16.68    0.47
   1   1  16   17.50    0.53
   1   1  16   16.81    0.55
  -2  -1 -16    4.83    0.38
  -2  -1 -16    4.79    0.22
   2   1  16    5.34    0.25
   2   1  16    5.76    0.36
   2   1  16    5.14    0.31
  -3  -1 -16    1.29    0.26
   3   1  16    1.03    0.20
   3   1  16    1.25    0.24
  -4  -1 -16    0.16    0.19
   4   1  16    0.06    0.15
  -5  -1 -16    0.77    0.27
   5   1  16    0.52    0.23
  -5   2  16    1.16    0.30
  -5   2  16    0.85    0.25
  -4   2  16    4.98    0.43
  -4   2  16    3.39    0.34
   3  -2 -16    1.36    0.22
   3  -2 -16    0.88    0.16
  -3   2  16    0.77    0.21
  -3   2  16    1.07    0.19
   2  -2 -16    2.49    0.25
   2  -2 -16    3.25    0.34
  -2   2  16    2.41    0.25
  -2   2  16    2.44    0.29
  -2   2  16    2.32    0.19
   1  -2 -16   12.13    0.54
   1  -2 -16   10.96    0.39
   1  -2 -16   11.54    0.50
  -1   2  16   10.41    0.44
  -1   2  16   11.53    0.51
   0  -2 -16    9.43    0.48
   0  -2 -16    8.62    0.47
   0  -2 -16    8.64    0.34
   0   2  16    8.40    0.42
   0   2  16    8.70    0.30
   0   2  16    9.46    0.38
   0   2  16    9.05    0.36
  -1  -2 -16   16.43    0.67
  -1  -2 -16   16.03    0.47
   1   2  16   16.85    0.48
   1   2  16   17.21    0.58
   2   2  16    3.31    0.28
   2   2  16    3.74    0.32
  -3  -2 -16    8.84    0.54
   3   2  16    9.01    0.52
  -4  -2 -16   -0.22    0.17
   4   2  16   -0.07    0.15
  -5  -2 -16    0.38    0.26
  -5   3  16    0.83    0.26
  -5   3  16    0.58    0.21
  -4   3  16   -0.21    0.12
  -4   3  16    0.18    0.17
   3  -3 -16    2.66    0.25
  -3   3  16    2.66    0.35
  -3   3  16    2.61    0.29
   2  -3 -16    6.66    0.38
   2  -3 -16    7.22    0.44
  -2   3  16    7.21    0.39
  -2   3  16    7.56    0.46
   1  -3 -16    3.12    0.32
   1  -3 -16    2.93    0.22
   1  -3 -16    3.44    0.36
  -1   3  16    2.77    0.27
  -1   3  16    3.24    0.35
   0   3  16    4.34    0.27
   0   3  16    4.58    0.33
   0   3  16    4.45    0.27
   1   3  16    6.04    0.35
   1   3  16    5.78    0.28
  -2  -3 -16    1.95    0.18
   2   3  16    1.88    0.27
   3   3  16    1.00    0.24
   4   3  16    1.36    0.30
  -5   4  16    0.61    0.22
  -5   4  16    0.47    0.24
  -4   4  16    1.99    0.28
  -4   4  16    1.70    0.32
   3  -4 -16    0.27    0.12
  -3   4  16    0.24    0.14
  -3   4  16    0.17    0.17
   2  -4 -16    0.52    0.17
   2  -4 -16    0.56    0.21
  -2   4  16    0.91    0.22
  -2   4  16    0.70    0.17
   1  -4 -16   11.45    0.56
  -1   4  16   10.86    0.46
  -1   4  16   10.95    0.55
   0   4  16    2.59    0.32
   0   4  16    2.08    0.23
   1   4  16    0.81    0.15
   1   4  16    1.07    0.21
  -2  -4 -16    0.84    0.16
   2   4  16    0.60    0.19
   3   4  16    0.09    0.16
   4   4  16    1.52    0.33
  -4   5  16    0.73    0.26
  -4   5  16    0.59    0.20
  -3   5  16    3.82    0.46
  -3   5  16    4.27    0.35
   2  -5 -16    0.36    0.19
  -2   5  16    0.22    0.17
  -2   5  16    0.44    0.16
  -1   5  16    5.04    0.41
  -1   5  16    4.96    0.34
   0   5  16    4.66    0.31
   1   5  16    0.20    0.10
   1   5  16    0.14    0.13
  -2  -5 -16    2.59    0.27
   2   5  16    2.42    0.34
   3   5  16    0.64    0.23
  -4   6  16    0.19    0.21
  -3   6  16    1.17    0.24
  -3   6  16    1.24    0.30
   2  -6 -16    6.39    0.54
  -2   6  16    6.57    0.51
  -2   6  16    6.69    0.41
  -1   6  16    0.92    0.19
  -1   6  16    1.19    0.30
   0   6  16    3.07    0.29
   1   6  16    0.62    0.19
  -2  -6 -16    0.30    0.16
   2   6  16    0.21    0.17
  -2   7  16    3.83    0.48
  -2   7  16    4.30    0.41
  -1   7  16    0.34    0.16
   0   7  16    1.20    0.22
   1   7  16   -0.19    0.11
   1   8 -17    1.81    0.35
  -1  -8  17    1.71    0.31
   0   8 -17    1.23    0.28
   0  -8  17    1.21    0.24
  -1   8 -17    1.97    0.36
   1  -8  17    1.55    0.25
  -2   8 -17    1.84    0.34
   2   7 -17    0.95    0.24
  -2  -7  17    0.53    0.24
  -2  -7  17    1.42    0.25
  -2  -7  17    1.09    0.27
   1   7 -17    1.61    0.29
   1   7 -17    1.99    0.35
  -1  -7  17    1.32    0.26
  -1  -7  17    1.56    0.26
   0   7 -17    1.95    0.32
   0   7 -17    1.96    0.35
   0  -7  17    1.59    0.26
  -1   7 -17    0.05    0.14
  -1   7 -17    0.17    0.17
   1  -7  17    0.13    0.14
  -2   7 -17    0.61    0.23
  -2   7 -17    0.78    0.23
  -3   7 -17    0.40    0.22
  -3   7 -17    0.29    0.19
   3   6 -17    3.56    0.39
  -3  -6  17    3.49    0.35
  -3  -6  17    2.61    0.36
  -3  -6  17    2.84    0.37
   2   6 -17    0.56    0.18
  -2  -6  17    0.48    0.17
  -2  -6  17    0.35    0.20
  -2  -6  17    0.13    0.19
   1   6 -17    3.57    0.40
   1   6 -17    3.74    0.40
  -1  -6  17    3.51    0.35
  -1  -6  17    3.48    0.27
  -1  -6  17    4.15    0.36
  -1  -6  17    3.56    0.24
   0   6 -17    0.69    0.20
   0   6 -17    0.98    0.23
   0  -6  17    0.98    0.21
  -1   6 -17    0.59    0.23
  -1   6 -17    0.64    0.18
   1  -6  17    0.38    0.14
  -2   6 -17    0.58    0.20
  -2   6 -17    1.15    0.26
  -3   6 -17    1.19    0.27
  -3   6 -17    1.19    0.24
  -4   6 -17    0.32    0.19
  -4   6 -17    0.79    0.23
   4   5 -17    0.07    0.23
  -4  -5  17    0.77    0.23
  -4  -5  17    0.13    0.19
  -4  -5  17    0.28    0.23
   3   5 -17    2.93    0.34
  -3  -5  17    3.41    0.31
  -3  -5  17    2.66    0.35
  -3  -5  17    3.37    0.39
   2   5 -17    0.31    0.16
   2   5 -17    0.29    0.17
  -2  -5  17    0.30    0.18
  -2  -5  17    0.46    0.15
  -2  -5  17    0.40    0.19
   1   5 -17    2.49    0.34
   1   5 -17    1.81    0.27
  -1  -5  17    1.80    0.25
  -1  -5  17    1.95    0.20
  -1  -5  17    1.88    0.19
  -1  -5  17    2.08    0.28
   0   5 -17    4.08    0.36
   0   5 -17    4.19    0.43
   0  -5  17    3.97    0.31
   0  -5  17    4.06    0.36
  -1   5 -17    5.32    0.39
  -1   5 -17    4.43    0.39
   1  -5  17    4.78    0.30
  -2   5 -17    0.15    0.17
  -2   5 -17    0.17    0.14
  -3   5 -17    0.59    0.23
  -3   5 -17    0.36    0.19
  -4   5 -17    0.01    0.16
  -4   5 -17    0.34    0.22
  -4  -4  17    1.11    0.26
  -4  -4  17    1.24    0.26
  -4  -4  17    1.08    0.27
   3   4 -17    5.86    0.39
  -3  -4  17    6.46    0.47
  -3  -4  17    5.98    0.38
  -3  -4  17    5.91    0.44
   2   4 -17    1.80    0.27
   2   4 -17    1.53    0.27
  -2  -4  17    1.89    0.22
  -2  -4  17    1.07    0.22
  -2  -4  17    2.18    0.30
   1   4 -17    1.83    0.30
   1   4 -17    1.69    0.25
  -1  -4  17    1.67    0.17
  -1  -4  17    1.95    0.19
  -1  -4  17    1.30    0.23
  -1  -4  17    1.85    0.27
   0   4 -17    3.52    0.36
   0   4 -17    3.76    0.40
   0  -4  17    3.84    0.30
   0  -4  17    3.33    0.28
  -1   4 -17    3.50    0.37
  -1   4 -17    2.96    0.34
   1  -4  17    2.85    0.23
  -2   4 -17    0.08    0.12
  -2   4 -17    0.40    0.20
  -3   4 -17    0.99    0.23
  -3   4 -17    0.93    0.23
  -4   4 -17   -0.02    0.14
  -4   4 -17    0.09    0.18
  -5   4 -17    0.44    0.23
  -5   4 -17    0.18    0.20
  -4  -3  17    3.19    0.37
  -4  -3  17    2.94    0.35
  -4  -3  17    2.93    0.36
   3   3 -17    1.41    0.22
  -3  -3  17    1.08    0.23
  -3  -3  17    1.22    0.23
  -3  -3  17    1.40    0.27
   2   3 -17    0.01    0.11
   2   3 -17    0.01    0.10
  -2  -3  17    0.18    0.11
  -2  -3  17   -0.02    0.14
  -2  -3  17   -0.20    0.12
   1   3 -17    8.47    0.45
   1   3 -17    8.48    0.48
  -1  -3  17    8.87    0.31
  -1  -3  17    9.48    0.46
  -1  -3  17    9.15    0.33
  -1  -3  17    8.53    0.43
   0   3 -17    7.14    0.42
   0   3 -17    8.06    0.46
   0  -3  17    8.00    0.38
   0  -3  17    7.62    0.38
   0  -3  17    7.25    0.26
  -1   3 -17    6.87    0.42
  -1   3 -17    7.10    0.43
   1  -3  17    6.81    0.31
   1  -3  17    6.77    0.29
  -2   3 -17    2.92    0.33
  -2   3 -17    3.15    0.34
  -2   3 -17    3.73    0.21
  -3   3 -17    1.32    0.25
  -3   3 -17    1.88    0.28
  -4   3 -17    1.40    0.27
  -4   3 -17    1.20    0.24
  -5   3 -17    0.53    0.24
  -5   3 -17    0.05    0.18
  -5  -2  17    0.34    0.23
  -5  -2  17    0.40    0.24
  -5  -2  17    0.22    0.24
  -4  -2  17    2.96    0.35
  -4  -2  17    2.49    0.35
  -4  -2  17    2.30    0.33
   3   2 -17    0.54    0.14
  -3  -2  17    0.82    0.21
  -3  -2  17    0.57    0.20
  -3  -2  17    0.42    0.17
   2   2 -17   12.51    0.52
   2   2 -17   11.89    0.56
  -2  -2  17   12.51    0.56
  -2  -2  17   11.90    0.42
  -2  -2  17   12.52    0.47
  -2  -2  17   12.00    0.52
   1   2 -17   20.60    0.70
   1   2 -17   20.93    0.73
  -1  -2  17   20.86    0.69
  -1  -2  17   19.41    0.51
  -1  -2  17   20.53    0.66
  -1  -2  17   19.98    0.52
   0   2 -17    0.09    0.11
   0   2 -17    0.55    0.17
   0  -2  17    0.36    0.14
   0  -2  17    0.35    0.13
  -1   2 -17    2.77    0.31
  -1   2 -17    3.07    0.20
  -1   2 -17    3.27    0.31
   1  -2  17    2.86    0.20
   1  -2  17    2.76    0.20
  -2   2 -17    3.35    0.20
  -2   2 -17    3.68    0.32
  -2   2 -17    3.42    0.37
   2  -2  17    3.54    0.26
  -3   2 -17    0.18    0.16
  -3   2 -17    0.41    0.18
  -4   2 -17    2.56    0.30
  -4   2 -17    2.11    0.32
  -5   2 -17    0.43    0.23
  -5  -1  17    0.15    0.21
  -5  -1  17    0.62    0.23
  -5  -1  17    1.00    0.31
  -4  -1  17    1.31    0.26
  -4  -1  17    1.29    0.26
  -4  -1  17    1.30    0.29
   3   1 -17    6.21    0.48
   3   1 -17    5.06    0.31
  -3  -1  17    5.58    0.38
  -3  -1  17    5.72    0.42
  -3  -1  17    5.65    0.40
   2   1 -17   26.67    0.80
   2   1 -17   28.63    0.89
  -2  -1  17   28.30    0.79
  -2  -1  17   27.78    0.82
  -2  -1  17   29.05    0.88
  -2  -1  17   27.47    0.69
   1   1 -17    0.97    0.19
   1   1 -17    1.01    0.21
  -1  -1  17    1.21    0.16
  -1  -1  17    0.82    0.17
  -1  -1  17    1.22    0.22
  -1  -1  17    0.92    0.13
   0   1 -17    9.28    0.45
   0   1 -17    8.45    0.45
   0  -1  17    8.80    0.38
   0  -1  17    7.96    0.39
  -1   1 -17    7.85    0.44
  -1   1 -17    8.26    0.44
  -1   1 -17    7.68    0.30
   1  -1  17    7.36    0.32
   1  -1  17    7.71    0.31
  -2   1 -17    5.64    0.41
  -2   1 -17    5.63    0.37
  -2   1 -17    5.41    0.24
   2  -1  17    5.63    0.33
  -3   1 -17    3.76    0.34
  -3   1 -17    3.13    0.37
   3  -1  17    3.03    0.31
  -4   1 -17    2.15    0.28
  -4   1 -17    1.42    0.29
  -5   1 -17   -0.21    0.16
  -5   1 -17    0.07    0.18
  -5   0  17    2.21    0.40
  -5   0  17    1.25    0.27
  -5   0  17    1.17    0.29
  -4   0  17    1.87    0.30
  -4   0  17    1.28    0.25
   3   0 -17    4.67    0.30
   3   0 -17    5.13    0.39
  -3   0  17    5.15    0.41
  -3   0  17    4.64    0.35
   2   0 -17    5.20    0.38
   2   0 -17    4.66    0.31
  -2   0  17    5.89    0.39
  -2   0  17    5.02    0.34
  -2   0  17    5.12    0.26
   1   0 -17   40.27    1.09
   1   0 -17   40.47    1.05
  -1   0  17   40.55    0.99
  -1   0  17   40.54    1.05
  -1   0  17   38.49    0.84
   0   0 -17    6.39    0.41
   0   0 -17    6.33    0.39
   0   0 -17    6.10    0.29
   0   0  17    6.70    0.33
   0   0  17    6.61    0.24
   0   0  17    6.76    0.36
  -1   0 -17    0.40    0.10
  -1   0 -17    0.27    0.15
  -1   0 -17    0.31    0.15
   1   0  17    0.70    0.13
   1   0  17    0.43    0.11
  -2   0 -17   15.25    0.64
  -2   0 -17   12.84    0.39
  -2   0 -17   13.73    0.56
   2   0  17   12.43    0.50
   2   0  17   13.15    0.53
  -3   0 -17    0.25    0.15
  -3   0 -17    0.17    0.17
   3   0  17    0.22    0.14
   3   0  17    0.24    0.16
  -4   0 -17    0.17    0.20
   4   0  17    0.14    0.16
  -5   0 -17    0.53    0.24
   5   0  17    0.16    0.19
  -5   1  17    0.86    0.27
  -5   1  17    0.59    0.22
  -4   1  17    0.98    0.22
  -4   1  17    1.61    0.29
   3  -1 -17    1.93    0.22
   3  -1 -17    2.15    0.31
  -3   1  17    1.58    0.27
  -3   1  17    1.58    0.23
   2  -1 -17    4.52    0.36
   2  -1 -17    4.10    0.30
  -2   1  17    4.49    0.36
  -2   1  17    4.97    0.33
  -2   1  17    4.65    0.25
   1  -1 -17    0.59    0.17
   1  -1 -17    0.55    0.17
  -1   1  17    0.61    0.17
  -1   1  17    0.73    0.13
  -1   1  17    0.71    0.17
  -1   1  17    0.73    0.09
   0  -1 -17    0.28    0.18
   0  -1 -17    0.29    0.11
   0  -1 -17    0.36    0.16
   0   1  17    0.17    0.12
   0   1  17    0.37    0.13
   0   1  17    0.32    0.10
  -1  -1 -17    0.57    0.18
  -1  -1 -17    0.65    0.20
  -1  -1 -17    0.69    0.12
   1   1  17    0.40    0.11
   1   1  17    0.79    0.16
  -2  -1 -17    4.47    0.23
  -2  -1 -17    4.80    0.39
   2   1  17    4.91    0.34
   2   1  17    5.20    0.33
  -3  -1 -17    0.23    0.18
   3   1  17    0.17    0.15
  -4  -1 -17    1.05    0.26
   4   1  17    1.03    0.25
  -5  -1 -17    0.32    0.25
  -5   2  17    2.22    0.31
  -5   2  17    2.29    0.37
  -4   2  17    1.94    0.27
  -4   2  17    1.61    0.30
   3  -2 -17    0.60    0.15
  -3   2  17    0.74    0.18
  -3   2  17    0.51    0.20
   2  -2 -17    0.78    0.17
   2  -2 -17    1.30    0.25
  -2   2  17    0.99    0.21
  -2   2  17    1.01    0.22
   1  -2 -17    1.65    0.25
   1  -2 -17    1.81    0.26
  -1   2  17    1.56    0.24
  -1   2  17    1.80    0.15
  -1   2  17    2.38    0.27
   0  -2 -17    1.50    0.26
   0  -2 -17    2.05    0.29
   0   2  17    1.66    0.21
   0   2  17    1.74    0.19
   0   2  17    1.54    0.23
  -1  -2 -17    0.58    0.20
   1   2  17    0.87    0.17
   1   2  17    0.89    0.14
  -2  -2 -17    2.53    0.35
   2   2  17    2.90    0.29
   2   2  17    2.32    0.29
  -3  -2 -17    0.50    0.22
   3   2  17    0.71    0.21
  -4  -2 -17    0.41    0.21
   4   2  17    0.29    0.20
  -5   3  17   -0.20    0.14
  -5   3  17    0.10    0.21
  -4   3  17    0.86    0.26
  -4   3  17    0.52    0.18
   3  -3 -17    2.89    0.25
  -3   3  17    2.41    0.29
  -3   3  17    2.93    0.38
   2  -3 -17    2.50    0.28
   2  -3 -17    2.31    0.30
  -2   3  17    2.31    0.33
  -2   3  17    1.99    0.26
   1  -3 -17    4.16    0.37
   1  -3 -17    3.93    0.34
  -1   3  17    3.73    0.29
  -1   3  17    4.10    0.35
   0  -3 -17    0.67    0.20
   0   3  17    1.03    0.17
   0   3  17    0.92    0.20
   0   3  17    1.16    0.18
   1   3  17   18.61    0.65
   1   3  17   18.09    0.53
   2   3  17    0.78    0.21
   3   3  17    1.13    0.26
   4   3  17    0.68    0.24
  -4   4  17    0.27    0.18
  -4   4  17    0.83    0.26
   3  -4 -17    1.40    0.24
  -3   4  17    1.41    0.28
  -3   4  17    1.77    0.26
   2  -4 -17    2.46    0.32
   2  -4 -17    2.66    0.30
  -2   4  17    2.73    0.30
  -2   4  17    2.45    0.34
   1  -4 -17    6.40    0.46
  -1   4  17    6.39    0.43
  -1   4  17    6.42    0.37
   0   4  17    5.70    0.33
   0   4  17    5.88    0.34
   1   4  17    4.62    0.34
   1   4  17    4.70    0.27
   2   4  17    0.43    0.19
   3   4  17    0.64    0.22
  -4   5  17   -0.06    0.18
  -4   5  17    0.01    0.16
  -3   5  17    0.82    0.26
  -3   5  17    1.24    0.24
   2  -5 -17   -0.13    0.16
  -2   5  17    0.15    0.14
  -2   5  17    0.18    0.17
   1  -5 -17   10.90    0.59
  -1   5  17   10.42    0.48
  -1   5  17   10.11    0.56
   0   5  17    0.66    0.16
   1   5  17    0.50    0.13
   1   5  17    0.21    0.15
   2   5  17    1.06    0.25
   3   5  17    0.10    0.18
  -3   6  17    1.55    0.34
  -3   6  17    1.33    0.26
  -2   6  17    1.54    0.24
  -2   6  17    1.75    0.32
  -1   6  17    0.22    0.13
   0   6  17    0.35    0.14
   1   6  17    0.31    0.12
   1   6  17    0.00    0.14
   2   6  17    0.06    0.15
  -2   7  17    3.03    0.34
  -1   7  17    1.19    0.24
   0   7  17   -0.03    0.12
   0   8 -18    3.94    0.51
   0  -8  18    2.80    0.34
  -1   8 -18    2.87    0.43
   1  -8  18    1.72    0.27
   2   7 -18    1.92    0.32
  -2  -7  18    2.01    0.34
  -2  -7  18    2.22    0.32
   1   7 -18    2.10    0.36
   1   7 -18    1.85    0.31
  -1  -7  18    2.11    0.33
   0   7 -18    4.09    0.45
   0   7 -18    3.34    0.39
   0  -7  18    3.97    0.39
  -1   7 -18   -0.05    0.17
  -1   7 -18   -0.16    0.11
   1  -7  18    0.18    0.13
  -2   7 -18    0.40    0.19
  -2   7 -18    0.23    0.21
  -3   7 -18    0.21    0.21
   3   6 -18    0.22    0.15
  -3  -6  18    0.53    0.23
  -3  -6  18    0.20    0.17
  -3  -6  18    0.24    0.21
   2   6 -18    2.25    0.33
  -2  -6  18    2.41    0.35
  -2  -6  18    2.38    0.34
   1   6 -18    1.06    0.25
   1   6 -18    1.25    0.25
  -1  -6  18    0.72    0.20
  -1  -6  18    0.94    0.15
  -1  -6  18    0.88    0.25
   0   6 -18    3.07    0.37
   0   6 -18    2.81    0.36
   0  -6  18    2.47    0.30
  -1   6 -18    0.13    0.14
  -1   6 -18    0.28    0.18
   1  -6  18    0.23    0.13
  -2   6 -18    0.14    0.14
  -2   6 -18    0.06    0.17
  -3   6 -18   -0.18    0.14
  -3   6 -18   -0.03    0.18
  -4   6 -18    0.30    0.28
   3   5 -18    3.18    0.37
  -3  -5  18    4.08    0.34
  -3  -5  18    3.32    0.39
  -3  -5  18    2.97    0.38
   2   5 -18    0.93    0.21
   2   5 -18    1.16    0.25
  -2  -5  18    0.66    0.22
  -2  -5  18    0.97    0.19
  -2  -5  18    0.95    0.23
   1   5 -18    0.54    0.18
   1   5 -18    0.79    0.22
  -1  -5  18    0.80    0.14
  -1  -5  18    0.55    0.17
  -1  -5  18    0.80    0.19
   0   5 -18    5.93    0.44
   0   5 -18    6.23    0.43
   0  -5  18    6.13    0.37
  -1   5 -18    0.06    0.16
  -1   5 -18    0.09    0.15
   1  -5  18   -0.02    0.11
  -2   5 -18   -0.21    0.16
  -2   5 -18    0.16    0.14
  -3   5 -18    0.20    0.17
  -3   5 -18    0.28    0.21
  -4   5 -18    1.90    0.35
  -4   5 -18    0.96    0.26
  -4  -4  18    1.22    0.26
  -4  -4  18    1.07    0.26
  -4  -4  18    0.87    0.28
   3   4 -18   15.69    0.65
  -3  -4  18   16.86    0.72
  -3  -4  18   15.07    0.67
  -3  -4  18   16.47    0.61
   2   4 -18    6.33    0.44
   2   4 -18    6.80    0.43
  -2  -4  18    5.94    0.43
  -2  -4  18    6.32    0.33
  -2  -4  18    6.87    0.44
   1   4 -18    3.34    0.36
   1   4 -18    3.26    0.35
  -1  -4  18    3.34    0.34
  -1  -4  18    3.13    0.21
  -1  -4  18    3.09    0.21
  -1  -4  18    3.50    0.30
   0   4 -18   10.76    0.54
   0   4 -18   11.98    0.59
   0  -4  18   11.32    0.59
   0  -4  18   11.56    0.48
  -1   4 -18    8.54    0.51
  -1   4 -18    9.20    0.51
   1  -4  18    9.44    0.39
  -2   4 -18   -0.02    0.17
  -2   4 -18    0.06    0.12
  -3   4 -18    1.43    0.27
  -3   4 -18    2.66    0.35
  -4   4 -18    0.55    0.22
  -4   4 -18    0.86    0.25
  -4  -3  18    0.87    0.25
  -4  -3  18    0.87    0.27
  -4  -3  18    0.96    0.26
   3   3 -18    3.57    0.31
  -3  -3  18    3.69    0.40
  -3  -3  18    3.48    0.32
  -3  -3  18    4.49    0.42
   2   3 -18    1.76    0.29
   2   3 -18    1.55    0.24
  -2  -3  18    1.29    0.26
  -2  -3  18    1.30    0.25
  -2  -3  18    1.30    0.19
   1   3 -18    0.53    0.17
   1   3 -18    0.23    0.17
  -1  -3  18    0.16    0.14
  -1  -3  18    0.40    0.16
  -1  -3  18    0.55    0.12
   0   3 -18    6.90    0.43
   0   3 -18    7.49    0.46
   0  -3  18    7.93    0.39
   0  -3  18    7.98    0.34
   0  -3  18    8.03    0.41
  -1   3 -18    6.29    0.42
  -1   3 -18    6.84    0.44
   1  -3  18    5.92    0.30
   1  -3  18    6.29    0.29
  -2   3 -18    0.18    0.17
  -2   3 -18    0.42    0.17
  -3   3 -18    1.14    0.25
  -3   3 -18    0.93    0.22
  -4   3 -18    0.46    0.21
  -4   3 -18    0.73    0.24
  -4  -2  18    1.04    0.27
  -4  -2  18    0.72    0.25
  -4  -2  18    1.01    0.24
   3   2 -18    2.14    0.26
  -3  -2  18    2.72    0.31
  -3  -2  18    2.04    0.30
  -3  -2  18    1.47    0.24
   2   2 -18    6.68    0.39
   2   2 -18    6.21    0.42
  -2  -2  18    7.25    0.45
  -2  -2  18    6.81    0.41
  -2  -2  18    7.10    0.35
   1   2 -18   11.29    0.52
   1   2 -18   12.68    0.58
  -1  -2  18   12.68    0.54
  -1  -2  18   12.57    0.52
  -1  -2  18   12.16    0.38
   0   2 -18    3.51    0.37
   0   2 -18    3.05    0.33
   0  -2  18    3.28    0.30
   0  -2  18    3.26    0.29
  -1   2 -18    9.82    0.50
  -1   2 -18    9.97    0.52
   1  -2  18    9.41    0.37
   1  -2  18    9.62    0.36
  -2   2 -18    1.35    0.16
  -2   2 -18    1.29    0.25
  -2   2 -18    1.15    0.24
   2  -2  18    1.39    0.20
  -3   2 -18    1.26    0.26
  -3   2 -18    1.47    0.26
  -4   2 -18    0.50    0.22
  -4   2 -18    0.66    0.21
  -5   2 -18    0.62    0.23
  -5   2 -18    0.35    0.21
  -5  -1  18    2.02    0.31
  -5  -1  18    2.15    0.39
  -5  -1  18    1.92    0.36
  -4  -1  18    0.26    0.21
  -4  -1  18    0.23    0.17
  -4  -1  18    0.24    0.21
   3   1 -18    1.51    0.21
  -3  -1  18    1.54    0.27
  -3  -1  18    1.58    0.27
  -3  -1  18    1.68    0.25
   2   1 -18    1.28    0.24
   2   1 -18    0.85    0.19
  -2  -1  18    1.47    0.22
  -2  -1  18    1.29    0.24
  -2  -1  18    0.93    0.18
  -2  -1  18    1.11    0.21
   1   1 -18    1.69    0.27
   1   1 -18    1.41    0.23
  -1  -1  18    1.58    0.23
  -1  -1  18    1.20    0.21
  -1  -1  18    1.46    0.16
   0   1 -18    0.74    0.18
   0   1 -18    0.80    0.20
   0  -1  18    0.59    0.16
   0  -1  18    0.59    0.15
  -1   1 -18    1.22    0.23
  -1   1 -18    1.43    0.25
   1  -1  18    1.43    0.17
   1  -1  18    1.58    0.18
  -2   1 -18    0.08    0.09
  -2   1 -18    0.26    0.16
  -2   1 -18    0.25    0.16
   2  -1  18    0.19    0.11
  -3   1 -18    2.13    0.31
  -3   1 -18    2.47    0.30
   3  -1  18    1.99    0.26
  -4   1 -18    0.92    0.23
  -4   1 -18    0.85    0.24
  -5   1 -18    0.06    0.21
  -5   0  18    1.28    0.34
  -5   0  18    1.16    0.31
  -5   0  18    0.87    0.25
  -4   0  18    0.36    0.18
  -4   0  18    0.11    0.19
  -4   0  18    0.00    0.21
   3   0 -18    4.44    0.30
  -3   0  18    4.86    0.41
  -3   0  18    4.89    0.36
   2   0 -18    3.34    0.28
   2   0 -18    3.76    0.34
  -2   0  18    3.85    0.32
  -2   0  18    4.04    0.36
  -2   0  18    3.38    0.24
   1   0 -18    2.46    0.29
   1   0 -18    2.48    0.30
  -1   0  18    2.41    0.29
  -1   0  18    2.22    0.25
   0   0 -18    2.31    0.28
   0   0 -18    1.97    0.27
   0   0  18    2.25    0.25
   0   0  18    2.10    0.19
   0   0  18    2.07    0.23
  -1   0 -18    0.97    0.22
  -1   0 -18    0.61    0.19
   1   0  18    1.03    0.15
   1   0  18    1.07    0.16
  -2   0 -18    3.68    0.37
  -2   0 -18    2.74    0.34
  -2   0 -18    2.62    0.19
   2   0  18    3.10    0.26
   2   0  18    2.87    0.29
  -3   0 -18    3.93    0.42
  -3   0 -18    4.74    0.40
   3   0  18    3.89    0.48
   3   0  18    3.98    0.36
  -4   0 -18    0.04    0.17
  -4   0 -18    0.13    0.17
   4   0  18   -0.14    0.14
  -5   1  18    0.95    0.24
  -5   1  18    0.99    0.30
  -4   1  18    1.47    0.27
  -4   1  18    1.31    0.30
   3  -1 -18    1.91    0.23
  -3   1  18    2.22    0.30
  -3   1  18    1.84    0.30
   2  -1 -18    3.68    0.34
   2  -1 -18    3.61    0.29
  -2   1  18    3.92    0.36
  -2   1  18    3.87    0.30
  -2   1  18    3.90    0.32
   1  -1 -18   10.04    0.48
   1  -1 -18   10.21    0.52
  -1   1  18    9.74    0.44
  -1   1  18   10.15    0.49
   0  -1 -18   14.57    0.62
   0  -1 -18   15.12    0.62
   0   1  18   14.83    0.45
   0   1  18   14.12    0.50
   0   1  18   15.07    0.56
  -1  -1 -18    8.54    0.48
  -1  -1 -18    9.25    0.51
   1   1  18    8.73    0.39
   1   1  18    8.92    0.34
  -2  -1 -18    3.49    0.36
  -2  -1 -18    3.97    0.41
   2   1  18    3.99    0.33
   2   1  18    4.17    0.31
  -3  -1 -18    1.16    0.27
   3   1  18    1.51    0.27
  -4  -1 -18   -0.04    0.19
   4   1  18    0.30    0.20
  -4   2  18    0.25    0.17
  -4   2  18    0.61    0.23
   3  -2 -18    1.95    0.23
  -3   2  18    1.58    0.26
  -3   2  18    1.86    0.30
   2  -2 -18    1.01    0.24
   2  -2 -18    0.66    0.18
  -2   2  18    0.75    0.18
  -2   2  18    0.87    0.22
   1  -2 -18    1.54    0.26
   1  -2 -18    1.52    0.24
  -1   2  18    1.29    0.22
  -1   2  18    1.65    0.26
   0  -2 -18    6.58    0.44
   0  -2 -18    7.09    0.44
   0   2  18    5.99    0.31
   0   2  18    5.97    0.32
   0   2  18    6.69    0.42
  -1  -2 -18    0.92    0.22
  -1  -2 -18    0.82    0.21
   1   2  18    1.11    0.16
   1   2  18    0.86    0.18
  -2  -2 -18    5.05    0.43
   2   2  18    5.39    0.38
  -3  -2 -18    0.51    0.22
   3   2  18    0.32    0.18
  -4  -2 -18    1.65    0.34
   4   2  18    1.30    0.29
  -4   3  18    1.36    0.30
  -4   3  18    1.62    0.27
   3  -3 -18    1.36    0.21
  -3   3  18    1.10    0.27
  -3   3  18    1.42    0.23
   2  -3 -18    2.97    0.31
   2  -3 -18    3.15    0.36
  -2   3  18    3.25    0.33
  -2   3  18    2.89    0.37
   1  -3 -18    0.82    0.20
   1  -3 -18    0.63    0.22
  -1   3  18    0.73    0.17
  -1   3  18    0.73    0.20
   0  -3 -18    3.02    0.35
   0  -3 -18    2.93    0.36
   0   3  18    3.02    0.25
   0   3  18    2.64    0.27
   1   3  18    2.04    0.27
   1   3  18    2.06    0.21
   2   3  18    0.82    0.21
   3   3  18    1.88    0.32
  -4   4  18    1.10    0.29
  -4   4  18    1.76    0.30
  -3   4  18    0.78    0.20
  -3   4  18    0.86    0.25
   2  -4 -18    2.44    0.30
   2  -4 -18    2.34    0.33
  -2   4  18    1.89    0.26
  -2   4  18    2.18    0.33
   1  -4 -18    0.00    0.17
  -1   4  18    0.17    0.17
  -1   4  18    0.20    0.14
   0   4  18    6.76    0.38
   0   4  18    6.69    0.36
   1   4  18    0.89    0.20
   1   4  18    0.93    0.15
   2   4  18    0.62    0.20
   3   4  18    0.15    0.18
  -3   5  18    1.12    0.30
  -3   5  18    0.70    0.23
   2  -5 -18    3.61    0.42
   2  -5 -18    3.28    0.37
  -2   5  18    3.69    0.37
  -2   5  18    2.88    0.39
   1  -5 -18    0.79    0.24
  -1   5  18    0.91    0.20
   0   5  18    3.08    0.33
   0   5  18    3.45    0.29
   1   5  18    0.45    0.17
   1   5  18    0.31    0.12
   2   5  18    0.27    0.18
  -2   6  18    2.60    0.33
  -2   6  18    3.30    0.47
  -1   6  18    1.55    0.25
   0   6  18    2.06    0.25
   1   6  18    0.39    0.18
   1   7 -19    2.55    0.39
  -1  -7  19    3.32    0.41
   0   7 -19    1.90    0.37
   0   7 -19    1.40    0.31
   0  -7  19    1.13    0.25
  -1   7 -19    0.00    0.16
   1  -7  19   -0.02    0.13
  -2   7 -19   -0.14    0.16
   2   6 -19    3.20    0.38
  -2  -6  19    3.39    0.40
  -2  -6  19    2.70    0.36
   1   6 -19    1.94    0.32
   1   6 -19    1.46    0.27
  -1  -6  19    1.62    0.28
   0   6 -19    2.43    0.35
   0   6 -19    2.19    0.36
   0  -6  19    2.18    0.28
  -1   6 -19    0.54    0.23
  -1   6 -19    0.77    0.23
   1  -6  19    0.76    0.18
  -2   6 -19    1.42    0.27
  -2   6 -19    1.28    0.30
  -3   6 -19   -0.02    0.19
  -3   6 -19    0.16    0.19
   3   5 -19    0.43    0.18
  -3  -5  19    0.69    0.25
  -3  -5  19    0.49    0.22
   2   5 -19    5.07    0.59
   2   5 -19    4.25    0.38
  -2  -5  19    5.25    0.44
  -2  -5  19    5.05    0.42
   1   5 -19    1.92    0.32
   1   5 -19    2.12    0.31
  -1  -5  19    2.08    0.29
  -1  -5  19    1.85    0.27
  -1  -5  19    1.72    0.18
   0   5 -19    0.15    0.15
   0   5 -19    0.33    0.18
   0  -5  19    0.33    0.16
  -1   5 -19    0.34    0.19
  -1   5 -19    0.28    0.17
   1  -5  19    0.56    0.16
  -2   5 -19    2.43    0.32
  -2   5 -19    3.27    0.42
  -3   5 -19    0.19    0.20
  -3   5 -19    0.01    0.15
  -4   5 -19    1.11    0.30
   3   4 -19    5.26    0.39
  -3  -4  19    5.27    0.37
  -3  -4  19    4.17    0.42
  -3  -4  19    5.66    0.47
   2   4 -19    5.85    0.44
   2   4 -19    4.60    0.37
  -2  -4  19    5.44    0.43
  -2  -4  19    5.34    0.41
   1   4 -19    0.91    0.22
   1   4 -19    0.81    0.20
  -1  -4  19    0.76    0.13
  -1  -4  19    0.78    0.20
  -1  -4  19    0.74    0.20
   0   4 -19    4.30    0.37
   0   4 -19    4.06    0.38
   0  -4  19    3.77    0.31
  -1   4 -19    1.97    0.32
  -1   4 -19    1.98    0.30
   1  -4  19    1.68    0.21
  -2   4 -19    1.03    0.23
  -2   4 -19    2.23    0.35
  -3   4 -19    0.12    0.16
  -3   4 -19    0.21    0.19
  -4   4 -19    1.86    0.34
  -4   4 -19    2.68    0.39
  -4  -3  19    3.35    0.43
  -4  -3  19    2.55    0.36
  -4  -3  19    3.33    0.38
   3   3 -19    0.55    0.17
  -3  -3  19    0.64    0.21
  -3  -3  19    0.93    0.25
  -3  -3  19    0.66    0.21
   2   3 -19    0.79    0.23
   2   3 -19    0.48    0.17
  -2  -3  19    0.26    0.16
  -2  -3  19    0.54    0.21
  -2  -3  19    0.34    0.13
   1   3 -19    0.79    0.22
   1   3 -19    1.18    0.23
  -1  -3  19    0.88    0.13
  -1  -3  19    0.77    0.20
  -1  -3  19    0.87    0.19
   0   3 -19   18.69    0.71
   0   3 -19   17.49    0.72
   0  -3  19   18.14    0.60
  -1   3 -19    3.53    0.37
  -1   3 -19    3.44    0.37
   1  -3  19    3.69    0.25
  -2   3 -19    1.63    0.27
  -2   3 -19    2.01    0.31
  -3   3 -19    0.40    0.21
  -3   3 -19    0.48    0.20
  -4   3 -19    0.58    0.22
  -4   3 -19    0.93    0.25
  -4  -2  19    2.81    0.38
  -4  -2  19    3.44    0.41
  -4  -2  19    2.67    0.35
   3   2 -19    1.41    0.23
  -3  -2  19    1.69    0.27
  -3  -2  19    1.28    0.26
  -3  -2  19    1.09    0.23
   2   2 -19    0.30    0.15
   2   2 -19    0.12    0.15
  -2  -2  19    0.30    0.13
  -2  -2  19    0.16    0.17
  -2  -2  19    0.03    0.13
   1   2 -19    2.46    0.35
   1   2 -19    1.64    0.25
  -1  -2  19    2.29    0.18
  -1  -2  19    2.43    0.29
  -1  -2  19    1.82    0.25
   0   2 -19    4.49    0.44
   0   2 -19    3.92    0.39
   0  -2  19    3.31    0.21
   0  -2  19    3.85    0.49
   0  -2  19    3.80    0.29
  -1   2 -19    8.09    0.49
  -1   2 -19    7.81    0.47
   1  -2  19    7.43    0.33
   1  -2  19    7.71    0.35
  -2   2 -19    1.25    0.25
  -2   2 -19    1.83    0.29
   2  -2  19    1.36    0.20
  -3   2 -19    0.68    0.22
  -3   2 -19    1.07    0.25
  -4   2 -19   -0.02    0.17
  -4   2 -19    0.08    0.18
  -4  -1  19    2.28    0.35
  -4  -1  19    1.64    0.28
  -4  -1  19    1.80    0.31
   3   1 -19    1.81    0.24
  -3  -1  19    1.71    0.28
  -3  -1  19    1.88    0.31
  -3  -1  19    2.09    0.30
   2   1 -19    1.91    0.31
   2   1 -19    1.94    0.26
  -2  -1  19    1.45    0.24
  -2  -1  19    1.82    0.24
  -2  -1  19    1.98    0.29
   1   1 -19    9.26    0.47
   1   1 -19    9.52    0.52
  -1  -1  19    8.94    0.44
  -1  -1  19    9.59    0.48
   0   1 -19    2.60    0.31
   0   1 -19    2.81    0.32
   0  -1  19    2.91    0.25
   0  -1  19    3.70    0.38
  -1   1 -19    5.51    0.41
  -1   1 -19    5.40    0.41
   1  -1  19    5.57    0.27
   1  -1  19    4.64    0.28
  -2   1 -19    3.57    0.40
  -2   1 -19    2.56    0.34
   2  -1  19    3.01    0.29
  -3   1 -19    0.24    0.18
  -3   1 -19   -0.01    0.17
   3  -1  19    0.13    0.13
  -4   1 -19    0.72    0.22
  -4   1 -19    0.35    0.21
  -4   0  19    3.67    0.42
  -4   0  19    3.82    0.43
  -4   0  19    3.66    0.45
   3   0 -19    1.90    0.24
  -3   0  19    1.90    0.28
  -3   0  19    1.88    0.30
   2   0 -19    0.78    0.21
   2   0 -19    0.75    0.17
  -2   0  19    0.64    0.21
  -2   0  19    0.51    0.17
   1   0 -19    3.98    0.37
   1   0 -19    3.52    0.35
  -1   0  19    3.60    0.30
  -1   0  19    4.01    0.34
   0   0 -19    4.27    0.37
   0   0 -19    3.74    0.33
   0   0  19    3.71    0.27
  -1   0 -19    4.04    0.41
  -1   0 -19    4.86    0.40
   1   0  19    4.27    0.27
   1   0  19    4.39    0.25
  -2   0 -19    0.88    0.23
  -2   0 -19    0.53    0.21
   2   0  19    0.85    0.18
   2   0  19    0.92    0.19
  -3   0 -19    1.71    0.31
  -3   0 -19    1.59    0.29
   3   0  19    1.49    0.25
  -4   0 -19    0.01    0.18
  -4   0 -19    0.23    0.19
   4   0  19    0.00    0.16
  -4   1  19    1.84    0.29
  -4   1  19    2.10    0.35
   3  -1 -19    2.38    0.27
  -3   1  19    2.61    0.35
  -3   1  19    2.48    0.30
   2  -1 -19    0.78    0.18
   2  -1 -19    0.75    0.22
  -2   1  19    1.18    0.23
  -2   1  19    0.72    0.21
   1  -1 -19    2.53    0.33
   1  -1 -19    2.10    0.28
  -1   1  19    2.40    0.27
  -1   1  19    2.22    0.29
   0  -1 -19    2.79    0.33
   0  -1 -19    3.87    0.39
   0   1  19    3.41    0.26
  -1  -1 -19    1.05    0.27
  -1  -1 -19    0.77    0.22
   1   1  19    1.07    0.17
   1   1  19    0.77    0.14
  -2  -1 -19   -0.02    0.18
  -2  -1 -19   -0.09    0.16
   2   1  19    0.16    0.14
   2   1  19    0.17    0.14
  -3  -1 -19    2.83    0.39
   3   1  19    3.88    0.41
  -4  -1 -19    0.16    0.23
   4   1  19    0.38    0.20
  -4   2  19    0.44    0.22
  -4   2  19    0.69    0.21
   3  -2 -19    2.50    0.27
  -3   2  19    2.47    0.33
  -3   2  19    2.66    0.36
   2  -2 -19    4.41    0.40
   2  -2 -19    4.37    0.34
  -2   2  19    4.62    0.35
  -2   2  19    4.26    0.39
   1  -2 -19    2.86    0.32
   1  -2 -19    2.84    0.35
  -1   2  19    3.01    0.35
  -1   2  19    2.59    0.28
   0  -2 -19    0.57    0.20
   0  -2 -19    0.72    0.24
   0   2  19    0.48    0.15
   0   2  19    0.49    0.16
  -1  -2 -19    1.62    0.29
  -1  -2 -19    1.11    0.26
   1   2  19    1.73    0.23
   1   2  19    1.39    0.18
  -2  -2 -19    1.84    0.32
   2   2  19    1.49    0.25
  -3  -2 -19   -0.16    0.17
   3   2  19    0.06    0.16
   4   2  19    1.35    0.31
  -4   3  19    0.24    0.21
  -4   3  19    0.39    0.19
  -3   3  19    1.03    0.22
  -3   3  19    0.71    0.24
   2  -3 -19    3.91    0.42
   2  -3 -19    2.92    0.33
  -2   3  19    3.75    0.44
  -2   3  19    3.18    0.35
   1  -3 -19    1.86    0.31
   1  -3 -19    1.98    0.28
  -1   3  19    2.23    0.32
  -1   3  19    1.73    0.24
   0  -3 -19    0.32    0.20
   0  -3 -19    0.49    0.19
   0   3  19    0.38    0.14
   0   3  19    0.54    0.14
  -1  -3 -19    2.01    0.32
   1   3  19    2.13    0.27
   1   3  19    2.27    0.23
  -2  -3 -19    1.16    0.28
   2   3  19    1.31    0.25
  -3  -3 -19    0.03    0.30
   3   3  19    0.36    0.19
  -3   4  19    1.96    0.30
  -3   4  19    1.79    0.33
   2  -4 -19    0.81    0.25
   2  -4 -19    0.77    0.21
  -2   4  19    0.97    0.23
  -2   4  19    0.59    0.21
   1  -4 -19    1.19    0.27
   1  -4 -19    0.84    0.26
  -1   4  19    0.88    0.19
   0  -4 -19    0.39    0.21
   0   4  19    0.32    0.13
   0   4  19    0.42    0.15
   1   4  19    4.04    0.26
   1   4  19    3.80    0.38
   2   4  19    0.03    0.15
  -3   5  19   -0.24    0.14
  -3   5  19   -0.05    0.15
   2  -5 -19    2.15    0.32
  -2   5  19    2.85    0.33
  -2   5  19    3.10    0.43
   1  -5 -19    2.49    0.38
  -1   5  19    2.43    0.29
   0   5  19    2.12    0.29
   0   5  19    2.11    0.26
   1   5  19    0.28    0.16
   2   5  19    0.42    0.21
   1  -6 -19    1.12    0.30
  -1   6  19    0.97    0.21
   0   6  19    0.71    0.18
   0   6  19    0.72    0.20
   0   7 -20    0.65    0.24
   0  -7  20    0.72    0.21
  -1   7 -20    0.16    0.22
   2   6 -20    1.00    0.26
  -2  -6  20    0.29    0.21
   1   6 -20    3.13    0.39
   1   6 -20    3.57    0.47
  -1  -6  20    2.89    0.37
   0   6 -20    0.61    0.21
   0   6 -20    0.57    0.21
   0  -6  20    0.47    0.18
  -1   6 -20    0.33    0.21
  -1   6 -20    0.45    0.20
   1  -6  20    0.57    0.17
  -2   6 -20    0.38    0.24
  -3   6 -20    0.64    0.26
   2   5 -20    0.40    0.19
  -2  -5  20    0.25    0.19
  -2  -5  20    0.32    0.20
   1   5 -20    1.23    0.26
   1   5 -20    0.81    0.24
  -1  -5  20    0.78    0.20
   0   5 -20    0.98    0.25
   0   5 -20    1.23    0.26
   0  -5  20    1.36    0.22
  -1   5 -20    1.56    0.29
  -1   5 -20    1.39    0.28
   1  -5  20    1.30    0.19
  -2   5 -20    0.33    0.18
  -2   5 -20    0.46    0.25
  -3   5 -20    0.08    0.24
  -3   5 -20    0.33    0.21
   3   4 -20    1.33    0.25
  -3  -4  20    0.91    0.24
  -3  -4  20    1.04    0.28
   2   4 -20    6.41    0.44
   2   4 -20    6.38    0.47
  -2  -4  20    6.68    0.46
  -2  -4  20    7.30    0.49
   1   4 -20    2.56    0.33
   1   4 -20    1.90    0.32
  -1  -4  20    2.35    0.45
  -1  -4  20    2.31    0.19
  -1  -4  20    2.34    0.29
   0   4 -20    0.67    0.22
   0   4 -20    0.40    0.18
   0  -4  20    0.29    0.14
  -1   4 -20    9.48    0.58
  -1   4 -20   10.05    0.56
   1  -4  20    9.21    0.41
  -2   4 -20    1.85    0.29
  -2   4 -20    2.98    0.41
  -3   4 -20   -0.36    0.16
  -3   4 -20   -0.02    0.16
   3   3 -20    0.07    0.14
  -3  -3  20    0.11    0.20
  -3  -3  20    0.09    0.17
   2   3 -20    3.09    0.34
   2   3 -20    3.05    0.39
  -2  -3  20    2.90    0.33
  -2  -3  20    3.52    0.39
   1   3 -20    1.83    0.27
   1   3 -20    1.54    0.28
  -1  -3  20    1.62    0.16
  -1  -3  20    1.65    0.26
  -1  -3  20    2.31    0.29
   0   3 -20    0.16    0.14
   0   3 -20    0.39    0.20
   0  -3  20    0.30    0.14
  -1   3 -20    4.42    0.42
  -1   3 -20    4.78    0.40
   1  -3  20    4.28    0.27
  -2   3 -20    1.86    0.29
  -2   3 -20    2.70    0.37
  -3   3 -20    0.29    0.19
  -3   3 -20    0.05    0.18
  -4   3 -20    1.00    0.28
  -4   3 -20    0.43    0.38
  -4  -2  20    0.32    0.23
  -4  -2  20    0.38    0.23
  -4  -2  20    0.19    0.18
   3   2 -20    2.72    0.32
  -3  -2  20    1.87    0.32
  -3  -2  20    1.94    0.30
  -3  -2  20    2.69    0.32
   2   2 -20    2.58    0.31
   2   2 -20    2.95    0.37
  -2  -2  20    1.88    0.28
  -2  -2  20    2.18    0.29
   1   2 -20    0.27    0.18
   1   2 -20    0.33    0.15
  -1  -2  20    0.51    0.19
  -1  -2  20    0.21    0.14
  -1  -2  20    0.19    0.09
   0   2 -20    2.26    0.31
   0   2 -20    2.74    0.37
   0  -2  20    2.17    0.25
  -1   2 -20    2.22    0.32
  -1   2 -20    2.46    0.34
   1  -2  20    2.79    0.25
   1  -2  20    2.66    0.22
  -2   2 -20    3.62    0.40
  -2   2 -20    3.02    0.38
   2  -2  20    2.62    0.27
  -3   2 -20    1.42    0.29
  -3   2 -20    1.14    0.28
  -4   2 -20    0.00    0.21
  -4   2 -20    0.09    0.21
  -4  -1  20    1.98    0.34
  -4  -1  20    1.07    0.26
  -4  -1  20    1.26    0.31
   3   1 -20    2.48    0.30
  -3  -1  20    3.52    0.38
  -3  -1  20    1.62    0.27
  -3  -1  20    2.97    0.38
   2   1 -20    0.88    0.24
   2   1 -20    0.97    0.20
  -2  -1  20    0.55    0.18
  -2  -1  20    1.06    0.24
   1   1 -20    1.32    0.26
   1   1 -20    1.14    0.22
  -1  -1  20    1.51    0.23
  -1  -1  20    1.55    0.25
   0   1 -20    3.89    0.40
   0   1 -20    3.20    0.35
   0  -1  20    3.51    0.27
  -1   1 -20    2.14    0.33
  -1   1 -20    1.90    0.30
   1  -1  20    2.09    0.22
   1  -1  20    1.90    0.20
  -2   1 -20    4.04    0.43
  -2   1 -20    3.79    0.40
   2  -1  20    3.20    0.30
  -3   1 -20    0.59    0.24
  -3   1 -20    0.61    0.24
  -4   1 -20    0.18    0.22
  -4   1 -20    0.23    0.21
  -4   0  20    0.93    0.27
  -4   0  20    1.32    0.29
  -4   0  20    1.77    0.34
   3   0 -20    0.28    0.14
  -3   0  20    0.48    0.22
  -3   0  20    0.34    0.21
  -3   0  20    0.35    0.18
   2   0 -20    9.94    0.55
   2   0 -20    9.98    0.49
  -2   0  20   10.90    0.56
  -2   0  20    9.74    0.49
   1   0 -20    1.10    0.23
   1   0 -20    1.35    0.28
  -1   0  20    1.27    0.23
  -1   0  20    1.27    0.23
   0   0 -20    2.26    0.31
   0   0 -20    2.12    0.30
   0   0  20    2.04    0.23
  -1   0 -20    3.16    0.36
  -1   0 -20    3.94    0.41
   1   0  20    3.70    0.27
   1   0  20    3.53    0.23
  -2   0 -20    1.12    0.28
  -2   0 -20    0.63    0.21
   2   0  20    0.79    0.18
   2   0  20    0.47    0.17
  -3   0 -20    0.16    0.20
  -3   0 -20    0.21    0.20
   3   0  20    0.16    0.15
  -4   0 -20   -0.10    0.21
   4   0  20    0.14    0.17
  -4   1  20    3.04    0.41
  -4   1  20    3.47    0.41
   3  -1 -20    0.98    0.20
  -3   1  20    1.05    0.26
  -3   1  20    1.03    0.23
   2  -1 -20    3.14    0.38
   2  -1 -20    3.25    0.33
  -2   1  20    2.88    0.31
  -2   1  20    3.39    0.38
   1  -1 -20    5.00    0.42
   1  -1 -20    4.49    0.37
  -1   1  20    5.03    0.39
  -1   1  20    5.30    0.35
   0  -1 -20    3.28    0.39
   0  -1 -20    2.40    0.31
   0   1  20    2.99    0.29
  -1  -1 -20    0.13    0.15
  -1  -1 -20   -0.27    0.16
   1   1  20   -0.05    0.08
  -2  -1 -20    0.67    0.24
  -2  -1 -20    0.93    0.26
   2   1  20    0.59    0.18
  -3  -1 -20    1.00    0.27
  -3  -1 -20    1.54    0.31
   3   1  20    1.27    0.26
  -4   2  20    0.17    0.21
  -4   2  20    0.22    0.18
  -3   2  20    1.16    0.28
  -3   2  20    0.91    0.23
   2  -2 -20    0.92    0.21
   2  -2 -20    1.34    0.27
  -2   2  20    1.06    0.24
  -2   2  20    0.69    0.19
   1  -2 -20    1.54    0.29
   1  -2 -20    1.44    0.26
  -1   2  20    1.18    0.21
  -1   2  20    1.20    0.24
   0  -2 -20    2.34    0.34
   0  -2 -20    2.25    0.31
   0   2  20    2.16    0.25
  -1  -2 -20    3.01    0.39
  -1  -2 -20    2.50    0.36
   1   2  20    2.31    0.23
   1   2  20    2.64    0.39
  -2  -2 -20    0.89    0.26
  -2  -2 -20    1.15    0.30
   2   2  20    0.89    0.21
  -3  -2 -20    1.34    0.41
   3   2  20    0.82    0.24
  -3   3  20    1.05    0.28
  -3   3  20    1.83    0.30
   2  -3 -20    0.86    0.21
   2  -3 -20    1.61    0.29
  -2   3  20    1.10    0.23
  -2   3  20    0.98    0.25
   1  -3 -20    4.08    0.45
   1  -3 -20    3.29    0.37
  -1   3  20    2.70    0.29
   0  -3 -20    1.26    0.28
   0  -3 -20    2.06    0.33
   0   3  20    1.61    0.22
  -1  -3 -20    0.71    0.25
  -1  -3 -20    0.78    0.25
   1   3  20    1.03    0.22
   1   3  20    1.08    0.18
  -2  -3 -20    1.63    0.34
   2   3  20    2.21    0.32
   3   3  20    0.40    0.21
  -3   4  20    1.03    0.26
  -3   4  20    0.76    0.27
   2  -4 -20    0.18    0.18
   2  -4 -20    0.27    0.22
  -2   4  20    0.07    0.19
  -2   4  20    0.07    0.15
   1  -4 -20    3.21    0.42
   1  -4 -20    3.25    0.38
  -1   4  20    3.11    0.32
   0  -4 -20    1.72    0.32
   0  -4 -20    1.98    0.33
   0   4  20    2.23    0.27
   1   4  20    2.92    0.34
   2   4  20    0.68    0.23
   2  -5 -20    2.22    0.33
  -2   5  20    1.75    0.28
   1  -5 -20    2.96    0.41
   1  -5 -20    3.08    0.39
  -1   5  20    2.69    0.30
   0   5  20    0.25    0.14
   1   5  20   -0.14    0.12
   1   6 -21    4.97    0.53
  -1  -6  21    4.26    0.42
   0   6 -21    2.75    0.40
   0  -6  21    1.90    0.28
  -1   6 -21    0.53    0.24
  -2   6 -21   -0.02    0.20
   2   5 -21    1.71    0.31
  -2  -5  21    0.99    0.27
   1   5 -21    3.42    0.41
   1   5 -21    3.75    0.45
  -1  -5  21    3.59    0.39
   0   5 -21    0.69    0.23
   0   5 -21    1.08    0.30
   0  -5  21    0.20    0.14
  -1   5 -21    1.61    0.31
  -1   5 -21    2.01    0.35
   1  -5  21    1.99    0.25
  -2   5 -21    0.40    0.21
  -2   5 -21    0.33    0.26
  -3   5 -21    0.15    0.26
   3   4 -21    0.13    0.15
  -3  -4  21   -0.02    0.20
  -3  -4  21   -0.02    0.19
   2   4 -21    1.02    0.33
   2   4 -21    1.03    0.24
  -2  -4  21    0.98    0.26
  -2  -4  21    0.57    0.20
   1   4 -21    0.03    0.15
   1   4 -21    0.32    0.17
  -1  -4  21    0.06    0.14
   0   4 -21    0.41    0.20
   0   4 -21    0.11    0.16
   0  -4  21    0.43    0.17
  -1   4 -21    1.48    0.28
  -1   4 -21    2.46    0.37
   1  -4  21    2.10    0.23
  -2   4 -21    1.22    0.31
  -2   4 -21    0.65    0.23
  -3   4 -21    0.22    0.22
   3   3 -21    0.39    0.17
  -3  -3  21    0.22    0.24
  -3  -3  21    0.40    0.19
   2   3 -21    1.58    0.27
   2   3 -21    1.58    0.30
  -2  -3  21    1.45    0.28
  -2  -3  21    1.69    0.28
   1   3 -21    0.27    0.15
   1   3 -21    0.01    0.14
  -1  -3  21    0.05    0.09
  -1  -3  21    0.16    0.16
   0   3 -21    1.61    0.29
   0   3 -21    1.34    0.25
   0  -3  21    1.11    0.20
  -1   3 -21   10.17    0.59
  -1   3 -21    8.92    0.54
   1  -3  21    8.87    0.38
  -2   3 -21    0.22    0.17
  -2   3 -21    0.10    0.21
  -3   3 -21    0.27    0.19
  -3   3 -21    0.62    0.27
   3   2 -21    2.68    0.32
  -3  -2  21    2.34    0.34
  -3  -2  21    2.38    0.35
   2   2 -21    2.98    0.39
   2   2 -21    1.82    0.28
  -2  -2  21    2.50    0.33
  -2  -2  21    2.23    0.34
   1   2 -21    0.89    0.25
   1   2 -21    1.14    0.23
  -1  -2  21    1.25    0.23
  -1  -2  21    1.25    0.38
   0   2 -21    0.31    0.19
   0   2 -21    0.23    0.14
   0  -2  21    0.41    0.15
  -1   2 -21    3.06    0.39
  -1   2 -21    2.58    0.35
   1  -2  21    2.68    0.25
  -2   2 -21    1.43    0.27
  -2   2 -21    1.70    0.31
  -3   2 -21    1.32    0.31
  -3   2 -21    1.04    0.27
   3   1 -21    0.79    0.19
  -3  -1  21    0.34    0.18
  -3  -1  21    0.60    0.23
   2   1 -21    0.53    0.23
   2   1 -21    0.39    0.16
  -2  -1  21    0.18    0.17
  -2  -1  21    0.38    0.18
   1   1 -21    1.76    0.28
   1   1 -21    2.47    0.34
  -1  -1  21    2.36    0.35
  -1  -1  21    2.02    0.26
   0   1 -21    0.78    0.21
   0   1 -21    0.38    0.20
   0  -1  21    0.73    0.17
  -1   1 -21    1.07    0.26
  -1   1 -21    1.51    0.29
   1  -1  21    1.14    0.18
   1  -1  21    0.87    0.15
  -2   1 -21    7.61    0.53
  -2   1 -21    6.24    0.49
   2  -1  21    4.94    0.35
  -3   1 -21    0.99    0.28
  -3   1 -21    0.33    0.20
  -4   0  21    1.02    0.28
  -4   0  21    0.63    0.28
   3   0 -21    2.02    0.30
  -3   0  21    1.54    0.30
  -3   0  21    1.55    0.28
   2   0 -21    0.12    0.13
   2   0 -21    0.23    0.19
  -2   0  21    0.13    0.16
  -2   0  21   -0.02    0.14
   1   0 -21    0.24    0.15
   1   0 -21   -0.20    0.15
  -1   0  21    0.00    0.12
  -1   0  21    0.03    0.16
   0   0 -21    1.06    0.24
   0   0 -21    1.45    0.31
   0   0  21    0.79    0.17
  -1   0 -21    2.42    0.36
  -1   0 -21    2.36    0.35
   1   0  21    2.12    0.25
   1   0  21    2.44    0.21
  -2   0 -21    0.34    0.21
  -2   0 -21    0.54    0.25
  -3   0 -21    0.43    0.24
  -3   0 -21    0.22    0.20
  -3   1  21    0.44    0.19
  -3   1  21    0.89    0.26
   2  -1 -21    1.62    0.26
   2  -1 -21    1.90    0.32
  -2   1  21    2.18    0.32
  -2   1  21    1.46    0.24
   1  -1 -21    2.72    0.34
   1  -1 -21    3.54    0.41
  -1   1  21    3.29    0.32
   0  -1 -21    1.24    0.29
   0  -1 -21    0.82    0.23
   0   1  21    0.90    0.17
  -1  -1 -21    2.78    0.37
  -1  -1 -21    4.33    0.47
   1   1  21    3.84    0.25
  -2  -1 -21    2.45    0.40
  -2  -1 -21    1.69    0.31
  -3  -1 -21   -0.14    0.18
   3   1  21    0.08    0.17
  -3   2  21    0.42    0.23
  -3   2  21    0.38    0.18
   2  -2 -21    2.53    0.36
   2  -2 -21    1.92    0.28
  -2   2  21    2.07    0.27
  -2   2  21    2.18    0.34
   1  -2 -21    1.98    0.30
   1  -2 -21    1.59    0.30
  -1   2  21    1.86    0.26
   0  -2 -21    0.33    0.19
   0  -2 -21    0.47    0.22
   0   2  21    0.55    0.15
  -1  -2 -21    3.79    0.44
  -1  -2 -21    3.16    0.40
   1   2  21    3.62    0.29
  -2  -2 -21    0.07    0.22
  -2  -2 -21    0.48    0.24
   3   2  21    1.78    0.34
  -3   3  21    0.89    0.29
  -3   3  21    1.63    0.28
   2  -3 -21    5.34    0.42
   2  -3 -21    7.03    0.52
  -2   3  21    5.77    0.49
  -2   3  21    5.83    0.42
   1  -3 -21    0.41    0.20
   1  -3 -21    0.46    0.21
  -1   3  21    0.78    0.20
   0  -3 -21    0.44    0.21
   0  -3 -21    0.47    0.22
   0   3  21    0.27    0.13
  -1  -3 -21    0.79    0.26
  -1  -3 -21    0.48    0.25
   2  -4 -21    1.73    0.30
  -2   4  21    1.81    0.28
   1  -4 -21    1.79    0.34
   1  -4 -21    1.86    0.32
  -1   4  21    1.57    0.25
   0  -4 -21    0.42    0.22
   0  -4 -21    0.22    0.22
   0   4  21    0.16    0.13
   1  -5 -21    1.56    0.33
   1  -5 -21    0.96    0.31
   1   5 -22    0.30    0.19
   1   5 -22    0.66    0.25
  -1  -5  22    0.88    0.22
   0   5 -22    1.36    0.31
   0   5 -22    1.40    0.31
   0  -5  22    1.41    0.25
  -1   5 -22    0.14    0.19
  -2   5 -22    0.30    0.26
   2   4 -22    0.42    0.19
  -2  -4  22    0.22    0.18
   1   4 -22    1.84    0.36
   1   4 -22    1.56    0.30
  -1  -4  22    1.66    0.28
   0   4 -22    2.05    0.33
   0   4 -22    3.22    0.43
   0  -4  22    2.21    0.28
  -1   4 -22   -0.03    0.20
  -1   4 -22    0.15    0.18
  -2   4 -22    2.25    0.40
   2   3 -22    1.15    0.25
   2   3 -22    0.35    0.24
  -2  -3  22    0.46    0.20
  -2  -3  22    0.71    0.27
   1   3 -22    0.43    0.21
   1   3 -22    0.38    0.18
  -1  -3  22    0.24    0.16
   0   3 -22    0.04    0.15
   0   3 -22    0.21    0.18
   0  -3  22    0.17    0.15
  -1   3 -22    2.03    0.33
  -1   3 -22    1.92    0.34
   1  -3  22    1.56    0.31
  -2   3 -22    1.60    0.30
  -2   3 -22    2.30    0.38
  -3   3 -22    0.36    0.25
   3   2 -22    1.09    0.23
  -3  -2  22    0.65    0.22
  -3  -2  22    0.82    0.29
   2   2 -22    0.09    0.17
   2   2 -22   -0.16    0.11
  -2  -2  22    0.22    0.16
  -2  -2  22   -0.03    0.18
   1   2 -22    0.29    0.20
   1   2 -22    0.31    0.16
  -1  -2  22    0.26    0.16
   0   2 -22    0.77    0.21
   0   2 -22    0.29    0.20
   0  -2  22    0.34    0.14
  -1   2 -22    1.64    0.29
  -1   2 -22    2.20    0.37
   1  -2  22    1.33    0.19
  -2   2 -22    0.44    0.21
  -2   2 -22    0.87    0.28
  -3   2 -22    1.05    0.31
  -3  -1  22    0.53    0.24
  -3  -1  22    1.08    0.27
   2   1 -22    0.74    0.20
   2   1 -22    1.17    0.27
  -2  -1  22    0.74    0.21
  -2  -1  22    0.68    0.23
   1   1 -22    2.23    0.37
   1   1 -22    1.18    0.24
  -1  -1  22    1.48    0.23
   0   1 -22    0.35    0.22
   0   1 -22    0.28    0.17
   0  -1  22    0.47    0.15
  -1   1 -22    0.46    0.22
  -1   1 -22    0.51    0.21
   1  -1  22    0.36    0.16
  -2   1 -22    0.78    0.28
  -2   1 -22    0.48    0.21
   2  -1  22    0.45    0.16
  -3   1 -22    0.85    0.30
  -3   0  22    0.53    0.22
  -3   0  22    0.17    0.20
   2   0 -22    0.04    0.12
   2   0 -22   -0.14    0.15
  -2   0  22   -0.02    0.14
  -2   0  22   -0.03    0.18
   1   0 -22    3.09    0.36
   1   0 -22    3.70    0.44
  -1   0  22    3.18    0.34
   0   0 -22    2.58    0.36
   0   0 -22    2.77    0.37
   0   0  22    2.92    0.28
  -1   0 -22    0.77    0.23
  -1   0 -22    1.16    0.28
   1   0  22    0.84    0.24
   1   0  22    0.83    0.18
  -2   0 -22   -0.02    0.17
  -2   0 -22    0.20    0.22
  -3   0 -22    0.38    0.24
  -3   1  22    1.14    0.29
  -3   1  22    1.53    0.28
   2  -1 -22    0.23    0.20
   2  -1 -22    0.13    0.15
  -2   1  22    0.15    0.19
  -2   1  22    0.02    0.15
   1  -1 -22    2.26    0.35
   1  -1 -22    1.80    0.30
  -1   1  22    2.10    0.28
   0  -1 -22    3.95    0.45
   0  -1 -22    3.89    0.41
   0   1  22    3.20    0.31
  -1  -1 -22    0.73    0.24
  -1  -1 -22    0.82    0.26
  -2  -1 -22    1.33    0.33
  -2  -1 -22    0.94    0.27
  -3   2  22    1.56    0.28
  -3   2  22    1.77    0.35
   2  -2 -22    0.97    0.23
   2  -2 -22    1.37    0.31
  -2   2  22    1.25    0.26
   1  -2 -22    3.87    0.41
   1  -2 -22    3.95    0.44
  -1   2  22    4.36    0.36
   0  -2 -22    0.85    0.28
   0  -2 -22    0.54    0.22
   0   2  22    0.76    0.17
  -1  -2 -22    1.88    0.35
  -1  -2 -22    1.27    0.30
  -2  -2 -22    1.62    0.38
   2  -3 -22    1.41    0.27
  -2   3  22    1.34    0.26
   1  -3 -22    2.01    0.36
   1  -3 -22    1.67    0.29
  -1   3  22    1.64    0.25
   0  -3 -22    0.59    0.25
   0  -3 -22    0.43    0.24
   0   3  22    0.54    0.16
  -1  -3 -22    0.14    0.26
  -1  -3 -22    0.50    0.28
   1  -4 -22    0.58    0.27
   1  -4 -22    0.83    0.26
  -1   4  22    0.75    0.21
   0  -4 -22    0.85    0.29
   0  -4 -22    0.69    0.25
   0   4  22    0.52    0.17
   0   5 -23    0.82    0.27
   1   4 -23    0.10    0.21
   1   4 -23    0.38    0.20
  -1  -4  23    0.31    0.18
   0   4 -23    1.09    0.29
   0   4 -23    0.56    0.23
   0  -4  23    0.59    0.18
  -1   4 -23    0.10    0.21
  -2   4 -23    1.32    0.35
   2   3 -23    1.04    0.24
  -2  -3  23    0.54    0.21
   1   3 -23    0.00    0.17
   1   3 -23    0.05    0.16
  -1  -3  23    0.04    0.15
   0   3 -23   -0.08    0.14
   0   3 -23    0.19    0.20
   0  -3  23   -0.18    0.11
  -1   3 -23    0.18    0.19
  -1   3 -23    0.08    0.21
  -2   3 -23    2.29    0.40
   2   2 -23    0.59    0.20
  -2  -2  23    0.23    0.17
   1   2 -23    0.53    0.20
   1   2 -23    0.77    0.26
  -1  -2  23    0.40    0.17
   0   2 -23    3.33    0.43
   0   2 -23    3.29    0.38
   0  -2  23    3.19    0.31
  -1   2 -23    0.99    0.27
  -1   2 -23    0.77    0.29
  -2   2 -23    0.47    0.29
   2   1 -23    0.53    0.19
   2   1 -23    0.49    0.23
  -2  -1  23    0.23    0.17
   1   1 -23    0.03    0.17
   1   1 -23   -0.06    0.13
  -1  -1  23    0.04    0.13
   0   1 -23    5.19    0.45
   0   1 -23    5.97    0.50
   0  -1  23    6.01    0.36
  -1   1 -23    1.62    0.31
  -1   1 -23    0.80    0.25
  -2   1 -23    1.32    0.35
   2   0 -23    0.84    0.20
   2   0 -23    0.37    0.21
  -2   0  23    0.74    0.22
   1   0 -23    0.56    0.20
   1   0 -23    0.32    0.22
  -1   0  23    0.40    0.17
   0   0 -23    1.79    0.31
   0   0 -23    2.21    0.35
   0   0  23    1.91    0.24
  -1   0 -23    0.98    0.27
  -1   0 -23    1.29    0.31
  -2   0 -23    0.78    0.34
   2  -1 -23    0.68    0.30
   2  -1 -23    1.03    0.23
  -2   1  23    0.70    0.22
   1  -1 -23    1.12    0.31
   1  -1 -23    0.79    0.24
  -1   1  23    1.03    0.22
   0  -1 -23    2.36    0.36
   0  -1 -23    1.33    0.29
   0   1  23    2.33    0.27
  -1  -1 -23    2.02    0.35
  -1  -1 -23    2.33    0.38
  -2  -1 -23   -0.03    0.24
   2  -2 -23    0.30    0.17
  -2   2  23    0.41    0.20
   1  -2 -23    0.49    0.19
   1  -2 -23    0.64    0.25
  -1   2  23    0.49    0.19
   0  -2 -23    0.67    0.26
   0  -2 -23    0.43    0.21
   0   2  23    0.58    0.17
  -1  -2 -23    0.44    0.26
   1  -3 -23    2.42    0.36
   1  -3 -23    2.49    0.42
  -1   3  23    2.37    0.30
   0  -3 -23    1.06    0.29
   0  -3 -23    0.71    0.26
   0   3  23    0.65    0.17
   1   3 -24    3.05    0.45
   1   3 -24    2.74    0.38
  -1  -3  24    2.37    0.31
   0   3 -24    0.32    0.22
   0  -3  24    0.01    0.13
  -1   3 -24    1.81    0.39
   1   2 -24    0.21    0.21
   1   2 -24   -0.06    0.14
  -1  -2  24    0.00    0.15
   0   2 -24    0.51    0.20
   0   2 -24    0.49    0.23
   0  -2  24    0.39    0.16
  -1   2 -24    2.47    0.41
   2   1 -24   -0.09    0.13
   1   1 -24   -0.05    0.18
   1   1 -24    0.03    0.14
  -1  -1  24   -0.11    0.12
   0   1 -24    2.73    0.40
   0   1 -24    2.20    0.34
   0  -1  24    2.25    0.27
  -1   1 -24    1.10    0.31
   2   0 -24    0.04    0.15
   1   0 -24    0.08    0.21
   1   0 -24    0.14    0.15
  -1   0  24    0.17    0.15
   0   0 -24    3.44    0.43
   0   0 -24    2.38    0.34
   0   0  24    2.56    0.29
  -1   0 -24    1.29    0.32
   1  -1 -24    0.08    0.21
   1  -1 -24    0.16    0.17
  -1   1  24    0.04    0.14
   0  -1 -24    0.20    0.20
   0  -1 -24    0.50    0.24
   0   1  24    0.62    0.17
  -1  -1 -24    0.53    0.30
   0   0   0    0.00    0.00
;
_shelx_hkl_checksum              88436
loop_
_space_group_symop_operation_xyz
'x, y, z'
loop_
_atom_site_label
_atom_site_type_symbol
_atom_site_fract_x
_atom_site_fract_y
_atom_site_fract_z
_atom_site_U_iso_or_equiv
_atom_site_adp_type
_atom_site_occupancy
_atom_site_site_symmetry_order
_atom_site_calc_flag
_atom_site_refinement_flags_posn
_atom_site_refinement_flags_adp
_atom_site_refinement_flags_occupancy
_atom_site_disorder_assembly
_atom_site_disorder_group
C1 C 0.3901(10) 0.3185(6) 0.5555(2) 0.0600(14) Uani 1 1 d . . . . .
H1A H 0.4348 0.2179 0.5594 0.090 Uiso 1 1 calc R U . . .
H1B H 0.3128 0.3509 0.5954 0.090 Uiso 1 1 calc R U . . .
H1C H 0.5245 0.3911 0.5498 0.090 Uiso 1 1 calc R U . . .
C2 C 0.2306(8) 0.3117(5) 0.4957(2) 0.0421(10) Uani 1 1 d . . . . .
C3 C 0.0082(9) 0.2067(5) 0.5013(3) 0.0651(15) Uani 1 1 d . . . . .
H3A H -0.0867 0.2094 0.4622 0.098 Uiso 1 1 calc R U . . .
H3B H -0.0708 0.2410 0.5406 0.098 Uiso 1 1 calc R U . . .
H3C H 0.0403 0.1029 0.5047 0.098 Uiso 1 1 calc R U . . .
C4 C 0.2757(7) 0.3481(4) 0.3843(2) 0.0342(9) Uani 1 1 d . . . . .
H4 H 0.1222 0.3005 0.3682 0.041 Uiso 1 1 calc R U . . .
C5 C 0.4426(7) 0.3490(4) 0.32639(19) 0.0326(9) Uani 1 1 d . . . . .
H5 H 0.3718 0.3897 0.2883 0.039 Uiso 1 1 calc R U . . .
C6 C 0.6670(7) 0.4484(4) 0.34438(19) 0.0313(8) Uani 1 1 d . . . . .
H6A H 0.7483 0.4036 0.3786 0.038 Uiso 1 1 calc R U . . .
H6B H 0.7629 0.4543 0.3051 0.038 Uiso 1 1 calc R U . . .
C7 C 0.7090(7) 0.7315(4) 0.33999(18) 0.0267(8) Uani 1 1 d . . . . .
C8 C 0.6454(8) 0.8861(4) 0.3678(2) 0.0387(10) Uani 1 1 d . . . . .
H8A H 0.6072 0.9428 0.3306 0.046 Uiso 1 1 calc R U . . .
H8B H 0.7786 0.9449 0.3912 0.046 Uiso 1 1 calc R U . . .
C9 C 0.4458(8) 0.8754(4) 0.4153(2) 0.0416(10) Uani 1 1 d . . . . .
H9A H 0.3037 0.8434 0.3897 0.050 Uiso 1 1 calc R U . . .
H9B H 0.4366 0.9767 0.4383 0.050 Uiso 1 1 calc R U . . .
C10 C 0.4711(7) 0.7615(4) 0.46654(19) 0.0363(9) Uani 1 1 d . . . . .
H10 H 0.3331 0.7530 0.4940 0.044 Uiso 1 1 calc R U . . .
C11 C 0.4979(7) 0.6019(4) 0.43288(18) 0.0289(8) Uani 1 1 d . . . . .
H11 H 0.5864 0.5504 0.4639 0.035 Uiso 1 1 calc R U . . .
C12 C 0.2604(7) 0.5049(4) 0.4219(2) 0.0337(9) Uani 1 1 d . . . . .
H12 H 0.1541 0.5614 0.3989 0.040 Uiso 1 1 calc R U . . .
C13 C 1.0916(7) 0.7541(4) 0.18415(19) 0.0313(9) Uani 1 1 d . . . . .
C14 C 1.2840(8) 0.6900(5) 0.2004(2) 0.0423(10) Uani 1 1 d . . . . .
H14 H 1.3372 0.6992 0.2448 0.051 Uiso 1 1 calc R U . . .
C15 C 1.3994(8) 0.6114(5) 0.1508(2) 0.0464(11) Uani 1 1 d . . . . .
H15 H 1.5295 0.5678 0.1620 0.056 Uiso 1 1 calc R U . . .
C16 C 1.3213(9) 0.5976(5) 0.0844(2) 0.0451(12) Uani 1 1 d . . . . .
C17 C 1.1292(9) 0.6624(5) 0.0700(2) 0.0464(12) Uani 1 1 d . . . . .
H17 H 1.0751 0.6525 0.0257 0.056 Uiso 1 1 calc R U . . .
C18 C 1.0128(8) 0.7413(5) 0.1178(2) 0.0416(10) Uani 1 1 d . . . . .
H18 H 0.8837 0.7856 0.1062 0.050 Uiso 1 1 calc R U . . .
C19 C 1.4517(10) 0.5149(6) 0.0312(3) 0.0609(15) Uani 1 1 d . . . . .
H19A H 1.3464 0.4646 -0.0034 0.091 Uiso 1 1 calc R U . . .
H19B H 1.5290 0.4391 0.0508 0.091 Uiso 1 1 calc R U . . .
H19C H 1.5631 0.5883 0.0121 0.091 Uiso 1 1 calc R U . . .
C20 C 0.9089(13) 0.6114(9) 0.6402(3) 0.091(2) Uani 1 1 d . . . . .
H20A H 0.9766 0.5667 0.6008 0.136 Uiso 1 1 calc R U . . .
H20B H 0.9015 0.7191 0.6360 0.136 Uiso 1 1 calc R U . . .
H20C H 0.7564 0.5590 0.6450 0.136 Uiso 1 1 calc R U . . .
C21 C 1.0528(10) 0.5951(5) 0.7008(2) 0.0524(12) Uani 1 1 d . . . . .
C22 C 1.2902(13) 0.6801(8) 0.6955(4) 0.093(2) Uani 1 1 d . . . . .
H22A H 1.3716 0.6833 0.7376 0.139 Uiso 1 1 calc R U . . .
H22B H 1.2798 0.7837 0.6848 0.139 Uiso 1 1 calc R U . . .
H22C H 1.3713 0.6277 0.6608 0.139 Uiso 1 1 calc R U . . .
C23 C 0.8193(10) 0.5296(5) 0.7896(2) 0.0520(12) Uani 1 1 d . . . . .
H23 H 0.6544 0.5338 0.7829 0.062 Uiso 1 1 calc R U . . .
C24 C 0.8752(11) 0.5378(5) 0.8639(2) 0.0546(14) Uani 1 1 d . . . . .
H24 H 0.8107 0.6259 0.8866 0.066 Uiso 1 1 calc R U . . .
C25 C 0.7593(11) 0.3893(5) 0.8905(2) 0.0602(15) Uani 1 1 d . . . . .
H25A H 0.8085 0.3867 0.9368 0.072 Uiso 1 1 calc R U . . .
H25B H 0.5939 0.3899 0.8899 0.072 Uiso 1 1 calc R U . . .
C26 C 0.7162(9) 0.1124(5) 0.8693(2) 0.0409(10) Uani 1 1 d . . . . .
C27 C 0.7694(12) -0.0312(5) 0.8300(3) 0.077(2) Uani 1 1 d D U . . .
H27A H 0.6580 -0.0601 0.7934 0.093 Uiso 0.598(12) 1 calc R U P A 1
H27B H 0.7602 -0.1154 0.8588 0.093 Uiso 0.598(12) 1 calc R U P A 1
H27C H 0.6414 -0.1124 0.8330 0.093 Uiso 0.402(12) 1 calc R U P A 2
H27D H 0.9041 -0.0646 0.8498 0.093 Uiso 0.402(12) 1 calc R U P A 2
C28 C 1.0172(17) -0.0018(9) 0.8013(4) 0.060(3) Uani 0.598(12) 1 d D U P A 1
H28A H 1.1301 0.0344 0.8369 0.071 Uiso 0.598(12) 1 calc R U P A 1
H28B H 1.0597 -0.0949 0.7773 0.071 Uiso 0.598(12) 1 calc R U P A 1
C28' C 0.816(2) -0.0075(12) 0.7526(6) 0.060(4) Uani 0.402(12) 1 d D U P A 2
H28C H 0.8646 -0.0995 0.7293 0.072 Uiso 0.402(12) 1 calc R U P A 2
H28D H 0.6789 0.0163 0.7304 0.072 Uiso 0.402(12) 1 calc R U P A 2
C29 C 0.9967(11) 0.1208(6) 0.7547(3) 0.0800(19) Uani 1 1 d D U . . .
H29A H 0.8610 0.0898 0.7252 0.096 Uiso 0.598(12) 1 calc R U P A 1
H29B H 1.0758 0.0835 0.7922 0.096 Uiso 0.402(12) 1 calc R U P A 2
C30 C 0.9726(9) 0.2722(5) 0.7945(2) 0.0498(12) Uani 1 1 d . . . . .
H30 H 1.1243 0.3174 0.8129 0.060 Uiso 1 1 calc R U . . .
C31 C 0.8868(10) 0.3832(5) 0.7501(2) 0.0562(14) Uani 1 1 d . . . . .
H31 H 0.7574 0.3313 0.7218 0.067 Uiso 1 1 calc R U . . .
C32 C 0.3200(9) 0.0486(5) 1.0195(2) 0.0463(12) Uani 1 1 d . . . . .
C33 C 0.4056(9) 0.0583(6) 1.0837(3) 0.0512(12) Uani 1 1 d . . . . .
H33 H 0.5384 0.0157 1.0931 0.061 Uiso 1 1 calc R U . . .
C34 C 0.2900(10) 0.1335(6) 1.1352(2) 0.0566(15) Uani 1 1 d . . . . .
H34 H 0.3467 0.1397 1.1791 0.068 Uiso 1 1 calc R U . . .
C35 C 0.0925(9) 0.1989(5) 1.1224(2) 0.0483(12) Uani 1 1 d . . . . .
C36 C 0.0113(10) 0.1851(6) 1.0565(2) 0.0562(13) Uani 1 1 d . . . . .
H36 H -0.1224 0.2261 1.0466 0.067 Uiso 1 1 calc R U . . .
C37 C 0.1229(9) 0.1128(6) 1.0061(2) 0.0551(13) Uani 1 1 d . . . . .
H37 H 0.0661 0.1064 0.9623 0.066 Uiso 1 1 calc R U . . .
C38 C -0.0324(11) 0.2789(6) 1.1773(3) 0.0649(15) Uani 1 1 d . . . . .
H38A H 0.0105 0.2466 1.2198 0.097 Uiso 1 1 calc R U . . .
H38B H -0.1953 0.2525 1.1700 0.097 Uiso 1 1 calc R U . . .
H38C H 0.0076 0.3888 1.1775 0.097 Uiso 1 1 calc R U . . .
N1 N 0.6208(6) 0.6049(3) 0.36961(15) 0.0288(7) Uani 1 1 d . . . . .
N2 N 0.6772(8) 0.8234(4) 0.51148(17) 0.0483(10) Uani 1 1 d . . . . .
N3 N 0.8429(6) 0.7106(3) 0.28945(16) 0.0323(8) Uani 1 1 d . . . . .
O1 O 0.1740(5) 0.4658(3) 0.48510(15) 0.0458(8) Uani 1 1 d . . . . .
O2 O 0.3516(5) 0.2662(3) 0.43715(13) 0.0358(6) Uani 1 1 d . . . . .
O3 O 0.4958(5) 0.1996(3) 0.30560(14) 0.0425(7) Uani 1 1 d . . . . .
H3 H 0.3767 0.1419 0.2954 0.064 Uiso 1 1 calc R U . . .
O4 O 0.8650(7) 0.7871(4) 0.49617(19) 0.0642(9) Uani 1 1 d . . . . .
O5 O 0.6451(8) 0.9130(5) 0.55965(18) 0.0842(13) Uani 1 1 d . . . . .
O6 O 1.1186(6) 0.9549(3) 0.28907(14) 0.0457(8) Uani 1 1 d . . . . .
O7 O 0.7750(6) 0.9257(3) 0.21652(15) 0.0451(7) Uani 1 1 d . . . . .
S1 S 0.94949(15) 0.85443(9) 0.24742(5) 0.0333(2) Uani 1 1 d . . . . .
N4 N 0.8137(7) 0.2493(4) 0.85094(17) 0.0420(9) Uani 1 1 d . . . . .
N5 N 1.1989(11) 0.1289(6) 0.7152(3) 0.0774(15) Uani 1 1 d . . . . .
N6 N 0.5800(7) 0.1156(4) 0.92113(18) 0.0452(10) Uani 1 1 d . . . . .
O8 O 1.0735(8) 0.4394(4) 0.7094(2) 0.0811(14) Uani 1 1 d . . . . .
O9 O 0.9471(8) 0.6525(3) 0.75974(16) 0.0647(10) Uani 1 1 d . . . . .
O10 O 1.1125(8) 0.5549(4) 0.87836(18) 0.0694(11) Uani 1 1 d . . . . .
H10A H 1.1836 0.5576 0.8432 0.104 Uiso 1 1 calc R U . . .
O11 O 1.3837(11) 0.1866(10) 0.7358(4) 0.145(3) Uani 1 1 d . . . . .
O12 O 1.1699(14) 0.0763(6) 0.6577(3) 0.147(3) Uani 1 1 d . . . . .
O13 O 0.2940(7) -0.1258(4) 0.90615(19) 0.0732(12) Uani 1 1 d . . . . .
O14 O 0.6320(8) -0.1243(4) 0.9783(2) 0.0732(12) Uani 1 1 d . . . . .
S2 S 0.4635(2) -0.03901(11) 0.95224(6) 0.0523(3) Uani 1 1 d . . . . .
loop_
_atom_site_aniso_label
_atom_site_aniso_U_11
_atom_site_aniso_U_22
_atom_site_aniso_U_33
_atom_site_aniso_U_23
_atom_site_aniso_U_13
_atom_site_aniso_U_12
C1 0.084(4) 0.053(3) 0.042(3) 0.007(2) 0.015(3) 0.004(3)
C2 0.050(3) 0.030(2) 0.048(2) 0.0060(18) 0.019(2) 0.0053(19)
C3 0.065(4) 0.040(3) 0.089(4) 0.013(3) 0.035(3) -0.007(2)
C4 0.029(2) 0.0260(18) 0.047(2) 0.0017(16) -0.0011(17) 0.0003(15)
C5 0.042(2) 0.0229(18) 0.0324(19) -0.0007(15) -0.0009(17) 0.0036(16)
C6 0.034(2) 0.0218(18) 0.038(2) 0.0019(15) 0.0083(17) 0.0052(15)
C7 0.026(2) 0.0220(17) 0.0308(19) 0.0016(14) -0.0043(16) -0.0007(14)
C8 0.057(3) 0.0210(18) 0.039(2) 0.0061(16) 0.007(2) 0.0062(18)
C9 0.053(3) 0.0248(19) 0.047(2) -0.0021(17) 0.007(2) 0.0092(18)
C10 0.043(3) 0.029(2) 0.035(2) -0.0034(16) 0.0087(19) 0.0008(18)
C11 0.030(2) 0.0212(17) 0.0343(19) 0.0016(15) 0.0045(16) 0.0007(15)
C12 0.028(2) 0.0282(18) 0.045(2) 0.0037(16) 0.0063(17) 0.0038(16)
C13 0.029(2) 0.029(2) 0.033(2) 0.0040(16) 0.0033(17) -0.0087(17)
C14 0.036(3) 0.051(3) 0.039(2) 0.004(2) -0.003(2) 0.001(2)
C15 0.036(3) 0.050(3) 0.054(3) 0.006(2) 0.007(2) 0.007(2)
C16 0.047(3) 0.037(2) 0.046(3) -0.0029(19) 0.016(2) -0.010(2)
C17 0.050(3) 0.052(3) 0.033(2) -0.0007(19) 0.008(2) -0.006(2)
C18 0.037(3) 0.050(3) 0.039(2) 0.009(2) -0.0006(19) 0.002(2)
C19 0.064(4) 0.055(3) 0.060(3) -0.004(2) 0.027(3) 0.001(3)
C20 0.104(6) 0.124(6) 0.045(3) 0.002(3) -0.001(3) 0.023(5)
C21 0.076(4) 0.037(2) 0.046(2) 0.0033(19) 0.016(2) 0.010(2)
C22 0.091(5) 0.063(4) 0.124(6) 0.021(4) 0.017(4) 0.000(3)
C23 0.071(3) 0.042(2) 0.043(2) -0.001(2) 0.011(2) 0.009(2)
C24 0.097(4) 0.025(2) 0.038(2) -0.0024(18) 0.018(3) -0.001(2)
C25 0.102(5) 0.029(2) 0.048(3) -0.0031(19) 0.021(3) 0.003(2)
C26 0.051(3) 0.025(2) 0.045(2) 0.0024(17) -0.003(2) -0.0016(18)
C27 0.108(5) 0.028(2) 0.095(4) 0.005(2) 0.053(4) -0.001(3)
C28 0.086(7) 0.035(4) 0.059(5) 0.000(3) 0.027(4) 0.013(4)
C28' 0.063(8) 0.028(5) 0.084(8) -0.009(5) 0.023(7) 0.003(5)
C29 0.078(4) 0.045(3) 0.108(4) -0.023(3) 0.050(4) -0.009(3)
C30 0.057(3) 0.031(2) 0.056(3) -0.008(2) 0.018(2) -0.009(2)
C31 0.084(4) 0.036(2) 0.042(2) -0.006(2) 0.021(2) -0.010(2)
C32 0.054(3) 0.037(2) 0.045(3) 0.012(2) 0.005(2) -0.008(2)
C33 0.049(3) 0.051(3) 0.053(3) 0.016(2) 0.002(2) -0.002(2)
C34 0.066(4) 0.064(3) 0.035(2) 0.014(2) -0.006(2) -0.017(3)
C35 0.047(3) 0.044(2) 0.049(3) 0.010(2) 0.006(2) -0.017(2)
C36 0.057(3) 0.061(3) 0.049(3) 0.005(2) -0.004(2) 0.001(3)
C37 0.056(4) 0.064(3) 0.042(3) 0.006(2) -0.004(2) -0.004(3)
C38 0.073(4) 0.056(3) 0.059(3) -0.003(2) 0.014(3) -0.011(3)
N1 0.0347(19) 0.0177(14) 0.0343(16) 0.0030(12) 0.0077(14) 0.0031(13)
N2 0.070(3) 0.0355(19) 0.035(2) 0.0032(16) -0.0010(19) -0.0082(19)
N3 0.035(2) 0.0246(16) 0.0370(17) 0.0055(13) 0.0084(15) 0.0000(14)
O1 0.0496(19) 0.0268(14) 0.0613(18) 0.0041(13) 0.0326(15) 0.0036(12)
O2 0.0416(17) 0.0252(13) 0.0412(15) 0.0047(11) 0.0128(13) 0.0051(12)
O3 0.0506(19) 0.0221(13) 0.0515(16) -0.0080(12) 0.0071(14) 0.0004(12)
O4 0.052(2) 0.066(2) 0.070(2) -0.0028(18) -0.0157(19) -0.0032(18)
O5 0.108(4) 0.076(3) 0.058(2) -0.030(2) 0.001(2) -0.005(2)
O6 0.054(2) 0.0353(16) 0.0416(16) -0.0007(13) 0.0041(14) -0.0163(14)
O7 0.053(2) 0.0383(16) 0.0472(16) 0.0121(13) 0.0057(15) 0.0102(14)
S1 0.0387(6) 0.0253(5) 0.0345(5) 0.0055(4) 0.0052(4) -0.0034(4)
N4 0.052(2) 0.0270(17) 0.042(2) -0.0042(14) 0.0133(17) -0.0065(16)
N5 0.079(4) 0.062(3) 0.090(4) -0.004(3) 0.034(3) 0.009(3)
N6 0.057(3) 0.0324(19) 0.044(2) 0.0031(16) 0.0103(19) -0.0034(18)
O8 0.126(4) 0.0362(18) 0.083(3) 0.0104(17) 0.062(3) 0.012(2)
O9 0.118(3) 0.0331(17) 0.0451(17) 0.0060(14) 0.0229(19) 0.0131(18)
O10 0.100(3) 0.0406(18) 0.062(2) -0.0006(16) -0.013(2) -0.0067(19)
O11 0.074(4) 0.195(7) 0.168(6) 0.053(5) 0.020(4) -0.002(4)
O12 0.261(8) 0.087(3) 0.080(3) -0.013(3) 0.074(4) -0.021(4)
O13 0.085(3) 0.048(2) 0.074(2) -0.0151(18) 0.010(2) -0.027(2)
O14 0.085(3) 0.049(2) 0.093(3) 0.031(2) 0.026(2) 0.020(2)
S2 0.0639(9) 0.0316(6) 0.0580(7) 0.0063(5) 0.0124(6) -0.0092(6)
loop_
_atom_type_symbol
_atom_type_description
_atom_type_scat_dispersion_real
_atom_type_scat_dispersion_imag
_atom_type_scat_source
C C 0.0033 0.0016 'International Tables Vol C Tables 4.2.6.8 and 6.1.1.4'
H H 0.0000 0.0000 'International Tables Vol C Tables 4.2.6.8 and 6.1.1.4'
N N 0.0061 0.0033 'International Tables Vol C Tables 4.2.6.8 and 6.1.1.4'
O O 0.0106 0.0060 'International Tables Vol C Tables 4.2.6.8 and 6.1.1.4'
S S 0.1246 0.1234 'International Tables Vol C Tables 4.2.6.8 and 6.1.1.4'
loop_
_geom_angle_atom_site_label_1
_geom_angle_atom_site_label_2
_geom_angle_atom_site_label_3
_geom_angle
C2 C1 H1A 109.5
C2 C1 H1B 109.5
H1A C1 H1B 109.5
C2 C1 H1C 109.5
H1A C1 H1C 109.5
H1B C1 H1C 109.5
O2 C2 O1 104.9(3)
O2 C2 C1 108.1(4)
O1 C2 C1 110.8(4)
O2 C2 C3 111.2(4)
O1 C2 C3 107.8(4)
C1 C2 C3 113.7(4)
C2 C3 H3A 109.5
C2 C3 H3B 109.5
H3A C3 H3B 109.5
C2 C3 H3C 109.5
H3A C3 H3C 109.5
H3B C3 H3C 109.5
O2 C4 C12 100.6(3)
O2 C4 C5 111.1(3)
C12 C4 C5 115.3(3)
O2 C4 H4 109.8
C12 C4 H4 109.8
C5 C4 H4 109.8
O3 C5 C6 106.8(3)
O3 C5 C4 112.2(3)
C6 C5 C4 112.3(3)
O3 C5 H5 108.5
C6 C5 H5 108.5
C4 C5 H5 108.5
N1 C6 C5 109.1(3)
N1 C6 H6A 109.9
C5 C6 H6A 109.9
N1 C6 H6B 109.9
C5 C6 H6B 109.9
H6A C6 H6B 108.3
N3 C7 N1 117.1(3)
N3 C7 C8 124.9(3)
N1 C7 C8 117.9(3)
C7 C8 C9 114.2(3)
C7 C8 H8A 108.7
C9 C8 H8A 108.7
C7 C8 H8B 108.7
C9 C8 H8B 108.7
H8A C8 H8B 107.6
C8 C9 C10 111.7(4)
C8 C9 H9A 109.3
C10 C9 H9A 109.3
C8 C9 H9B 109.3
C10 C9 H9B 109.3
H9A C9 H9B 107.9
C9 C10 N2 108.5(3)
C9 C10 C11 111.4(3)
N2 C10 C11 110.7(3)
C9 C10 H10 108.7
N2 C10 H10 108.7
C11 C10 H10 108.7
N1 C11 C10 114.0(3)
N1 C11 C12 110.1(3)
C10 C11 C12 109.9(3)
N1 C11 H11 107.5
C10 C11 H11 107.5
C12 C11 H11 107.5
O1 C12 C4 103.0(3)
O1 C12 C11 108.8(3)
C4 C12 C11 112.1(3)
O1 C12 H12 110.9
C4 C12 H12 110.9
C11 C12 H12 110.9
C14 C13 C18 120.1(4)
C14 C13 S1 119.4(3)
C18 C13 S1 120.5(3)
C13 C14 C15 120.0(4)
C13 C14 H14 120.0
C15 C14 H14 120.0
C14 C15 C16 120.3(5)
C14 C15 H15 119.9
C16 C15 H15 119.9
C17 C16 C15 118.2(4)
C17 C16 C19 122.4(4)
C15 C16 C19 119.4(5)
C16 C17 C18 122.8(4)
C16 C17 H17 118.6
C18 C17 H17 118.6
C17 C18 C13 118.6(4)
C17 C18 H18 120.7
C13 C18 H18 120.7
C16 C19 H19A 109.5
C16 C19 H19B 109.5
H19A C19 H19B 109.5
C16 C19 H19C 109.5
H19A C19 H19C 109.5
H19B C19 H19C 109.5
C21 C20 H20A 109.5
C21 C20 H20B 109.5
H20A C20 H20B 109.5
C21 C20 H20C 109.5
H20A C20 H20C 109.5
H20B C20 H20C 109.5
O8 C21 O9 105.7(3)
O8 C21 C20 112.3(5)
O9 C21 C20 109.9(5)
O8 C21 C22 108.1(5)
O9 C21 C22 110.1(5)
C20 C21 C22 110.6(5)
C21 C22 H22A 109.5
C21 C22 H22B 109.5
H22A C22 H22B 109.5
C21 C22 H22C 109.5
H22A C22 H22C 109.5
H22B C22 H22C 109.5
O9 C23 C24 110.9(4)
O9 C23 C31 104.1(4)
C24 C23 C31 113.0(4)
O9 C23 H23 109.6
C24 C23 H23 109.6
C31 C23 H23 109.6
O10 C24 C23 113.2(4)
O10 C24 C25 109.5(4)
C23 C24 C25 108.0(4)
O10 C24 H24 108.7
C23 C24 H24 108.7
C25 C24 H24 108.7
N4 C25 C24 112.5(4)
N4 C25 H25A 109.1
C24 C25 H25A 109.1
N4 C25 H25B 109.1
C24 C25 H25B 109.1
H25A C25 H25B 107.8
N6 C26 N4 116.9(4)
N6 C26 C27 124.8(4)
N4 C26 C27 118.3(4)
C26 C27 C28 109.3(5)
C26 C27 C28' 112.7(6)
C26 C27 H27A 109.8
C28 C27 H27A 109.8
C26 C27 H27B 109.8
C28 C27 H27B 109.8
H27A C27 H27B 108.3
C26 C27 H27C 109.0
C28' C27 H27C 109.0
C26 C27 H27D 109.0
C28' C27 H27D 109.0
H27C C27 H27D 107.8
C29 C28 C27 102.9(6)
C29 C28 H28A 111.2
C27 C28 H28A 111.2
C29 C28 H28B 111.2
C27 C28 H28B 111.2
H28A C28 H28B 109.1
C29 C28' C27 104.0(8)
C29 C28' H28C 110.9
C27 C28' H28C 110.9
C29 C28' H28D 110.9
C27 C28' H28D 110.9
H28C C28' H28D 109.0
N5 C29 C28' 126.0(6)
N5 C29 C28 106.2(6)
N5 C29 C30 112.6(4)
C28' C29 C30 121.0(6)
C28 C29 C30 109.9(5)
N5 C29 H29A 109.4
C28 C29 H29A 109.4
C30 C29 H29A 109.4
N5 C29 H29B 92.1
C28' C29 H29B 92.1
C30 C29 H29B 92.1
N4 C30 C31 109.4(4)
N4 C30 C29 111.3(4)
C31 C30 C29 110.5(5)
N4 C30 H30 108.5
C31 C30 H30 108.5
C29 C30 H30 108.5
O8 C31 C30 107.8(5)
O8 C31 C23 104.5(4)
C30 C31 C23 113.2(4)
O8 C31 H31 110.4
C30 C31 H31 110.4
C23 C31 H31 110.4
C33 C32 C37 120.1(5)
C33 C32 S2 120.8(4)
C37 C32 S2 119.1(4)
C32 C33 C34 118.8(5)
C32 C33 H33 120.6
C34 C33 H33 120.6
C35 C34 C33 121.6(4)
C35 C34 H34 119.2
C33 C34 H34 119.2
C36 C35 C34 117.5(5)
C36 C35 C38 120.7(5)
C34 C35 C38 121.7(5)
C37 C36 C35 121.4(5)
C37 C36 H36 119.3
C35 C36 H36 119.3
C36 C37 C32 120.7(5)
C36 C37 H37 119.7
C32 C37 H37 119.7
C35 C38 H38A 109.5
C35 C38 H38B 109.5
H38A C38 H38B 109.5
C35 C38 H38C 109.5
H38A C38 H38C 109.5
H38B C38 H38C 109.5
C7 N1 C11 126.8(3)
C7 N1 C6 121.7(3)
C11 N1 C6 111.1(3)
O5 N2 O4 124.0(4)
O5 N2 C10 117.0(5)
O4 N2 C10 118.9(3)
C7 N3 S1 121.4(3)
C12 O1 C2 108.0(3)
C2 O2 C4 106.7(3)
C5 O3 H3 109.5
O7 S1 O6 116.83(19)
O7 S1 N3 112.49(18)
O6 S1 N3 109.01(17)
O7 S1 C13 108.32(19)
O6 S1 C13 108.75(19)
N3 S1 C13 100.06(17)
C26 N4 C25 117.3(4)
C26 N4 C30 125.8(4)
C25 N4 C30 116.9(3)
O11 N5 O12 121.0(7)
O11 N5 C29 123.7(6)
O12 N5 C29 115.2(7)
C26 N6 S2 122.8(3)
C21 O8 C31 107.3(4)
C23 O9 C21 110.0(3)
C24 O10 H10A 109.5
O14 S2 O13 116.0(3)
O14 S2 N6 112.1(2)
O13 S2 N6 110.7(2)
O14 S2 C32 109.3(2)
O13 S2 C32 108.6(2)
N6 S2 C32 98.6(2)
loop_
_geom_bond_atom_site_label_1
_geom_bond_atom_site_label_2
_geom_bond_distance
C1 C2 1.503(7)
C1 H1A 0.9600
C1 H1B 0.9600
C1 H1C 0.9600
C2 O2 1.426(5)
C2 O1 1.463(5)
C2 C3 1.505(6)
C3 H3A 0.9600
C3 H3B 0.9600
C3 H3C 0.9600
C4 O2 1.428(5)
C4 C12 1.518(5)
C4 C5 1.521(5)
C4 H4 0.9800
C5 O3 1.411(4)
C5 C6 1.502(5)
C5 H5 0.9800
C6 N1 1.476(4)
C6 H6A 0.9700
C6 H6B 0.9700
C7 N3 1.298(5)
C7 N1 1.348(5)
C7 C8 1.509(5)
C8 C9 1.511(6)
C8 H8A 0.9700
C8 H8B 0.9700
C9 C10 1.511(6)
C9 H9A 0.9700
C9 H9B 0.9700
C10 N2 1.512(6)
C10 C11 1.522(5)
C10 H10 0.9800
C11 N1 1.461(5)
C11 C12 1.537(5)
C11 H11 0.9800
C12 O1 1.418(5)
C12 H12 0.9800
C13 C14 1.372(6)
C13 C18 1.390(6)
C13 S1 1.753(4)
C14 C15 1.387(7)
C14 H14 0.9300
C15 C16 1.389(7)
C15 H15 0.9300
C16 C17 1.365(7)
C16 C19 1.503(6)
C17 C18 1.368(7)
C17 H17 0.9300
C18 H18 0.9300
C19 H19A 0.9600
C19 H19B 0.9600
C19 H19C 0.9600
C20 C21 1.498(8)
C20 H20A 0.9600
C20 H20B 0.9600
C20 H20C 0.9600
C21 O8 1.408(6)
C21 O9 1.417(5)
C21 C22 1.499(8)
C22 H22A 0.9600
C22 H22B 0.9600
C22 H22C 0.9600
C23 O9 1.409(6)
C23 C24 1.512(7)
C23 C31 1.541(6)
C23 H23 0.9800
C24 O10 1.404(7)
C24 C25 1.527(6)
C24 H24 0.9800
C25 N4 1.470(6)
C25 H25A 0.9700
C25 H25B 0.9700
C26 N6 1.313(6)
C26 N4 1.342(5)
C26 C27 1.491(7)
C27 C28 1.564(10)
C27 C28' 1.599(12)
C27 H27A 0.9700
C27 H27B 0.9700
C27 H27C 0.9700
C27 H27D 0.9700
C28 C29 1.498(10)
C28 H28A 0.9700
C28 H28B 0.9700
C28' C29 1.438(11)
C28' H28C 0.9700
C28' H28D 0.9700
C29 N5 1.427(7)
C29 C30 1.507(6)
C29 H29A 0.9800
C29 H29B 0.9800
C30 N4 1.479(5)
C30 C31 1.503(7)
C30 H30 0.9800
C31 O8 1.430(6)
C31 H31 0.9800
C32 C33 1.367(7)
C32 C37 1.382(7)
C32 S2 1.761(5)
C33 C34 1.399(8)
C33 H33 0.9300
C34 C35 1.388(8)
C34 H34 0.9300
C35 C36 1.385(7)
C35 C38 1.497(7)
C36 C37 1.359(7)
C36 H36 0.9300
C37 H37 0.9300
C38 H38A 0.9600
C38 H38B 0.9600
C38 H38C 0.9600
N2 O5 1.218(5)
N2 O4 1.218(5)
N3 S1 1.635(3)
O3 H3 0.8200
O6 S1 1.442(3)
O7 S1 1.428(3)
N5 O11 1.188(8)
N5 O12 1.200(7)
N6 S2 1.612(4)
O10 H10A 0.8200
O13 S2 1.441(4)
O14 S2 1.434(4)
loop_
_geom_hbond_atom_site_label_D
_geom_hbond_atom_site_label_H
_geom_hbond_atom_site_label_A
_geom_hbond_distance_DH
_geom_hbond_distance_HA
_geom_hbond_distance_DA
_geom_hbond_angle_DHA
_geom_hbond_site_symmetry_A
C8 H8A O3 0.97 2.51 3.325(5) 141.5 1_565
C8 H8A O7 0.97 2.49 3.160(5) 126.1 .
C9 H9A O6 0.97 2.60 3.332(6) 132.4 1_455
C9 H9B O2 0.97 2.65 3.524(5) 150.6 1_565
C27 H27B O14 0.97 2.51 3.224(7) 129.8 .
C27 H27C O13 0.97 2.51 3.233(7) 131.0 .
C28 H28A O13 0.97 2.34 3.001(11) 124.7 1_655
C28 H28B O9 0.97 2.22 3.039(8) 141.5 1_545
C28' H28C O9 0.97 2.41 3.182(12) 136.1 1_545
C28' H28D O11 0.97 2.42 3.259(16) 144.2 1_455
C30 H30 O10 0.98 2.36 2.883(5) 112.4 .
C31 H31 O11 0.98 2.41 3.212(9) 138.2 1_455
O3 H3 O6 0.82 2.07 2.866(4) 162.7 1_445
loop_
_geom_torsion_atom_site_label_1
_geom_torsion_atom_site_label_2
_geom_torsion_atom_site_label_3
_geom_torsion_atom_site_label_4
_geom_torsion
O2 C4 C5 O3 50.3(4)
C12 C4 C5 O3 163.9(3)
O2 C4 C5 C6 -70.0(4)
C12 C4 C5 C6 43.6(4)
O3 C5 C6 N1 -177.4(3)
C4 C5 C6 N1 -54.0(4)
N3 C7 C8 C9 166.3(4)
N1 C7 C8 C9 -13.7(5)
C7 C8 C9 C10 46.7(5)
C8 C9 C10 N2 65.9(4)
C8 C9 C10 C11 -56.2(5)
C9 C10 C11 N1 33.2(5)
N2 C10 C11 N1 -87.6(4)
C9 C10 C11 C12 -90.9(4)
N2 C10 C11 C12 148.2(3)
O2 C4 C12 O1 -38.2(4)
C5 C4 C12 O1 -157.8(3)
O2 C4 C12 C11 78.6(3)
C5 C4 C12 C11 -41.0(4)
N1 C11 C12 O1 163.1(3)
C10 C11 C12 O1 -70.5(4)
N1 C11 C12 C4 49.8(4)
C10 C11 C12 C4 176.2(3)
C18 C13 C14 C15 -0.5(6)
S1 C13 C14 C15 -179.4(3)
C13 C14 C15 C16 0.2(6)
C14 C15 C16 C17 -0.3(6)
C14 C15 C16 C19 178.7(4)
C15 C16 C17 C18 0.7(7)
C19 C16 C17 C18 -178.2(4)
C16 C17 C18 C13 -1.0(7)
C14 C13 C18 C17 0.8(6)
S1 C13 C18 C17 179.8(3)
O9 C23 C24 O10 -50.2(5)
C31 C23 C24 O10 66.2(5)
O9 C23 C24 C25 -171.6(4)
C31 C23 C24 C25 -55.2(6)
O10 C24 C25 N4 -71.8(5)
C23 C24 C25 N4 51.9(6)
N6 C26 C27 C28 -149.8(6)
N4 C26 C27 C28 30.1(8)
N6 C26 C27 C28' 148.6(7)
N4 C26 C27 C28' -31.5(9)
C26 C27 C28 C29 -63.7(7)
C26 C27 C28' C29 55.1(10)
C27 C28' C29 N5 133.8(8)
C27 C28' C29 C30 -54.1(11)
C27 C28 C29 N5 -167.1(5)
C27 C28 C29 C30 70.9(7)
N5 C29 C30 N4 -160.5(5)
C28' C29 C30 N4 26.3(11)
C28 C29 C30 N4 -42.4(7)
N5 C29 C30 C31 77.7(7)
C28' C29 C30 C31 -95.5(9)
C28 C29 C30 C31 -164.2(6)
N4 C30 C31 O8 162.4(3)
C29 C30 C31 O8 -74.7(5)
N4 C30 C31 C23 47.4(6)
C29 C30 C31 C23 170.3(4)
O9 C23 C31 O8 9.0(6)
C24 C23 C31 O8 -111.5(5)
O9 C23 C31 C30 126.0(4)
C24 C23 C31 C30 5.6(6)
C37 C32 C33 C34 0.2(7)
S2 C32 C33 C34 177.9(4)
C32 C33 C34 C35 -0.5(7)
C33 C34 C35 C36 1.0(7)
C33 C34 C35 C38 179.7(4)
C34 C35 C36 C37 -1.2(7)
C38 C35 C36 C37 -180.0(5)
C35 C36 C37 C32 1.0(8)
C33 C32 C37 C36 -0.4(7)
S2 C32 C37 C36 -178.2(4)
N3 C7 N1 C11 169.5(4)
C8 C7 N1 C11 -10.5(6)
N3 C7 N1 C6 -2.2(5)
C8 C7 N1 C6 177.9(4)
C10 C11 N1 C7 0.1(5)
C12 C11 N1 C7 124.2(4)
C10 C11 N1 C6 172.6(3)
C12 C11 N1 C6 -63.4(4)
C5 C6 N1 C7 -121.5(4)
C5 C6 N1 C11 65.7(4)
C9 C10 N2 O5 85.8(4)
C11 C10 N2 O5 -151.6(4)
C9 C10 N2 O4 -91.0(4)
C11 C10 N2 O4 31.6(5)
N1 C7 N3 S1 177.0(3)
C8 C7 N3 S1 -3.0(6)
C4 C12 O1 C2 23.4(4)
C11 C12 O1 C2 -95.6(4)
O2 C2 O1 C12 0.3(4)
C1 C2 O1 C12 116.7(4)
C3 C2 O1 C12 -118.3(4)
O1 C2 O2 C4 -26.0(4)
C1 C2 O2 C4 -144.3(3)
C3 C2 O2 C4 90.3(4)
C12 C4 O2 C2 39.6(4)
C5 C4 O2 C2 162.1(3)
C7 N3 S1 O7 -61.0(4)
C7 N3 S1 O6 70.2(4)
C7 N3 S1 C13 -175.8(3)
C14 C13 S1 O7 172.7(3)
C18 C13 S1 O7 -6.2(4)
C14 C13 S1 O6 44.8(4)
C18 C13 S1 O6 -134.1(3)
C14 C13 S1 N3 -69.4(3)
C18 C13 S1 N3 111.7(3)
N6 C26 N4 C25 0.1(7)
C27 C26 N4 C25 -179.8(5)
N6 C26 N4 C30 179.7(4)
C27 C26 N4 C30 -0.2(8)
C24 C25 N4 C26 -178.6(5)
C24 C25 N4 C30 1.7(7)
C31 C30 N4 C26 127.8(5)
C29 C30 N4 C26 5.4(7)
C31 C30 N4 C25 -52.5(6)
C29 C30 N4 C25 -175.0(5)
C28' C29 N5 O11 -141.5(10)
C28 C29 N5 O11 -74.5(8)
C30 C29 N5 O11 45.8(10)
C28' C29 N5 O12 40.6(12)
C28 C29 N5 O12 107.5(7)
C30 C29 N5 O12 -132.2(6)
N4 C26 N6 S2 -175.9(4)
C27 C26 N6 S2 4.0(8)
O9 C21 O8 C31 30.1(6)
C20 C21 O8 C31 -89.8(5)
C22 C21 O8 C31 148.0(5)
C30 C31 O8 C21 -144.7(4)
C23 C31 O8 C21 -24.0(6)
C24 C23 O9 C21 131.0(5)
C31 C23 O9 C21 9.2(6)
O8 C21 O9 C23 -24.4(6)
C20 C21 O9 C23 97.0(5)
C22 C21 O9 C23 -140.9(5)
C26 N6 S2 O14 62.8(5)
C26 N6 S2 O13 -68.5(5)
C26 N6 S2 C32 177.8(4)
C33 C32 S2 O14 14.0(4)
C37 C32 S2 O14 -168.2(4)
C33 C32 S2 O13 141.5(4)
C37 C32 S2 O13 -40.7(4)
C33 C32 S2 N6 -103.1(4)
C37 C32 S2 N6 74.7(4)
