#------------------------------------------------------------------------------
#$Date: 2017-11-07 03:16:16 +0200 (Tue, 07 Nov 2017) $
#$Revision: 202799 $
#$URL: file:///home/coder/svn-repositories/cod/cif/1/54/71/1547132.cif $
#------------------------------------------------------------------------------
#
# This file is available in the Crystallography Open Database (COD),
# http://www.crystallography.net/
#
# All data on this site have been placed in the public domain by the
# contributors.
#
data_1547132
loop_
_publ_author_name
'Yang, Meng-Nan'
'Yan, Dong-Mei'
'Zhao, Quan-Qing'
'Chen, Jia-Rong'
'Xiao, Wen-Jing'
_publ_section_title
;
 Synthesis of Dihydropyrazoles via Ligand-Free Pd-Catalyzed Alkene
 Aminoarylation of Unsaturated Hydrazones with Diaryliodonium Salts.
;
_journal_issue                   19
_journal_name_full               'Organic letters'
_journal_page_first              5208
_journal_page_last               5211
_journal_paper_doi               10.1021/acs.orglett.7b02480
_journal_volume                  19
_journal_year                    2017
_chemical_formula_moiety         'C17 H18 N2 O2 S'
_chemical_formula_sum            'C17 H18 N2 O2 S'
_chemical_formula_weight         314.39
_space_group_crystal_system      triclinic
_space_group_IT_number           2
_space_group_name_Hall           '-P 1'
_space_group_name_H-M_alt        'P -1'
_symmetry_space_group_name_Hall  '-P 1'
_symmetry_space_group_name_H-M   'P -1'
_atom_sites_solution_hydrogens   mixed
_audit_creation_method           SHELXL-2014/7
_cell_angle_alpha                99.4294(11)
_cell_angle_beta                 99.6133(12)
_cell_angle_gamma                116.1209(10)
_cell_formula_units_Z            2
_cell_length_a                   9.2443(7)
_cell_length_b                   9.2239(7)
_cell_length_c                   11.5114(9)
_cell_measurement_reflns_used    3226
_cell_measurement_temperature    296(2)
_cell_measurement_theta_max      30.77
_cell_measurement_theta_min      2.55
_cell_volume                     837.12(11)
_computing_cell_refinement       'Bruker SAINT'
_computing_data_collection       'Bruker APEX2'
_computing_data_reduction        'Bruker SAINT'
_computing_molecular_graphics    'Bruker SHELXTL'
_computing_publication_material  'Bruker SHELXTL'
_computing_structure_refinement  'SHELXL-2014/7 (Sheldrick, 2014)'
_computing_structure_solution    'SHELXS-97 (Sheldrick, 2008)'
_diffrn_ambient_temperature      296(2)
_diffrn_measured_fraction_theta_full 0.988
_diffrn_measured_fraction_theta_max 0.989
_diffrn_measurement_device_type  'Bruker APEX-II CCD'
_diffrn_measurement_method       '\f and \w scans'
_diffrn_radiation_type           MoK\a
_diffrn_radiation_wavelength     0.71073
_diffrn_reflns_av_R_equivalents  0.0210
_diffrn_reflns_av_unetI/netI     0.0331
_diffrn_reflns_Laue_measured_fraction_full 0.988
_diffrn_reflns_Laue_measured_fraction_max 0.989
_diffrn_reflns_limit_h_max       11
_diffrn_reflns_limit_h_min       -11
_diffrn_reflns_limit_k_max       9
_diffrn_reflns_limit_k_min       -11
_diffrn_reflns_limit_l_max       14
_diffrn_reflns_limit_l_min       -14
_diffrn_reflns_number            6393
_diffrn_reflns_point_group_measured_fraction_full 0.988
_diffrn_reflns_point_group_measured_fraction_max 0.989
_diffrn_reflns_theta_full        25.242
_diffrn_reflns_theta_max         25.998
_diffrn_reflns_theta_min         1.862
_exptl_absorpt_coefficient_mu    0.201
_exptl_absorpt_correction_type   none
_exptl_crystal_colour            colorless
_exptl_crystal_density_diffrn    1.247
_exptl_crystal_description       block
_exptl_crystal_F_000             332
_exptl_crystal_size_max          0.120
_exptl_crystal_size_mid          0.100
_exptl_crystal_size_min          0.100
_refine_diff_density_max         0.488
_refine_diff_density_min         -0.416
_refine_diff_density_rms         0.065
_refine_ls_extinction_method     none
_refine_ls_goodness_of_fit_ref   0.992
_refine_ls_hydrogen_treatment    constr
_refine_ls_matrix_type           full
_refine_ls_number_parameters     219
_refine_ls_number_reflns         3261
_refine_ls_number_restraints     26
_refine_ls_restrained_S_all      1.003
_refine_ls_R_factor_all          0.0543
_refine_ls_R_factor_gt           0.0457
_refine_ls_shift/su_max          0.003
_refine_ls_shift/su_mean         0.000
_refine_ls_structure_factor_coef Fsqd
_refine_ls_weighting_details
'w=1/[\s^2^(Fo^2^)+(0.0913P)^2^+0.4669P] where P=(Fo^2^+2Fc^2^)/3'
_refine_ls_weighting_scheme      calc
_refine_ls_wR_factor_gt          0.1321
_refine_ls_wR_factor_ref         0.1553
_reflns_Friedel_coverage         0.000
_reflns_number_gt                2799
_reflns_number_total             3261
_reflns_threshold_expression     'I > 2\s(I)'
_cod_data_source_file            ol7b02480_si_002.cif
_cod_data_source_block           T
_cod_depositor_comments
'Adding full bibliography for 1547130--1547132.cif.'
_cod_database_code               1547132
_shelx_shelxl_version_number     2014/7
_shelx_space_group_comment
; 
The symmetry employed for this shelxl refinement is uniquely defined 
by the following loop, which should always be used as a source of 
symmetry information in preference to the above space-group names. 
They are only intended as comments. 
;
_shelx_estimated_absorpt_t_min   0.976
_shelx_estimated_absorpt_t_max   0.980
_shelx_res_file
; 
  
    T.res created by SHELXL-2014/7 
  
  
TITL T in P-1 
CELL 0.71073  9.2443    9.2239   11.5114   99.4294   99.6133  116.1209 
ZERR 2.00 0.0007    0.0007    0.0009    0.0011    0.0012    0.0010 
LATT 1 
SFAC C  H  N  O  S 
UNIT 34  36  4  4  2 
OMIT -3 52 
L.S. 4 
ACTA 
BOND $H 
FMAP 2 
PLAN 5 
HTAB N1 O2_$1 
HTAB C15 O2_$1 
HTAB N1 O2_$1 
HTAB C15 O2_$1 
HTAB N1 O2_$1 
HTAB C15 O2_$1 
EQIV $1 -x, -y+1, -z+1 
SIZE 0.12 0.10 0.10 
CONF 
SADI 0.01 C16 C17 C16' C17' 
SADI 0.01 C15 C16 C15 C16' 
HTAB 
ISOR 0.01 0.02 C16 C17 C16' C17' 
TEMP 23.000 
WGHT    0.091300    0.466900 
FVAR       0.30661   0.72859 
C1    1    0.727775    0.916439    0.378583    11.00000    0.05685    0.08422 = 
         0.10340    0.04834    0.02410    0.01329 
AFIX 137 
H1A   2    0.772807    1.008798    0.450195    11.00000   -1.50000 
H1B   2    0.694418    0.949232    0.308222    11.00000   -1.50000 
H1C   2    0.811464    0.884409    0.368000    11.00000   -1.50000 
AFIX   0 
C2    1    0.577745    0.769936    0.393263    11.00000    0.03959    0.06334 = 
         0.06512    0.03238    0.01060    0.01949 
C3    1    0.507706    0.790928    0.487091    11.00000    0.05088    0.04370 = 
         0.05633    0.01288    0.00436    0.01325 
AFIX  43 
H3    2    0.556288    0.895440    0.543078    11.00000   -1.20000 
AFIX   0 
C4    1    0.367156    0.660441    0.499871    11.00000    0.04400    0.04368 = 
         0.04110    0.00949    0.00989    0.01551 
AFIX  43 
H4    2    0.319965    0.677113    0.562691    11.00000   -1.20000 
AFIX   0 
C5    1    0.297569    0.504567    0.417877    11.00000    0.03399    0.04178 = 
         0.03757    0.01309    0.00839    0.01842 
C6    1    0.368355    0.477847    0.325619    11.00000    0.04638    0.05461 = 
         0.05612    0.01232    0.02023    0.02573 
AFIX  43 
H6    2    0.323339    0.371864    0.272361    11.00000   -1.20000 
AFIX   0 
C7    1    0.507905    0.612149    0.313921    11.00000    0.05006    0.07842 = 
         0.06795    0.02950    0.03122    0.03223 
AFIX  43 
H7    2    0.555523    0.595680    0.251332    11.00000   -1.20000 
AFIX   0 
C8    1   -0.123714    0.320047    0.122583    11.00000    0.03884    0.03738 = 
         0.04025    0.00639    0.00648    0.01692 
C9    1   -0.113142    0.266027   -0.003981    11.00000    0.04583    0.03876 = 
         0.03656    0.00672    0.00462    0.01931 
C10   1   -0.192884    0.293383   -0.103476    11.00000    0.06690    0.06978 = 
         0.04708    0.01035    0.00263    0.04405 
AFIX  43 
H10   2   -0.255873    0.347610   -0.092692    11.00000   -1.20000 
AFIX   0 
C11   1   -0.180360    0.241038   -0.219499    11.00000    0.08514    0.08204 = 
         0.03904    0.01685    0.00219    0.04662 
AFIX  43 
H11   2   -0.233817    0.262424   -0.285193    11.00000   -1.20000 
AFIX   0 
C12   1   -0.091631    0.159096   -0.239406    11.00000    0.08861    0.06422 = 
         0.03520    0.01003    0.01509    0.03711 
AFIX  43 
H12   2   -0.085800    0.122976   -0.317956    11.00000   -1.20000 
AFIX   0 
C13   1   -0.011268    0.130750   -0.142165    11.00000    0.10204    0.08102 = 
         0.04885    0.01822    0.02736    0.06379 
AFIX  43 
H13   2    0.049370    0.074301   -0.154510    11.00000   -1.20000 
AFIX   0 
C14   1   -0.019429    0.185416   -0.025425    11.00000    0.08878    0.07694 = 
         0.04140    0.02126    0.01903    0.05940 
AFIX  43 
H14   2    0.038799    0.168050    0.040140    11.00000   -1.20000 
AFIX   0 
C15   1   -0.240981    0.389284    0.142294    11.00000    0.06160    0.06685 = 
         0.04436    0.00363    0.00584    0.04263 
PART 1 
AFIX   3 
H15A  2   -0.198069    0.466251    0.223246    21.00000   -1.20000 
H15B  2   -0.247781    0.450629    0.082691    21.00000   -1.20000 
PART 2 
H15C  2   -0.221534    0.432455    0.229374   -21.00000   -1.20000 
H15D  2   -0.216050    0.482030    0.105739   -21.00000   -1.20000 
PART 1 
AFIX   0 
C16   1   -0.411849    0.252481    0.131766    21.00000    0.06248    0.11442 = 
         0.09959    0.03193    0.03092    0.05284 
AFIX  43 
H16   2   -0.420189    0.180122    0.180941    21.00000   -1.20000 
AFIX   0 
C17   1   -0.551510    0.226292    0.058383    21.00000    0.06644    0.16462 = 
         0.20983   -0.01295    0.02586    0.05235 
AFIX  93 
H17A  2   -0.548378    0.295949    0.007778    21.00000   -1.20000 
H17B  2   -0.653304    0.138134    0.057148    21.00000   -1.20000 
PART 2 
AFIX   0 
C17'  1   -0.477845    0.137106    0.137372   -21.00000    0.11240    0.12651 = 
         0.13574    0.02685    0.00475    0.00511 
AFIX  93 
H17C  2   -0.405482    0.125669    0.197192   -21.00000   -1.20000 
H17D  2   -0.590141    0.056381    0.109444   -21.00000   -1.20000 
AFIX   0 
C16'  1   -0.421759    0.266546    0.092579   -21.00000    0.05333    0.11498 = 
         0.08896    0.03423    0.01266    0.05056 
AFIX  43 
H16'  2   -0.491377    0.281056    0.032716   -21.00000   -1.20000 
PART 0 
AFIX   0 
N1    3   -0.041508    0.338146    0.326620    11.00000    0.03592    0.05234 = 
         0.03591    0.00909    0.01147    0.02275 
AFIX  43 
H1    2   -0.116410    0.360596    0.346674    11.00000   -1.20000 
AFIX   0 
N2    3   -0.034564    0.295978    0.206058    11.00000    0.03935    0.04534 = 
         0.03320    0.00725    0.00893    0.02035 
O1    4    0.110938    0.186154    0.386658    11.00000    0.05653    0.03936 = 
         0.05322    0.01206    0.01474    0.02431 
O2    4    0.081101    0.383061    0.541966    11.00000    0.05196    0.05176 = 
         0.03612    0.01508    0.01714    0.02319 
S1    5    0.110704    0.339840    0.425974    11.00000    0.03794    0.03733 = 
         0.03405    0.01035    0.01046    0.01710 
HKLF 4 1 1 0 0 0 1 0 0 0 1 
  
REM  T in P-1 
REM R1 =  0.0457 for    2799 Fo > 4sig(Fo)  and  0.0543 for all    3261 data 
REM    219 parameters refined using     26 restraints 
  
END 
  
WGHT      0.0906      0.2980 
  
REM Instructions for potential hydrogen bonds 
HTAB C15 O2_$1 
HTAB N1 O2_$1 
  
REM Highest difference peak  0.488,  deepest hole -0.416,  1-sigma level  0.065 
Q1    1  -0.0388  0.4471  0.3566  11.00000  0.05    0.49 
Q2    1   0.2196  0.4293  0.4226  11.00000  0.05    0.27 
Q3    1   0.3043  0.5803  0.4440  11.00000  0.05    0.25 
Q4    1   0.5242  0.7113  0.3378  11.00000  0.05    0.22 
Q5    1  -0.0998  0.2459 -0.2217  11.00000  0.05    0.22 
;
_shelx_res_checksum              66098
_shelx_hkl_file
; 
   0  -1   0  239.82    8.21 
   0  -2   0  645.55   21.97 
   0   7   0   13.39    0.57 
   0  -7   0   13.53    0.57 
   0   8   0    0.26    0.10 
   0  -8   0    0.12    0.08 
   0   9   0    0.69    0.14 
   0  -9   0    0.88    0.15 
   0  10   0   -0.02    0.09 
   0 -10   0   -0.13    0.08 
   0 -11   0    0.09    0.10 
   1 -11   0   -0.05    0.10 
   1 -10   0    0.49    0.13 
   1  -9   0    0.15    0.09 
   1  -8   0   12.36    0.55 
  -1   8   0   12.88    0.56 
  -1   7   0    3.00    0.21 
   1  -6   0   70.70    2.34 
   1  -6   0   67.63    2.39 
   1  -5   0   19.89    0.73 
   1  -5   0   19.86    0.73 
  -1   5   0   20.16    0.74 
   1  -4   0  114.47    3.67 
   1  -4   0  113.59    3.83 
  -1   4   0  107.02    3.70 
   1  -3   0  223.09    7.25 
   1  -3   0  229.57    6.94 
  -1   3   0  187.20    6.99 
  -1   2   0   17.92    0.63 
  -1   1   0   53.56    1.85 
   1   0   0  297.90    9.93 
  -1   0   0  306.58    9.81 
   1   1   0   29.56    1.00 
  -1  -1   0   29.93    1.03 
  -1  -1   0   29.80    0.99 
   1   2   0  192.14    6.24 
  -1  -2   0  186.97    6.49 
  -1  -2   0  191.89    6.22 
   1   3   0    3.95    0.18 
  -1  -3   0    3.74    0.18 
  -1  -3   0    3.54    0.16 
   1   4   0   21.27    0.77 
  -1  -4   0   21.54    0.77 
  -1  -4   0   20.90    0.76 
   1   5   0    0.08    0.06 
  -1  -5   0    0.09    0.04 
  -1  -5   0    0.15    0.06 
   1   6   0    3.79    0.26 
  -1  -6   0    3.96    0.24 
  -1  -6   0    4.22    0.21 
   1   7   0    0.07    0.07 
  -1  -7   0    0.10    0.08 
   1   8   0    0.10    0.09 
  -1  -8   0    0.17    0.09 
   1   9   0    0.06    0.09 
  -1  -9   0   -0.01    0.08 
   1  10   0    0.60    0.15 
  -1 -10   0    0.38    0.13 
   2 -12   0    0.27    0.13 
   2 -11   0    0.47    0.13 
   2 -10   0    0.13    0.09 
   2  -9   0    1.16    0.15 
   2  -8   0   12.17    0.53 
   2  -7   0    3.49    0.19 
   2  -7   0    3.52    0.21 
   2  -6   0   52.39    1.88 
   2  -6   0   54.68    1.83 
   2  -5   0   17.44    0.62 
   2  -5   0   15.97    0.62 
   2  -4   0   14.27    0.53 
  -2   4   0   15.24    0.54 
  -2   3   0   28.96    1.01 
   2  -2   0  514.29   16.67 
  -2   2   0  502.32   17.35 
   2  -1   0    0.54    0.05 
  -2   1   0    0.51    0.03 
  -2   1   0    0.59    0.05 
   2   0   0  233.11    7.81 
  -2   0   0  234.74    8.08 
  -2   0   0  240.12    7.69 
   2   1   0    7.54    0.29 
  -2  -1   0    7.29    0.29 
  -2  -1   0    7.65    0.28 
   2   2   0   23.43    0.81 
  -2  -2   0   23.10    0.83 
   2   3   0   10.58    0.43 
  -2  -3   0   10.89    0.42 
  -2  -3   0   11.12    0.43 
   2   4   0    9.36    0.39 
  -2  -4   0    8.85    0.37 
  -2  -4   0    9.11    0.39 
   2   5   0   48.70    1.68 
  -2  -5   0   47.55    1.66 
  -2  -5   0   47.64    1.69 
   2   6   0    2.57    0.21 
  -2  -6   0    2.62    0.19 
  -2  -6   0    2.90    0.18 
   2   7   0    2.44    0.22 
  -2  -7   0    2.29    0.20 
   2   8   0    1.10    0.18 
  -2  -8   0    1.37    0.18 
   2   9   0    0.03    0.11 
  -2  -9   0    0.15    0.10 
   2  10   0    0.01    0.11 
  -2 -10   0    0.07    0.11 
   3 -12   0   -0.09    0.10 
   3 -11   0    0.00    0.08 
   3 -10   0    0.07    0.08 
   3  -9   0    0.07    0.07 
   3  -8   0    3.14    0.21 
   3  -7   0    0.71    0.10 
   3  -7   0    0.88    0.10 
   3  -6   0   68.04    2.11 
  -3   6   0   56.88    2.16 
   3  -5   0   45.08    1.57 
  -3   5   0   47.85    1.63 
   3  -4   0   46.10    1.57 
  -3   4   0   47.97    1.64 
   3  -3   0    0.13    0.04 
  -3   3   0    0.10    0.03 
   3  -2   0    1.46    0.09 
  -3   2   0    1.33    0.09 
   3  -1   0   16.21    0.57 
  -3   1   0   16.42    0.54 
   3   0   0   10.20    0.39 
  -3   0   0   10.55    0.41 
  -3   0   0   10.93    0.37 
   3   1   0   13.37    0.50 
  -3  -1   0   14.06    0.52 
  -3  -1   0   13.99    0.49 
   3   2   0  119.41    3.94 
  -3  -2   0  119.05    4.08 
  -3  -2   0  117.87    3.89 
   3   3   0   11.29    0.46 
  -3  -3   0   11.22    0.45 
  -3  -3   0   11.14    0.44 
   3   4   0    4.90    0.27 
  -3  -4   0    5.31    0.27 
  -3  -4   0    5.22    0.26 
   3   5   0    0.16    0.08 
  -3  -5   0    0.25    0.07 
  -3  -5   0    0.12    0.07 
   3   6   0    4.12    0.27 
  -3  -6   0    3.60    0.24 
   3   7   0   -0.08    0.08 
  -3  -7   0    0.13    0.09 
   3   8   0    2.13    0.24 
  -3  -8   0    2.08    0.23 
   3   9   0    0.53    0.16 
  -3  -9   0    0.75    0.16 
   4 -13   0    0.68    0.16 
   4 -12   0    1.36    0.20 
   4 -11   0    0.23    0.10 
   4 -10   0    3.84    0.26 
   4  -9   0    2.40    0.19 
   4  -8   0    0.49    0.09 
   4  -7   0    0.93    0.11 
  -4   7   0    1.28    0.11 
   4  -6   0   11.39    0.46 
  -4   6   0   12.62    0.48 
   4  -5   0    8.90    0.34 
  -4   5   0    8.40    0.35 
   4  -4   0    0.05    0.04 
   4  -4   0    0.00    0.03 
  -4   4   0    0.02    0.03 
   4  -3   0    7.71    0.31 
  -4   3   0    7.66    0.32 
   4  -2   0    5.01    0.22 
  -4   2   0    5.07    0.23 
  -4   2   0    5.26    0.18 
   4  -1   0   16.37    0.58 
  -4   1   0   16.36    0.55 
   4   0   0   19.63    0.71 
  -4   0   0   20.22    0.75 
  -4   0   0   20.27    0.68 
   4   1   0   12.78    0.49 
  -4  -1   0   12.66    0.51 
   4   2   0   22.56    0.83 
  -4  -2   0   23.10    0.85 
  -4  -2   0   22.50    0.81 
   4   3   0   22.64    0.84 
  -4  -3   0   22.28    0.82 
  -4  -3   0   22.75    0.85 
   4   4   0    0.03    0.07 
  -4  -4   0    0.01    0.07 
  -4  -4   0    0.00    0.06 
   4   5   0    2.06    0.20 
  -4  -5   0    2.57    0.19 
  -4  -5   0    2.63    0.19 
   4   6   0    7.87    0.41 
  -4  -6   0    7.48    0.39 
   4   7   0    1.02    0.18 
  -4  -7   0    0.94    0.16 
   4   8   0    0.25    0.13 
  -4  -8   0    0.32    0.13 
   4   9   0    0.53    0.16 
  -4  -9   0    0.60    0.16 
   5 -13   0    0.60    0.16 
   5 -12   0    2.02    0.23 
   5 -11   0    0.16    0.09 
   5 -10   0    0.78    0.13 
   5  -9   0    0.16    0.07 
   5  -8   0    0.29    0.08 
   5  -7   0    1.53    0.12 
  -5   7   0    1.63    0.14 
   5  -6   0   10.83    0.42 
   5  -6   0   10.59    0.46 
  -5   6   0   11.23    0.45 
   5  -5   0    1.11    0.08 
   5  -5   0    1.22    0.12 
  -5   5   0    0.99    0.10 
   5  -4   0   36.43    1.24 
   5  -4   0   35.62    1.19 
  -5   4   0   35.33    1.28 
   5  -3   0   18.94    0.67 
  -5   3   0   18.14    0.70 
   5  -2   0    1.82    0.12 
  -5   2   0    1.87    0.07 
  -5   2   0    1.72    0.13 
   5  -1   0    4.41    0.21 
  -5   1   0    4.47    0.17 
   5   0   0   42.93    1.46 
  -5   0   0   42.32    1.42 
  -5   0   0   42.27    1.52 
   5   1   0    8.47    0.37 
  -5  -1   0    8.60    0.38 
  -5  -1   0    8.89    0.35 
   5   2   0    0.41    0.08 
  -5  -2   0    0.41    0.08 
  -5  -2   0    0.47    0.09 
   5   3   0    0.97    0.13 
  -5  -3   0    1.01    0.13 
  -5  -3   0    0.93    0.12 
   5   4   0    4.81    0.29 
  -5  -4   0    4.78    0.27 
  -5  -4   0    4.75    0.27 
   5   5   0    0.95    0.16 
  -5  -5   0    0.88    0.14 
  -5  -5   0    0.89    0.14 
   5   6   0    4.36    0.31 
  -5  -6   0    4.18    0.29 
   5   7   0    3.28    0.29 
  -5  -7   0    3.03    0.26 
   5   8   0    0.16    0.12 
  -5  -8   0   -0.06    0.10 
   6 -12   0    2.38    0.24 
   6 -11   0    0.54    0.12 
   6 -10   0   -0.11    0.05 
   6  -9   0    0.64    0.10 
   6  -8   0    2.50    0.16 
   6  -8   0    2.55    0.22 
  -6   8   0    2.44    0.18 
   6  -7   0    1.30    0.11 
   6  -7   0    1.22    0.15 
  -6   7   0    1.30    0.14 
   6  -6   0    5.00    0.27 
   6  -6   0    4.82    0.22 
  -6   6   0    5.19    0.26 
   6  -5   0   10.42    0.38 
   6  -5   0   11.21    0.44 
  -6   5   0   10.24    0.44 
   6  -4   0    0.86    0.10 
   6  -4   0    0.88    0.05 
  -6   4   0    0.85    0.11 
   6  -3   0    3.16    0.17 
  -6   3   0    3.32    0.19 
   6  -2   0   22.85    0.81 
  -6   2   0   21.95    0.74 
  -6   2   0   23.15    0.86 
   6  -1   0   42.56    1.36 
  -6   1   0   33.03    1.41 
  -6   1   0   41.39    1.30 
   6   0   0    8.30    0.36 
  -6   0   0    8.69    0.39 
   6   1   0   36.30    1.30 
  -6  -1   0   37.85    1.27 
  -6  -1   0   36.29    1.36 
   6   2   0    1.50    0.15 
  -6  -2   0    1.38    0.14 
  -6  -2   0    1.56    0.16 
   6   3   0    1.64    0.18 
  -6  -3   0    1.92    0.18 
  -6  -3   0    1.62    0.16 
   6   4   0    5.45    0.33 
  -6  -4   0    6.13    0.33 
  -6  -4   0    5.77    0.31 
   6   5   0    3.43    0.28 
  -6  -5   0    3.76    0.26 
  -6  -5   0    3.84    0.26 
   6   6   0    1.04    0.18 
  -6  -6   0    0.36    0.12 
   6   7   0    0.80    0.18 
  -6  -7   0    0.77    0.16 
   7 -13   0    0.59    0.18 
   7 -12   0    0.02    0.12 
   7 -11   0    0.31    0.14 
   7 -10   0    0.55    0.14 
   7  -9   0    0.61    0.14 
   7  -8   0    6.41    0.35 
  -7   8   0    6.32    0.33 
   7  -7   0   14.28    0.60 
  -7   7   0   14.31    0.60 
   7  -6   0    0.04    0.06 
  -7   6   0   -0.13    0.06 
   7  -5   0    2.02    0.16 
  -7   5   0    1.89    0.17 
   7  -4   0    0.03    0.05 
  -7   4   0    0.05    0.06 
   7  -3   0    2.40    0.16 
  -7   3   0    2.49    0.18 
   7  -2   0    1.12    0.12 
   7  -1   0    3.18    0.19 
  -7   1   0    2.76    0.21 
   7   0   0    0.07    0.06 
  -7   0   0   -0.02    0.07 
   7   1   0   15.66    0.63 
  -7  -1   0   15.55    0.66 
   7   2   0    4.20    0.27 
  -7  -2   0    4.29    0.27 
   7   3   0   -0.12    0.07 
  -7  -3   0    0.08    0.09 
   7   4   0    3.15    0.26 
  -7  -4   0    3.90    0.27 
   7   5   0    2.71    0.27 
   7   6   0   -0.10    0.10 
   8 -13   0    1.40    0.24 
   8 -12   0    0.05    0.13 
   8 -11   0    0.28    0.13 
   8 -10   0    0.66    0.15 
   8  -9   0    1.12    0.17 
   8  -8   0    0.21    0.09 
  -8   8   0    0.11    0.08 
   8  -7   0    8.97    0.43 
  -8   7   0    9.48    0.44 
   8  -6   0    4.25    0.25 
  -8   6   0    3.96    0.26 
   8  -5   0    6.73    0.32 
  -8   5   0    6.82    0.36 
   8  -4   0   15.44    0.59 
  -8   4   0   14.79    0.64 
   8  -3   0    3.81    0.22 
  -8   3   0    3.83    0.25 
   8  -2   0    3.10    0.20 
  -8   2   0    2.95    0.22 
   8  -1   0   13.82    0.57 
  -8   1   0   14.60    0.62 
   8   0   0    6.46    0.33 
  -8   0   0    6.54    0.36 
   8   1   0    1.45    0.17 
  -8  -1   0    2.11    0.21 
   8   2   0    5.87    0.33 
  -8  -2   0    5.27    0.33 
   8   3   0    0.91    0.16 
  -8  -3   0    0.93    0.16 
   8   4   0   -0.09    0.09 
  -8  -4   0    0.06    0.10 
   8   5   0    0.66    0.16 
   9 -13   0    0.79    0.20 
   9 -12   0    0.44    0.16 
   9 -11   0    0.21    0.13 
   9 -10   0    2.56    0.25 
   9  -9   0    2.56    0.24 
   9  -8   0    0.52    0.12 
  -9   8   0    0.28    0.11 
   9  -7   0    0.28    0.10 
  -9   7   0    0.24    0.10 
   9  -6   0    0.57    0.11 
  -9   6   0    0.73    0.14 
   9  -5   0    3.61    0.23 
  -9   5   0    3.57    0.25 
   9  -4   0    4.47    0.25 
  -9   4   0    4.18    0.28 
   9  -3   0    1.01    0.13 
  -9   3   0    0.86    0.15 
   9  -2   0    0.28    0.09 
  -9   2   0    0.19    0.09 
   9  -1   0    2.60    0.20 
  -9   1   0    2.24    0.23 
   9   0   0    1.61    0.18 
  -9   0   0    1.54    0.19 
   9   1   0    0.35    0.11 
  -9  -1   0    0.46    0.13 
   9   2   0    3.40    0.26 
  -9  -2   0    3.03    0.26 
   9   3   0    0.49    0.14 
  -9  -3   0    0.60    0.15 
   9   4   0   -0.23    0.08 
  10 -12   0    0.89    0.20 
  10 -11   0    1.25    0.20 
  10 -10   0    0.45    0.14 
  10  -9   0    0.09    0.09 
 -10   9   0    0.16    0.10 
  10  -8   0    1.21    0.16 
 -10   8   0    1.18    0.18 
  10  -7   0    0.06    0.08 
 -10   7   0   -0.04    0.08 
  10  -6   0    3.64    0.24 
 -10   6   0    3.22    0.25 
  10  -5   0    0.96    0.13 
 -10   5   0    1.19    0.18 
  10  -4   0   -0.06    0.07 
 -10   4   0   -0.07    0.08 
  10  -3   0    0.18    0.08 
 -10   3   0    0.19    0.10 
  10  -2   0    0.35    0.10 
 -10   2   0    0.30    0.11 
  10  -1   0    0.40    0.11 
 -10   1   0    0.29    0.12 
  10   0   0    2.13    0.21 
 -10   0   0    2.14    0.24 
  10   1   0    0.15    0.10 
 -10  -1   0    0.11    0.11 
  10   2   0    0.18    0.12 
 -10  -2   0    0.08    0.11 
  10   3   0   -0.16    0.10 
 -10  -3   0    0.09    0.11 
  11 -12   0   -0.07    0.13 
  11 -11   0   -0.06    0.12 
  11 -10   0   -0.11    0.10 
  11  -9   0    0.15    0.10 
 -11   9   0    0.20    0.11 
  11  -8   0    0.63    0.13 
 -11   8   0    1.10    0.18 
  11  -7   0    0.21    0.10 
 -11   7   0   -0.10    0.07 
  11  -6   0    2.00    0.19 
 -11   6   0    1.67    0.22 
  11  -5   0    1.80    0.19 
 -11   5   0    2.21    0.24 
  11  -4   0   -0.01    0.09 
 -11   4   0    0.04    0.09 
  11  -3   0    0.10    0.09 
 -11   3   0    0.07    0.09 
  11  -2   0    0.16    0.09 
 -11   2   0    0.00    0.09 
  11  -1   0    0.19    0.10 
 -11   1   0    0.09    0.11 
 -11   0   0    0.04    0.11 
 -11  -1   0   -0.05    0.11 
 -12   9   0    0.01    0.12 
 -12   8   0   -0.02    0.11 
 -12   7   0    0.72    0.17 
 -12   6   0    1.72    0.24 
 -12   5   0    1.04    0.19 
 -12   4   0   -0.06    0.09 
 -12   3   0    0.43    0.15 
 -12   2   0    0.11    0.13 
 -13   9   0    0.67    0.18 
 -13   8   0    0.08    0.12 
 -13   7   0    0.23    0.15 
 -13   6   0    0.46    0.16 
 -13   5   0   -0.01    0.12 
 -13   5   1    0.02    0.12 
 -13   6   1   -0.04    0.11 
 -13   7   1    0.09    0.13 
 -13   8   1    0.62    0.19 
 -13   9   1    1.60    0.25 
 -12   1   1    0.39    0.16 
 -12   2   1   -0.06    0.10 
 -12   3   1   -0.02    0.10 
 -12   4   1    0.67    0.16 
 -12   5   1    0.08    0.12 
 -12   6   1    1.30    0.21 
 -12   7   1    1.02    0.20 
 -12   8   1    0.02    0.11 
 -12   9   1    0.22    0.13 
 -11  -1   1    0.45    0.15 
 -11   0   1    0.23    0.13 
 -11   1   1    0.32    0.13 
 -11   2   1    0.08    0.10 
 -11   3   1    0.67    0.16 
 -11   4   1    0.05    0.11 
 -11   5   1    1.63    0.22 
 -11   6   1   -0.12    0.09 
 -11   7   1    3.66    0.29 
 -11   8   1    2.08    0.24 
 -11   9   1    0.10    0.10 
 -10  -3   1    0.24    0.13 
 -10  -2   1    0.05    0.10 
 -10  -1   1    2.98    0.26 
  10   1  -1    2.69    0.24 
 -10   0   1    3.15    0.27 
  10   0  -1    2.90    0.23 
 -10   1   1   -0.01    0.09 
  10  -1  -1   -0.05    0.07 
 -10   2   1    1.00    0.16 
  10  -2  -1    0.88    0.13 
 -10   3   1    1.35    0.19 
  10  -3  -1    1.00    0.14 
 -10   4   1    2.26    0.24 
  10  -4  -1    2.52    0.19 
 -10   5   1    1.35    0.19 
  10  -5  -1    1.55    0.16 
 -10   6   1    1.84    0.21 
  10  -6  -1    1.86    0.17 
 -10   7   1   -0.11    0.08 
  10  -7  -1    0.05    0.08 
 -10   8   1    1.78    0.21 
  10  -8  -1    1.50    0.18 
 -10   9   1   -0.04    0.09 
  10  -9  -1   -0.08    0.09 
  10 -10  -1    1.22    0.18 
  10 -11  -1    3.74    0.31 
  10 -12  -1    1.72    0.24 
   9   4  -1    0.41    0.14 
  -9  -3   1    1.04    0.17 
   9   3  -1    0.91    0.16 
  -9  -2   1    0.49    0.13 
   9   2  -1    0.34    0.11 
  -9  -1   1    1.00    0.16 
   9   1  -1    1.07    0.15 
  -9   0   1    0.67    0.14 
   9   0  -1    0.60    0.11 
  -9   1   1    0.19    0.10 
   9  -1  -1    0.21    0.08 
  -9   2   1    0.88    0.14 
   9  -2  -1    0.85    0.12 
  -9   3   1   14.54    0.63 
   9  -3  -1   13.18    0.55 
  -9   4   1    6.06    0.34 
   9  -4  -1    5.74    0.29 
  -9   5   1    2.14    0.19 
   9  -5  -1    2.20    0.17 
  -9   6   1    9.77    0.49 
   9  -6  -1   10.37    0.44 
  -9   7   1    0.04    0.08 
   9  -7  -1    0.08    0.08 
  -9   8   1    2.63    0.22 
   9  -8  -1    2.48    0.22 
  -9   9   1   -0.04    0.08 
   9  -9  -1    0.06    0.10 
   9 -10  -1    0.74    0.16 
   9 -11  -1    0.06    0.11 
   9 -12  -1    0.54    0.17 
   9 -13  -1    0.10    0.16 
   8   6  -1    0.99    0.19 
   8   5  -1    0.39    0.13 
  -8  -4   1    0.50    0.13 
   8   4  -1    0.24    0.12 
  -8  -3   1    3.53    0.26 
   8   3  -1    3.34    0.26 
  -8  -2   1    6.82    0.37 
   8   2  -1    6.56    0.36 
  -8  -1   1    0.03    0.08 
   8   1  -1    0.01    0.07 
  -8   0   1   12.38    0.56 
   8   0  -1   12.23    0.51 
  -8   1   1   -0.05    0.07 
   8  -1  -1    0.08    0.06 
  -8   2   1    2.56    0.21 
   8  -2  -1    2.80    0.18 
  -8   3   1    0.86    0.13 
   8  -3  -1    0.94    0.11 
  -8   4   1    0.96    0.14 
   8  -4  -1    1.11    0.12 
  -8   5   1    0.34    0.10 
   8  -5  -1    0.41    0.08 
  -8   6   1    5.68    0.31 
   8  -6  -1    5.40    0.29 
  -8   7   1    1.17    0.15 
   8  -7  -1    1.20    0.14 
  -8   8   1    6.29    0.34 
   8  -8  -1    5.98    0.34 
   8  -9  -1    2.92    0.25 
   8 -10  -1    1.78    0.22 
   8 -11  -1    0.56    0.16 
   8 -12  -1    0.03    0.13 
   8 -13  -1    0.49    0.18 
   7   6  -1    0.54    0.15 
   7   5  -1    1.12    0.18 
  -7  -4   1    0.73    0.14 
   7   4  -1    0.45    0.12 
  -7  -3   1    0.24    0.08 
  -7  -3   1    0.38    0.11 
   7   3  -1    0.32    0.10 
  -7  -2   1    1.44    0.17 
  -7  -2   1    1.71    0.16 
   7   2  -1    1.52    0.16 
  -7  -1   1    6.13    0.29 
  -7  -1   1    6.29    0.34 
   7   1  -1    6.81    0.32 
  -7   0   1   -0.01    0.06 
   7   0  -1    0.04    0.06 
  -7   1   1   12.26    0.54 
   7  -1  -1   12.96    0.50 
  -7   3   1    0.12    0.07 
   7  -3  -1    0.05    0.04 
  -7   4   1    1.76    0.16 
   7  -4  -1    1.83    0.14 
  -7   5   1    0.97    0.12 
   7  -5  -1    1.04    0.12 
  -7   6   1    5.59    0.30 
   7  -6  -1    5.63    0.29 
  -7   7   1    4.16    0.25 
   7  -7  -1    3.58    0.25 
  -7   8   1    1.69    0.17 
   7  -8  -1    1.88    0.19 
   7  -9  -1    0.93    0.15 
   7 -10  -1    1.08    0.18 
   7 -11  -1    1.57    0.22 
  -6  -7   1    0.55    0.15 
   6   7  -1    0.91    0.18 
  -6  -6   1    1.21    0.18 
   6   6  -1    1.10    0.18 
  -6  -5   1    3.74    0.25 
   6   5  -1    3.53    0.27 
  -6  -4   1    6.71    0.34 
  -6  -4   1    6.49    0.34 
   6   4  -1    6.29    0.35 
  -6  -3   1    0.00    0.06 
  -6  -3   1   -0.05    0.06 
   6   3  -1   -0.01    0.06 
  -6  -2   1   16.91    0.67 
  -6  -2   1   15.52    0.61 
   6   2  -1   16.06    0.64 
  -6  -1   1   17.91    0.72 
  -6  -1   1   18.09    0.65 
   6   1  -1   17.76    0.68 
  -6   0   1   -0.02    0.03 
  -6   0   1    0.03    0.06 
   6   0  -1   -0.02    0.04 
  -6   1   1   60.08    2.09 
  -6   1   1   57.14    1.93 
   6  -1  -1   59.09    1.98 
  -6   2   1   13.30    0.57 
  -6   2   1   14.29    0.48 
   6  -2  -1   14.40    0.52 
  -6   3   1    0.81    0.11 
  -6   3   1    0.82    0.05 
   6  -3  -1    0.79    0.08 
  -6   4   1    5.27    0.27 
   6  -4  -1    5.75    0.26 
  -6   5   1   20.04    0.78 
   6  -5  -1   20.40    0.75 
  -6   6   1    3.40    0.21 
   6  -6  -1    3.32    0.21 
  -6   7   1    2.93    0.20 
   6  -7  -1    2.86    0.22 
   6  -7  -1    2.67    0.17 
  -6   8   1    6.21    0.31 
   6  -8  -1    5.41    0.28 
   6  -9  -1    0.76    0.12 
   6 -10  -1    1.44    0.17 
   6 -11  -1    2.94    0.24 
   6 -12  -1    0.51    0.14 
   6 -13  -1    0.68    0.16 
  -5  -8   1    0.20    0.12 
   5   8  -1   -0.03    0.11 
  -5  -7   1    4.48    0.30 
   5   7  -1    4.26    0.33 
  -5  -6   1    2.19    0.20 
   5   6  -1    2.42    0.24 
  -5  -5   1    3.06    0.22 
  -5  -5   1    3.45    0.22 
   5   5  -1    3.72    0.26 
  -5  -4   1    7.64    0.35 
  -5  -4   1    7.10    0.34 
   5   4  -1    6.63    0.36 
  -5  -3   1    3.06    0.19 
  -5  -3   1    3.23    0.20 
   5   3  -1    2.86    0.20 
  -5  -2   1    0.30    0.07 
  -5  -2   1    0.21    0.07 
   5   2  -1    0.22    0.07 
  -5  -1   1    1.01    0.09 
  -5  -1   1    0.81    0.10 
   5   1  -1    1.00    0.10 
  -5   0   1    5.17    0.26 
   5   0  -1    5.39    0.24 
  -5   1   1    4.46    0.23 
  -5   1   1    4.58    0.18 
   5  -1  -1    4.27    0.20 
  -5   2   1    0.22    0.06 
  -5   2   1    0.18    0.03 
   5  -2  -1    0.21    0.05 
  -5   3   1   67.78    2.20 
  -5   3   1   66.65    2.35 
   5  -3  -1   67.51    2.25 
  -5   4   1    0.29    0.06 
   5  -4  -1    0.49    0.07 
  -5   5   1    0.38    0.07 
   5  -5  -1    0.40    0.07 
  -5   6   1    7.03    0.32 
  -5   7   1    2.35    0.17 
   5  -7  -1    2.06    0.15 
  -5   8   1    9.01    0.40 
   5  -8  -1    8.38    0.39 
   5  -9  -1    0.17    0.08 
   5 -10  -1    2.87    0.22 
   5 -11  -1    1.15    0.17 
   5 -12  -1    0.79    0.16 
   5 -13  -1   -0.13    0.10 
  -4  -9   1    0.31    0.13 
   4   9  -1    0.33    0.14 
  -4  -8   1    0.63    0.14 
   4   8  -1    0.72    0.17 
  -4  -7   1    3.55    0.26 
   4   7  -1    3.82    0.29 
  -4  -6   1    7.68    0.40 
   4   6  -1    8.39    0.42 
  -4  -5   1    0.71    0.10 
  -4  -5   1    0.52    0.11 
   4   5  -1    0.41    0.10 
  -4  -4   1    9.66    0.41 
  -4  -4   1    9.03    0.41 
   4   4  -1    9.82    0.43 
  -4  -3   1    0.03    0.05 
  -4  -3   1    0.03    0.06 
   4   3  -1    0.02    0.05 
  -4  -2   1    0.19    0.06 
  -4  -2   1    0.38    0.07 
   4   2  -1    0.28    0.06 
  -4  -1   1   25.40    0.91 
   4   1  -1   24.48    0.87 
  -4   0   1   43.90    1.52 
  -4   0   1   42.92    1.42 
   4   0  -1   41.86    1.45 
  -4   1   1    0.19    0.03 
  -4   1   1    0.05    0.03 
   4  -1  -1    0.23    0.04 
  -4   2   1    3.38    0.17 
  -4   2   1    3.43    0.13 
   4  -2  -1    3.30    0.15 
  -4   3   1   31.56    1.13 
  -4   3   1   32.07    1.05 
   4  -3  -1   31.19    1.08 
  -4   4   1   44.68    1.57 
   4  -4  -1   44.12    1.52 
  -4   5   1   27.21    0.99 
  -4   6   1   25.64    0.95 
   4  -6  -1   25.81    0.92 
   4  -7  -1    1.98    0.15 
   4  -8  -1    3.27    0.23 
   4  -8  -1    3.05    0.21 
   4  -9  -1    1.35    0.16 
   4 -10  -1    0.18    0.09 
   4 -11  -1    0.04    0.09 
   4 -12  -1    0.39    0.13 
   3  10  -1    0.13    0.13 
  -3  -9   1    0.99    0.18 
   3   9  -1    0.59    0.17 
  -3  -8   1    1.39    0.19 
   3   8  -1    1.37    0.20 
  -3  -7   1    0.17    0.09 
   3   7  -1    0.23    0.11 
  -3  -6   1    2.49    0.19 
   3   6  -1    2.40    0.21 
  -3  -5   1    6.50    0.33 
  -3  -5   1    6.52    0.30 
   3   5  -1    6.62    0.34 
  -3  -4   1    8.47    0.37 
  -3  -4   1    8.28    0.35 
   3   4  -1    8.27    0.37 
  -3  -3   1   51.34    1.79 
  -3  -3   1   50.14    1.73 
   3   3  -1   51.47    1.74 
  -3  -2   1   50.11    1.64 
  -3  -2   1   47.92    1.71 
   3   2  -1   48.64    1.66 
  -3  -1   1  369.15   12.80 
  -3  -1   1  382.50   12.20 
   3   1  -1  363.50   12.26 
  -3   0   1    0.27    0.04 
  -3   0   1    0.17    0.04 
   3   0  -1    0.16    0.03 
  -3   1   1   33.03    1.06 
   3  -1  -1   31.16    1.07 
  -3   2   1  166.92    5.48 
  -3   2   1  167.53    5.74 
   3  -2  -1  170.87    5.52 
  -3   3   1   18.06    0.66 
  -3   3   1   18.15    0.62 
  -3   4   1   59.11    2.05 
   3  -6  -1    3.64    0.22 
   3  -6  -1    3.81    0.21 
   3  -7  -1    5.02    0.27 
   3  -7  -1    4.85    0.26 
   3  -8  -1    0.07    0.07 
   3  -9  -1    0.10    0.08 
   3 -10  -1    0.15    0.10 
   3 -11  -1    0.83    0.16 
   3 -12  -1   -0.08    0.10 
  -2 -10   1   -0.11    0.09 
   2  10  -1   -0.19    0.09 
  -2  -9   1    0.12    0.10 
   2   9  -1   -0.11    0.09 
  -2  -8   1    2.35    0.21 
   2   8  -1    2.46    0.25 
  -2  -7   1    9.25    0.45 
   2   7  -1    9.91    0.47 
  -2  -6   1   -0.07    0.06 
   2   6  -1    0.00    0.06 
  -2  -5   1   23.30    0.85 
  -2  -5   1   22.80    0.83 
   2   5  -1   22.65    0.86 
  -2  -4   1   70.69    2.44 
  -2  -4   1   71.48    2.37 
   2   4  -1   69.91    2.39 
  -2  -3   1   85.33    2.83 
  -2  -3   1   85.18    2.94 
   2   3  -1   86.07    2.86 
  -2  -2   1  186.16    6.32 
   2   2  -1  184.19    6.08 
  -2  -1   1  954.92   33.23 
  -2  -1   1  974.34   31.71 
   2   1  -1 1000.00   32.00 
  -2   0   1   34.95    1.14 
  -2   0   1   34.69    1.20 
   2   0  -1   34.17    1.15 
  -2   1   1   51.68    1.69 
  -2   1   1   51.43    1.79 
   2  -1  -1   52.77    1.71 
  -2   2   1   26.02    0.88 
  -2   2   1   26.94    0.93 
  -2   3   1    3.36    0.16 
  -2   4   1   88.95    3.06 
  -2   5   1   22.50    0.83 
   2  -5  -1   21.23    0.85 
   2  -5  -1   24.97    0.84 
  -2   6   1    0.95    0.11 
   2  -6  -1    1.18    0.13 
   2  -6  -1    1.45    0.13 
  -2   7   1   12.93    0.54 
   2  -7  -1   12.54    0.52 
   2  -7  -1   12.65    0.53 
   2  -8  -1    3.75    0.25 
   2  -9  -1    0.06    0.08 
   2 -10  -1    1.35    0.19 
   2 -11  -1    2.27    0.26 
   2 -12  -1   -0.01    0.12 
  -1 -11   1    0.37    0.15 
  -1 -10   1    0.67    0.16 
   1  10  -1    1.02    0.18 
  -1  -9   1    1.13    0.16 
   1   9  -1    1.16    0.18 
  -1  -8   1    1.57    0.19 
   1   8  -1    1.59    0.19 
  -1  -7   1    6.22    0.32 
   1   7  -1    5.33    0.31 
  -1  -6   1    3.26    0.21 
  -1  -6   1    3.08    0.16 
   1   6  -1    2.65    0.22 
  -1  -5   1   17.98    0.67 
  -1  -5   1   18.80    0.70 
   1   5  -1   18.92    0.71 
  -1  -4   1  158.94    5.47 
  -1  -4   1  161.18    5.27 
   1   4  -1  162.22    5.32 
  -1  -3   1  121.89    4.15 
  -1  -3   1  125.14    4.00 
   1   3  -1  118.79    4.03 
  -1  -2   1  367.16   12.21 
  -1  -2   1  378.54   12.73 
   1   2  -1  372.79   12.27 
  -1  -1   1  546.56   18.27 
  -1  -1   1  568.19   19.13 
   1   1  -1  571.41   18.44 
  -1   0   1   58.60    1.88 
   1   0  -1   56.91    1.90 
  -1   1   1  380.10   12.29 
  -1   1   1  375.19   12.80 
  -1   1   1  369.32   12.18 
  -1   2   1  160.81    5.36 
  -1   2   1  166.25    5.56 
  -1   3   1   89.35    3.20 
   1  -3  -1  104.35    3.33 
  -1   4   1    5.16    0.23 
   1  -4  -1    4.84    0.23 
  -1   5   1    1.05    0.11 
   1  -5  -1    0.98    0.10 
   1  -5  -1    0.90    0.11 
  -1   6   1    2.12    0.17 
   1  -6  -1    2.28    0.15 
   1  -6  -1    2.40    0.17 
  -1   7   1    1.76    0.17 
   1  -7  -1    1.83    0.15 
  -1   8   1    3.05    0.24 
   1  -8  -1    3.10    0.23 
  -1   9   1   -0.02    0.08 
   1  -9  -1   -0.03    0.08 
   1 -10  -1   -0.10    0.07 
   1 -11  -1    0.30    0.13 
   0 -11   1   -0.04    0.09 
   0 -10   1    0.74    0.15 
   0  -9   1    4.35    0.29 
   0   9  -1    4.48    0.30 
   0  -8   1    1.76    0.19 
   0   8  -1    1.72    0.19 
   0  -7   1   82.88    2.85 
   0   7  -1   85.96    2.89 
   0  -6   1   26.13    0.90 
   0   6  -1   24.95    0.94 
   0  -5   1   22.33    0.79 
   0  -5   1   22.68    0.82 
   0   5  -1   22.51    0.82 
   0  -4   1   91.43    3.11 
   0  -4   1   91.65    3.01 
   0   4  -1   90.77    3.04 
   0  -3   1   38.73    1.31 
   0   3  -1   37.88    1.30 
   0  -2   1  324.32   12.53 
   0  -2   1  411.57   13.02 
   0   2  -1  414.72   12.63 
   0  -1   1  130.00    4.25 
   0   0   1  154.25    5.05 
   0   0  -1  153.09    5.28 
   0   1   1   33.75    1.14 
   0  -1  -1   34.80    1.19 
   0   2   1   41.44    1.40 
   0  -2  -1   42.02    1.46 
   0  -3  -1    2.45    0.13 
   0   4   1    1.43    0.11 
   0  -4  -1    1.74    0.12 
   0  -4  -1    1.41    0.12 
   0   5   1    0.74    0.10 
   0  -5  -1    0.79    0.10 
   0  -5  -1    0.86    0.09 
   0   7   1    4.17    0.27 
   0  -7  -1    4.56    0.27 
   0   8   1    2.06    0.21 
   0  -8  -1    1.84    0.20 
   0   9   1    1.18    0.18 
   0  -9  -1    1.58    0.20 
   0  10   1    0.06    0.10 
   0 -10  -1    0.04    0.09 
   0 -11  -1    0.00    0.11 
   1 -12   1    0.50    0.16 
   1 -11   1    0.07    0.10 
   1 -10   1    3.15    0.25 
   1  -9   1    1.79    0.20 
   1  -8   1    0.50    0.11 
   1  -7   1   12.72    0.53 
   1  -6   1   15.19    0.58 
   1  -6   1   14.28    0.53 
   1  -5   1    6.27    0.25 
   1  -5   1    6.64    0.29 
   1  -4   1   35.71    1.20 
   1  -4   1   35.09    1.22 
   1  -3   1    9.33    0.34 
  -1   3  -1    9.21    0.33 
   1  -2   1   72.23    2.33 
  -1   2  -1   70.86    2.43 
   1  -1   1   25.94    0.88 
  -1   1  -1   26.28    0.93 
   1   0   1    0.09    0.02 
  -1   0  -1    0.04    0.01 
  -1  -1  -1  211.15    7.24 
  -1  -2  -1   39.44    1.21 
  -1  -2  -1   29.19    1.15 
  -1  -3  -1    0.27    0.05 
  -1  -3  -1    0.21    0.05 
  -1  -4  -1    0.41    0.06 
  -1  -4  -1    0.39    0.08 
   1   5   1   -0.01    0.01 
  -1  -5  -1    0.09    0.06 
  -1  -5  -1    0.03    0.05 
   1   6   1   13.68    0.58 
  -1  -6  -1   13.33    0.57 
  -1  -6  -1   14.09    0.54 
   1   7   1    0.46    0.11 
  -1  -7  -1    0.36    0.10 
   1   8   1    0.08    0.09 
  -1  -8  -1    0.04    0.09 
   1   9   1    0.09    0.09 
  -1  -9  -1   -0.04    0.08 
   1  10   1    0.00    0.10 
  -1 -10  -1    0.28    0.13 
   2 -12   1    0.35    0.14 
   2 -11   1    0.28    0.11 
   2 -10   1    0.74    0.14 
   2  -9   1    3.84    0.26 
   2  -8   1    0.89    0.13 
   2  -7   1    0.30    0.08 
   2  -6   1    7.82    0.32 
   2  -6   1    8.16    0.35 
   2  -5   1    2.06    0.13 
   2  -4   1   31.86    1.10 
  -2   4  -1   32.91    1.12 
   2  -3   1  125.18    4.18 
  -2   3  -1  132.01    4.38 
   2  -2   1  623.82   19.61 
   2  -2   1  599.51   19.90 
  -2   2  -1  593.53   20.65 
   2  -1   1  160.55    5.27 
  -2   1  -1  161.09    5.47 
   2   0   1   41.63    1.39 
   2   1   1   80.04    2.67 
  -2  -1  -1   82.21    2.64 
  -2  -1  -1   79.54    2.77 
   2   2   1    0.21    0.05 
  -2  -2  -1    0.24    0.05 
  -2  -2  -1    0.24    0.05 
   2   3   1    0.61    0.08 
  -2  -3  -1    0.85    0.09 
  -2  -3  -1    0.66    0.08 
   2   4   1    5.23    0.27 
  -2  -4  -1    5.11    0.25 
  -2  -4  -1    5.55    0.27 
   2   5   1   63.03    2.14 
  -2  -5  -1   60.59    2.16 
  -2  -5  -1   61.37    2.11 
   2   6   1    2.81    0.22 
  -2  -6  -1    2.76    0.21 
  -2  -6  -1    2.84    0.18 
   2   7   1    2.63    0.23 
  -2  -7  -1    3.24    0.24 
   2   8   1    0.00    0.09 
  -2  -8  -1    0.03    0.08 
   2   9   1    0.36    0.12 
  -2  -9  -1    0.16    0.11 
   2  10   1    0.29    0.14 
  -2 -10  -1    0.19    0.12 
   3 -12   1    1.40    0.20 
   3 -11   1    0.78    0.15 
   3 -10   1    0.03    0.07 
   3  -9   1    0.07    0.07 
   3  -8   1    1.62    0.14 
   3  -7   1    4.81    0.24 
   3  -7   1    4.52    0.22 
   3  -6   1   13.65    0.53 
  -3   6  -1   13.94    0.51 
   3  -5   1   68.06    2.32 
  -3   5  -1   71.92    2.41 
   3  -4   1    7.26    0.28 
  -3   4  -1    7.31    0.29 
   3  -3   1    6.49    0.23 
   3  -3   1    6.25    0.27 
  -3   3  -1    6.51    0.26 
   3  -2   1  106.72    3.54 
  -3   2  -1  108.07    3.68 
   3  -1   1   25.92    0.91 
  -3   1  -1   27.47    0.87 
   3   0   1    0.51    0.06 
  -3   0  -1    0.59    0.05 
  -3   0  -1    0.47    0.06 
   3   1   1   50.72    1.65 
  -3  -1  -1   51.69    1.71 
  -3  -1  -1   43.64    1.61 
   3   2   1   16.48    0.61 
  -3  -2  -1   16.05    0.62 
  -3  -2  -1   16.49    0.60 
   3   3   1    0.19    0.06 
  -3  -3  -1    0.16    0.06 
  -3  -3  -1    0.17    0.06 
   3   4   1    0.51    0.10 
  -3  -4  -1    0.53    0.09 
  -3  -4  -1    0.56    0.09 
   3   5   1    1.02    0.15 
  -3  -5  -1    1.17    0.15 
  -3  -5  -1    1.31    0.13 
   3   6   1    0.12    0.09 
  -3  -6  -1    0.34    0.10 
  -3  -6  -1    0.23    0.08 
   3   7   1    0.79    0.15 
  -3  -7  -1    0.92    0.15 
   3   8   1    1.62    0.22 
  -3  -8  -1    1.70    0.21 
   3   9   1    0.24    0.14 
  -3  -9  -1    0.39    0.14 
   4 -13   1    0.52    0.15 
   4 -12   1    0.20    0.11 
   4 -11   1    0.62    0.13 
   4 -10   1    0.20    0.09 
   4  -9   1    1.49    0.16 
   4  -8   1    0.05    0.05 
   4  -7   1   12.86    0.50 
   4  -5   1   18.36    0.69 
   4  -5   1   18.24    0.64 
   4  -4   1   28.73    0.96 
   4  -4   1   29.24    1.02 
   4  -3   1   13.54    0.50 
  -4   3  -1   12.92    0.50 
   4  -2   1   11.07    0.42 
  -4   2  -1   11.14    0.44 
   4  -1   1   52.22    1.82 
  -4   1  -1   56.26    1.77 
   4   0   1   37.97    1.30 
  -4   0  -1   37.53    1.35 
  -4   0  -1   38.04    1.26 
   4   1   1    0.02    0.04 
  -4  -1  -1    0.16    0.05 
  -4  -1  -1    0.05    0.04 
   4   2   1   10.38    0.43 
  -4  -2  -1   10.45    0.41 
  -4  -2  -1   10.29    0.44 
   4   3   1   36.04    1.27 
  -4  -3  -1   35.33    1.24 
  -4  -3  -1   35.18    1.29 
   4   4   1    4.31    0.27 
  -4  -4  -1    4.29    0.25 
  -4  -4  -1    4.33    0.25 
   4   5   1    3.45    0.25 
  -4  -5  -1    3.81    0.23 
  -4  -5  -1    4.01    0.25 
   4   6   1    5.04    0.32 
  -4  -6  -1    4.66    0.29 
   4   7   1    0.04    0.10 
  -4  -7  -1    0.09    0.10 
   4   8   1    1.10    0.20 
  -4  -8  -1    1.31    0.20 
   5 -13   1    0.58    0.15 
   5 -12   1   -0.16    0.07 
   5 -11   1   -0.15    0.07 
   5 -10   1    0.01    0.07 
   5  -9   1    0.34    0.08 
   5  -8   1    0.09    0.06 
   5  -7   1   10.91    0.44 
   5  -7   1   11.33    0.50 
  -5   7  -1   11.61    0.46 
   5  -6   1    3.72    0.23 
   5  -6   1    3.79    0.18 
  -5   6  -1    3.79    0.20 
   5  -5   1    6.44    0.25 
   5  -5   1    6.44    0.31 
  -5   5  -1    7.12    0.30 
   5  -4   1    9.53    0.39 
   5  -4   1    8.80    0.31 
  -5   4  -1    9.71    0.39 
   5  -3   1   14.21    0.53 
  -5   3  -1   14.13    0.56 
   5  -2   1   19.84    0.71 
  -5   2  -1   19.32    0.74 
   5  -1   1   50.99    1.75 
  -5   1  -1   52.29    1.69 
   5   0   1  185.44    6.28 
  -5   0  -1  190.97    6.18 
  -5   0  -1  194.49    6.53 
   5   1   1    4.53    0.24 
  -5  -1  -1    4.50    0.21 
  -5  -1  -1    4.45    0.24 
   5   2   1    1.88    0.16 
  -5  -2  -1    1.83    0.14 
  -5  -2  -1    1.81    0.16 
   5   3   1    1.52    0.16 
  -5  -3  -1    1.56    0.16 
  -5  -3  -1    1.54    0.15 
   5   4   1    1.87    0.19 
  -5  -4  -1    2.30    0.18 
  -5  -4  -1    1.65    0.17 
   5   5   1    0.32    0.12 
  -5  -5  -1    0.17    0.09 
  -5  -5  -1    0.17    0.09 
   5   6   1    4.64    0.32 
  -5  -6  -1    4.49    0.30 
   5   7   1    1.75    0.23 
  -5  -7  -1    1.59    0.21 
   5   8   1    0.05    0.12 
  -5  -8  -1    0.31    0.14 
   6 -11   1    1.93    0.19 
   6 -10   1   -0.04    0.09 
   6 -10   1    0.05    0.07 
   6  -9   1    1.29    0.18 
   6  -9   1    1.45    0.14 
   6  -8   1   13.48    0.53 
   6  -8   1   14.66    0.61 
   6  -7   1    1.16    0.15 
   6  -7   1    0.77    0.09 
  -6   7  -1    0.78    0.11 
   6  -6   1   25.22    0.92 
   6  -6   1   23.92    0.84 
  -6   6  -1   24.86    0.92 
   6  -5   1    9.39    0.40 
  -6   5  -1    9.31    0.41 
   6  -4   1    0.15    0.06 
  -6   4  -1    0.03    0.05 
   6  -3   1   10.71    0.42 
  -6   3  -1    9.83    0.44 
   6  -2   1   15.79    0.60 
  -6   2  -1   16.15    0.64 
   6   0   1   15.43    0.60 
  -6   0  -1   15.83    0.64 
   6   1   1   11.52    0.48 
  -6  -1  -1   11.59    0.50 
  -6  -1  -1   10.87    0.44 
   6   2   1    0.31    0.09 
  -6  -2  -1    0.50    0.09 
  -6  -2  -1    0.55    0.11 
   6   3   1    4.50    0.28 
  -6  -3  -1    4.44    0.25 
  -6  -3  -1    4.13    0.27 
   6   4   1    7.80    0.42 
  -6  -4  -1    8.33    0.40 
  -6  -4  -1    8.54    0.42 
   6   5   1    0.64    0.15 
  -6  -5  -1    0.63    0.13 
  -6  -5  -1    0.78    0.14 
   6   6   1    1.03    0.19 
  -6  -6  -1    1.04    0.17 
   6   7   1    1.05    0.20 
   7 -13   1    0.16    0.15 
   7 -12   1    0.28    0.15 
   7 -11   1    0.46    0.15 
   7 -10   1    0.05    0.10 
   7  -9   1    1.83    0.21 
   7  -8   1    8.08    0.40 
  -7   8  -1    7.77    0.38 
   7  -7   1    0.23    0.09 
  -7   7  -1    0.10    0.07 
   7  -6   1   28.38    1.02 
  -7   6  -1   26.52    1.04 
   7  -5   1    4.72    0.25 
  -7   5  -1    4.51    0.26 
   7  -4   1    0.15    0.06 
  -7   4  -1    0.12    0.06 
   7  -3   1    2.97    0.19 
  -7   3  -1    2.85    0.20 
   7  -2   1   39.43    1.30 
  -7   2  -1   34.17    1.36 
   7  -1   1    8.69    0.39 
  -7   1  -1    8.68    0.41 
   7   0   1    7.62    0.36 
  -7   0  -1    7.62    0.38 
   7   1   1   17.60    0.70 
  -7  -1  -1   17.72    0.73 
   7   2   1    0.66    0.12 
  -7  -2  -1    0.88    0.14 
   7   3   1    1.45    0.18 
  -7  -3  -1    1.76    0.19 
   7   4   1    3.48    0.28 
  -7  -4  -1    3.36    0.27 
   7   5   1    1.59    0.22 
   7   6   1    0.11    0.12 
   8 -13   1    1.27    0.22 
   8 -12   1   -0.01    0.12 
   8 -11   1    0.17    0.13 
   8 -10   1   -0.10    0.09 
   8  -9   1    0.17    0.10 
   8  -8   1    2.07    0.21 
  -8   8  -1    2.21    0.20 
   8  -7   1    8.27    0.41 
  -8   7  -1    8.43    0.41 
   8  -6   1    0.17    0.08 
  -8   6  -1    0.32    0.10 
   8  -5   1    9.11    0.41 
  -8   5  -1    8.90    0.43 
   8  -4   1    3.36    0.21 
  -8   4  -1    3.48    0.23 
   8  -3   1    0.12    0.07 
  -8   3  -1   -0.03    0.06 
   8  -2   1   14.05    0.58 
  -8   2  -1   14.46    0.62 
   8  -1   1    5.50    0.30 
  -8   1  -1    5.72    0.33 
   8   0   1    0.68    0.12 
  -8   0  -1    0.59    0.12 
   8   1   1    3.20    0.24 
  -8  -1  -1    3.28    0.25 
   8   2   1    2.10    0.21 
  -8  -2  -1    1.59    0.19 
   8   3   1    0.06    0.10 
  -8  -3  -1    0.16    0.10 
   8   4   1   -0.01    0.10 
  -8  -4  -1    0.07    0.11 
   8   5   1    0.02    0.12 
   9 -12   1    0.18    0.14 
   9 -11   1    1.20    0.19 
   9 -10   1    3.45    0.28 
   9  -9   1    2.40    0.23 
   9  -8   1    0.03    0.08 
  -9   8  -1    0.15    0.08 
   9  -7   1    0.72    0.13 
  -9   7  -1    0.54    0.12 
   9  -6   1    0.26    0.09 
  -9   6  -1    0.27    0.10 
   9  -5   1    1.69    0.17 
  -9   5  -1    1.67    0.19 
   9  -4   1    2.22    0.19 
  -9   4  -1    2.38    0.21 
   9  -3   1   -0.06    0.06 
  -9   3  -1   -0.01    0.08 
   9  -2   1    2.26    0.19 
  -9   2  -1    2.11    0.22 
   9  -1   1    1.67    0.17 
  -9   1  -1    1.69    0.20 
   9   0   1    0.61    0.13 
  -9   0  -1    0.70    0.15 
   9   1   1    1.22    0.17 
  -9  -1  -1    1.32    0.19 
   9   2   1    0.41    0.13 
  -9  -2  -1    0.28    0.13 
   9   3   1    0.24    0.12 
  -9  -3  -1    0.28    0.13 
   9   4   1    0.08    0.11 
  10 -12   1    0.32    0.15 
  10 -11   1    0.13    0.12 
  10 -10   1   -0.12    0.09 
  10  -9   1    0.28    0.12 
  10  -8   1    0.09    0.09 
 -10   8  -1   -0.09    0.08 
  10  -7   1    1.97    0.20 
 -10   7  -1    1.62    0.20 
  10  -6   1    1.01    0.14 
 -10   6  -1    1.42    0.18 
  10  -5   1    0.22    0.09 
 -10   5  -1    0.01    0.09 
  10  -4   1    0.60    0.12 
 -10   4  -1    1.14    0.17 
  10  -3   1    0.23    0.10 
 -10   3  -1    0.28    0.10 
  10  -2   1    0.51    0.12 
 -10   2  -1    0.44    0.13 
  10  -1   1    1.67    0.19 
 -10   1  -1    1.78    0.21 
  10   0   1    0.29    0.11 
 -10   0  -1    0.49    0.14 
  10   1   1    1.65    0.21 
 -10  -1  -1    1.79    0.23 
  10   2   1    0.39    0.14 
 -10  -2  -1    0.26    0.14 
  11 -12   1    0.93    0.20 
  11 -11   1    0.05    0.12 
  11 -10   1   -0.03    0.10 
  11  -9   1    0.00    0.09 
  11  -8   1    0.06    0.09 
 -11   8  -1   -0.03    0.09 
  11  -7   1    0.10    0.10 
 -11   7  -1    0.35    0.13 
  11  -6   1    0.17    0.09 
 -11   6  -1   -0.08    0.09 
  11  -5   1    2.29    0.22 
 -11   5  -1    1.99    0.24 
  11  -4   1    1.03    0.15 
 -11   4  -1    1.32    0.19 
  11  -3   1    0.02    0.09 
 -11   3  -1   -0.08    0.10 
  11  -2   1    0.36    0.11 
 -11   2  -1    0.36    0.13 
  11  -1   1    0.87    0.17 
 -11   1  -1    1.07    0.19 
  11   0   1    0.23    0.12 
 -11   0  -1    0.41    0.14 
  11   1   1    1.82    0.23 
  12 -11   1    0.04    0.12 
  12 -10   1   -0.02    0.11 
  12  -9   1    0.00    0.10 
 -12   9  -1    0.08    0.13 
  12  -8   1    1.10    0.17 
 -12   8  -1    0.81    0.18 
  12  -7   1    3.09    0.26 
 -12   7  -1    3.66    0.30 
  12  -6   1    0.83    0.16 
 -12   6  -1    0.73    0.17 
  12  -5   1    0.15    0.11 
 -12   5  -1   -0.04    0.11 
  12  -4   1    0.96    0.16 
 -12   4  -1    0.63    0.16 
 -12   3  -1    0.12    0.11 
 -12   2  -1    2.04    0.27 
 -13   9  -1    0.00    0.12 
 -13   8  -1    0.01    0.12 
 -13   7  -1    1.90    0.26 
 -13   6  -1    0.00    0.12 
 -13   4   2   -0.09    0.10 
 -13   5   2    0.47    0.16 
 -13   6   2    0.37    0.15 
 -13   7   2    0.13    0.14 
 -13   8   2    0.13    0.14 
 -13   9   2    0.20    0.15 
 -12   1   2    0.09    0.12 
 -12   2   2    0.30    0.14 
 -12   3   2    1.00    0.19 
 -12   4   2    1.47    0.22 
 -12   5   2   -0.03    0.10 
 -12   6   2    3.17    0.30 
 -12   7   2    1.02    0.20 
 -12   8   2   -0.08    0.11 
 -12   9   2    0.74    0.18 
 -11  -2   2    0.47    0.16 
 -11  -1   2    0.38    0.15 
 -11   0   2    0.71    0.17 
 -11   1   2    1.69    0.23 
 -11   2   2    0.46    0.14 
 -11   3   2    0.01    0.09 
 -11   4   2   -0.06    0.08 
 -11   5   2   -0.01    0.09 
 -11   6   2    4.01    0.31 
 -11   7   2    3.86    0.31 
 -11   8   2    0.09    0.11 
 -11   9   2    0.63    0.15 
 -10  -2   2    0.77    0.16 
 -10  -1   2    1.72    0.22 
 -10   0   2    0.08    0.10 
 -10   1   2    0.85    0.16 
 -10   2   2    0.96    0.16 
 -10   3   2    0.97    0.16 
 -10   4   2    8.26    0.45 
 -10   5   2    6.97    0.40 
 -10   6   2    0.03    0.08 
 -10   7   2    0.90    0.16 
  10  -7  -2    1.33    0.15 
 -10   8   2    0.31    0.12 
  10  -8  -2    0.38    0.10 
 -10   9   2   -0.06    0.08 
  -9  -3   2    0.47    0.13 
  -9  -2   2    0.20    0.11 
   9   2  -2    0.17    0.09 
  -9  -1   2    2.04    0.22 
   9   1  -2    1.86    0.18 
  -9   0   2    1.54    0.19 
   9   0  -2    1.46    0.15 
  -9   1   2    0.06    0.09 
   9  -1  -2    0.14    0.07 
  -9   2   2    1.02    0.16 
   9  -2  -2    0.84    0.11 
  -9   3   2    1.12    0.16 
   9  -3  -2    1.12    0.12 
  -9   4   2    1.39    0.17 
   9  -4  -2    1.39    0.13 
  -9   5   2    4.35    0.29 
   9  -5  -2    4.49    0.24 
  -9   6   2    0.69    0.14 
   9  -6  -2    0.77    0.11 
  -9   7   2    0.06    0.09 
   9  -7  -2   -0.01    0.07 
  -9   8   2    0.03    0.09 
   9  -8  -2    0.03    0.08 
  -9   9   2    0.20    0.10 
   9  -9  -2    0.17    0.11 
   9 -10  -2    1.04    0.18 
   9 -11  -2    0.20    0.13 
   9 -12  -2    3.66    0.35 
   8   5  -2    0.15    0.11 
   8   4  -2    0.78    0.15 
  -8  -3   2    5.08    0.32 
   8   3  -2    5.22    0.31 
  -8  -2   2    3.99    0.27 
   8   2  -2    4.21    0.26 
  -8  -1   2    0.17    0.09 
   8   1  -2    0.19    0.08 
  -8   0   2    9.19    0.46 
   8   0  -2    9.36    0.40 
  -8   1   2    1.45    0.17 
   8  -1  -2    1.36    0.13 
  -8   2   2    6.83    0.36 
   8  -2  -2    6.64    0.30 
  -8   3   2    1.02    0.14 
   8  -3  -2    1.01    0.11 
  -8   4   2    4.33    0.27 
   8  -4  -2    4.15    0.22 
  -8   5   2    0.41    0.10 
   8  -5  -2    0.42    0.08 
  -8   6   2    4.11    0.27 
   8  -6  -2    4.06    0.24 
  -8   7   2    1.74    0.18 
   8  -7  -2    1.86    0.17 
  -8   8   2    7.59    0.40 
   8  -8  -2    8.33    0.40 
  -8   9   2   14.77    0.66 
   8  -9  -2   14.94    0.65 
   8 -10  -2    3.61    0.29 
   8 -11  -2    0.22    0.14 
   8 -12  -2    3.46    0.34 
   8 -13  -2    1.68    0.27 
   7   7  -2    0.14    0.12 
  -7  -6   2    1.56    0.20 
   7   6  -2    1.62    0.22 
  -7  -5   2    0.35    0.11 
   7   5  -2    0.49    0.13 
  -7  -4   2    0.16    0.09 
  -7  -4   2    0.09    0.08 
   7   4  -2   -0.02    0.08 
  -7  -3   2    2.45    0.20 
  -7  -3   2    2.55    0.19 
   7   3  -2    2.64    0.21 
  -7  -2   2    2.35    0.17 
  -7  -2   2    2.51    0.19 
   7   2  -2    2.02    0.18 
  -7  -1   2    0.82    0.13 
  -7  -1   2    1.14    0.11 
   7   1  -2    1.04    0.12 
  -7   0   2   26.90    0.95 
  -7   0   2   28.04    1.05 
   7   0  -2   27.48    0.98 
  -7   1   2    7.06    0.32 
  -7   1   2   10.18    0.42 
   7  -1  -2    9.41    0.36 
  -7   3   2    1.48    0.15 
   7  -3  -2    1.68    0.12 
  -7   4   2    2.15    0.17 
   7  -4  -2    2.02    0.14 
  -7   5   2    0.05    0.06 
   7  -5  -2    0.02    0.05 
  -7   6   2   11.07    0.49 
   7  -6  -2   10.60    0.46 
  -7   7   2   12.15    0.53 
   7  -7  -2   11.50    0.51 
  -7   8   2    0.15    0.09 
   7  -8  -2    0.27    0.08 
   7  -8  -2    0.16    0.09 
   7  -9  -2    0.95    0.13 
   7  -9  -2    1.42    0.19 
  -6  -8   2    1.54    0.22 
   6   8  -2    1.52    0.23 
  -6  -7   2    0.40    0.13 
   6   7  -2    0.21    0.13 
  -6  -6   2    5.61    0.34 
   6   6  -2    6.15    0.37 
  -6  -5   2    6.74    0.36 
   6   5  -2    6.61    0.37 
  -6  -4   2   -0.04    0.06 
  -6  -4   2    0.11    0.08 
   6   4  -2    0.09    0.08 
  -6  -3   2    0.73    0.11 
  -6  -3   2    1.05    0.13 
   6   3  -2    0.76    0.12 
  -6  -2   2    7.72    0.36 
  -6  -2   2    7.51    0.34 
   6   2  -2    7.55    0.35 
  -6  -1   2   -0.02    0.05 
  -6  -1   2    0.02    0.06 
   6   1  -2    0.00    0.04 
  -6   0   2    4.46    0.25 
  -6   0   2    4.40    0.20 
   6   0  -2    4.47    0.21 
  -6   1   2    1.33    0.14 
   6  -1  -2    1.45    0.11 
  -6   2   2    3.17    0.14 
   6  -2  -2    3.28    0.16 
  -6   3   2    6.21    0.29 
  -6   3   2    5.85    0.23 
   6  -3  -2    5.72    0.25 
  -6   4   2    2.72    0.18 
  -6   4   2    2.74    0.14 
   6  -4  -2    3.11    0.17 
  -6   5   2   15.51    0.62 
   6  -5  -2   14.95    0.58 
  -6   6   2   15.24    0.62 
   6  -6  -2   14.77    0.59 
  -6   7   2   33.78    1.26 
  -6   8   2    0.30    0.09 
   6  -8  -2    0.23    0.08 
   6  -9  -2    1.81    0.19 
   6 -10  -2    0.82    0.14 
   6 -11  -2    1.07    0.17 
   6 -12  -2    0.05    0.09 
   6 -13  -2    1.49    0.22 
  -5  -8   2    0.69    0.15 
   5   8  -2    0.54    0.15 
  -5  -7   2    0.25    0.11 
   5   7  -2    0.10    0.11 
  -5  -6   2    1.07    0.16 
   5   6  -2    1.12    0.17 
  -5  -5   2    0.59    0.12 
   5   5  -2    0.21    0.10 
  -5  -4   2    1.65    0.15 
  -5  -4   2    1.87    0.16 
   5   4  -2    1.65    0.17 
  -5  -3   2    5.81    0.29 
  -5  -3   2    6.02    0.29 
   5   3  -2    6.03    0.30 
  -5  -2   2    2.98    0.19 
  -5  -2   2    2.92    0.17 
   5   2  -2    3.14    0.18 
  -5  -1   2    1.37    0.12 
  -5  -1   2    1.32    0.10 
   5   1  -2    1.45    0.11 
  -5   0   2    0.25    0.07 
   5   0  -2    0.30    0.05 
  -5   1   2   17.78    0.66 
  -5   1   2   16.99    0.59 
   5  -1  -2   16.70    0.60 
  -5   2   2    1.63    0.12 
  -5   2   2    1.58    0.09 
   5  -2  -2    1.64    0.10 
  -5   3   2    0.67    0.09 
  -5   3   2    0.57    0.06 
   5  -3  -2    0.57    0.07 
  -5   4   2    1.48    0.13 
   5  -4  -2    1.45    0.12 
  -5   5   2    4.75    0.25 
   5  -5  -2    5.00    0.25 
  -5   6   2    0.64    0.10 
  -5   7   2    3.38    0.21 
   5  -8  -2    0.01    0.08 
   5  -8  -2   -0.04    0.05 
   5  -9  -2    0.37    0.10 
   5 -10  -2    0.59    0.13 
   5 -11  -2    2.09    0.23 
   5 -12  -2    0.78    0.16 
  -4  -9   2    0.02    0.10 
   4   9  -2    0.03    0.12 
  -4  -8   2    0.67    0.15 
   4   8  -2    0.76    0.16 
  -4  -7   2    1.16    0.17 
   4   7  -2    1.43    0.20 
  -4  -6   2    0.87    0.14 
   4   6  -2    1.17    0.17 
  -4  -5   2    3.59    0.21 
  -4  -5   2    3.62    0.23 
   4   5  -2    3.90    0.24 
  -4  -4   2    0.65    0.10 
  -4  -4   2    0.68    0.10 
   4   4  -2    0.62    0.10 
  -4  -3   2   27.66    1.01 
  -4  -3   2   27.58    0.98 
   4   3  -2   27.45    0.99 
  -4  -2   2   28.97    1.01 
  -4  -2   2   28.52    1.05 
   4   2  -2   29.17    1.01 
  -4  -1   2   53.94    1.81 
  -4  -1   2   54.82    1.90 
   4   1  -2   53.87    1.82 
  -4   0   2   68.09    2.22 
  -4   0   2   68.89    2.35 
   4   0  -2   65.39    2.24 
  -4   1   2   19.21    0.72 
  -4   1   2   19.60    0.66 
   4  -1  -2   19.20    0.66 
  -4   2   2   21.51    0.73 
  -4   2   2   21.92    0.80 
   4  -2  -2   21.57    0.74 
  -4   3   2   86.82    3.02 
  -4   3   2   88.38    2.85 
   4  -3  -2   86.33    2.89 
  -4   4   2   13.24    0.52 
  -4   5   2    1.75    0.14 
  -4   6   2   23.96    0.90 
   4  -7  -2    0.00    0.06 
   4  -8  -2    2.83    0.21 
   4  -8  -2    3.01    0.23 
   4  -9  -2    1.42    0.17 
   4 -10  -2    1.71    0.20 
   4 -11  -2    0.13    0.10 
   4 -12  -2    1.61    0.23 
  -3 -10   2   -0.07    0.10 
   3  10  -2    0.05    0.12 
  -3  -9   2    1.18    0.19 
   3   9  -2    1.26    0.21 
  -3  -8   2    4.31    0.30 
   3   8  -2    4.67    0.33 
  -3  -7   2   -0.01    0.07 
   3   7  -2   -0.01    0.09 
  -3  -6   2   10.06    0.47 
   3   6  -2   10.65    0.48 
  -3  -5   2   32.99    1.17 
  -3  -5   2   31.78    1.16 
   3   5  -2   32.49    1.18 
  -3  -4   2    0.14    0.05 
  -3  -4   2    0.13    0.06 
   3   4  -2    0.11    0.06 
  -3  -3   2   49.67    1.69 
  -3  -3   2   46.99    1.64 
   3   3  -2   48.17    1.65 
  -3  -2   2   72.79    2.36 
  -3  -2   2   69.49    2.46 
   3   2  -2   71.07    2.37 
  -3  -1   2   75.47    2.61 
   3   1  -2   75.93    2.51 
  -3   0   2   81.93    2.66 
  -3   0   2   81.39    2.80 
   3   0  -2   80.41    2.67 
  -3   1   2   13.61    0.46 
   3  -1  -2   13.29    0.46 
  -3   2   2   26.59    0.91 
   3  -2  -2   27.73    0.92 
  -3   3   2   -0.03    0.02 
  -3   3   2   -0.01    0.02 
  -3   4   2    6.15    0.27 
  -3   5   2    0.73    0.09 
   3  -6  -2    7.94    0.38 
   3  -7  -2    0.79    0.12 
   3  -7  -2    0.92    0.13 
   3  -8  -2    4.05    0.26 
   3  -8  -2    4.09    0.26 
   3  -9  -2    1.97    0.21 
   3 -10  -2    1.78    0.21 
   3 -11  -2    0.04    0.09 
   3 -12  -2    0.42    0.15 
  -2 -10   2   -0.05    0.09 
   2  10  -2   -0.11    0.10 
  -2  -9   2    2.02    0.23 
   2   9  -2    2.37    0.26 
  -2  -8   2   12.12    0.55 
   2   8  -2   11.71    0.56 
  -2  -7   2    2.87    0.23 
   2   7  -2    3.65    0.25 
  -2  -6   2   15.84    0.64 
   2   6  -2   16.02    0.65 
  -2  -5   2   60.74    2.06 
  -2  -5   2   59.98    2.09 
   2   5  -2   60.40    2.08 
  -2  -4   2    0.58    0.06 
  -2  -4   2    0.66    0.09 
   2   4  -2    0.40    0.08 
  -2  -3   2  231.50    7.37 
  -2  -3   2  224.01    7.73 
   2   3  -2  223.59    7.44 
  -2  -2   2   61.33    2.12 
   2   2  -2   61.79    2.05 
  -2  -1   2   65.07    2.24 
  -2  -1   2   65.83    2.14 
   2   1  -2   65.02    2.15 
  -2   0   2    8.18    0.30 
  -2   0   2    8.29    0.31 
   2   0  -2    8.35    0.28 
  -2   1   2   78.86    2.58 
   2  -1  -2   79.18    2.59 
  -2   2   2    8.15    0.30 
  -2   2   2    8.22    0.32 
  -2   3   2   17.61    0.65 
  -2   3   2   17.43    0.62 
  -2   4   2   47.58    1.61 
   2  -4  -2   47.35    1.70 
  -2   5   2   31.08    1.09 
   2  -5  -2   30.72    1.14 
  -2   6   2    7.98    0.36 
   2  -6  -2    8.05    0.38 
  -2   7   2    8.45    0.40 
   2  -7  -2    8.59    0.41 
   2  -7  -2    8.33    0.40 
  -2   8   2    0.11    0.09 
   2  -8  -2    0.18    0.09 
   2  -9  -2    0.06    0.09 
   2 -10  -2    1.34    0.20 
   2 -11  -2    0.72    0.17 
  -1 -11   2    1.27    0.20 
  -1 -10   2    1.40    0.20 
  -1  -9   2    0.78    0.15 
   1   9  -2    0.77    0.16 
  -1  -8   2    8.46    0.42 
   1   8  -2    8.54    0.44 
  -1  -7   2    0.07    0.07 
   1   7  -2    0.02    0.07 
  -1  -5   2   36.37    1.29 
  -1  -5   2   36.76    1.29 
   1   5  -2   38.14    1.31 
  -1  -4   2    1.21    0.07 
  -1  -4   2    1.28    0.11 
   1   4  -2    1.08    0.11 
  -1  -3   2   26.94    0.93 
   1   3  -2   26.77    0.93 
  -1  -2   2    0.95    0.06 
   1   2  -2    0.84    0.07 
  -1  -1   2  324.94   10.62 
  -1  -1   2  332.48   11.06 
   1   1  -2  315.84   10.65 
  -1   0   2   61.37    2.14 
  -1   0   2   63.58    2.04 
  -1   1   2  732.49   23.93 
  -1   1   2  722.16   23.74 
  -1   1   2  739.38   24.96 
  -1   2   2   35.37    1.19 
  -1   2   2   35.92    1.18 
   1  -2  -2   34.79    1.26 
  -1   4   2   16.03    0.60 
   1  -4  -2   16.34    0.63 
  -1   5   2    7.15    0.32 
   1  -5  -2    7.02    0.33 
  -1   6   2    0.10    0.06 
   1  -6  -2   -0.02    0.02 
   1  -6  -2    0.14    0.07 
  -1   7   2    3.80    0.25 
   1  -7  -2    4.12    0.24 
   1  -7  -2    4.04    0.25 
  -1   8   2    1.12    0.16 
   1  -8  -2    1.18    0.16 
  -1   9   2    0.04    0.09 
   1  -9  -2    0.04    0.08 
  -1  10   2    0.20    0.11 
   1 -10  -2    0.02    0.10 
   1 -11  -2    0.06    0.12 
   0 -11   2    1.01    0.18 
   0 -10   2    0.57    0.14 
   0  -9   2    0.08    0.09 
   0  -8   2    3.05    0.22 
   0  -7   2   49.50    1.75 
   0   7  -2   51.34    1.78 
   0  -6   2    6.44    0.31 
   0   6  -2    6.53    0.32 
   0  -5   2   51.73    1.75 
   0  -5   2   51.35    1.76 
   0   5  -2   51.44    1.77 
   0  -4   2    1.85    0.12 
   0   4  -2    1.75    0.13 
   0  -3   2   25.03    0.86 
   0  -2   2   52.59    1.69 
   0   2  -2   50.09    1.75 
   0  -1   2    9.39    0.33 
   0  -1   2    9.49    0.33 
   0   1  -2    9.59    0.35 
   0   0   2   97.48    3.15 
   0   0   2   93.59    3.18 
   0   0  -2   99.62    3.32 
   0   1   2    1.56    0.08 
   0   1   2    1.67    0.08 
   0  -1  -2    1.78    0.11 
   0   2   2   19.32    0.67 
   0  -2  -2   19.30    0.72 
   0   3   2    3.22    0.16 
   0  -3  -2    3.08    0.17 
   0   4   2    0.13    0.05 
   0  -4  -2    0.04    0.05 
   0   5   2    8.83    0.37 
   0  -5  -2    8.84    0.37 
   0  -5  -2    6.86    0.36 
   0   6   2    1.33    0.15 
   0  -6  -2    1.60    0.14 
   0  -6  -2    1.11    0.14 
   0   7   2    0.37    0.10 
   0  -7  -2    0.28    0.10 
   0  -7  -2    0.42    0.09 
   0   8   2    2.51    0.24 
   0  -8  -2    2.55    0.22 
   0   9   2    1.45    0.20 
   0  -9  -2    1.65    0.21 
   0  10   2    0.10    0.11 
   0 -10  -2    0.00    0.10 
   1 -12   2    0.20    0.13 
   1 -11   2    0.65    0.15 
   1 -10   2    0.60    0.13 
   1  -9   2    0.30    0.10 
   1  -8   2    4.19    0.26 
   1  -7   2   13.35    0.54 
   1  -6   2   12.62    0.50 
   1  -5   2   13.07    0.50 
   1  -4   2   11.87    0.44 
   1  -3   2   17.63    0.61 
  -1   3  -2   17.44    0.60 
   1  -2   2   18.18    0.64 
   1  -2   2   18.42    0.62 
  -1   2  -2   18.35    0.64 
   1  -1   2  807.13   26.45 
   1  -1   2  838.02   26.12 
  -1   1  -2  774.46   27.45 
   1   0   2   30.23    1.02 
   1   0   2   31.66    1.00 
  -1   0  -2   28.45    1.06 
   1   1   2    9.59    0.35 
  -1  -1  -2    9.34    0.37 
   1   2   2   31.26    1.22 
  -1  -2  -2   40.80    1.29 
   1   3   2    0.19    0.05 
  -1  -3  -2    0.25    0.06 
   1   4   2    8.83    0.37 
  -1  -4  -2    8.68    0.38 
  -1  -4  -2    8.43    0.37 
   1   5   2   -0.01    0.03 
  -1  -5  -2    0.07    0.07 
  -1  -5  -2    0.11    0.06 
   1   6   2   10.34    0.48 
  -1  -6  -2   11.08    0.49 
  -1  -6  -2   10.77    0.46 
   1   7   2    0.62    0.12 
  -1  -7  -2    0.61    0.12 
   1   8   2    0.19    0.10 
  -1  -8  -2    0.24    0.11 
   1   9   2    0.12    0.11 
  -1  -9  -2    0.15    0.11 
   1  10   2   -0.01    0.11 
  -1 -10  -2   -0.09    0.09 
   2 -12   2    0.18    0.12 
   2 -11   2   -0.04    0.08 
   2 -10   2    0.32    0.11 
   2  -9   2   10.07    0.47 
   2  -8   2   12.79    0.54 
   2  -7   2    5.23    0.26 
   2  -6   2   14.15    0.52 
   2  -6   2   13.07    0.48 
   2  -5   2   13.68    0.51 
  -2   5  -2   13.85    0.49 
   2  -4   2    0.61    0.07 
  -2   4  -2    0.65    0.05 
   2  -3   2   12.44    0.43 
  -2   3  -2   12.05    0.44 
   2  -2   2  622.22   19.81 
  -2   2  -2  601.33   20.88 
   2  -1   2  276.64    9.02 
  -2   1  -2  279.66    9.54 
   2   0   2    0.01    0.01 
  -2   0  -2    0.00    0.01 
   2   2   2    0.03    0.02 
  -2  -2  -2    0.12    0.05 
  -2  -3  -2    3.47    0.19 
  -2  -3  -2    3.23    0.18 
  -2  -4  -2    7.58    0.35 
  -2  -4  -2    8.66    0.37 
   2   5   2   20.17    0.78 
  -2  -5  -2   20.65    0.78 
  -2  -5  -2   19.18    0.77 
   2   6   2    0.85    0.14 
  -2  -6  -2    0.82    0.13 
  -2  -6  -2    0.80    0.11 
   2   7   2    7.43    0.41 
  -2  -7  -2    7.50    0.40 
   2   8   2    0.21    0.11 
  -2  -8  -2    0.23    0.11 
   2   9   2    0.76    0.17 
  -2  -9  -2    0.82    0.17 
   3 -13   2    0.00    0.11 
   3 -12   2    1.50    0.21 
   3 -11   2    0.21    0.10 
   3 -10   2    0.11    0.08 
   3  -9   2    0.11    0.08 
   3  -8   2    8.86    0.39 
   3  -7   2    2.07    0.15 
   3  -6   2   20.38    0.73 
  -3   6  -2   20.55    0.73 
   3  -5   2   35.31    1.22 
  -3   5  -2   36.70    1.26 
   3  -4   2    5.62    0.22 
  -3   4  -2    5.48    0.23 
   3  -3   2    2.48    0.10 
   3  -3   2    2.09    0.13 
  -3   3  -2    2.36    0.12 
   3  -2   2   16.41    0.50 
   3  -2   2   13.66    0.54 
   3  -1   2   83.63    2.55 
  -3   1  -2   69.78    2.64 
  -3   0  -2    3.66    0.18 
   3   1   2   10.12    0.41 
  -3  -1  -2   10.83    0.43 
   3   2   2    2.05    0.15 
  -3  -2  -2    2.12    0.14 
  -3  -2  -2    2.06    0.14 
  -3  -3  -2    0.93    0.11 
  -3  -3  -2    0.90    0.11 
   3   4   2    9.13    0.41 
  -3  -4  -2    8.73    0.39 
  -3  -4  -2    8.34    0.39 
   3   5   2    1.29    0.16 
  -3  -5  -2    1.26    0.15 
  -3  -5  -2    1.36    0.15 
   3   6   2    0.50    0.12 
  -3  -6  -2    0.60    0.11 
  -3  -6  -2    0.81    0.14 
   3   7   2    1.22    0.18 
  -3  -7  -2    1.46    0.19 
   3   8   2    0.10    0.11 
  -3  -8  -2    0.02    0.09 
   3   9   2    0.17    0.14 
  -3  -9  -2    0.22    0.13 
   4 -13   2    0.09    0.11 
   4 -12   2    0.03    0.09 
   4 -11   2    0.67    0.13 
   4 -10   2    0.61    0.12 
   4  -9   2    1.04    0.13 
   4  -8   2    3.73    0.21 
   4  -7   2    4.39    0.22 
   4  -6   2    7.37    0.35 
   4  -6   2    8.09    0.29 
  -4   6  -2    5.81    0.28 
   4  -5   2   25.30    0.86 
   4  -5   2   25.27    0.92 
   4  -4   2  103.23    3.32 
   4  -4   2  102.78    3.41 
  -4   4  -2  100.59    3.51 
   4  -3   2   34.83    1.21 
  -4   3  -2   35.16    1.25 
   4  -2   2   38.58    1.34 
  -4   2  -2   39.96    1.40 
   4  -1   2   67.14    2.28 
  -4   1  -2   68.00    2.22 
  -4   1  -2   68.73    2.37 
   4   0   2    5.13    0.24 
  -4   0  -2    4.71    0.24 
  -4   0  -2    5.20    0.21 
   4   1   2    3.94    0.22 
  -4  -1  -2    4.62    0.23 
  -4  -1  -2    4.55    0.21 
   4   2   2   18.29    0.70 
  -4  -2  -2   18.22    0.72 
  -4  -2  -2   18.64    0.68 
   4   3   2   57.14    1.98 
  -4  -3  -2   57.05    1.94 
  -4  -3  -2   56.51    2.03 
   4   4   2    3.92    0.26 
  -4  -4  -2    3.95    0.24 
  -4  -4  -2    4.18    0.25 
   4   5   2    7.51    0.40 
  -4  -5  -2    7.21    0.37 
  -4  -5  -2    7.79    0.37 
   4   6   2    0.38    0.12 
  -4  -6  -2    0.54    0.12 
  -4  -6  -2    0.36    0.10 
   4   7   2    0.75    0.16 
  -4  -7  -2    0.82    0.16 
   4   8   2    0.11    0.12 
  -4  -8  -2    0.12    0.12 
   5 -13   2    0.96    0.17 
   5 -12   2    0.04    0.09 
   5 -11   2    0.50    0.12 
   5 -10   2    1.69    0.17 
   5  -9   2    4.10    0.23 
   5  -8   2    3.63    0.20 
   5  -8   2    3.19    0.26 
   5  -7   2   36.93    1.32 
   5  -7   2   36.01    1.25 
  -5   7  -2   36.50    1.31 
   5  -6   2    2.61    0.13 
   5  -6   2    2.45    0.19 
  -5   6  -2    2.43    0.16 
   5  -5   2    0.08    0.06 
   5  -5   2    0.05    0.03 
  -5   5  -2   -0.05    0.04 
   5  -4   2    1.21    0.12 
  -5   4  -2    1.00    0.10 
   5  -3   2   39.35    1.34 
  -5   3  -2   38.31    1.39 
   5  -2   2    0.09    0.05 
  -5   2  -2    0.01    0.05 
   5  -1   2   72.05    2.48 
  -5   1  -2   74.98    2.40 
   5   0   2   70.53    2.37 
  -5   0  -2   69.28    2.46 
   5   1   2    1.09    0.13 
  -5  -1  -2    1.62    0.14 
  -5  -1  -2    1.43    0.11 
   5   2   2   14.48    0.59 
  -5  -2  -2   14.29    0.60 
  -5  -2  -2   14.84    0.56 
  -5  -3  -2    0.24    0.08 
  -5  -3  -2    0.17    0.09 
   5   4   2    0.30    0.10 
  -5  -4  -2    0.43    0.11 
  -5  -4  -2    0.26    0.09 
   5   5   2    2.36    0.23 
  -5  -5  -2    2.69    0.21 
  -5  -5  -2    2.41    0.21 
   5   6   2    2.47    0.26 
  -5  -6  -2    2.34    0.24 
   5   7   2    0.52    0.15 
  -5  -7  -2    0.26    0.13 
  -5  -8  -2    0.33    0.14 
   6 -13   2    1.00    0.21 
   6 -12   2    0.62    0.17 
   6 -11   2    0.10    0.12 
   6 -10   2    0.46    0.14 
   6  -9   2    5.00    0.32 
   6  -8   2    0.62    0.13 
   6  -7   2    6.87    0.36 
  -6   7  -2    6.46    0.32 
   6  -6   2   25.75    0.96 
  -6   6  -2   26.03    0.97 
   6  -5   2    3.80    0.23 
  -6   5  -2    4.07    0.22 
   6  -4   2   15.88    0.61 
  -6   4  -2   15.90    0.63 
   6  -3   2   37.88    1.32 
  -6   3  -2   37.40    1.37 
   6  -2   2    4.47    0.24 
  -6   2  -2    4.61    0.25 
   6   0   2   25.42    0.96 
  -6   0  -2   27.12    1.01 
   6   1   2   14.86    0.61 
  -6  -1  -2   14.74    0.63 
  -6  -1  -2   15.15    0.56 
   6   2   2    3.37    0.23 
  -6  -2  -2    3.24    0.23 
  -6  -2  -2    3.20    0.20 
   6   3   2    5.83    0.33 
  -6  -3  -2    5.77    0.33 
  -6  -3  -2    5.85    0.30 
   6   4   2    0.62    0.13 
  -6  -4  -2    0.76    0.14 
  -6  -4  -2    0.78    0.13 
   6   5   2    0.18    0.10 
  -6  -5  -2    0.49    0.13 
  -6  -5  -2    0.24    0.10 
   6   6   2    0.72    0.17 
   7 -13   2    0.23    0.16 
   7 -12   2    0.95    0.20 
   7 -11   2   -0.01    0.11 
   7 -10   2    0.54    0.14 
   7  -9   2    4.83    0.31 
   7  -8   2    1.02    0.15 
   7  -7   2    1.06    0.15 
  -7   7  -2    1.14    0.14 
   7  -6   2   31.03    1.15 
  -7   6  -2   31.90    1.18 
   7  -5   2   19.12    0.74 
  -7   5  -2   19.07    0.76 
   7  -4   2   22.93    0.85 
  -7   4  -2   22.62    0.89 
   7  -3   2   61.42    2.11 
  -7   3  -2   61.64    2.20 
   7  -2   2   16.01    0.63 
  -7   2  -2   15.91    0.66 
   7  -1   2    5.71    0.31 
  -7   1  -2    5.97    0.32 
   7   0   2   11.55    0.50 
  -7   0  -2   12.10    0.54 
   7   1   2   -0.03    0.07 
  -7  -1  -2    0.12    0.09 
   7   2   2    0.82    0.14 
  -7  -2  -2    1.14    0.16 
   7   3   2    0.27    0.11 
  -7  -3  -2    0.48    0.13 
   7   4   2    1.02    0.17 
  -7  -4  -2    1.20    0.17 
   7   5   2    2.09    0.25 
   8 -13   2    0.52    0.18 
   8 -12   2    0.32    0.15 
   8 -11   2    1.35    0.21 
   8 -10   2   -0.03    0.09 
   8  -9   2    1.93    0.21 
   8  -8   2    3.52    0.26 
  -8   8  -2    3.61    0.24 
   8  -7   2    1.04    0.15 
  -8   7  -2    0.89    0.13 
   8  -6   2    5.02    0.29 
  -8   6  -2    5.16    0.30 
   8  -5   2    1.64    0.16 
  -8   5  -2    1.34    0.16 
   8  -4   2   11.35    0.49 
  -8   4  -2   11.13    0.51 
   8  -3   2    0.06    0.07 
  -8   3  -2    0.06    0.08 
   8  -2   2    3.92    0.25 
  -8   2  -2    4.03    0.26 
   8  -1   2    0.77    0.12 
  -8   1  -2    0.88    0.14 
   8   0   2   -0.05    0.07 
  -8   0  -2   -0.11    0.08 
   8   1   2    0.61    0.13 
  -8  -1  -2    0.50    0.13 
   8   2   2    0.41    0.12 
  -8  -2  -2    0.62    0.14 
   8   3   2   -0.11    0.09 
  -8  -3  -2    0.03    0.10 
   8   4   2    0.02    0.11 
  -8  -4  -2    0.14    0.11 
   9 -12   2    0.55    0.17 
   9 -11   2    1.49    0.22 
   9 -10   2    0.02    0.10 
   9  -9   2    0.31    0.12 
   9  -8   2    0.24    0.10 
  -9   8  -2    0.10    0.08 
   9  -7   2    0.21    0.09 
  -9   7  -2    0.15    0.09 
   9  -6   2    1.40    0.16 
  -9   6  -2    1.34    0.17 
   9  -5   2    2.11    0.19 
  -9   5  -2    2.00    0.21 
   9  -4   2    0.07    0.08 
  -9   4  -2   -0.04    0.07 
   9  -3   2    1.37    0.16 
  -9   3  -2    1.28    0.18 
   9  -2   2    1.36    0.16 
  -9   2  -2    1.36    0.18 
   9  -1   2    4.11    0.27 
  -9   1  -2    3.93    0.28 
   9   0   2    3.18    0.25 
  -9   0  -2    3.37    0.26 
   9   1   2   -0.03    0.09 
  -9  -1  -2    0.04    0.10 
   9   2   2    1.41    0.20 
  -9  -2  -2    1.63    0.22 
   9   3   2    1.76    0.23 
  -9  -3  -2    1.80    0.23 
  10 -12   2   -0.02    0.11 
  10 -11   2    0.00    0.11 
  10 -10   2    0.36    0.13 
  10  -9   2    0.36    0.13 
  10  -8   2    2.69    0.23 
 -10   8  -2    2.42    0.22 
  10  -7   2    0.00    0.08 
 -10   7  -2   -0.03    0.08 
  10  -6   2    1.28    0.16 
 -10   6  -2    1.28    0.18 
  10  -5   2    0.79    0.13 
 -10   5  -2    0.58    0.14 
  10  -4   2    0.13    0.09 
 -10   4  -2    0.22    0.10 
  10  -3   2    6.02    0.34 
 -10   3  -2    5.49    0.35 
  10  -2   2    2.53    0.23 
 -10   2  -2    2.60    0.24 
  10  -1   2    1.49    0.19 
 -10   1  -2    1.43    0.20 
  10   0   2    4.29    0.30 
 -10   0  -2    3.78    0.31 
  10   1   2    0.26    0.12 
 -10  -1  -2    0.29    0.14 
  10   2   2   -0.05    0.11 
 -10  -2  -2    0.16    0.12 
  11 -11   2    0.58    0.16 
  11 -10   2    0.30    0.13 
  11  -9   2    0.49    0.13 
  11  -8   2    2.65    0.23 
 -11   8  -2    1.66    0.22 
  11  -7   2    0.22    0.11 
 -11   7  -2    0.05    0.10 
  11  -6   2    3.84    0.27 
 -11   6  -2    3.67    0.30 
  11  -5   2    3.05    0.25 
 -11   5  -2    2.84    0.25 
  11  -4   2   -0.08    0.10 
 -11   4  -2   -0.03    0.10 
  11  -3   2    3.08    0.26 
 -11   3  -2    3.43    0.29 
  11  -2   2    0.52    0.14 
 -11   2  -2    0.59    0.15 
  11  -1   2    0.91    0.17 
 -11   1  -2    1.14    0.19 
  11   0   2    1.77    0.22 
 -11   0  -2    2.27    0.27 
  12 -10   2   -0.18    0.09 
  12  -9   2    1.28    0.19 
  12  -8   2    2.67    0.25 
 -12   8  -2    2.05    0.25 
  12  -7   2    0.07    0.10 
 -12   7  -2    0.10    0.12 
  12  -6   2    1.91    0.22 
 -12   6  -2    1.72    0.24 
  12  -5   2    0.23    0.12 
 -12   5  -2    0.43    0.15 
  12  -4   2   -0.07    0.10 
 -12   4  -2   -0.07    0.10 
  12  -3   2    0.31    0.13 
 -12   3  -2    0.57    0.16 
  12  -2   2    1.42    0.20 
  13  -8   2    0.43    0.14 
 -13   8  -2    0.40    0.16 
  13  -7   2    0.58    0.15 
  13  -6   2    0.00    0.11 
 -13   4   3    0.10    0.13 
 -13   5   3    1.67    0.25 
 -13   6   3    1.02    0.20 
 -13   7   3   -0.02    0.13 
 -13   8   3    1.17    0.23 
 -13   9   3    0.48    0.17 
 -12   0   3    0.21    0.14 
 -12   1   3    0.19    0.13 
 -12   2   3    0.85    0.18 
 -12   3   3    1.15    0.19 
 -12   4   3    0.24    0.13 
 -12   5   3    0.59    0.16 
 -12   6   3    1.83    0.24 
 -12   7   3    0.50    0.17 
 -12   8   3    3.83    0.33 
 -12   9   3    0.70    0.18 
 -11  -2   3    0.12    0.12 
 -11  -1   3    0.28    0.13 
 -11   0   3    2.53    0.27 
 -11   1   3    1.30    0.20 
 -11   2   3    0.31    0.12 
 -11   3   3    0.60    0.15 
 -11   4   3    0.56    0.15 
 -11   5   3    0.58    0.15 
 -11   6   3    0.31    0.13 
 -11   7   3    0.82    0.17 
 -11   8   3    0.09    0.11 
 -11   9   3    0.34    0.14 
 -10  -2   3    0.90    0.17 
 -10  -1   3    0.62    0.15 
 -10   0   3    0.67    0.16 
 -10   1   3    1.54    0.21 
 -10   2   3    1.50    0.20 
 -10   3   3    0.29    0.11 
 -10   4   3    6.28    0.38 
 -10   5   3    4.95    0.33 
 -10   6   3   -0.06    0.08 
 -10   7   3    3.75    0.29 
 -10   8   3    1.77    0.21 
 -10   9   3    1.54    0.20 
  -9  -3   3    0.63    0.14 
  -9  -2   3    3.20    0.26 
  -9  -1   3    6.62    0.38 
  -9   0   3   -0.07    0.07 
  -9   1   3    0.71    0.14 
  -9   2   3    4.87    0.31 
  -9   3   3    0.05    0.08 
  -9   4   3    0.20    0.10 
  -9   5   3   11.56    0.55 
  -9   6   3    6.17    0.37 
   9  -6  -3    6.89    0.32 
  -9   7   3    2.60    0.23 
   9  -7  -3    2.85    0.21 
  -9   8   3    2.97    0.24 
   9  -8  -3    3.06    0.23 
  -9   9   3   -0.02    0.09 
   9  -9  -3    0.05    0.10 
  -8  -3   3    1.31    0.18 
   8   3  -3    1.30    0.16 
  -8  -2   3    0.16    0.09 
   8   2  -3    0.12    0.08 
  -8  -1   3    1.50    0.18 
   8   1  -3    1.88    0.16 
  -8   0   3    1.45    0.18 
   8   0  -3    1.84    0.15 
  -8   1   3    5.77    0.32 
   8  -1  -3    5.59    0.26 
  -8   2   3   32.84    1.24 
   8  -2  -3   32.17    1.13 
  -8   3   3   19.02    0.77 
   8  -3  -3   18.31    0.68 
  -8   4   3    0.53    0.11 
   8  -4  -3    0.55    0.08 
  -8   5   3   13.97    0.62 
   8  -5  -3   14.87    0.56 
  -8   6   3    8.06    0.42 
   8  -6  -3    8.33    0.37 
  -8   7   3    1.34    0.17 
   8  -7  -3    1.43    0.15 
  -8   8   3    6.39    0.36 
   8  -8  -3    5.82    0.33 
  -8   9   3    6.54    0.39 
   8  -9  -3    7.52    0.39 
   8 -10  -3    1.40    0.20 
   8 -11  -3    1.41    0.22 
   8 -12  -3    0.88    0.20 
  -7  -7   3    0.53    0.14 
  -7  -6   3    0.74    0.15 
   7   6  -3    0.48    0.14 
  -7  -5   3    0.23    0.10 
   7   5  -3    0.38    0.12 
  -7  -4   3    0.77    0.13 
  -7  -4   3    1.05    0.15 
   7   4  -3    0.83    0.14 
  -7  -3   3    1.13    0.15 
  -7  -3   3    0.91    0.13 
   7   3  -3    0.99    0.13 
  -7  -2   3    0.73    0.11 
  -7  -2   3    0.84    0.13 
   7   2  -3    0.75    0.11 
  -7  -1   3    3.58    0.19 
  -7  -1   3    2.97    0.22 
   7   1  -3    3.08    0.20 
  -7   0   3    0.06    0.08 
  -7   0   3    0.02    0.05 
   7   0  -3    0.03    0.05 
  -7   1   3    0.05    0.04 
  -7   1   3    0.11    0.07 
   7  -1  -3    0.25    0.05 
  -7   2   3    1.04    0.09 
   7  -2  -3    1.24    0.10 
  -7   3   3    1.68    0.10 
  -7   4   3    3.22    0.17 
  -7   4   3    3.41    0.23 
   7  -4  -3    3.86    0.19 
  -7   5   3    6.66    0.35 
  -7   5   3    6.87    0.28 
   7  -5  -3    6.41    0.30 
  -7   6   3   16.76    0.69 
   7  -6  -3   16.57    0.64 
  -7   7   3   -0.02    0.08 
   7  -7  -3    0.04    0.08 
  -7   8   3    1.66    0.19 
   7  -8  -3    2.01    0.20 
  -7   9   3    2.48    0.23 
   7  -9  -3    2.38    0.20 
   7 -10  -3    2.80    0.22 
   7 -11  -3    0.09    0.09 
  -6  -8   3    0.20    0.12 
   6   8  -3    0.12    0.13 
  -6  -7   3    0.04    0.10 
   6   7  -3    0.09    0.11 
  -6  -6   3    0.34    0.12 
   6   6  -3    0.44    0.13 
  -6  -5   3    0.94    0.15 
   6   5  -3    1.07    0.16 
  -6  -4   3    1.71    0.17 
  -6  -4   3    1.61    0.16 
   6   4  -3    1.86    0.18 
  -6  -3   3    2.37    0.18 
  -6  -3   3    2.09    0.17 
   6   3  -3    2.80    0.19 
  -6  -2   3    6.57    0.33 
  -6  -2   3    7.05    0.32 
   6   2  -3    6.64    0.31 
  -6  -1   3    4.71    0.22 
  -6  -1   3    4.31    0.25 
   6   1  -3    4.44    0.22 
  -6   0   3    5.18    0.23 
  -6   0   3    5.27    0.27 
   6   0  -3    5.07    0.23 
  -6   1   3    8.05    0.36 
  -6   1   3    7.22    0.29 
   6  -1  -3    7.39    0.30 
  -6   2   3   -0.03    0.02 
  -6   2   3   -0.02    0.02 
   6  -2  -3   -0.01    0.03 
  -6   3   3    0.07    0.06 
  -6   3   3    0.03    0.02 
   6  -3  -3    0.13    0.04 
  -6   4   3    0.10    0.06 
  -6   4   3    0.05    0.04 
   6  -4  -3    0.12    0.05 
  -6   5   3   -0.01    0.05 
  -6   5   3    0.04    0.04 
   6  -5  -3    0.04    0.05 
  -6   6   3   27.62    1.06 
   6  -6  -3   27.73    1.01 
  -6   7   3   17.58    0.73 
  -6   8   3    0.03    0.08 
   6  -9  -3    1.03    0.18 
   6  -9  -3    1.25    0.16 
   6 -10  -3    1.05    0.16 
   6 -11  -3    0.05    0.10 
   6 -12  -3    0.36    0.13 
   5   9  -3   -0.16    0.12 
  -5  -8   3   -0.05    0.09 
   5   8  -3    0.00    0.10 
  -5  -7   3    0.41    0.12 
   5   7  -3    0.11    0.11 
  -5  -6   3    0.77    0.13 
   5   6  -3    1.08    0.17 
  -5  -5   3    2.25    0.18 
   5   5  -3    1.91    0.19 
  -5  -4   3    0.88    0.11 
  -5  -4   3    0.59    0.10 
   5   4  -3    0.49    0.10 
  -5  -3   3    0.50    0.09 
  -5  -3   3    0.35    0.08 
   5   3  -3    0.40    0.08 
  -5  -2   3    1.05    0.11 
  -5  -2   3    1.02    0.11 
   5   2  -3    1.15    0.11 
  -5  -1   3   33.88    1.15 
  -5  -1   3   33.23    1.22 
   5   1  -3   33.29    1.15 
  -5   0   3    8.65    0.33 
  -5   0   3    8.31    0.37 
   5   0  -3    8.16    0.32 
  -5   1   3   21.88    0.81 
   5  -1  -3   21.04    0.73 
  -5   3   3    9.33    0.40 
   5  -3  -3    9.51    0.35 
  -5   4   3   13.56    0.49 
  -5   4   3   13.14    0.54 
   5  -4  -3   13.18    0.50 
  -5   5   3   15.76    0.57 
  -5   5   3   14.73    0.61 
  -5   6   3    0.90    0.12 
  -5   7   3    0.29    0.09 
   5  -8  -3    0.85    0.16 
   5  -9  -3    0.15    0.08 
   5 -10  -3    0.91    0.16 
   5 -11  -3    1.18    0.19 
   5 -12  -3    0.33    0.13 
  -4  -9   3    1.13    0.19 
   4   9  -3    1.40    0.22 
  -4  -8   3    1.14    0.18 
   4   8  -3    1.28    0.20 
  -4  -7   3   12.70    0.59 
   4   7  -3   13.35    0.60 
  -4  -6   3    4.82    0.29 
   4   6  -3    5.58    0.32 
  -4  -5   3    1.40    0.16 
   4   5  -3    1.32    0.15 
  -4  -4   3   12.79    0.51 
  -4  -4   3   13.21    0.53 
   4   4  -3   12.74    0.52 
  -4  -3   3   17.79    0.68 
  -4  -3   3   18.43    0.68 
   4   3  -3   17.86    0.67 
  -4  -2   3   11.97    0.48 
  -4  -2   3   12.80    0.48 
   4   2  -3   12.14    0.46 
  -4  -1   3   40.89    1.39 
  -4  -1   3   42.27    1.46 
   4   1  -3   40.29    1.39 
  -4   0   3   12.83    0.50 
   4   0  -3   13.12    0.46 
  -4   1   3    2.60    0.15 
  -4   1   3    2.34    0.12 
   4  -1  -3    2.62    0.11 
  -4   2   3    0.30    0.06 
  -4   2   3    0.44    0.05 
   4  -2  -3    0.52    0.05 
  -4   3   3   15.69    0.61 
   4  -3  -3   15.73    0.56 
  -4   4   3    7.27    0.29 
  -4   4   3    7.28    0.33 
  -4   5   3   33.47    1.23 
   4  -7  -3    3.07    0.24 
   4  -8  -3    6.38    0.35 
   4  -8  -3    6.32    0.37 
   4  -9  -3    1.78    0.20 
   4 -10  -3    0.00    0.08 
   4 -11  -3    1.91    0.24 
   4 -12  -3    2.19    0.27 
  -3 -10   3    0.32    0.13 
  -3  -9   3    1.56    0.21 
   3   9  -3    2.37    0.26 
  -3  -8   3    0.42    0.12 
   3   8  -3    0.35    0.13 
  -3  -7   3   12.75    0.56 
   3   7  -3   12.78    0.58 
  -3  -6   3    8.92    0.41 
   3   6  -3    8.23    0.41 
  -3  -5   3    0.45    0.10 
  -3  -5   3    0.48    0.07 
   3   5  -3    0.44    0.10 
  -3  -4   3    1.95    0.15 
  -3  -4   3    1.65    0.12 
   3   4  -3    1.83    0.15 
  -3  -3   3   18.03    0.66 
  -3  -3   3   17.82    0.66 
   3   3  -3   17.41    0.65 
  -3  -2   3    3.89    0.18 
  -3  -2   3    3.74    0.19 
   3   2  -3    3.90    0.18 
  -3  -1   3   31.04    1.10 
   3   1  -3   30.66    1.04 
  -3   0   3   24.35    0.83 
  -3   0   3   24.41    0.88 
   3   0  -3   24.70    0.82 
  -3   1   3   69.82    2.25 
   3  -1  -3   67.18    2.24 
  -3   2   3   -0.04    0.02 
  -3   2   3   -0.02    0.02 
  -3   3   3    5.68    0.25 
  -3   3   3    6.73    0.28 
  -3   4   3    2.95    0.17 
  -3   4   3    3.15    0.16 
   3  -5  -3    1.18    0.14 
   3  -6  -3    7.43    0.38 
   3  -7  -3    0.02    0.08 
   3  -8  -3   13.20    0.59 
   3  -8  -3   13.51    0.60 
   3  -9  -3    3.50    0.26 
   3 -10  -3   -0.03    0.09 
   3 -11  -3   -0.03    0.11 
  -2 -10   3    1.37    0.20 
  -2  -9   3    4.81    0.32 
   2   9  -3    5.18    0.35 
  -2  -8   3    4.25    0.28 
   2   8  -3    4.18    0.30 
  -2  -7   3    2.51    0.19 
   2   7  -3    1.76    0.19 
  -2  -6   3    7.26    0.35 
   2   6  -3    6.97    0.35 
  -2  -5   3   -0.04    0.06 
  -2  -5   3   -0.02    0.04 
   2   5  -3   -0.08    0.05 
  -2  -4   3    1.20    0.08 
  -2  -4   3    1.11    0.11 
   2   4  -3    1.17    0.11 
  -2  -3   3   88.70    3.06 
  -2  -3   3   90.91    2.95 
   2   3  -3   88.35    2.97 
  -2  -2   3  137.38    4.45 
  -2  -2   3  135.21    4.65 
   2   2  -3  136.52    4.48 
  -2  -1   3    1.91    0.11 
  -2  -1   3    2.14    0.11 
   2   1  -3    2.21    0.10 
  -2   0   3   68.68    2.23 
  -2   0   3   67.26    2.34 
  -2   1   3  155.86    5.06 
  -2   2   3    3.19    0.17 
  -2   2   3    4.50    0.17 
  -2   3   3   16.04    0.56 
  -2   3   3   15.26    0.56 
  -2   4   3   18.08    0.65 
   2  -4  -3   17.64    0.71 
  -2   5   3    3.46    0.20 
   2  -5  -3    3.79    0.23 
  -2   6   3    9.76    0.43 
   2  -6  -3   10.07    0.46 
  -2   7   3    6.06    0.33 
   2  -7  -3    6.56    0.35 
   2  -7  -3    6.14    0.34 
  -2   8   3    0.05    0.08 
   2  -8  -3   -0.08    0.07 
  -2   9   3    0.03    0.08 
   2  -9  -3   -0.04    0.08 
   2 -10  -3    0.61    0.15 
   2 -11  -3    1.88    0.25 
  -1 -11   3    0.59    0.15 
  -1 -10   3    0.20    0.11 
  -1  -9   3    2.29    0.23 
  -1  -8   3    9.30    0.45 
  -1  -7   3    0.03    0.07 
   1   7  -3   -0.07    0.06 
  -1  -5   3    9.35    0.35 
   1   5  -3   10.23    0.42 
  -1  -4   3    4.13    0.16 
   1   4  -3    3.89    0.21 
  -1  -3   3   24.19    0.83 
   1   3  -3   23.63    0.83 
  -1  -1   3   12.49    0.46 
  -1   0   3   -0.10    0.03 
  -1   0   3   -0.04    0.02 
  -1   0   3   -0.10    0.02 
  -1   1   3    7.28    0.27 
  -1   2   3   50.51    1.65 
   1  -2  -3   48.57    1.76 
  -1   3   3    0.29    0.05 
  -1   3   3    0.32    0.05 
   1  -3  -3    0.29    0.07 
  -1   4   3    3.17    0.18 
   1  -4  -3    3.34    0.21 
  -1   5   3    5.20    0.26 
   1  -5  -3    5.35    0.28 
  -1   6   3    6.07    0.32 
   1  -6  -3    6.47    0.33 
  -1   7   3   12.75    0.55 
   1  -7  -3   12.83    0.56 
   1  -7  -3   12.59    0.56 
  -1   8   3    0.10    0.09 
   1  -8  -3    0.07    0.08 
  -1   9   3    0.08    0.10 
   1  -9  -3   -0.03    0.08 
  -1  10   3    0.87    0.17 
   1 -10  -3    0.93    0.18 
   1 -11  -3    2.15    0.27 
   0 -11   3    0.59    0.15 
   0 -10   3    0.38    0.12 
   0  -9   3    0.29    0.10 
   0  -8   3    3.40    0.24 
   0  -7   3    7.33    0.36 
   0  -6   3    1.18    0.13 
   0  -5   3   24.37    0.87 
   0  -4   3   11.30    0.43 
   0  -3   3   59.49    1.98 
   0   3  -3   60.15    2.04 
   0  -2   3    2.32    0.12 
   0   2  -3    2.47    0.12 
   0  -1   3  109.00    3.48 
   0  -1   3  105.56    3.51 
   0   1  -3  106.60    3.67 
   0   0   3   12.61    0.44 
   0   0   3   12.27    0.43 
   0   0  -3   12.79    0.48 
   0   1   3   32.94    1.11 
   0   1   3   33.68    1.12 
   0   2   3   25.72    0.89 
   0  -2  -3   26.33    0.96 
   0   3   3   18.76    0.69 
   0  -3  -3   19.72    0.74 
   0   4   3    4.90    0.24 
   0  -4  -3    5.05    0.26 
   0   5   3   20.15    0.76 
   0  -5  -3   19.85    0.78 
   0   6   3    2.57    0.20 
   0  -6  -3    2.48    0.21 
   0  -6  -3    2.60    0.19 
   0   7   3    4.62    0.29 
   0  -7  -3    4.58    0.27 
   0  -7  -3    4.66    0.29 
   0   8   3    2.69    0.24 
   0  -8  -3    2.48    0.22 
   0   9   3    0.92    0.17 
   0  -9  -3    0.91    0.17 
   0  10   3    0.57    0.16 
   0 -10  -3    0.56    0.15 
   1 -12   3   -0.07    0.10 
   1 -11   3    0.30    0.12 
   1 -10   3    0.51    0.13 
   1  -9   3   -0.04    0.06 
   1  -8   3   14.45    0.60 
   1  -7   3   15.65    0.62 
   1  -6   3    3.54    0.20 
   1  -5   3    2.87    0.16 
   1  -4   3    2.31    0.13 
   1  -3   3   27.02    0.91 
  -1   3  -3   26.91    0.93 
   1  -2   3   28.18    0.92 
   1  -2   3   27.41    0.94 
  -1   2  -3   26.73    0.96 
   1  -1   3  368.39   12.02 
   1  -1   3  366.04   11.86 
  -1   1  -3  360.07   12.45 
   1   0   3    4.67    0.18 
   1   0   3    4.95    0.18 
  -1   0  -3    3.50    0.20 
   1   1   3    0.63    0.06 
  -1  -1  -3    0.65    0.08 
   1   2   3   15.61    0.56 
  -1  -2  -3   15.19    0.60 
   1   3   3    3.60    0.20 
  -1  -3  -3    3.87    0.21 
   1   4   3    0.91    0.11 
  -1  -4  -3    0.93    0.11 
   1   5   3   21.41    0.83 
  -1  -5  -3   22.74    0.85 
  -1  -5  -3   21.43    0.84 
   1   6   3    7.71    0.39 
  -1  -6  -3    8.07    0.40 
  -1  -6  -3    7.93    0.37 
   1   7   3    3.26    0.25 
  -1  -7  -3    3.80    0.27 
  -1  -7  -3    3.46    0.23 
   1   8   3    1.85    0.22 
  -1  -8  -3    2.42    0.25 
   1   9   3   -0.03    0.09 
  -1  -9  -3    0.06    0.10 
   1  10   3    0.22    0.14 
  -1 -10  -3    0.25    0.13 
   2 -12   3    0.04    0.10 
   2 -11   3    0.03    0.08 
   2 -10   3    0.55    0.12 
   2  -9   3   16.23    0.67 
   2  -8   3    7.04    0.34 
   2  -7   3   10.82    0.45 
   2  -6   3   13.49    0.52 
   2  -5   3    9.03    0.36 
  -2   5  -3    9.65    0.34 
   2  -4   3    0.60    0.08 
   2  -4   3    0.74    0.07 
  -2   4  -3    0.82    0.05 
   2  -3   3    3.19    0.14 
  -2   3  -3    3.42    0.15 
   2  -2   3  173.29    5.45 
  -2   2  -3  163.42    5.75 
   2   0   3   16.91    0.53 
   2   0   3   13.47    0.54 
   2   1   3    1.99    0.12 
  -2  -1  -3    2.08    0.13 
   2   2   3    0.19    0.05 
  -2  -2  -3    0.18    0.06 
   2   3   3    2.76    0.17 
  -2  -3  -3    2.57    0.17 
   2   4   3    0.35    0.07 
  -2  -4  -3    0.39    0.08 
  -2  -4  -3    0.38    0.09 
   2   5   3    2.05    0.20 
  -2  -5  -3    2.58    0.19 
  -2  -5  -3    2.27    0.18 
   2   6   3    0.95    0.15 
  -2  -6  -3    0.95    0.13 
  -2  -6  -3    0.81    0.14 
   2   7   3    0.05    0.08 
  -2  -7  -3    0.11    0.09 
   2   8   3    0.13    0.11 
  -2  -8  -3    0.14    0.10 
   2   9   3    0.04    0.11 
  -2  -9  -3    0.16    0.13 
   3 -13   3    0.32    0.14 
   3 -12   3    0.67    0.15 
   3 -11   3    0.06    0.08 
   3 -10   3    1.10    0.15 
   3  -9   3    2.73    0.20 
   3  -8   3    3.74    0.22 
   3  -7   3    0.13    0.06 
   3  -6   3   14.71    0.55 
  -3   6  -3   15.03    0.54 
   3  -5   3   24.78    0.84 
   3  -5   3   23.85    0.89 
  -3   5  -3   24.65    0.86 
   3  -4   3   13.10    0.51 
   3  -4   3   13.45    0.47 
  -3   4  -3   13.47    0.49 
   3  -3   3   95.22    3.67 
   3  -3   3  126.38    3.61 
   3  -2   3   47.99    1.61 
  -3   2  -3   51.05    1.73 
   3  -1   3   84.69    2.75 
  -3   1  -3   84.27    2.92 
   3   0   3    0.16    0.04 
  -3   0  -3    0.00    0.01 
  -3  -1  -3   32.82    1.19 
  -3  -2  -3    4.08    0.23 
  -3  -2  -3    4.08    0.21 
  -3  -3  -3    3.24    0.20 
  -3  -3  -3    3.15    0.20 
   3   4   3   13.05    0.55 
  -3  -4  -3   13.39    0.55 
  -3  -4  -3   12.65    0.54 
   3   5   3    1.21    0.16 
  -3  -5  -3    1.05    0.15 
  -3  -5  -3    1.33    0.15 
   3   6   3    0.00    0.07 
  -3  -6  -3    0.03    0.08 
  -3  -6  -3   -0.07    0.08 
   3   7   3    0.12    0.10 
  -3  -7  -3   -0.08    0.08 
   3   8   3   -0.10    0.09 
  -3  -8  -3   -0.03    0.09 
  -3  -9  -3   -0.04    0.10 
   4 -13   3   -0.12    0.10 
   4 -12   3    0.27    0.11 
   4 -11   3    2.76    0.22 
   4 -10   3    2.39    0.19 
   4  -9   3   -0.08    0.05 
   4  -8   3    1.52    0.14 
   4  -6   3    1.01    0.08 
  -4   6  -3    0.63    0.07 
  -4   5  -3   18.29    0.67 
   4  -4   3  135.42    4.36 
  -4   4  -3  133.21    4.60 
   4  -3   3   84.01    2.79 
  -4   3  -3   88.59    2.99 
   4  -2   3   32.75    1.23 
  -4   2  -3   38.83    1.29 
   4  -1   3  114.47    3.87 
  -4   1  -3  118.71    4.03 
   4   0   3    8.32    0.33 
  -4   0  -3    6.01    0.32 
  -4  -1  -3   64.11    2.14 
  -4  -1  -3   63.85    2.26 
  -4  -2  -3    3.36    0.21 
  -4  -2  -3    3.04    0.18 
   4   3   3    4.22    0.26 
  -4  -3  -3    4.05    0.25 
  -4  -3  -3    3.93    0.23 
   4   4   3    0.55    0.12 
  -4  -4  -3    0.78    0.12 
  -4  -4  -3    0.86    0.13 
   4   5   3    3.85    0.27 
  -4  -5  -3    3.41    0.25 
  -4  -5  -3    3.99    0.26 
   4   6   3    0.23    0.11 
  -4  -6  -3    0.35    0.13 
  -4  -6  -3    0.46    0.12 
   4   7   3    1.66    0.22 
  -4  -7  -3    1.67    0.21 
   4   8   3    1.31    0.23 
  -4  -8  -3    0.98    0.19 
   5 -12   3    0.15    0.10 
   5 -11   3    1.81    0.19 
   5 -10   3    2.71    0.19 
   5 -10   3    2.61    0.26 
   5  -9   3    2.11    0.23 
   5  -9   3    2.39    0.17 
   5  -8   3    7.13    0.32 
   5  -8   3    7.57    0.39 
   5  -7   3  109.47    3.57 
   5  -7   3  106.14    3.68 
  -5   7  -3  110.47    3.75 
   5  -6   3    2.74    0.21 
   5  -6   3    3.48    0.16 
  -5   6  -3    3.30    0.19 
   5  -5   3  100.23    3.35 
   5  -5   3   97.39    3.24 
  -5   5  -3  101.06    3.44 
   5  -4   3   18.31    0.67 
  -5   4  -3   17.06    0.67 
   5  -3   3    0.12    0.06 
  -5   3  -3    0.14    0.06 
   5  -2   3   20.70    0.75 
  -5   2  -3   20.36    0.78 
  -5   2  -3   20.27    0.68 
   5  -1   3   49.45    1.69 
  -5   1  -3   48.64    1.62 
   5   0   3    0.23    0.07 
  -5   0  -3    0.26    0.05 
   5   1   3   14.62    0.59 
  -5  -1  -3   15.01    0.55 
  -5  -1  -3   14.23    0.61 
   5   2   3    4.45    0.26 
  -5  -2  -3    4.55    0.24 
  -5  -2  -3    4.50    0.27 
   5   3   3    0.09    0.08 
  -5  -3  -3    0.15    0.07 
  -5  -3  -3    0.08    0.08 
   5   4   3    0.27    0.10 
  -5  -4  -3    0.27    0.09 
  -5  -4  -3    0.29    0.10 
   5   5   3    2.51    0.24 
  -5  -5  -3    2.55    0.22 
  -5  -5  -3    2.60    0.22 
   5   6   3    0.84    0.16 
  -5  -6  -3    0.34    0.13 
   5   7   3    0.25    0.13 
  -5  -7  -3    0.19    0.12 
   6 -13   3    1.44    0.24 
   6 -12   3    0.76    0.18 
   6 -11   3    1.32    0.21 
   6 -10   3    1.36    0.20 
   6  -9   3    1.20    0.17 
   6  -8   3    3.17    0.25 
   6  -7   3   55.95    1.96 
  -6   7  -3   55.82    1.98 
   6  -6   3    4.02    0.26 
  -6   6  -3    4.21    0.23 
   6  -5   3   44.25    1.55 
  -6   5  -3   44.25    1.59 
   6  -4   3    9.22    0.41 
  -6   4  -3    9.76    0.42 
   6  -3   3    0.83    0.11 
  -6   3  -3    1.07    0.13 
   6  -2   3    1.86    0.16 
  -6   2  -3    1.97    0.16 
  -6   1  -3   12.69    0.54 
   6   0   3    3.49    0.22 
  -6   0  -3    3.37    0.23 
   6   1   3    3.62    0.24 
  -6  -1  -3    3.59    0.25 
   6   2   3    1.93    0.20 
  -6  -2  -3    1.35    0.17 
   6   3   3    1.01    0.15 
  -6  -3  -3    0.93    0.15 
   6   4   3    0.82    0.16 
  -6  -4  -3    0.75    0.14 
   6   5   3    0.81    0.17 
  -6  -5  -3    0.95    0.16 
   6   6   3    1.28    0.21 
   7 -13   3    2.31    0.29 
   7 -12   3    1.09    0.21 
   7 -11   3    0.70    0.17 
   7 -10   3    2.04    0.23 
   7  -9   3    6.04    0.36 
   7  -8   3    0.17    0.09 
   7  -7   3   20.21    0.77 
  -7   7  -3   18.15    0.75 
   7  -6   3    0.03    0.08 
  -7   6  -3    0.07    0.07 
   7  -5   3    9.60    0.44 
  -7   5  -3   10.20    0.45 
   7  -4   3    0.44    0.10 
  -7   4  -3    0.50    0.10 
   7  -3   3   -0.02    0.07 
  -7   3  -3    0.12    0.08 
   7  -2   3   12.96    0.54 
  -7   2  -3   13.04    0.57 
   7  -1   3    0.53    0.11 
  -7   1  -3    0.45    0.10 
   7   0   3    1.31    0.16 
  -7   0  -3    1.35    0.17 
   7   1   3    0.09    0.09 
  -7  -1  -3    0.01    0.08 
   7   2   3    0.13    0.09 
  -7  -2  -3    0.18    0.09 
   7   3   3    1.21    0.18 
  -7  -3  -3    1.56    0.20 
   7   4   3    1.49    0.21 
  -7  -4  -3    1.57    0.21 
   7   5   3    0.43    0.15 
   8 -13   3    0.23    0.16 
   8 -12   3    0.10    0.13 
   8 -10   3    0.00    0.10 
   8  -9   3   -0.01    0.09 
   8  -8   3    0.56    0.13 
  -8   8  -3    0.66    0.12 
   8  -7   3    0.01    0.07 
  -8   7  -3    0.02    0.07 
   8  -6   3    1.30    0.15 
  -8   6  -3    1.59    0.17 
   8  -5   3    1.07    0.14 
  -8   5  -3    1.11    0.15 
   8  -4   3   10.68    0.48 
  -8   4  -3   11.56    0.52 
   8  -3   3    0.10    0.08 
  -8   3  -3    0.11    0.09 
   8  -2   3    7.46    0.38 
  -8   2  -3    8.19    0.41 
   8  -1   3    6.80    0.36 
  -8   1  -3    6.50    0.37 
   8   0   3    0.09    0.08 
  -8   0  -3    0.26    0.11 
   8   1   3    2.42    0.23 
  -8  -1  -3    2.76    0.24 
   8   2   3    0.73    0.15 
  -8  -2  -3    0.88    0.16 
   8   3   3    0.02    0.10 
  -8  -3  -3   -0.01    0.09 
   8   4   3    0.33    0.14 
  -8  -4  -3    0.30    0.14 
   9 -12   3   -0.03    0.12 
   9 -11   3    0.20    0.13 
   9 -10   3    0.96    0.17 
   9  -9   3    0.47    0.13 
   9  -8   3    2.78    0.23 
  -9   8  -3    2.67    0.22 
   9  -7   3    3.14    0.24 
  -9   7  -3    3.19    0.24 
   9  -6   3    0.01    0.08 
  -9   6  -3   -0.08    0.07 
   9  -5   3    9.02    0.43 
  -9   5  -3    9.11    0.45 
   9  -4   3   11.83    0.53 
  -9   4  -3   12.08    0.56 
   9  -3   3   -0.01    0.09 
  -9   3  -3    0.03    0.09 
   9  -2   3    4.24    0.29 
  -9   2  -3    4.56    0.30 
   9  -1   3    4.53    0.29 
  -9   1  -3    4.29    0.30 
   9   0   3    0.19    0.10 
  -9   0  -3    0.11    0.11 
   9   1   3    2.14    0.23 
  -9  -1  -3    2.40    0.25 
   9   2   3    1.41    0.21 
  -9  -2  -3    1.79    0.23 
   9   3   3    1.10    0.20 
  -9  -3  -3    0.72    0.17 
  10 -12   3    0.34    0.15 
  10 -11   3    0.06    0.12 
  10 -10   3    2.41    0.25 
  10  -9   3    2.34    0.24 
  10  -8   3   -0.02    0.09 
 -10   8  -3    0.03    0.09 
  10  -7   3    2.66    0.23 
 -10   7  -3    2.08    0.23 
  10  -6   3    0.98    0.16 
 -10   6  -3    1.20    0.18 
  10  -5   3    0.41    0.12 
 -10   5  -3    0.36    0.12 
  10  -4   3    2.13    0.22 
 -10   4  -3    1.91    0.22 
  10  -3   3    0.54    0.13 
 -10   3  -3    0.35    0.13 
  10  -2   3    0.26    0.11 
 -10   2  -3    0.07    0.11 
  10  -1   3    0.97    0.16 
 -10   1  -3    0.70    0.17 
  10   0   3    0.73    0.16 
 -10   0  -3    0.63    0.16 
  10   1   3    0.29    0.14 
 -10  -1  -3    0.28    0.14 
  11 -11   3   -0.02    0.12 
  11 -10   3    0.98    0.18 
  11  -9   3    0.30    0.12 
  11  -8   3    0.45    0.14 
 -11   8  -3    0.15    0.11 
  11  -7   3    3.04    0.26 
 -11   7  -3    3.16    0.28 
  11  -6   3    2.40    0.24 
 -11   6  -3    2.85    0.26 
  11  -5   3   -0.06    0.09 
 -11   5  -3    0.05    0.10 
  11  -4   3    0.96    0.17 
 -11   4  -3    0.87    0.17 
  11  -3   3    1.67    0.21 
 -11   3  -3    1.47    0.22 
  11  -2   3    0.33    0.13 
 -11   2  -3    0.19    0.11 
  11  -1   3    0.83    0.17 
 -11   1  -3    0.86    0.19 
  12 -10   3   -0.11    0.11 
  12  -9   3    0.21    0.12 
  12  -8   3    0.44    0.14 
 -12   8  -3    0.08    0.12 
  12  -7   3    0.18    0.12 
 -12   7  -3    0.20    0.13 
  12  -6   3    1.29    0.19 
 -12   6  -3    1.73    0.24 
  12  -5   3    0.12    0.12 
 -12   5  -3    0.22    0.14 
  12  -4   3   -0.08    0.11 
 -12   4  -3    0.03    0.10 
  12  -3   3    0.36    0.13 
 -13   4   4    0.54    0.17 
 -13   5   4    0.40    0.16 
 -13   6   4    0.03    0.13 
 -13   7   4    0.65    0.18 
 -13   8   4   -0.22    0.11 
 -12   0   4    0.05    0.11 
 -12   1   4    1.13    0.21 
 -12   2   4    0.70    0.18 
 -12   3   4    0.20    0.13 
 -12   4   4    0.04    0.10 
 -12   5   4    0.15    0.13 
 -12   6   4   -0.13    0.11 
 -12   7   4    0.03    0.12 
 -12   8   4    0.09    0.12 
 -12   9   4    0.04    0.12 
 -12  10   4    1.01    0.21 
 -11  -2   4    0.07    0.12 
 -11  -1   4    0.46    0.15 
 -11   0   4    1.25    0.21 
 -11   1   4    0.04    0.11 
 -11   2   4   -0.09    0.09 
 -11   3   4    0.91    0.17 
 -11   4   4    3.05    0.28 
 -11   5   4   -0.15    0.08 
 -11   6   4    2.26    0.26 
 -11   7   4    3.34    0.30 
 -11   8   4    0.96    0.18 
 -11   9   4    0.78    0.18 
 -10  -2   4    0.81    0.17 
 -10  -1   4    0.09    0.11 
 -10   0   4    1.86    0.22 
 -10   1   4    3.45    0.28 
 -10   2   4    2.74    0.24 
 -10   3   4    0.06    0.09 
 -10   4   4    5.57    0.36 
 -10   5   4    0.10    0.10 
 -10   6   4    4.13    0.30 
 -10   7   4    4.79    0.33 
 -10   8   4    1.89    0.22 
 -10   9   4    0.37    0.13 
  -9  -3   4    0.40    0.12 
  -9  -2   4    3.75    0.28 
  -9  -1   4    1.43    0.19 
  -9   0   4    0.22    0.10 
  -9   1   4    2.44    0.21 
  -9   2   4    0.11    0.09 
  -9   3   4    1.89    0.21 
  -9   4   4   13.22    0.61 
  -9   5   4   15.81    0.71 
  -9   6   4    0.32    0.11 
  -9   7   4    3.72    0.27 
  -9   8   4    2.65    0.24 
  -9   9   4    0.20    0.11 
  -8  -3   4    0.33    0.11 
  -8  -2   4    0.35    0.11 
  -8  -1   4    4.70    0.29 
  -8   0   4    0.25    0.10 
  -8   1   4   11.99    0.54 
  -8   2   4   26.20    1.03 
  -8   3   4    1.15    0.15 
  -8   4   4    5.72    0.33 
  -8   5   4   13.73    0.61 
  -8   6   4    3.94    0.27 
  -8   7   4    0.82    0.14 
   8  -7  -4    0.90    0.12 
  -8   8   4    6.62    0.39 
   8  -8  -4    7.36    0.37 
  -8   9   4    2.16    0.23 
  -7  -7   4   -0.08    0.09 
  -7  -6   4    0.44    0.13 
  -7  -5   4   -0.03    0.07 
  -7  -4   4    0.74    0.13 
   7   4  -4    0.69    0.12 
  -7  -3   4    2.18    0.18 
  -7  -3   4    2.23    0.19 
   7   3  -4    2.18    0.18 
  -7  -2   4    0.81    0.13 
  -7  -2   4    0.69    0.10 
   7   2  -4    0.73    0.10 
  -7  -1   4    4.54    0.26 
  -7  -1   4    4.16    0.22 
   7   1  -4    4.00    0.22 
  -7   0   4    1.32    0.15 
  -7   0   4    1.11    0.11 
   7   0  -4    1.28    0.11 
  -7   1   4    3.67    0.19 
  -7   1   4    3.63    0.24 
   7  -1  -4    3.79    0.18 
  -7   2   4    1.57    0.11 
  -7   2   4    1.28    0.15 
   7  -2  -4    1.52    0.10 
  -7   3   4    6.97    0.29 
   7  -3  -4    7.25    0.28 
  -7   4   4    0.21    0.06 
  -7   4   4    0.17    0.08 
   7  -4  -4    0.29    0.06 
  -7   5   4    7.65    0.32 
  -7   5   4    7.19    0.37 
   7  -5  -4    7.52    0.32 
  -7   6   4    2.82    0.22 
   7  -6  -4    2.61    0.19 
  -7   7   4    5.86    0.34 
   7  -7  -4    6.20    0.32 
  -7   8   4   10.73    0.51 
   7  -8  -4   10.26    0.48 
   7 -10  -4    0.43    0.12 
   7 -11  -4   -0.05    0.08 
   7 -12  -4    0.81    0.17 
  -6  -8   4    0.76    0.16 
  -6  -7   4    0.08    0.10 
   6   7  -4    0.05    0.10 
  -6  -6   4    0.73    0.15 
   6   6  -4    0.70    0.14 
  -6  -5   4    1.21    0.16 
   6   5  -4    1.50    0.18 
  -6  -4   4    0.95    0.13 
  -6  -4   4    1.00    0.13 
   6   4  -4    0.91    0.13 
  -6  -3   4    0.34    0.08 
  -6  -3   4    0.29    0.08 
   6   3  -4    0.45    0.09 
  -6  -2   4    5.79    0.30 
  -6  -2   4    5.79    0.28 
   6   2  -4    5.31    0.27 
  -6  -1   4   10.59    0.47 
  -6  -1   4   10.81    0.43 
   6   1  -4   10.97    0.42 
  -6   0   4   55.38    1.97 
  -6   0   4   55.23    1.85 
   6   0  -4   54.76    1.85 
  -6   1   4    3.07    0.20 
  -6   1   4    3.23    0.16 
   6  -1  -4    3.04    0.14 
  -6   2   4    3.32    0.16 
  -6   2   4    2.45    0.18 
   6  -2  -4    3.16    0.14 
  -6   3   4    3.11    0.16 
  -6   3   4    3.20    0.20 
   6  -3  -4    3.00    0.15 
  -6   4   4    0.45    0.07 
  -6   4   4    0.42    0.09 
   6  -4  -4    0.32    0.06 
  -6   5   4    0.17    0.06 
  -6   5   4    0.14    0.07 
   6  -5  -4    0.18    0.06 
  -6   6   4   13.71    0.59 
  -6   7   4   23.41    0.94 
   6  -9  -4    0.04    0.11 
   6 -10  -4    0.81    0.15 
   6 -11  -4    0.22    0.12 
   6 -12  -4    0.49    0.15 
   5   9  -4   -0.02    0.12 
  -5  -8   4    2.03    0.23 
   5   8  -4    2.09    0.25 
  -5  -7   4    0.00    0.09 
   5   7  -4    0.08    0.10 
  -5  -6   4    1.68    0.19 
   5   6  -4    1.69    0.19 
  -5  -5   4    2.11    0.19 
   5   5  -4    2.31    0.19 
  -5  -4   4    0.34    0.08 
  -5  -4   4    0.39    0.09 
   5   4  -4    0.32    0.08 
  -5  -3   4    2.99    0.19 
  -5  -3   4    3.11    0.20 
   5   3  -4    2.77    0.18 
  -5  -2   4    2.67    0.17 
  -5  -2   4    2.59    0.16 
   5   2  -4    2.43    0.15 
  -5  -1   4    1.86    0.14 
  -5  -1   4    2.01    0.13 
   5   1  -4    1.95    0.12 
  -5   0   4    4.04    0.19 
  -5   0   4    3.89    0.22 
   5   0  -4    4.18    0.17 
  -5   1   4    1.72    0.11 
  -5   1   4    2.01    0.15 
   5  -1  -4    1.84    0.09 
  -5   2   4    3.18    0.16 
   5  -2  -4    3.07    0.13 
  -5   3   4    9.39    0.41 
  -5   3   4    9.59    0.37 
   5  -3  -4    9.30    0.35 
  -5   4   4   18.33    0.73 
  -5   4   4   19.65    0.68 
   5  -4  -4   18.20    0.67 
  -5   5   4    8.42    0.39 
  -5   5   4    8.24    0.35 
  -5   6   4    8.20    0.40 
   5  -7  -4   17.49    0.78 
   5  -8  -4   -0.16    0.09 
   5  -9  -4    0.15    0.09 
   5 -10  -4    0.71    0.15 
   5 -11  -4    1.36    0.20 
   5 -12  -4    0.07    0.12 
  -4  -9   4    0.04    0.10 
   4   9  -4    0.05    0.11 
  -4  -8   4    3.71    0.28 
   4   8  -4    4.33    0.32 
  -4  -7   4    5.19    0.32 
   4   7  -4    5.59    0.34 
  -4  -6   4   -0.02    0.08 
   4   6  -4    0.06    0.07 
  -4  -5   4    0.99    0.13 
   4   5  -4    0.90    0.12 
  -4  -4   4   16.28    0.64 
  -4  -4   4   16.53    0.65 
   4   4  -4   17.46    0.65 
  -4  -3   4    4.43    0.23 
  -4  -3   4    4.06    0.21 
   4   3  -4    4.19    0.22 
  -4  -2   4    6.33    0.28 
  -4  -2   4    6.38    0.28 
   4   2  -4    6.22    0.26 
  -4  -1   4   22.59    0.80 
  -4  -1   4   23.03    0.84 
   4   1  -4   22.35    0.78 
  -4   0   4    0.89    0.10 
  -4   0   4    1.06    0.09 
   4   0  -4    1.07    0.06 
  -4   1   4   10.79    0.43 
  -4   1   4   10.08    0.39 
   4  -1  -4   10.24    0.35 
  -4   2   4   23.65    0.82 
   4  -2  -4   23.42    0.79 
  -4   3   4    0.46    0.06 
  -4   3   4    0.36    0.07 
  -4   4   4    3.25    0.20 
  -4   4   4    3.54    0.18 
  -4   5   4   47.49    1.71 
  -4   5   4   46.98    1.61 
   4  -6  -4    0.02    0.09 
   4  -7  -4    9.61    0.49 
   4  -8  -4    0.35    0.12 
   4  -9  -4    0.09    0.09 
   4 -10  -4    0.01    0.08 
   4 -11  -4    2.86    0.29 
  -3 -10   4    0.37    0.14 
  -3  -9   4    0.13    0.11 
  -3  -8   4    0.71    0.15 
   3   8  -4    0.47    0.14 
  -3  -7   4    6.68    0.36 
   3   7  -4    6.98    0.38 
  -3  -6   4    0.00    0.06 
   3   6  -4   -0.10    0.06 
  -3  -5   4    4.63    0.26 
   3   5  -4    4.56    0.25 
  -3  -4   4    0.89    0.11 
  -3  -4   4    0.76    0.08 
   3   4  -4    0.60    0.09 
  -3  -3   4    0.72    0.08 
  -3  -3   4    0.51    0.08 
   3   3  -4    0.81    0.08 
  -3  -2   4   18.15    0.65 
  -3  -2   4   18.03    0.66 
   3   2  -4   17.33    0.63 
  -3  -1   4   27.63    1.00 
  -3  -1   4   27.69    0.95 
   3   1  -4   27.72    0.93 
  -3   0   4    0.02    0.03 
  -3   0   4    0.01    0.03 
  -3   2   4   20.82    0.70 
  -3   2   4   19.11    0.75 
  -3   3   4   18.38    0.66 
  -3   3   4   18.24    0.70 
  -3   4   4    8.38    0.34 
  -3   4   4    8.12    0.34 
  -3   5   4   25.16    0.91 
   3  -5  -4   25.14    0.99 
  -3   6   4    2.13    0.18 
   3  -6  -4    1.99    0.21 
  -3   7   4    0.35    0.10 
   3  -7  -4    0.61    0.13 
  -3   8   4    0.12    0.09 
   3  -8  -4    0.20    0.09 
   3  -8  -4    0.08    0.09 
   3  -9  -4    6.52    0.38 
   3 -10  -4    3.08    0.27 
   3 -11  -4    0.42    0.15 
  -2 -10   4    1.89    0.23 
  -2  -9   4    5.18    0.33 
  -2  -8   4    0.63    0.13 
  -2  -7   4    1.65    0.18 
   2   7  -4    1.77    0.19 
  -2  -6   4    6.51    0.33 
   2   6  -4    7.17    0.35 
  -2  -5   4    1.04    0.13 
   2   5  -4    0.89    0.11 
  -2  -4   4    3.70    0.20 
  -2  -4   4    3.42    0.16 
   2   4  -4    3.56    0.19 
  -2  -3   4   24.00    0.87 
  -2  -3   4   25.23    0.87 
   2   3  -4   24.28    0.86 
  -2  -2   4   88.00    3.03 
  -2  -2   4   88.63    2.91 
  -2  -1   4   12.72    0.46 
  -2   1   4   19.56    0.65 
  -2   2   4    3.14    0.15 
  -2   2   4    3.05    0.14 
  -2   3   4    0.24    0.05 
   2  -3  -4    0.35    0.08 
  -2   4   4   20.51    0.73 
  -2   4   4   19.52    0.72 
   2  -4  -4   20.16    0.80 
  -2   5   4    2.90    0.18 
   2  -5  -4    2.94    0.22 
  -2   6   4   18.72    0.72 
   2  -6  -4   18.53    0.78 
  -2   7   4    5.39    0.31 
   2  -7  -4    5.88    0.34 
  -2   8   4    0.11    0.09 
   2  -8  -4    0.13    0.11 
   2  -8  -4    0.15    0.10 
  -2   9   4   10.75    0.52 
   2  -9  -4    9.80    0.51 
  -2  10   4    5.51    0.37 
   2 -10  -4    5.20    0.36 
   2 -11  -4    0.10    0.13 
  -1 -11   4    0.26    0.13 
  -1 -10   4    0.09    0.09 
  -1  -9   4    3.26    0.24 
  -1  -8   4    5.00    0.30 
  -1  -7   4    0.56    0.11 
  -1  -5   4    1.32    0.13 
  -1  -4   4    2.90    0.17 
  -1  -4   4    3.73    0.14 
  -1  -3   4    0.43    0.06 
  -1  -3   4    0.67    0.06 
  -1  -2   4   35.10    1.22 
  -1  -1   4    1.31    0.07 
  -1  -1   4    1.23    0.09 
  -1   0   4    3.72    0.14 
   1   0  -4    3.46    0.19 
  -1   2   4   17.75    0.61 
   1  -2  -4   16.86    0.68 
  -1   3   4   33.88    1.15 
   1  -3  -4   32.90    1.24 
  -1   4   4   37.08    1.30 
   1  -4  -4   37.61    1.39 
  -1   5   4    0.85    0.11 
   1  -5  -4    1.14    0.14 
  -1   6   4   29.09    1.06 
   1  -6  -4   28.35    1.11 
  -1   7   4   15.11    0.66 
   1  -7  -4   16.25    0.69 
   1  -7  -4   16.53    0.69 
  -1   8   4    0.66    0.13 
   1  -8  -4    0.45    0.12 
  -1   9   4    6.50    0.39 
   1  -9  -4    6.15    0.38 
  -1  10   4    0.72    0.17 
   1 -10  -4    0.92    0.19 
   0 -11   4    1.72    0.22 
   0 -10   4    0.88    0.16 
   0  -9   4    0.02    0.07 
   0  -8   4    1.36    0.16 
   0  -7   4    0.78    0.12 
   0  -6   4    1.42    0.14 
   0  -5   4   48.12    1.64 
   0  -4   4   13.88    0.52 
   0  -3   4    0.01    0.03 
   0   3  -4    0.08    0.03 
   0  -2   4    3.94    0.17 
   0  -2   4    3.86    0.17 
   0   2  -4    4.06    0.19 
   0  -1   4   12.29    0.44 
   0  -1   4   12.06    0.43 
   0   1  -4   11.97    0.48 
   0   0   4   37.93    1.26 
   0   0   4   37.26    1.26 
   0   1   4   18.24    0.63 
   0   1   4   18.15    0.64 
   0   2   4   33.83    1.15 
   0   2   4   32.46    1.14 
   0  -2  -4   34.16    1.24 
   0   3   4    1.03    0.10 
   0  -3  -4    1.17    0.13 
   0   4   4   24.26    0.89 
   0  -4  -4   25.03    0.96 
   0   5   4    1.34    0.15 
   0  -5  -4    1.57    0.17 
   0   6   4    1.70    0.18 
   0  -6  -4    2.04    0.19 
   0  -6  -4    2.28    0.19 
   0   7   4    3.86    0.27 
   0  -7  -4    3.85    0.27 
   0  -7  -4    4.48    0.28 
   0   8   4   -0.11    0.07 
   0  -8  -4   -0.03    0.08 
   0   9   4    0.35    0.13 
   0  -9  -4    0.51    0.15 
   0  10   4    0.17    0.12 
   0 -10  -4   -0.14    0.09 
   1 -12   4    0.04    0.11 
   1 -11   4    1.16    0.17 
   1 -10   4    1.09    0.16 
   1  -9   4    0.49    0.11 
   1  -8   4   18.43    0.73 
   1  -7   4   19.07    0.73 
   1  -6   4    0.12    0.06 
   1  -5   4    3.18    0.17 
   1  -4   4   13.02    0.48 
  -1   4  -4   12.98    0.46 
   1  -3   4   37.72    1.26 
  -1   3  -4   37.79    1.31 
   1  -2   4   80.91    2.60 
   1  -2   4   75.87    2.63 
  -1   2  -4   81.32    2.74 
   1  -1   4   60.07    1.96 
   1  -1   4   59.11    1.98 
   1   0   4    0.88    0.07 
  -1   0  -4    0.75    0.09 
   1   1   4   34.18    1.16 
   1   1   4   33.34    1.14 
   1   2   4    9.03    0.37 
  -1  -2  -4    9.43    0.41 
   1   3   4   28.97    1.04 
  -1  -3  -4   29.31    1.09 
   1   4   4    4.77    0.25 
  -1  -4  -4    4.48    0.26 
   1   5   4    1.28    0.15 
  -1  -5  -4    1.05    0.14 
   1   6   4   -0.06    0.06 
  -1  -6  -4    0.07    0.07 
  -1  -6  -4   -0.14    0.07 
   1   7   4    3.75    0.27 
  -1  -7  -4    3.47    0.26 
  -1  -7  -4    2.78    0.23 
   1   8   4    0.16    0.11 
  -1  -8  -4    0.17    0.11 
   1   9   4   -0.03    0.10 
  -1  -9  -4   -0.20    0.08 
   2 -12   4   -0.07    0.09 
   2 -11   4    0.25    0.10 
   2 -10   4    0.36    0.10 
   2  -9   4    2.34    0.20 
   2  -8   4    9.44    0.42 
   2  -7   4   16.79    0.64 
   2  -6   4   20.87    0.76 
   2  -5   4    3.57    0.18 
   2  -5   4    3.61    0.21 
  -2   5  -4    3.72    0.15 
   2  -4   4    9.29    0.38 
   2  -4   4    9.21    0.35 
  -2   4  -4    9.52    0.35 
   2  -3   4   55.13    1.78 
   2  -3   4   53.20    1.82 
  -2   3  -4   53.30    1.87 
   2  -2   4  105.54    3.44 
   2  -2   4  105.80    3.50 
   2  -1   4   32.06    1.10 
   2  -1   4   32.09    1.08 
  -2   1  -4   32.45    1.16 
   2   0   4   96.52    3.18 
   2   0   4   98.62    3.23 
  -2   0  -4   96.70    3.37 
   2   1   4    0.60    0.08 
  -2  -1  -4    0.62    0.09 
   2   2   4    0.85    0.10 
  -2  -2  -4    0.93    0.11 
   2   3   4    0.18    0.06 
  -2  -3  -4    0.21    0.08 
   2   4   4    5.03    0.27 
  -2  -4  -4    4.67    0.27 
   2   5   4    0.00    0.07 
  -2  -5  -4    0.10    0.08 
  -2  -5  -4    0.16    0.08 
   2   6   4    2.92    0.24 
  -2  -6  -4    2.70    0.21 
  -2  -6  -4    2.69    0.23 
   2   7   4    1.16    0.18 
  -2  -7  -4    1.26    0.19 
  -2  -7  -4    1.52    0.18 
   2   8   4    0.14    0.11 
  -2  -8  -4   -0.08    0.10 
   2   9   4    0.59    0.16 
  -2  -9  -4    0.38    0.15 
   3 -13   4    0.28    0.13 
   3 -12   4    0.59    0.14 
   3 -11   4   -0.07    0.06 
   3 -10   4    0.32    0.11 
   3  -9   4    9.80    0.44 
   3  -8   4   33.10    1.18 
   3  -7   4    2.39    0.16 
   3  -6   4   33.50    1.16 
   3  -6   4   33.80    1.21 
  -3   6  -4   33.65    1.17 
   3  -5   4    8.44    0.37 
   3  -5   4    8.80    0.33 
  -3   5  -4    8.42    0.33 
   3  -4   4    6.01    0.28 
   3  -4   4    6.32    0.24 
   3  -3   4  329.14   10.49 
   3  -3   4  322.04   10.63 
  -3   3  -4  321.59   11.09 
   3  -2   4   93.08    3.11 
   3  -2   4   96.01    3.18 
  -3   2  -4   98.08    3.31 
   3  -1   4   20.66    0.76 
   3  -1   4   20.83    0.72 
  -3   1  -4   21.69    0.79 
  -3   0  -4    3.01    0.17 
   3   1   4    0.40    0.07 
  -3  -1  -4    0.30    0.08 
   3   2   4    0.08    0.05 
  -3  -2  -4    0.05    0.06 
   3   3   4    5.45    0.29 
  -3  -3  -4    5.53    0.29 
  -3  -3  -4    4.75    0.27 
   3   4   4   23.70    0.92 
  -3  -4  -4   23.81    0.94 
  -3  -4  -4   24.89    0.92 
   3   5   4    0.06    0.08 
  -3  -5  -4    0.07    0.08 
  -3  -5  -4   -0.01    0.07 
   3   6   4    5.74    0.36 
  -3  -6  -4    5.65    0.33 
  -3  -6  -4    5.94    0.35 
   3   7   4    0.32    0.13 
  -3  -7  -4    0.56    0.15 
   3   8   4    0.05    0.12 
  -3  -8  -4   -0.02    0.10 
   4 -13   4    0.20    0.12 
   4 -12   4    1.64    0.20 
   4 -11   4    4.69    0.29 
   4 -10   4    5.33    0.30 
   4  -9   4   16.37    0.64 
   4  -8   4   54.19    1.84 
   4  -8   4   54.06    1.92 
   4  -7   4    5.77    0.26 
   4  -7   4    5.19    0.31 
   4  -5   4    9.46    0.36 
   4  -5   4   10.00    0.42 
  -4   5  -4    9.59    0.39 
   4  -4   4   32.18    1.13 
   4  -4   4   31.75    1.06 
  -4   4  -4   31.38    1.14 
   4  -3   4    1.30    0.12 
   4  -3   4    1.27    0.07 
  -4   3  -4    1.28    0.11 
   4  -2   4   24.22    0.80 
   4  -2   4   22.26    0.85 
  -4   2  -4   24.89    0.89 
   4  -1   4    1.22    0.12 
  -4   1  -4    1.66    0.13 
   4   0   4    0.04    0.03 
  -4   0  -4   -0.01    0.02 
  -4  -1  -4    0.44    0.09 
   4   2   4    0.11    0.06 
  -4  -2  -4    0.03    0.06 
  -4  -2  -4    0.02    0.07 
   4   3   4    0.08    0.08 
  -4  -3  -4    0.11    0.09 
  -4  -3  -4    0.11    0.07 
   4   4   4    0.14    0.08 
  -4  -4  -4    0.39    0.10 
  -4  -4  -4    0.17    0.09 
   4   5   4    1.30    0.18 
  -4  -5  -4    1.50    0.18 
  -4  -5  -4    1.17    0.17 
   4   6   4    0.83    0.17 
  -4  -6  -4    1.12    0.17 
  -4  -6  -4    0.96    0.17 
   4   7   4    1.84    0.25 
  -4  -7  -4    1.77    0.22 
  -4  -8  -4    0.11    0.12 
   5 -13   4   -0.04    0.13 
   5 -12   4    3.52    0.34 
   5 -11   4    2.75    0.28 
   5 -11   4    2.69    0.21 
   5 -10   4    1.59    0.16 
   5 -10   4    1.37    0.20 
   5  -9   4   11.11    0.46 
   5  -9   4   10.79    0.53 
   5  -8   4   27.21    1.04 
   5  -8   4   26.73    0.95 
   5  -7   4    1.90    0.19 
   5  -7   4    1.76    0.14 
   5  -6   4   31.21    1.08 
  -5   6  -4   32.67    1.15 
   5  -5   4   25.56    0.86 
  -5   5  -4   25.62    0.94 
  -5   4  -4    0.39    0.08 
  -5   3  -4    0.41    0.08 
  -5   2  -4    0.38    0.08 
  -5   0  -4    1.69    0.17 
   5   1   4   10.01    0.44 
  -5  -1  -4    9.84    0.46 
  -5  -1  -4    9.67    0.40 
   5   2   4   20.26    0.78 
  -5  -2  -4   19.21    0.74 
  -5  -2  -4   19.47    0.80 
   5   3   4    0.33    0.11 
  -5  -3  -4    0.36    0.09 
  -5  -3  -4    0.33    0.11 
   5   4   4    1.38    0.18 
  -5  -4  -4    1.11    0.16 
  -5  -4  -4    1.31    0.17 
   5   5   4    0.56    0.14 
  -5  -5  -4    0.53    0.13 
  -5  -5  -4    0.46    0.13 
   5   6   4   -0.02    0.11 
  -5  -6  -4    0.13    0.12 
  -5  -7  -4    0.35    0.14 
   6 -13   4    0.43    0.17 
   6 -12   4    0.43    0.16 
   6 -11   4    0.89    0.18 
   6 -10   4    0.03    0.11 
   6  -9   4    3.20    0.26 
   6  -8   4    1.88    0.20 
   6  -7   4    0.54    0.12 
  -6   7  -4    0.55    0.09 
   6  -6   4   13.94    0.58 
  -6   6  -4   13.95    0.56 
   6  -5   4    8.95    0.41 
  -6   5  -4    8.79    0.39 
   6  -4   4    4.31    0.25 
  -6   4  -4    4.42    0.25 
   6  -3   4    2.13    0.17 
  -6   3  -4    2.07    0.17 
   6  -2   4    1.23    0.13 
  -6   2  -4    1.26    0.15 
   6  -1   4   11.47    0.49 
  -6   1  -4   11.07    0.50 
   6   0   4    1.47    0.16 
  -6   0  -4    1.63    0.18 
   6   1   4    0.65    0.12 
  -6  -1  -4    0.97    0.15 
   6   2   4    1.18    0.16 
  -6  -2  -4    0.98    0.16 
   6   3   4    0.45    0.12 
  -6  -3  -4    0.52    0.13 
   6   4   4   -0.06    0.08 
  -6  -4  -4   -0.04    0.09 
   6   5   4    1.35    0.20 
  -6  -5  -4    1.33    0.20 
   7 -13   4    0.31    0.16 
   7 -12   4    0.01    0.13 
   7 -11   4    0.26    0.12 
   7 -10   4    0.96    0.17 
   7  -9   4    3.10    0.26 
   7  -8   4    2.71    0.23 
   7  -7   4    1.68    0.18 
  -7   7  -4    2.07    0.17 
   7  -6   4   12.70    0.55 
  -7   6  -4   12.88    0.55 
   7  -5   4    1.22    0.15 
   7  -4   4    1.50    0.16 
  -7   4  -4    1.49    0.16 
   7  -3   4    8.03    0.38 
  -7   3  -4    7.66    0.39 
   7  -2   4   15.80    0.65 
  -7   2  -4   15.85    0.68 
   7  -1   4    1.17    0.15 
  -7   1  -4    1.18    0.16 
   7   0   4    9.87    0.47 
  -7   0  -4   10.97    0.51 
   7   1   4    0.30    0.11 
  -7  -1  -4    0.13    0.09 
   7   2   4    1.28    0.18 
  -7  -2  -4    1.61    0.20 
   7   3   4    0.88    0.16 
  -7  -3  -4    0.46    0.14 
   7   4   4    0.21    0.12 
  -7  -4  -4    0.40    0.14 
  -7  -5  -4    0.05    0.12 
   8 -12   4    0.04    0.13 
   8 -11   4    0.03    0.11 
   8 -10   4   -0.14    0.09 
   8  -9   4    0.84    0.16 
   8  -8   4    5.43    0.33 
   8  -7   4    0.40    0.11 
  -8   7  -4    0.45    0.11 
   8  -6   4   13.83    0.59 
  -8   6  -4   13.57    0.59 
   8  -5   4    0.76    0.13 
  -8   5  -4    0.73    0.13 
   8  -4   4    2.24    0.20 
  -8   4  -4    2.06    0.19 
   8  -3   4    3.84    0.26 
  -8   3  -4    4.42    0.28 
   8  -2   4    5.24    0.31 
  -8   2  -4    4.89    0.31 
   8  -1   4    2.43    0.22 
  -8   1  -4    2.47    0.23 
   8   0   4    0.19    0.10 
  -8   0  -4    0.29    0.11 
   8   1   4    1.34    0.19 
  -8  -1  -4    1.64    0.21 
   8   2   4    0.20    0.12 
  -8  -2  -4    0.21    0.12 
   8   3   4    0.46    0.14 
  -8  -3  -4    0.55    0.15 
  -8  -4  -4    0.79    0.17 
   9 -12   4    1.17    0.21 
   9 -11   4    1.91    0.25 
   9 -10   4    0.12    0.12 
   9  -9   4    0.20    0.11 
   9  -8   4    4.14    0.29 
   9  -7   4    1.75    0.20 
  -9   7  -4    2.10    0.21 
   9  -6   4    2.12    0.21 
  -9   6  -4    1.55    0.18 
   9  -5   4    3.10    0.24 
  -9   5  -4    3.23    0.25 
   9  -4   4    4.05    0.28 
  -9   4  -4    4.47    0.30 
   9  -3   4    0.11    0.10 
  -9   3  -4    0.10    0.09 
   9  -2   4    4.00    0.28 
  -9   2  -4    3.31    0.27 
   9  -1   4    0.41    0.12 
  -9   1  -4    0.39    0.13 
   9   0   4    0.94    0.17 
  -9   0  -4    1.00    0.18 
   9   1   4    1.14    0.19 
  -9  -1  -4    1.24    0.20 
   9   2   4    0.42    0.15 
  -9  -2  -4    0.40    0.14 
  10 -11   4    0.75    0.17 
  10 -10   4    0.44    0.14 
  10  -9   4    0.24    0.12 
  10  -8   4    1.42    0.19 
 -10   8  -4    1.45    0.19 
  10  -7   4    3.67    0.28 
 -10   7  -4    3.52    0.27 
  10  -6   4   -0.01    0.09 
 -10   6  -4    0.04    0.09 
  10  -5   4    1.71    0.20 
 -10   5  -4    1.67    0.21 
  10  -4   4    1.51    0.19 
 -10   4  -4    1.92    0.23 
  10  -3   4    1.18    0.18 
 -10   3  -4    0.85    0.17 
  10  -2   4    0.46    0.14 
 -10   2  -4    0.52    0.15 
  10  -1   4    1.81    0.22 
 -10   1  -4    1.84    0.24 
  10   0   4    0.09    0.12 
 -10   0  -4    0.21    0.13 
  11 -11   4   -0.25    0.10 
  11 -10   4    0.40    0.14 
  11  -9   4    0.60    0.14 
  11  -8   4    0.72    0.16 
 -11   8  -4    0.90    0.17 
  11  -7   4    3.86    0.30 
 -11   7  -4    4.44    0.32 
  11  -6   4    0.34    0.13 
 -11   6  -4    0.37    0.14 
  11  -5   4    0.69    0.16 
 -11   5  -4    0.76    0.16 
  11  -4   4    1.07    0.19 
 -11   4  -4    1.16    0.20 
  11  -3   4    0.86    0.17 
 -11   3  -4    0.79    0.17 
  11  -2   4    0.07    0.11 
 -11   2  -4    0.11    0.12 
  12  -9   4    0.53    0.16 
  12  -8   4    0.24    0.13 
 -12   8  -4    0.22    0.13 
  12  -7   4    0.58    0.15 
 -12   7  -4    0.75    0.17 
  12  -6   4    0.66    0.16 
 -12   6  -4    0.68    0.17 
  12  -5   4    0.00    0.11 
 -12   5  -4   -0.06    0.10 
  12  -4   4    0.09    0.12 
 -13   4   5    0.01    0.12 
 -13   5   5    0.03    0.12 
 -13   6   5   -0.21    0.11 
 -13   7   5   -0.17    0.12 
 -12   0   5   -0.01    0.12 
 -12   1   5    0.82    0.19 
 -12   2   5    1.04    0.20 
 -12   3   5    0.72    0.17 
 -12   4   5   -0.01    0.11 
 -12   5   5    0.69    0.18 
 -12   6   5    2.44    0.29 
 -12   7   5    0.21    0.14 
 -12   8   5    1.11    0.21 
 -12   9   5    1.25    0.22 
 -12  10   5    0.38    0.17 
 -11  -2   5   -0.09    0.10 
 -11  -1   5    0.08    0.11 
 -11   0   5    1.59    0.23 
 -11   1   5    0.49    0.14 
 -11   2   5    1.14    0.19 
 -11   3   5    3.99    0.31 
 -11   4   5    1.02    0.18 
 -11   5   5    0.89    0.18 
 -11   6   5    2.54    0.28 
 -11   7   5    0.07    0.12 
 -11   8   5    0.64    0.17 
 -11   9   5    0.65    0.17 
 -11  10   5    0.52    0.17 
 -10  -2   5    0.55    0.15 
 -10  -1   5    2.75    0.28 
 -10   0   5    5.48    0.36 
 -10   1   5    1.94    0.23 
 -10   2   5    0.02    0.10 
 -10   3   5    0.51    0.13 
 -10   4   5    4.58    0.33 
 -10   5   5    0.37    0.12 
 -10   6   5    9.06    0.50 
 -10   7   5    5.29    0.35 
 -10   8   5    0.08    0.11 
 -10   9   5    0.85    0.18 
  -9  -2   5    3.47    0.27 
  -9  -1   5    0.24    0.11 
  -9   0   5    5.11    0.33 
  -9   1   5    8.63    0.45 
  -9   2   5    0.37    0.11 
  -9   3   5   15.00    0.68 
  -9   4   5   13.28    0.62 
  -9   5   5    3.45    0.27 
  -9   6   5    3.05    0.24 
  -9   7   5    4.25    0.31 
  -9   8   5   -0.02    0.08 
  -9   9   5    0.03    0.10 
  -8  -5   5    2.20    0.23 
  -8  -4   5    1.10    0.16 
  -8  -3   5    0.30    0.10 
  -8  -3   5    0.27    0.10 
  -8  -2   5    4.31    0.28 
  -8  -2   5    3.76    0.24 
  -8  -1   5    3.47    0.25 
  -8  -1   5    3.54    0.22 
  -8   0   5   -0.09    0.06 
  -8   0   5    0.08    0.06 
  -8   1   5    0.46    0.11 
  -8   1   5    0.62    0.09 
  -8   2   5    1.96    0.14 
  -8   2   5    1.72    0.20 
  -8   3   5    0.08    0.05 
  -8   3   5   -0.02    0.07 
  -8   4   5    3.84    0.21 
  -8   4   5    4.22    0.28 
  -8   5   5   12.46    0.58 
  -8   5   5   13.01    0.51 
  -8   6   5    0.04    0.08 
  -8   7   5    2.38    0.24 
  -8   8   5    0.06    0.10 
  -8   9   5    0.57    0.14 
  -7  -7   5    0.05    0.10 
  -7  -6   5    0.12    0.10 
  -7  -5   5    0.21    0.10 
  -7  -4   5    2.29    0.20 
  -7  -3   5    1.42    0.16 
  -7  -3   5    1.48    0.16 
  -7  -2   5    0.30    0.08 
  -7  -2   5    0.30    0.09 
  -7  -1   5    7.96    0.40 
  -7  -1   5    8.76    0.37 
  -7   0   5    5.65    0.31 
  -7   0   5    5.47    0.26 
  -7   1   5   32.69    1.23 
  -7   1   5   31.86    1.12 
  -7   2   5    8.31    0.40 
  -7   2   5    7.75    0.33 
  -7   3   5   12.24    0.43 
  -7   3   5    9.36    0.48 
  -7   4   5    2.03    0.14 
  -7   4   5    2.20    0.19 
  -7   5   5   15.66    0.69 
  -7   5   5   17.01    0.62 
  -7   6   5    2.38    0.17 
  -7   6   5    2.27    0.21 
  -7   7   5    6.29    0.36 
  -7   8   5    2.64    0.24 
   7  -9  -5    1.65    0.24 
   7 -10  -5    0.28    0.12 
   7 -11  -5    0.31    0.13 
   7 -12  -5    0.09    0.11 
  -6  -8   5    0.25    0.12 
  -6  -7   5    1.99    0.23 
  -6  -6   5    0.87    0.15 
  -6  -5   5   -0.04    0.07 
  -6  -4   5    0.42    0.10 
   6   4  -5    0.39    0.09 
  -6  -3   5    0.31    0.09 
  -6  -3   5    0.49    0.09 
   6   3  -5    0.34    0.08 
  -6  -2   5    0.16    0.07 
  -6  -2   5    0.19    0.07 
   6   2  -5    0.12    0.05 
  -6  -1   5   14.37    0.56 
  -6  -1   5   14.90    0.60 
   6   1  -5   14.45    0.53 
  -6   0   5   37.50    1.37 
  -6   0   5   36.88    1.28 
  -6   1   5    0.95    0.12 
  -6   1   5    0.85    0.10 
  -6   2   5    1.84    0.16 
  -6   2   5    2.85    0.15 
  -6   3   5   14.82    0.55 
   6  -3  -5   14.47    0.51 
  -6   4   5    7.39    0.36 
  -6   4   5    7.19    0.31 
   6  -4  -5    6.91    0.29 
  -6   5   5   17.37    0.73 
  -6   5   5   17.75    0.66 
   6  -5  -5   17.88    0.66 
  -6   6   5   10.02    0.49 
  -6   6   5   10.37    0.44 
  -6   7   5    1.36    0.18 
   6  -8  -5    1.06    0.20 
   6  -9  -5    0.64    0.17 
   6 -10  -5    1.39    0.20 
   6 -11  -5    0.12    0.11 
   6 -12  -5   -0.06    0.10 
  -5  -8   5    1.10    0.18 
   5   8  -5    0.76    0.16 
  -5  -7   5    0.58    0.14 
   5   7  -5    0.80    0.15 
  -5  -6   5    3.27    0.24 
   5   6  -5    3.87    0.26 
  -5  -5   5    1.04    0.14 
   5   5  -5    1.19    0.14 
  -5  -4   5    0.01    0.05 
  -5  -4   5    0.17    0.07 
   5   4  -5    0.04    0.06 
  -5  -3   5    7.14    0.34 
  -5  -3   5    7.69    0.34 
   5   3  -5    7.10    0.32 
  -5  -2   5    2.16    0.15 
  -5  -2   5    2.05    0.15 
   5   2  -5    1.94    0.13 
  -5  -1   5    5.26    0.27 
  -5  -1   5    5.17    0.25 
   5   1  -5    4.90    0.21 
  -5   0   5    5.93    0.27 
  -5   0   5    6.44    0.30 
   5   0  -5    6.22    0.23 
  -5   1   5    1.01    0.10 
  -5   1   5    0.90    0.11 
  -5   2   5    0.94    0.10 
  -5   2   5    0.96    0.11 
   5  -2  -5    1.11    0.06 
  -5   3   5    9.40    0.37 
  -5   3   5    8.54    0.40 
   5  -3  -5    8.87    0.33 
  -5   4   5    4.73    0.23 
  -5   4   5    4.43    0.26 
  -5   5   5   29.15    1.09 
  -5   5   5   27.51    1.01 
  -5   6   5    4.19    0.28 
   5  -7  -5    0.05    0.11 
   5  -8  -5    4.36    0.34 
   5  -9  -5    0.10    0.11 
   5 -10  -5    1.41    0.21 
   5 -11  -5    0.88    0.18 
  -4  -9   5    0.05    0.10 
  -4  -8   5    1.47    0.20 
  -4  -7   5    0.89    0.15 
   4   7  -5    0.78    0.15 
  -4  -6   5    0.26    0.10 
   4   6  -5    0.28    0.09 
  -4  -5   5    0.02    0.06 
   4   5  -5   -0.03    0.05 
  -4  -4   5    0.75    0.10 
  -4  -4   5    0.88    0.12 
   4   4  -5    0.87    0.10 
  -4  -3   5    1.69    0.14 
  -4  -3   5    1.81    0.13 
   4   3  -5    1.47    0.12 
  -4  -2   5   46.27    1.59 
  -4  -2   5   47.51    1.65 
   4   2  -5   45.71    1.57 
  -4  -1   5    0.89    0.10 
  -4  -1   5    0.90    0.10 
   4   1  -5    0.91    0.07 
  -4   0   5   11.53    0.47 
  -4   0   5   11.66    0.44 
  -4   1   5    1.90    0.12 
  -4   1   5    1.93    0.14 
  -4   2   5    1.07    0.09 
   4  -2  -5    1.01    0.06 
  -4   3   5    0.84    0.11 
  -4   3   5    1.03    0.10 
  -4   4   5   10.78    0.47 
  -4   4   5   10.78    0.43 
  -4   5   5   61.46    2.05 
   4  -5  -5   59.12    2.22 
   4  -6  -5   32.13    1.27 
   4  -7  -5    2.93    0.29 
   4  -8  -5   15.72    0.73 
   4  -9  -5    0.33    0.12 
   4 -10  -5    1.80    0.23 
   4 -11  -5    3.52    0.30 
  -3 -10   5    0.64    0.16 
  -3  -9   5    0.04    0.10 
  -3  -8   5    2.70    0.24 
  -3  -7   5    4.63    0.28 
  -3  -6   5    0.11    0.08 
   3   6  -5    0.07    0.07 
  -3  -5   5    5.03    0.28 
   3   5  -5    5.21    0.27 
  -3  -4   5    0.51    0.07 
  -3  -4   5    0.68    0.10 
   3   4  -5    0.35    0.07 
  -3  -3   5    3.96    0.21 
  -3  -3   5    4.18    0.20 
   3   3  -5    3.78    0.19 
  -3  -2   5    2.95    0.16 
  -3  -2   5    2.97    0.17 
  -3  -1   5    5.19    0.24 
  -3  -1   5    5.12    0.23 
  -3   0   5    3.75    0.20 
  -3   0   5    3.89    0.18 
  -3   1   5   27.67    0.97 
  -3   1   5   28.89    1.04 
  -3   2   5   66.79    2.35 
  -3   3   5    1.91    0.13 
  -3   3   5    1.96    0.11 
  -3   3   5    1.93    0.15 
  -3   4   5    9.14    0.38 
  -3   4   5    9.30    0.37 
   3  -4  -5    9.67    0.47 
  -3   5   5   39.69    1.41 
  -3   5   5   41.37    1.42 
   3  -5  -5   41.06    1.55 
  -3   6   5   18.65    0.72 
   3  -6  -5   18.71    0.81 
  -3   7   5   15.29    0.61 
   3  -7  -5   13.60    0.66 
  -3   8   5   24.07    0.96 
   3  -8  -5   24.77    1.02 
   3  -9  -5    1.09    0.18 
   3 -10  -5    1.09    0.19 
   3 -11  -5    2.10    0.27 
  -2 -10   5    1.31    0.19 
  -2  -9   5    3.73    0.28 
  -2  -8   5    0.06    0.08 
  -2  -7   5    6.96    0.36 
  -2  -6   5    7.06    0.35 
  -2  -5   5    0.02    0.02 
  -2  -4   5    0.41    0.08 
  -2  -4   5    0.41    0.05 
  -2  -3   5    3.71    0.17 
  -2  -3   5    3.79    0.19 
  -2  -2   5   15.01    0.54 
  -2  -2   5   14.11    0.54 
  -2  -1   5   10.84    0.44 
  -2  -1   5   11.23    0.39 
  -2  -1   5   11.54    0.42 
  -2   0   5   11.36    0.42 
  -2   0   5   11.05    0.44 
  -2   1   5   -0.01    0.02 
  -2   1   5   -0.01    0.03 
  -2   2   5   58.24    1.91 
  -2   2   5   56.51    1.92 
  -2   3   5   36.52    1.23 
  -2   3   5   32.85    1.21 
   2  -3  -5   37.84    1.35 
  -2   4   5   -0.03    0.04 
  -2   4   5   -0.01    0.04 
   2  -4  -5    0.01    0.07 
  -2   5   5   41.95    1.47 
   2  -5  -5   42.55    1.59 
  -2   6   5   17.66    0.71 
   2  -6  -5   18.48    0.78 
  -2   7   5   15.07    0.64 
   2  -7  -5   15.69    0.70 
  -2   8   5    9.15    0.46 
   2  -8  -5    9.10    0.48 
   2  -8  -5    9.14    0.49 
  -2   9   5    0.29    0.12 
   2  -9  -5    0.21    0.11 
  -2  10   5    0.64    0.16 
   2 -10  -5    0.48    0.15 
  -1 -11   5    0.15    0.11 
  -1 -10   5    0.54    0.13 
  -1  -9   5    2.75    0.22 
  -1  -8   5    0.29    0.10 
  -1  -7   5    6.48    0.33 
  -1  -6   5    0.11    0.07 
  -1  -5   5    7.73    0.34 
  -1  -4   5    5.99    0.27 
   1   4  -5    5.67    0.24 
  -1  -3   5    3.30    0.17 
   1   3  -5    2.87    0.16 
  -1  -2   5   19.30    0.67 
  -1  -2   5   19.86    0.69 
   1   2  -5   19.17    0.73 
  -1  -1   5  132.05    4.34 
  -1  -1   5  132.60    4.33 
  -1   0   5  324.25   10.61 
  -1   0   5  328.76   10.68 
   1   0  -5  321.91   11.09 
  -1   1   5   33.74    1.14 
  -1   1   5   33.55    1.15 
   1  -1  -5   34.55    1.26 
  -1   2   5  127.22    4.29 
   1  -2  -5  134.96    4.56 
  -1   3   5    7.73    0.34 
  -1   3   5    8.64    0.34 
   1  -3  -5    8.62    0.41 
  -1   4   5    0.32    0.07 
   1  -4  -5    0.10    0.08 
  -1   5   5    8.79    0.39 
   1  -5  -5    8.22    0.43 
  -1   6   5   16.40    0.66 
   1  -6  -5   16.09    0.71 
  -1   7   5    0.06    0.08 
   1  -7  -5   -0.16    0.09 
  -1   8   5    0.01    0.09 
   1  -8  -5    0.33    0.12 
   1  -8  -5    0.26    0.11 
  -1   9   5    0.12    0.10 
   1  -9  -5    0.13    0.10 
  -1  10   5    0.12    0.12 
   1 -10  -5    0.20    0.13 
   0 -11   5    0.16    0.11 
   0 -10   5    0.34    0.11 
   0  -9   5   -0.06    0.07 
   0  -8   5    3.68    0.24 
   0  -7   5    0.29    0.09 
   0  -6   5    0.64    0.10 
   0  -5   5    2.64    0.16 
   0  -4   5   90.74    3.00 
   0   4  -5   90.45    3.10 
   0  -3   5   10.06    0.39 
   0   3  -5   10.01    0.39 
   0  -2   5    6.22    0.26 
   0  -2   5    6.00    0.25 
   0   2  -5    6.12    0.28 
   0  -1   5    0.30    0.05 
   0  -1   5    0.32    0.05 
   0   0   5   17.05    0.61 
   0   0   5   17.28    0.60 
   0   0  -5   17.33    0.68 
   0   1   5   43.20    1.34 
   0  -1  -5   35.38    1.43 
   0   2   5   18.14    0.64 
   0   2   5   17.50    0.64 
   0  -2  -5   17.75    0.72 
   0   3   5    5.99    0.27 
   0   3   5    5.80    0.27 
   0  -3  -5    6.02    0.32 
   0   4   5    2.74    0.18 
   0  -4  -5    2.77    0.21 
   0   5   5    0.10    0.06 
   0  -5  -5   -0.05    0.07 
   0   6   5    1.69    0.18 
   0  -6  -5    1.73    0.19 
   0   7   5    0.42    0.11 
   0  -7  -5    0.32    0.11 
   0  -7  -5    0.24    0.10 
   0   8   5    0.83    0.16 
   0  -8  -5    0.82    0.16 
   0   9   5    0.41    0.13 
   0  -9  -5    0.20    0.12 
   0  10   5    0.32    0.15 
   1 -12   5    0.01    0.10 
   1 -11   5   -0.12    0.08 
   1 -10   5    3.77    0.27 
   1  -9   5    0.76    0.13 
   1  -8   5   17.69    0.70 
   1  -7   5   10.45    0.45 
   1  -6   5    0.19    0.07 
   1  -5   5    0.56    0.08 
   1  -4   5   64.37    2.20 
   1  -4   5   65.93    2.16 
  -1   4  -5   64.73    2.23 
   1  -3   5    4.89    0.21 
   1  -3   5    4.77    0.22 
  -1   3  -5    4.94    0.22 
   1  -2   5   11.02    0.41 
   1  -1   5    7.28    0.28 
  -1   1  -5    7.13    0.33 
   1   0   5    7.63    0.31 
   1   0   5    7.59    0.31 
  -1   0  -5    8.46    0.36 
   1   1   5    5.47    0.23 
   1   1   5    5.09    0.23 
   1   2   5    0.00    0.04 
   1   2   5    0.03    0.04 
  -1  -2  -5    0.05    0.07 
   1   3   5    3.25    0.19 
  -1  -3  -5    3.34    0.22 
   1   4   5    5.90    0.30 
  -1  -4  -5    5.61    0.32 
   1   5   5    9.93    0.46 
  -1  -5  -5    9.94    0.47 
   1   6   5    0.00    0.07 
  -1  -6  -5    0.00    0.08 
  -1  -6  -5    0.05    0.08 
   1   7   5    1.66    0.21 
  -1  -7  -5    2.06    0.23 
  -1  -7  -5    1.88    0.20 
   1   8   5    1.11    0.19 
  -1  -8  -5    0.98    0.17 
   1   9   5   -0.08    0.09 
  -1  -9  -5    0.07    0.10 
   2 -12   5    1.11    0.18 
   2 -11   5    0.13    0.09 
   2 -10   5    4.71    0.29 
   2  -9   5    4.20    0.26 
   2  -8   5    3.76    0.23 
   2  -7   5   35.02    1.23 
   2  -6   5   15.57    0.58 
   2  -6   5   15.21    0.62 
   2  -5   5    6.88    0.29 
   2  -5   5    6.36    0.31 
  -2   5  -5    6.84    0.26 
   2  -4   5   16.58    0.59 
   2  -4   5   16.78    0.63 
  -2   4  -5   16.70    0.61 
   2  -3   5    5.01    0.21 
   2  -3   5    4.69    0.23 
   2  -2   5   21.17    0.72 
   2  -2   5   20.38    0.74 
  -2   2  -5   20.73    0.77 
   2  -1   5    5.57    0.25 
   2  -1   5    5.67    0.24 
  -2   1  -5    6.46    0.29 
   2   0   5   11.64    0.46 
   2   0   5   11.98    0.45 
  -2   0  -5   12.56    0.51 
   2   1   5    2.34    0.15 
   2   1   5    1.95    0.12 
  -2  -1  -5    1.69    0.14 
   2   2   5    2.35    0.17 
  -2  -2  -5    2.71    0.19 
   2   3   5    6.65    0.32 
  -2  -3  -5    5.96    0.33 
   2   4   5    0.03    0.07 
  -2  -4  -5    0.02    0.08 
   2   5   5    6.15    0.34 
  -2  -5  -5    6.19    0.34 
  -2  -5  -5    6.31    0.35 
   2   6   5    2.58    0.25 
  -2  -6  -5    2.73    0.24 
  -2  -6  -5    2.48    0.22 
   2   7   5   -0.11    0.09 
  -2  -7  -5    0.06    0.10 
  -2  -7  -5    0.01    0.10 
   2   8   5    0.80    0.17 
  -2  -8  -5    0.52    0.15 
   3 -13   5    1.03    0.18 
   3 -12   5    2.19    0.23 
   3 -11   5    0.90    0.15 
   3 -10   5   29.00    1.08 
   3  -9   5   13.46    0.56 
   3  -8   5    1.85    0.20 
   3  -7   5    6.35    0.29 
   3  -7   5    6.19    0.33 
   3  -6   5    7.73    0.36 
   3  -6   5    7.30    0.31 
   3  -5   5    0.19    0.05 
   3  -5   5    0.30    0.07 
  -3   5  -5    0.16    0.04 
   3  -4   5    2.00    0.11 
   3  -4   5    1.72    0.14 
  -3   4  -5    1.85    0.12 
   3  -3   5   31.40    1.08 
   3  -3   5   30.45    1.04 
  -3   3  -5   30.66    1.11 
   3  -2   5   38.81    1.34 
   3  -2   5   40.74    1.39 
  -3   2  -5   41.25    1.44 
   3  -1   5    5.10    0.22 
   3  -1   5    5.27    0.25 
  -3   1  -5    5.31    0.26 
   3   0   5    2.25    0.16 
   3   0   5    2.47    0.14 
  -3   0  -5    2.71    0.18 
   3   2   5    4.86    0.26 
  -3  -2  -5    4.88    0.28 
   3   3   5    3.78    0.25 
  -3  -3  -5    4.31    0.26 
   3   4   5    1.12    0.15 
  -3  -4  -5    0.97    0.14 
  -3  -4  -5    1.13    0.16 
   3   5   5    3.72    0.27 
  -3  -5  -5    3.86    0.27 
  -3  -5  -5    3.42    0.26 
   3   6   5    4.80    0.33 
  -3  -6  -5    4.45    0.31 
  -3  -6  -5    5.06    0.32 
   3   7   5   -0.01    0.10 
  -3  -7  -5    0.02    0.10 
   3   8   5    0.42    0.16 
  -3  -8  -5    0.55    0.17 
   4 -13   5    1.43    0.20 
   4 -12   5    1.22    0.18 
   4 -11   5    0.32    0.14 
   4 -11   5    0.02    0.09 
   4 -10   5    1.63    0.17 
   4 -10   5    1.86    0.23 
   4  -9   5    1.26    0.18 
   4  -9   5    1.08    0.14 
   4  -8   5    0.72    0.14 
   4  -8   5    0.70    0.11 
   4  -7   5    1.77    0.18 
   4  -7   5    1.46    0.12 
   4  -6   5   14.09    0.53 
   4  -6   5   14.61    0.59 
  -4   6  -5   14.65    0.55 
   4  -5   5    1.76    0.11 
   4  -5   5    1.78    0.16 
  -4   5  -5    1.86    0.13 
   4  -4   5    0.01    0.04 
   4  -4   5   -0.01    0.03 
  -4   4  -5    0.03    0.04 
   4  -3   5    3.44    0.20 
   4  -3   5    3.32    0.15 
  -4   3  -5    3.52    0.20 
   4  -2   5   30.92    1.07 
   4  -2   5   32.26    1.13 
  -4   2  -5   32.59    1.18 
   4  -1   5    1.85    0.15 
  -4   1  -5    2.02    0.16 
   4   1   5    1.40    0.15 
  -4  -1  -5    1.71    0.16 
   4   2   5    0.04    0.07 
  -4  -2  -5    0.07    0.07 
   4   3   5    1.52    0.17 
  -4  -3  -5    1.58    0.18 
  -4  -3  -5    1.34    0.16 
   4   4   5    1.75    0.19 
  -4  -4  -5    1.63    0.19 
  -4  -4  -5    1.56    0.18 
   4   5   5    0.11    0.10 
  -4  -5  -5    0.17    0.11 
  -4  -5  -5    0.22    0.11 
   4   6   5    0.90    0.18 
  -4  -6  -5    0.45    0.14 
  -4  -6  -5    0.67    0.15 
   4   7   5    0.21    0.13 
  -4  -7  -5    0.16    0.12 
   5 -13   5    0.30    0.16 
   5 -12   5    3.19    0.32 
   5 -11   5    0.15    0.12 
   5 -10   5   -0.11    0.09 
   5  -9   5    1.62    0.21 
   5  -8   5    4.14    0.28 
   5  -8   5    3.78    0.21 
   5  -7   5    4.20    0.27 
   5  -6   5   13.99    0.58 
  -5   6  -5   13.65    0.54 
  -5   5  -5   31.97    1.17 
   5  -3   5   -0.01    0.02 
  -5   3  -5    0.11    0.06 
   5  -1   5    0.21    0.06 
  -5   1  -5    0.19    0.08 
   5   0   5    9.30    0.42 
  -5   0  -5    9.20    0.44 
   5   1   5    6.95    0.35 
  -5  -1  -5    7.04    0.37 
  -5  -1  -5    6.59    0.32 
   5   2   5    6.94    0.36 
  -5  -2  -5    6.84    0.33 
  -5  -2  -5    6.79    0.38 
   5   3   5    0.04    0.08 
  -5  -3  -5    0.04    0.07 
  -5  -3  -5   -0.02    0.09 
   5   4   5    2.65    0.26 
  -5  -4  -5    2.60    0.24 
  -5  -4  -5    2.85    0.22 
   5   5   5    0.34    0.13 
  -5  -5  -5   -0.04    0.09 
  -5  -5  -5    0.25    0.12 
   5   6   5    0.49    0.16 
  -5  -6  -5    0.60    0.15 
   6 -13   5    0.26    0.16 
   6 -12   5   -0.21    0.11 
   6 -11   5    0.20    0.14 
   6 -10   5    1.51    0.20 
   6  -9   5    0.73    0.15 
   6  -8   5   15.70    0.67 
   6  -7   5   12.78    0.55 
  -6   7  -5   11.66    0.50 
   6  -6   5    0.30    0.09 
  -6   6  -5    0.34    0.08 
   6  -5   5    5.24    0.28 
  -6   5  -5    5.06    0.27 
   6  -4   5    0.53    0.10 
  -6   4  -5    0.86    0.12 
   6  -3   5    5.41    0.29 
  -6   3  -5    5.82    0.31 
   6  -2   5    1.01    0.13 
  -6   2  -5    1.37    0.16 
   6  -1   5    5.80    0.31 
  -6   1  -5    5.29    0.31 
   6   0   5    0.08    0.07 
  -6   0  -5    0.10    0.09 
   6   1   5   -0.05    0.07 
  -6  -1  -5    0.00    0.08 
   6   2   5    0.32    0.11 
  -6  -2  -5    0.27    0.11 
   6   3   5   -0.09    0.08 
  -6  -3  -5   -0.01    0.09 
   6   4   5    0.49    0.14 
  -6  -4  -5    0.40    0.14 
   6   5   5    1.55    0.22 
  -6  -5  -5    1.44    0.21 
   7 -12   5   -0.15    0.11 
   7 -11   5   -0.09    0.10 
   7 -10   5    0.74    0.16 
   7  -9   5    4.14    0.29 
   7  -8   5    2.11    0.21 
   7  -7   5   15.12    0.64 
  -7   7  -5   14.94    0.62 
   7  -6   5    0.40    0.11 
  -7   6  -5    0.45    0.10 
   7  -5   5    0.17    0.08 
  -7   5  -5    0.09    0.07 
   7  -4   5    3.41    0.23 
  -7   4  -5    3.41    0.24 
   7  -3   5    8.73    0.41 
  -7   3  -5    8.14    0.41 
   7  -2   5    0.35    0.11 
  -7   2  -5    0.38    0.11 
   7  -1   5    6.97    0.37 
  -7   1  -5    6.79    0.38 
   7   0   5   10.66    0.49 
  -7   0  -5   10.54    0.52 
   7   1   5    0.04    0.08 
  -7  -1  -5   -0.15    0.08 
   7   2   5    1.18    0.18 
  -7  -2  -5    1.32    0.19 
   7   3   5    0.35    0.13 
  -7  -3  -5    0.31    0.12 
   7   4   5   -0.07    0.11 
  -7  -4  -5    0.02    0.11 
   8 -12   5    0.04    0.12 
   8 -11   5    0.06    0.12 
   8 -10   5    0.26    0.13 
   8  -9   5    4.31    0.31 
   8  -8   5    2.78    0.24 
   8  -7   5    0.44    0.12 
  -8   7  -5    0.27    0.09 
   8  -6   5    1.85    0.19 
  -8   6  -5    2.29    0.19 
   8  -5   5    0.31    0.10 
  -8   5  -5    0.52    0.11 
   8  -4   5    1.12    0.16 
  -8   4  -5    1.64    0.19 
   8  -3   5    6.36    0.34 
  -8   3  -5    5.71    0.34 
   8  -2   5    1.16    0.17 
  -8   2  -5    1.61    0.20 
   8  -1   5   -0.01    0.09 
  -8   1  -5   -0.05    0.09 
   8   0   5    0.07    0.09 
  -8   0  -5   -0.05    0.09 
   8   1   5   -0.09    0.09 
  -8  -1  -5   -0.01    0.10 
   8   2   5    0.28    0.13 
  -8  -2  -5    0.13    0.12 
   8   3   5    0.34    0.14 
  -8  -3  -5    0.33    0.14 
   9 -12   5    0.52    0.17 
   9 -11   5    1.29    0.20 
   9 -10   5    0.14    0.12 
   9  -9   5    4.35    0.31 
   9  -8   5    4.51    0.31 
   9  -7   5    0.05    0.10 
  -9   7  -5    0.09    0.09 
   9  -6   5    2.93    0.24 
  -9   6  -5    2.77    0.23 
   9  -5   5    3.31    0.26 
  -9   5  -5    3.38    0.26 
   9  -4   5    2.24    0.23 
  -9   4  -5    2.81    0.23 
   9  -3   5    0.21    0.11 
  -9   3  -5    0.25    0.12 
   9  -2   5    4.51    0.30 
  -9   2  -5    3.40    0.28 
   9  -1   5    0.08    0.10 
  -9   1  -5    0.04    0.10 
   9   0   5    1.04    0.18 
  -9   0  -5    0.93    0.18 
   9   1   5    0.28    0.13 
  -9  -1  -5    0.40    0.14 
  10 -11   5    0.50    0.15 
  10 -10   5    0.36    0.14 
  10  -9   5    0.93    0.17 
  10  -8   5    1.69    0.21 
  10  -7   5    0.10    0.11 
 -10   7  -5    0.04    0.10 
  10  -6   5    1.45    0.20 
 -10   6  -5    1.44    0.19 
  10  -5   5    2.80    0.27 
 -10   5  -5    2.49    0.26 
  10  -4   5    0.95    0.17 
 -10   4  -5    0.79    0.17 
  10  -3   5    0.08    0.11 
 -10   3  -5    0.01    0.11 
  10  -2   5    0.72    0.16 
 -10   2  -5    0.81    0.17 
  10  -1   5    0.61    0.16 
 -10   1  -5    0.75    0.18 
  10   0   5    0.25    0.13 
  11 -10   5    1.22    0.20 
  11  -9   5    0.02    0.12 
  11  -8   5    0.54    0.15 
  11  -7   5    2.03    0.23 
 -11   7  -5    1.89    0.23 
  11  -6   5    0.50    0.15 
 -11   6  -5    0.74    0.16 
  11  -5   5    0.36    0.14 
 -11   5  -5    0.42    0.14 
  11  -4   5    0.82    0.18 
 -11   4  -5    1.06    0.19 
  11  -3   5    0.21    0.12 
 -11   3  -5    0.08    0.13 
 -12   7  -5    1.25    0.21 
 -12   6  -5    0.20    0.13 
 -12   0   6    0.07    0.13 
 -12   1   6    0.53    0.16 
 -12   2   6    2.00    0.27 
 -12   3   6    1.32    0.23 
 -12   4   6    0.92    0.19 
 -12   5   6    4.16    0.35 
 -12   6   6    0.16    0.13 
 -12   7   6    0.99    0.20 
 -12   8   6    0.72    0.19 
 -12   9   6    0.39    0.16 
 -11  -1   6    0.88    0.19 
 -11   0   6    0.38    0.15 
 -11   1   6    0.38    0.14 
 -11   2   6    1.98    0.25 
 -11   3   6    1.63    0.23 
 -11   4   6    0.01    0.11 
 -11   5   6    1.85    0.24 
 -11   6   6    0.09    0.11 
 -11   7   6    0.17    0.12 
 -11   8   6    0.14    0.13 
 -11   9   6    0.18    0.14 
 -11  10   6   -0.11    0.13 
 -10  -2   6   -0.08    0.09 
 -10  -1   6    6.42    0.40 
 -10   0   6    3.75    0.30 
 -10   1   6    0.04    0.10 
 -10   2   6    1.10    0.19 
 -10   3   6    6.85    0.42 
 -10   4   6    2.69    0.25 
 -10   5   6    3.18    0.28 
 -10   6   6    5.01    0.35 
 -10   7   6    0.92    0.18 
 -10   8   6   -0.04    0.10 
 -10   9   6    1.01    0.20 
 -10  10   6    0.94    0.20 
  -9  -2   6    2.26    0.24 
  -9  -1   6    0.51    0.13 
  -9   0   6    6.28    0.38 
  -9   1   6    2.61    0.24 
  -9   2   6    0.29    0.10 
  -9   3   6    4.19    0.29 
  -9   4   6    3.05    0.26 
  -9   5   6    0.58    0.14 
  -9   6   6    2.26    0.24 
  -9   7   6    1.42    0.20 
  -9   8   6    0.09    0.11 
  -9   9   6    1.72    0.23 
   9 -10  -6    1.29    0.24 
  -8  -6   6    0.07    0.10 
  -8  -5   6    0.92    0.16 
  -8  -4   6    0.13    0.09 
  -8  -3   6    2.58    0.21 
  -8  -3   6    2.93    0.23 
  -8  -2   6    6.75    0.37 
  -8  -2   6    6.53    0.34 
  -8  -1   6    1.79    0.16 
  -8  -1   6    2.11    0.21 
  -8   0   6    0.05    0.08 
  -8   0   6    0.16    0.07 
  -8   1   6    0.35    0.08 
  -8   1   6    0.22    0.09 
  -8   2   6    5.55    0.28 
  -8   2   6    5.97    0.34 
  -8   3   6    2.23    0.16 
  -8   3   6    2.21    0.22 
  -8   4   6   23.09    0.97 
  -8   4   6   24.98    0.88 
  -8   5   6    1.98    0.22 
  -8   5   6    2.26    0.17 
  -8   6   6    0.39    0.12 
  -8   6   6    0.46    0.10 
  -8   7   6    0.62    0.14 
  -8   8   6    0.04    0.10 
   8  -9  -6    0.57    0.17 
  -7  -7   6    0.31    0.12 
  -7  -6   6    1.72    0.22 
  -7  -5   6    0.49    0.12 
  -7  -4   6    2.94    0.23 
  -7  -3   6    0.10    0.07 
  -7  -3   6   -0.02    0.07 
  -7  -2   6    8.76    0.42 
  -7  -2   6    8.66    0.40 
  -7  -1   6    5.34    0.30 
  -7  -1   6    5.11    0.27 
  -7   0   6   11.84    0.47 
  -7   0   6   11.03    0.52 
  -7   1   6   51.36    1.77 
  -7   1   6   52.98    1.91 
  -7   2   6   14.31    0.62 
  -7   2   6   13.90    0.54 
  -7   3   6    1.30    0.13 
  -7   3   6    0.94    0.14 
  -7   4   6    3.80    0.26 
  -7   4   6    3.76    0.21 
  -7   5   6    0.31    0.09 
  -7   5   6    0.24    0.11 
  -7   6   6    1.41    0.19 
  -7   6   6    1.22    0.15 
  -7   7   6    0.20    0.10 
   7  -8  -6    0.72    0.18 
   7  -9  -6    0.18    0.14 
   7 -11  -6    0.30    0.13 
  -6  -8   6    0.16    0.11 
  -6  -7   6    2.71    0.27 
  -6  -6   6    0.33    0.11 
  -6  -5   6    1.18    0.16 
  -6  -4   6    2.17    0.18 
  -6  -3   6    0.94    0.13 
  -6  -3   6    0.99    0.13 
  -6  -2   6    0.40    0.09 
  -6  -2   6    0.49    0.10 
  -6  -1   6    0.12    0.08 
  -6  -1   6    0.16    0.07 
  -6   0   6    6.11    0.32 
  -6   0   6    6.16    0.29 
  -6   1   6   -0.04    0.06 
  -6   1   6    0.01    0.05 
  -6   2   6    1.13    0.14 
  -6   2   6    1.23    0.12 
  -6   3   6    0.12    0.06 
  -6   3   6    0.04    0.04 
  -6   4   6   10.24    0.44 
  -6   4   6   10.97    0.50 
  -6   5   6    5.02    0.26 
  -6   5   6    4.86    0.31 
  -6   6   6    6.05    0.31 
  -6   6   6    6.34    0.36 
   6  -7  -6    2.45    0.28 
   6  -8  -6    0.40    0.14 
   6  -9  -6    3.61    0.33 
   6 -11  -6    0.05    0.11 
  -5  -8   6    0.02    0.11 
  -5  -7   6    0.57    0.13 
  -5  -6   6    2.33    0.23 
  -5  -5   6    0.03    0.07 
  -5  -4   6    0.51    0.09 
  -5  -4   6    0.40    0.10 
   5   4  -6    0.35    0.08 
  -5  -3   6    3.26    0.20 
  -5  -3   6    2.83    0.20 
   5   3  -6    2.94    0.17 
  -5  -2   6    2.35    0.18 
  -5  -2   6    2.51    0.17 
  -5  -1   6   20.53    0.76 
  -5  -1   6   20.83    0.80 
  -5   0   6   18.39    0.68 
  -5   0   6   18.69    0.73 
  -5   1   6    8.41    0.39 
  -5   1   6    9.12    0.37 
  -5   2   6    5.04    0.24 
  -5   2   6    4.85    0.27 
  -5   3   6    0.01    0.03 
  -5   3   6    0.12    0.05 
  -5   4   6   63.94    2.29 
  -5   4   6   63.37    2.15 
  -5   5   6    1.02    0.13 
  -5   5   6    0.89    0.15 
  -5   6   6   65.25    2.19 
   5  -6  -6   62.59    2.38 
   5  -7  -6   13.95    0.69 
   5  -8  -6    0.05    0.12 
   5  -9  -6    0.12    0.13 
   5 -10  -6    2.27    0.27 
   5 -11  -6    0.10    0.12 
  -4  -9   6    1.18    0.19 
  -4  -8   6    1.50    0.20 
  -4  -7   6    0.10    0.09 
  -4  -6   6    1.61    0.18 
  -4  -5   6    0.65    0.11 
  -4  -4   6    0.04    0.06 
  -4  -4   6    0.04    0.05 
   4   4  -6    0.02    0.05 
  -4  -3   6    0.13    0.06 
  -4  -3   6    0.11    0.06 
  -4  -2   6   63.48    2.26 
  -4  -2   6   65.13    2.17 
  -4  -1   6   20.97    0.79 
  -4  -1   6   20.78    0.76 
  -4   0   6   32.72    1.22 
  -4   0   6   33.92    1.16 
  -4   1   6   39.27    1.35 
  -4   1   6   39.64    1.43 
  -4   2   6    4.01    0.20 
  -4   2   6    3.48    0.22 
  -4   3   6   14.86    0.58 
  -4   3   6   15.86    0.63 
  -4   4   6  138.34    4.56 
  -4   5   6   26.11    0.97 
   4  -5  -6   27.19    1.10 
   4  -6  -6   24.78    1.04 
   4  -7  -6    7.61    0.46 
   4  -8  -6    0.24    0.14 
   4  -9  -6    0.19    0.13 
   4 -10  -6    1.87    0.25 
   4 -11  -6    0.47    0.16 
  -3 -10   6    0.51    0.14 
  -3  -9   6    1.29    0.18 
  -3  -8   6    5.16    0.32 
  -3  -7   6    0.19    0.09 
  -3  -6   6    1.37    0.16 
  -3  -5   6    7.18    0.35 
  -3  -4   6    3.95    0.19 
  -3  -4   6    3.87    0.22 
  -3  -3   6    0.35    0.08 
  -3  -3   6    0.30    0.06 
  -3  -2   6   61.10    2.16 
  -3  -2   6   62.26    2.08 
  -3  -1   6   54.13    1.82 
  -3  -1   6   54.13    1.91 
  -3   0   6   73.14    2.45 
  -3   0   6   74.27    2.58 
  -3   1   6   62.48    2.07 
  -3   1   6   61.26    2.19 
  -3   2   6    3.20    0.14 
  -3   2   6    3.40    0.18 
  -3   3   6   11.32    0.45 
   3  -3  -6   11.66    0.54 
  -3   4   6   74.24    2.46 
  -3   4   6   73.54    2.46 
   3  -4  -6   71.32    2.65 
  -3   5   6    5.32    0.29 
  -3   5   6    6.22    0.29 
   3  -5  -6    6.31    0.37 
  -3   6   6   12.93    0.53 
   3  -6  -6   12.19    0.61 
  -3   7   6    2.34    0.21 
   3  -7  -6    2.10    0.25 
  -3   8   6    0.46    0.12 
   3  -8  -6    0.44    0.14 
  -3   9   6    0.04    0.09 
   3  -9  -6   -0.05    0.09 
   3 -10  -6    2.37    0.28 
  -2 -10   6    0.27    0.12 
  -2  -9   6    0.36    0.12 
  -2  -8   6    0.85    0.14 
  -2  -7   6    0.06    0.07 
  -2  -6   6    0.11    0.07 
  -2  -5   6    0.02    0.03 
  -2  -3   6    0.03    0.03 
  -2  -3   6    0.00    0.04 
  -2  -2   6   51.48    1.70 
  -2  -2   6   50.37    1.79 
  -2  -1   6   35.32    1.15 
  -2  -1   6   36.67    1.25 
  -2  -1   6   31.92    1.19 
  -2   0   6  113.00    3.73 
  -2   0   6  114.39    3.74 
   2   0  -6  114.12    3.97 
  -2   1   6   63.63    2.05 
  -2   1   6   61.26    2.07 
   2  -1  -6   60.94    2.23 
  -2   2   6   15.01    0.57 
  -2   2   6   15.72    0.55 
  -2   3   6   26.61    0.96 
  -2   3   6   27.20    0.95 
   2  -3  -6   27.35    1.07 
  -2   4   6    2.80    0.17 
   2  -4  -6    2.31    0.24 
  -2   5   6    7.16    0.33 
   2  -5  -6    7.02    0.41 
  -2   6   6   -0.13    0.05 
   2  -6  -6    0.02    0.10 
  -2   7   6    0.57    0.12 
   2  -7  -6    0.57    0.15 
  -2   8   6    0.69    0.14 
   2  -8  -6    1.04    0.19 
  -2   9   6    0.79    0.16 
   2  -9  -6    0.78    0.17 
  -2  10   6    0.67    0.17 
   2 -10  -6    0.57    0.15 
  -1 -11   6    0.10    0.11 
  -1 -10   6    0.45    0.13 
  -1  -9   6    1.81    0.20 
  -1  -8   6    0.42    0.11 
  -1  -7   6    2.06    0.20 
  -1  -6   6    2.69    0.19 
  -1  -5   6    0.21    0.07 
  -1  -4   6   14.49    0.55 
   1   4  -6   14.26    0.55 
  -1  -3   6    3.41    0.18 
   1   3  -6    3.19    0.18 
  -1  -2   6   16.15    0.57 
  -1  -2   6   16.36    0.60 
  -1  -1   6   57.91    1.94 
  -1  -1   6   59.99    1.96 
   1   1  -6   57.72    2.08 
  -1   0   6    0.67    0.08 
  -1   0   6    0.77    0.07 
   1   0  -6    0.75    0.11 
  -1   1   6   14.31    0.53 
  -1   1   6   14.13    0.50 
   1  -1  -6   13.87    0.60 
  -1   2   6    2.46    0.16 
  -1   2   6    2.74    0.15 
  -1   3   6    8.33    0.35 
  -1   3   6    8.28    0.36 
   1  -3  -6    8.55    0.43 
  -1   4   6    0.15    0.06 
  -1   4   6   -0.01    0.04 
   1  -4  -6    0.03    0.09 
  -1   5   6    8.37    0.38 
   1  -5  -6    7.76    0.43 
  -1   6   6    7.85    0.39 
   1  -6  -6    8.29    0.44 
  -1   7   6    1.76    0.20 
   1  -7  -6    2.16    0.24 
  -1   8   6    0.55    0.13 
   1  -8  -6    0.58    0.15 
   1  -8  -6    0.49    0.14 
  -1   9   6    1.15    0.19 
   1  -9  -6    0.95    0.19 
  -1  10   6    0.64    0.17 
   0 -11   6    2.33    0.25 
   0 -10   6    0.19    0.10 
   0  -9   6    2.35    0.21 
   0  -8   6    6.07    0.33 
   0  -7   6    0.69    0.11 
   0  -6   6    7.81    0.36 
   0  -5   6    0.68    0.10 
   0  -4   6    6.39    0.28 
   0  -4   6    6.55    0.29 
   0   4  -6    6.07    0.27 
   0  -3   6    0.25    0.05 
   0  -3   6    0.17    0.05 
   0   3  -6    0.26    0.06 
   0  -2   6    0.32    0.06 
   0   2  -6    0.31    0.07 
   0  -1   6    0.01    0.04 
   0  -1   6    0.05    0.03 
   0   1  -6    0.04    0.05 
   0   0   6    0.51    0.07 
   0   0  -6    0.53    0.09 
   0   1   6    0.64    0.07 
   0   1   6    0.50    0.07 
   0  -1  -6    0.73    0.11 
   0   2   6    0.13    0.05 
   0   2   6    0.17    0.05 
   0  -2  -6    0.09    0.06 
   0   3   6    1.77    0.14 
   0   3   6    1.46    0.13 
   0  -3  -6    1.37    0.17 
   0   4   6    2.65    0.19 
   0  -4  -6    2.79    0.23 
   0   5   6    0.34    0.09 
   0  -5  -6    0.14    0.10 
   0  -6  -6    2.71    0.24 
   0   7   6    1.62    0.20 
   0  -7  -6    1.59    0.21 
   0  -7  -6    1.47    0.20 
   0   8   6    0.47    0.14 
   0  -8  -6    0.49    0.14 
   0   9   6   -0.25    0.08 
   0  -9  -6    0.00    0.11 
   1 -12   6    0.88    0.17 
   1 -11   6    2.72    0.23 
   1 -10   6    0.93    0.15 
   1  -9   6    0.76    0.13 
   1  -8   6   10.41    0.46 
   1  -7   6   -0.01    0.05 
   1  -6   6   35.15    1.23 
   1  -5   6    0.06    0.05 
   1  -5   6    0.12    0.06 
  -1   5  -6    0.13    0.03 
   1  -4   6    0.03    0.04 
   1  -4   6    0.04    0.04 
  -1   4  -6   -0.01    0.03 
   1  -3   6    0.77    0.08 
   1  -3   6    0.78    0.08 
   1  -2   6   52.84    1.82 
   1  -2   6   53.59    1.81 
  -1   2  -6   56.36    1.93 
   1  -1   6    0.52    0.07 
   1  -1   6    0.61    0.07 
  -1   1  -6    0.51    0.09 
   1   0   6   28.78    0.99 
   1   0   6   28.09    1.00 
  -1   0  -6   28.88    1.09 
   1   1   6   18.08    0.64 
   1   1   6   19.10    0.64 
  -1  -1  -6   14.45    0.69 
   1   2   6    2.99    0.18 
   1   2   6    3.00    0.18 
  -1  -2  -6    2.54    0.21 
   1   3   6    0.55    0.09 
  -1  -3  -6    0.39    0.11 
   1   4   6   14.46    0.59 
  -1  -4  -6   14.16    0.63 
   1   5   6   13.51    0.58 
  -1  -5  -6   13.53    0.61 
   1   6   6    0.00    0.08 
  -1  -6  -6    0.11    0.09 
  -1  -6  -6    0.07    0.10 
   1   7   6    2.53    0.26 
  -1  -7  -6    2.68    0.24 
  -1  -7  -6    2.92    0.25 
   1   8   6    0.53    0.15 
  -1  -8  -6    0.80    0.18 
   1   9   6   -0.07    0.10 
   2 -12   6    0.69    0.15 
   2 -11   6    1.30    0.18 
   2 -10   6    0.02    0.07 
   2  -9   6    0.28    0.09 
   2  -8   6    7.01    0.34 
   2  -7   6   10.71    0.45 
   2  -7   6   10.96    0.49 
   2  -6   6    1.20    0.14 
   2  -6   6    1.00    0.11 
   2  -5   6    4.95    0.26 
   2  -5   6    5.03    0.23 
  -2   5  -6    4.74    0.21 
   2  -4   6    0.23    0.05 
   2  -4   6    0.29    0.06 
  -2   4  -6    0.15    0.04 
   2  -3   6   14.48    0.52 
   2  -3   6   14.64    0.55 
  -2   3  -6   14.00    0.56 
   2  -2   6    7.89    0.33 
   2  -2   6    7.83    0.31 
  -2   2  -6    7.82    0.35 
   2  -1   6    2.60    0.16 
   2  -1   6    2.53    0.14 
  -2   1  -6    2.63    0.18 
   2   0   6    0.28    0.06 
   2   0   6    0.46    0.07 
  -2   0  -6    0.46    0.09 
   2   1   6    0.04    0.04 
   2   1   6   -0.02    0.05 
  -2  -1  -6   -0.03    0.02 
   2   2   6    3.79    0.22 
  -2  -2  -6    3.69    0.25 
   2   3   6    0.12    0.07 
  -2  -3  -6    0.05    0.08 
   2   4   6    4.26    0.27 
  -2  -4  -6    4.18    0.28 
   2   5   6    5.36    0.33 
  -2  -5  -6    5.58    0.34 
  -2  -5  -6    5.82    0.34 
   2   6   6    0.00    0.09 
  -2  -6  -6    0.05    0.10 
  -2  -6  -6    0.01    0.10 
   2   7   6    0.62    0.16 
  -2  -7  -6    0.81    0.16 
  -2  -7  -6    0.45    0.15 
   2   8   6    0.59    0.16 
  -2  -8  -6    0.48    0.16 
   3 -13   6    0.67    0.15 
   3 -12   6    0.60    0.14 
   3 -11   6    0.34    0.11 
   3 -10   6    3.56    0.31 
   3 -10   6    3.90    0.26 
   3  -9   6    8.76    0.41 
   3  -9   6    9.19    0.47 
   3  -8   6    4.02    0.28 
   3  -8   6    3.84    0.23 
   3  -7   6    8.14    0.35 
   3  -7   6    7.90    0.40 
   3  -6   6    0.00    0.06 
   3  -6   6    0.00    0.04 
   3  -5   6    0.46    0.07 
   3  -5   6    0.59    0.09 
  -3   5  -6    0.65    0.07 
   3  -4   6    5.29    0.26 
   3  -4   6    5.47    0.23 
  -3   4  -6    5.36    0.25 
   3  -3   6   29.91    1.07 
   3  -3   6   30.78    1.03 
  -3   3  -6   30.06    1.10 
   3  -2   6    1.42    0.10 
   3  -2   6    1.59    0.14 
  -3   2  -6    1.40    0.13 
   3  -1   6   36.68    1.28 
   3  -1   6   36.70    1.24 
  -3   1  -6   35.96    1.34 
   3   0   6    2.60    0.18 
   3   0   6    2.43    0.14 
  -3   0  -6    1.62    0.17 
   3   1   6    4.20    0.22 
  -3  -1  -6    2.98    0.22 
   3   2   6    6.68    0.34 
  -3  -2  -6    6.88    0.36 
   3   3   6    3.49    0.24 
  -3  -3  -6    3.21    0.25 
   3   4   6    0.06    0.08 
  -3  -4  -6    0.13    0.10 
  -3  -4  -6    0.21    0.10 
   3   5   6    4.03    0.29 
  -3  -5  -6    3.58    0.27 
  -3  -5  -6    3.98    0.29 
   3   6   6    2.99    0.29 
  -3  -6  -6    3.07    0.26 
  -3  -6  -6    3.37    0.27 
   3   7   6    0.05    0.12 
  -3  -7  -6    0.13    0.11 
   4 -12   6   -0.06    0.12 
   4 -12   6    0.20    0.11 
   4 -11   6    0.04    0.09 
   4 -11   6    0.11    0.13 
   4 -10   6    0.03    0.11 
   4 -10   6    0.04    0.08 
   4  -9   6   10.26    0.44 
   4  -9   6   10.06    0.50 
   4  -8   6    0.97    0.12 
   4  -8   6    0.89    0.14 
   4  -7   6    3.22    0.24 
   4  -7   6    3.68    0.20 
   4  -6   6    0.03    0.06 
   4  -6   6   -0.04    0.04 
  -4   6  -6   -0.01    0.04 
   4  -5   6    2.98    0.20 
   4  -5   6    2.92    0.15 
  -4   5  -6    3.01    0.17 
   4  -4   6    6.55    0.30 
   4  -4   6    6.13    0.25 
  -4   4  -6    5.61    0.28 
   4  -3   6    2.28    0.16 
   4  -3   6    2.09    0.12 
  -4   3  -6    1.75    0.15 
   4  -2   6    7.24    0.29 
   4  -2   6    7.08    0.33 
  -4   2  -6    7.00    0.34 
   4  -1   6    0.20    0.07 
   4  -1   6    0.21    0.06 
  -4   1  -6    0.24    0.08 
   4   0   6   11.79    0.50 
  -4   0  -6   12.37    0.54 
   4   1   6   -0.02    0.05 
  -4  -1  -6    0.07    0.08 
   4   2   6    3.82    0.25 
  -4  -2  -6    3.90    0.26 
   4   3   6    3.88    0.27 
  -4  -3  -6    4.15    0.26 
  -4  -3  -6    3.67    0.27 
   4   4   6    1.70    0.21 
  -4  -4  -6    2.20    0.22 
  -4  -4  -6    2.01    0.22 
   4   5   6    0.06    0.10 
  -4  -5  -6    0.05    0.10 
  -4  -5  -6   -0.06    0.11 
   4   6   6    1.39    0.21 
  -4  -6  -6    1.86    0.23 
  -4  -6  -6    1.35    0.21 
  -4  -7  -6    0.37    0.14 
   5 -12   6    2.40    0.28 
   5 -11   6    3.36    0.30 
   5 -10   6    0.14    0.12 
   5  -9   6    3.65    0.28 
   5  -8   6    2.55    0.23 
   5  -7   6    0.07    0.07 
   5  -6   6    3.01    0.22 
  -5   6  -6    2.97    0.18 
   5  -5   6   33.42    1.18 
  -5   5  -6   31.13    1.18 
   5  -4   6   13.58    0.55 
  -5   4  -6   13.31    0.55 
   5  -3   6    0.68    0.11 
  -5   3  -6    1.01    0.12 
   5  -2   6    1.39    0.14 
  -5   2  -6    1.55    0.17 
   5  -1   6    1.19    0.14 
  -5   1  -6    1.00    0.14 
   5   0   6    6.49    0.34 
  -5   0  -6    6.39    0.35 
   5   1   6    0.72    0.13 
  -5  -1  -6    0.76    0.14 
   5   2   6    0.56    0.13 
  -5  -2  -6    0.48    0.13 
   5   3   6    1.07    0.16 
  -5  -3  -6    1.05    0.18 
   5   4   6    4.88    0.33 
  -5  -4  -6    4.76    0.33 
   5   5   6    0.19    0.12 
  -5  -5  -6    0.12    0.12 
  -5  -6  -6    2.95    0.29 
   6 -12   6    0.04    0.13 
   6 -11   6    0.91    0.18 
   6 -10   6    1.15    0.19 
   6  -9   6    1.66    0.20 
   6  -8   6    6.23    0.36 
   6  -7   6    0.10    0.09 
   6  -6   6    0.77    0.13 
  -6   6  -6    0.94    0.12 
   6  -5   6   -0.01    0.06 
  -6   5  -6   -0.01    0.06 
   6  -4   6    3.15    0.22 
  -6   4  -6    3.01    0.21 
   6  -3   6    0.60    0.11 
  -6   3  -6    0.78    0.13 
   6  -2   6   10.00    0.45 
  -6   2  -6    9.56    0.47 
   6  -1   6    4.08    0.26 
  -6   1  -6    3.87    0.27 
   6   0   6    4.51    0.28 
  -6   0  -6    4.56    0.30 
   6   1   6    2.87    0.23 
  -6  -1  -6    2.67    0.24 
   6   2   6    0.25    0.11 
  -6  -2  -6    0.28    0.12 
   6   3   6    0.04    0.10 
  -6  -3  -6    0.20    0.11 
   6   4   6    0.65    0.16 
  -6  -4  -6    0.41    0.14 
  -6  -5  -6   -0.13    0.10 
   7 -12   6    0.27    0.14 
   7 -11   6    0.03    0.11 
   7 -10   6    2.07    0.24 
   7  -9   6    0.94    0.16 
   7  -8   6    3.28    0.26 
   7  -7   6   14.30    0.62 
  -7   7  -6   14.13    0.59 
   7  -6   6    0.82    0.13 
  -7   6  -6    1.01    0.13 
   7  -5   6    1.03    0.14 
  -7   5  -6    1.28    0.15 
   7  -4   6    0.76    0.13 
  -7   4  -6    0.86    0.14 
   7  -3   6    0.16    0.08 
  -7   3  -6    0.05    0.08 
   7  -2   6    2.33    0.21 
  -7   2  -6    2.59    0.22 
   7  -1   6    3.03    0.24 
  -7   1  -6    3.01    0.24 
   7   0   6    1.21    0.17 
  -7   0  -6    1.09    0.17 
   7   1   6    0.02    0.09 
  -7  -1  -6   -0.03    0.10 
   7   2   6    0.12    0.11 
  -7  -2  -6    0.12    0.12 
   7   3   6    0.05    0.11 
  -7  -3  -6    0.06    0.10 
  -7  -4  -6   -0.02    0.11 
   8 -12   6    0.30    0.15 
   8 -11   6    0.70    0.17 
   8 -10   6    4.37    0.32 
   8  -9   6    1.79    0.22 
   8  -8   6    0.54    0.14 
   8  -7   6    0.08    0.10 
  -8   7  -6    0.00    0.07 
   8  -6   6    1.53    0.18 
  -8   6  -6    1.94    0.20 
   8  -5   6    0.23    0.10 
  -8   5  -6    0.50    0.12 
   8  -4   6    1.28    0.17 
  -8   4  -6    1.25    0.17 
   8  -3   6    4.14    0.28 
  -8   3  -6    4.09    0.29 
   8  -2   6   -0.17    0.07 
  -8   2  -6    0.01    0.09 
   8  -1   6    0.03    0.09 
  -8   1  -6    0.25    0.11 
   8   0   6    0.55    0.15 
  -8   0  -6    0.64    0.15 
   8   1   6   -0.01    0.10 
  -8  -1  -6    0.08    0.11 
   8   2   6   -0.02    0.11 
  -8  -2  -6   -0.08    0.11 
   9 -11   6    0.12    0.11 
   9 -10   6   -0.01    0.10 
   9  -9   6    2.29    0.24 
   9  -8   6    1.68    0.21 
   9  -7   6    0.76    0.16 
  -9   7  -6    0.92    0.15 
   9  -6   6    4.09    0.30 
  -9   6  -6    4.35    0.30 
   9  -5   6    0.84    0.16 
  -9   5  -6    0.89    0.16 
   9  -4   6    0.08    0.10 
  -9   4  -6   -0.01    0.09 
   9  -3   6    1.80    0.22 
  -9   3  -6    1.91    0.23 
   9  -2   6    4.60    0.32 
  -9   2  -6    4.44    0.33 
   9  -1   6    0.07    0.11 
  -9   1  -6    0.31    0.13 
   9   0   6    0.97    0.18 
  -9   0  -6    1.19    0.20 
  10 -10   6    0.08    0.12 
  10  -9   6    0.86    0.18 
  10  -8   6    2.52    0.26 
  10  -7   6    0.19    0.11 
 -10   7  -6    0.16    0.10 
  10  -6   6    3.26    0.27 
 -10   6  -6    2.97    0.26 
  10  -5   6    1.20    0.19 
 -10   5  -6    1.28    0.19 
  10  -4   6   -0.07    0.11 
 -10   4  -6    0.02    0.09 
  10  -3   6    0.02    0.11 
 -10   3  -6   -0.22    0.10 
  10  -2   6    0.06    0.11 
 -10   2  -6    0.13    0.13 
  10  -1   6    0.10    0.13 
  11  -9   6   -0.11    0.11 
  11  -8   6    0.95    0.19 
  11  -7   6    0.29    0.14 
 -11   7  -6    0.02    0.11 
  11  -6   6   -0.12    0.09 
 -11   6  -6    0.07    0.11 
  11  -5   6   -0.01    0.12 
 -11   5  -6    0.12    0.13 
  11  -4   6    0.49    0.15 
 -11   4  -6    0.30    0.14 
 -12   0   7    0.13    0.14 
 -12   1   7    0.50    0.17 
 -12   2   7    1.72    0.25 
 -12   3   7    0.16    0.14 
 -12   4   7    0.40    0.15 
 -12   5   7    0.40    0.16 
 -12   6   7    0.22    0.13 
 -12   7   7    0.39    0.16 
 -12   8   7    0.23    0.15 
 -11  -1   7    0.33    0.15 
 -11   0   7    0.20    0.14 
 -11   1   7    0.82    0.19 
 -11   2   7    2.12    0.27 
 -11   3   7    0.08    0.11 
 -11   4   7    1.16    0.20 
 -11   5   7    2.83    0.30 
 -11   6   7    0.97    0.19 
 -11   7   7    0.46    0.16 
 -11   8   7    1.23    0.22 
 -11   9   7    0.11    0.13 
 -11  10   7    0.09    0.14 
 -10  -2   7   -0.13    0.09 
 -10  -1   7    4.41    0.33 
 -10   0   7    4.14    0.32 
 -10   1   7    0.03    0.10 
 -10   2   7    5.92    0.39 
 -10   3   7    3.73    0.30 
 -10   4   7    0.06    0.10 
 -10   5   7    2.17    0.24 
 -10   6   7    1.86    0.24 
 -10   7   7    0.18    0.13 
 -10   8   7    0.82    0.18 
 -10   9   7   -0.01    0.11 
  -9  -2   7    0.03    0.10 
  -9  -1   7    2.41    0.25 
  -9   0   7    9.56    0.50 
  -9   1   7    0.26    0.12 
  -9   2   7    1.48    0.19 
  -9   3   7    0.72    0.15 
  -9   4   7   -0.14    0.08 
  -9   5   7    1.60    0.21 
  -9   6   7    1.54    0.21 
  -9   7   7    0.99    0.18 
  -9   8   7    0.44    0.15 
   9 -10  -7    0.06    0.14 
  -8  -6   7   -0.07    0.09 
  -8  -5   7    0.01    0.09 
  -8  -4   7    0.19    0.10 
  -8  -3   7    6.87    0.37 
  -8  -2   7    3.79    0.24 
  -8  -2   7    3.39    0.26 
  -8  -1   7    0.83    0.13 
  -8  -1   7    0.97    0.16 
  -8   0   7    6.97    0.34 
  -8   0   7    7.84    0.40 
  -8   1   7    0.61    0.10 
  -8   1   7    0.47    0.12 
  -8   2   7    3.18    0.25 
  -8   2   7    3.20    0.20 
  -8   3   7    0.03    0.06 
  -8   3   7    0.09    0.09 
  -8   4   7    4.82    0.32 
  -8   4   7    4.91    0.26 
  -8   5   7    3.67    0.28 
  -8   5   7    4.37    0.25 
  -8   6   7   -0.11    0.08 
  -8   6   7   -0.06    0.06 
  -8   7   7    0.02    0.09 
  -8   7   7   -0.02    0.06 
   8  -9  -7    1.23    0.24 
   8 -10  -7    0.34    0.17 
  -7  -7   7   -0.01    0.10 
  -7  -6   7    4.28    0.31 
  -7  -5   7    0.75    0.14 
  -7  -4   7    0.16    0.09 
  -7  -3   7    0.01    0.07 
  -7  -3   7    0.07    0.07 
  -7  -2   7    4.29    0.25 
  -7  -2   7    3.87    0.27 
  -7  -1   7    1.75    0.18 
  -7  -1   7    1.77    0.16 
  -7   0   7    0.81    0.14 
  -7   0   7    1.02    0.12 
  -7   1   7    0.06    0.06 
  -7   1   7   -0.20    0.06 
  -7   2   7    0.72    0.11 
  -7   2   7    0.77    0.13 
  -7   3   7   20.85    0.85 
  -7   3   7   20.60    0.77 
  -7   4   7    0.95    0.12 
  -7   4   7    0.95    0.16 
  -7   5   7   14.32    0.66 
  -7   5   7   14.85    0.59 
  -7   6   7    0.13    0.09 
  -7   6   7    0.25    0.09 
  -7   7   7    0.53    0.12 
   7  -8  -7    2.22    0.28 
   7  -9  -7    0.66    0.20 
   7 -11  -7    0.81    0.19 
  -6  -8   7    0.10    0.10 
  -6  -7   7    0.72    0.16 
  -6  -6   7    0.02    0.08 
  -6  -5   7    1.04    0.15 
  -6  -4   7    1.62    0.18 
  -6  -3   7    7.45    0.37 
  -6  -3   7    7.37    0.37 
  -6  -2   7    0.22    0.08 
  -6  -2   7    0.18    0.08 
  -6  -1   7    0.92    0.13 
  -6  -1   7    0.80    0.11 
  -6   0   7    5.83    0.28 
  -6   0   7    5.43    0.31 
  -6   1   7    3.88    0.24 
  -6   1   7    3.48    0.20 
  -6   2   7   30.57    1.10 
  -6   2   7   31.85    1.19 
  -6   3   7   68.97    2.48 
  -6   3   7   68.54    2.32 
  -6   4   7    0.11    0.07 
  -6   4   7    0.10    0.09 
  -6   5   7   11.70    0.50 
  -6   5   7   12.02    0.56 
  -6   6   7    0.15    0.08 
   6  -7  -7    0.18    0.13 
   6  -8  -7    2.03    0.28 
   6  -9  -7    2.48    0.31 
   6 -11  -7    0.31    0.14 
  -5  -8   7    1.35    0.20 
  -5  -7   7    0.92    0.17 
  -5  -6   7    1.62    0.20 
  -5  -5   7    0.62    0.12 
  -5  -4   7    1.48    0.16 
  -5  -3   7   18.93    0.73 
  -5  -3   7   18.25    0.72 
  -5  -2   7    4.63    0.25 
  -5  -2   7    4.46    0.25 
  -5  -1   7  106.66    3.45 
  -5  -1   7  100.62    3.61 
  -5   0   7   35.82    1.24 
  -5   0   7   34.55    1.30 
  -5   1   7    6.32    0.33 
  -5   1   7    6.49    0.30 
  -5   2   7   16.12    0.68 
  -5   2   7   16.58    0.63 
  -5   4   7    0.77    0.14 
  -5   4   7    0.67    0.11 
  -5   5   7   24.38    0.92 
   5  -5  -7   25.83    1.07 
  -5   6   7   22.79    0.87 
   5  -6  -7   22.90    1.01 
   5  -7  -7    3.75    0.33 
   5  -8  -7    0.44    0.15 
   5  -9  -7    1.23    0.23 
  -4  -9   7    1.44    0.21 
  -4  -8   7    0.12    0.10 
  -4  -7   7    1.08    0.17 
  -4  -6   7    2.95    0.22 
  -4  -5   7    1.57    0.17 
  -4  -4   7    1.93    0.16 
  -4  -4   7    2.08    0.15 
  -4  -3   7   21.94    0.83 
  -4  -3   7   21.62    0.82 
  -4  -2   7   28.12    1.02 
  -4  -2   7   28.71    1.06 
  -4  -1   7    9.01    0.40 
  -4  -1   7    8.93    0.38 
  -4   0   7   44.99    1.61 
  -4   0   7   43.90    1.52 
  -4   1   7   11.79    0.51 
  -4   1   7   11.40    0.46 
  -4   2   7    5.44    0.32 
  -4   2   7    8.07    0.32 
  -4   3   7   19.94    0.75 
  -4   4   7    0.11    0.07 
   4  -4  -7    0.07    0.11 
  -4   5   7    0.37    0.09 
  -4   5   7    0.52    0.10 
   4  -5  -7    0.50    0.16 
  -4   6   7    2.96    0.22 
  -4   6   7    3.18    0.22 
   4  -6  -7    3.16    0.32 
   4  -7  -7    3.23    0.30 
   4  -8  -7    0.12    0.12 
   4  -9  -7    0.74    0.19 
   4 -10  -7    0.61    0.17 
  -3 -10   7   -0.08    0.08 
  -3  -9   7    0.31    0.12 
  -3  -8   7    2.70    0.23 
  -3  -7   7    0.08    0.08 
  -3  -6   7    3.87    0.25 
  -3  -5   7    6.86    0.34 
  -3  -4   7    8.30    0.35 
  -3  -4   7    8.09    0.38 
  -3  -3   7   58.63    2.00 
  -3  -3   7   58.77    2.07 
  -3  -2   7   15.47    0.54 
  -3  -2   7   15.14    0.61 
  -3  -2   7   15.52    0.59 
  -3  -1   7    1.25    0.13 
  -3  -1   7    1.18    0.12 
  -3   0   7   14.03    0.57 
  -3   0   7   14.10    0.54 
  -3   1   7   17.27    0.65 
  -3   2   7    2.15    0.15 
  -3   2   7    2.14    0.11 
   3  -2  -7    1.77    0.20 
  -3   3   7   13.44    0.50 
  -3   4   7   47.13    1.59 
  -3   4   7   45.97    1.61 
   3  -4  -7   46.00    1.77 
  -3   5   7    8.41    0.37 
  -3   5   7    8.34    0.39 
   3  -5  -7    7.79    0.47 
  -3   6   7    0.80    0.12 
   3  -6  -7    1.05    0.19 
  -3   7   7    0.69    0.13 
   3  -7  -7    0.47    0.15 
  -3   8   7    0.10    0.09 
   3  -8  -7    0.03    0.11 
  -3   9   7   -0.02    0.09 
   3 -10  -7    0.74    0.18 
  -2 -10   7    0.14    0.10 
  -2  -9   7    0.17    0.10 
  -2  -8   7    1.58    0.19 
  -2  -7   7   -0.01    0.07 
  -2  -6   7    4.74    0.28 
  -2  -5   7    0.32    0.08 
  -2  -4   7   -0.01    0.02 
  -2  -3   7    0.27    0.04 
  -2  -2   7   21.40    0.73 
   2   2  -7   21.01    0.83 
  -2  -1   7    1.68    0.08 
   2   1  -7    1.67    0.17 
  -2   0   7   49.83    1.66 
   2   0  -7   50.81    1.84 
  -2   1   7   60.35    2.00 
   2  -1  -7   59.88    2.19 
  -2   2   7    0.01    0.02 
  -2   2   7    0.08    0.02 
   2  -2  -7    0.34    0.08 
  -2   3   7    2.02    0.14 
   2  -3  -7    2.02    0.22 
  -2   4   7    0.07    0.05 
  -2   4   7   -0.01    0.04 
   2  -4  -7   -0.07    0.09 
  -2   5   7    5.67    0.29 
   2  -5  -7    5.69    0.37 
  -2   6   7    0.23    0.09 
   2  -6  -7    0.25    0.12 
  -2   7   7    0.93    0.14 
   2  -7  -7    0.79    0.17 
  -2   8   7    0.69    0.14 
   2  -8  -7    0.58    0.17 
  -2   9   7    0.80    0.17 
   2  -9  -7    0.99    0.19 
  -2  10   7    0.25    0.14 
  -1 -11   7    0.31    0.13 
  -1 -10   7    2.68    0.26 
  -1  -9   7    2.41    0.24 
  -1  -8   7    2.17    0.21 
  -1  -7   7   10.93    0.49 
  -1  -6   7    0.66    0.11 
  -1  -5   7    0.50    0.09 
  -1  -4   7    2.38    0.15 
  -1  -4   7    2.40    0.16 
   1   4  -7    2.05    0.15 
  -1  -3   7    5.03    0.24 
   1   3  -7    4.74    0.25 
  -1  -2   7    3.28    0.15 
  -1  -2   7    3.39    0.18 
   1   2  -7    2.92    0.20 
  -1  -1   7   12.68    0.47 
  -1  -1   7   12.08    0.44 
   1   1  -7   11.98    0.53 
  -1   0   7    4.33    0.19 
  -1   0   7    4.36    0.22 
   1   0  -7    4.29    0.26 
  -1   1   7    6.97    0.31 
  -1   1   7    6.61    0.27 
   1  -1  -7    7.35    0.37 
  -1   2   7    3.10    0.16 
  -1   2   7    2.66    0.17 
  -1   3   7    3.99    0.22 
  -1   3   7    3.72    0.21 
   1  -3  -7    3.55    0.27 
  -1   4   7    0.65    0.10 
  -1   4   7    0.74    0.12 
   1  -4  -7    0.96    0.17 
  -1   5   7    4.81    0.28 
   1  -5  -7    5.19    0.34 
  -1   6   7    3.06    0.23 
   1  -6  -7    3.53    0.29 
  -1   7   7   -0.08    0.07 
   1  -7  -7   -0.01    0.11 
  -1   8   7    1.21    0.19 
   1  -8  -7    1.53    0.22 
   1  -8  -7    1.51    0.21 
  -1   9   7    2.07    0.25 
   1  -9  -7    1.73    0.25 
   0 -11   7    0.24    0.12 
   0 -10   7    0.18    0.10 
   0  -9   7    1.40    0.18 
   0  -8   7    0.09    0.08 
   0  -7   7    1.54    0.17 
   0  -6   7    0.09    0.06 
   0  -5   7    0.87    0.11 
   0  -5   7    0.76    0.10 
   0  -4   7    0.48    0.08 
   0  -4   7    0.40    0.07 
   0   4  -7    0.31    0.06 
   0  -3   7    4.18    0.21 
   0  -3   7    4.13    0.20 
   0   3  -7    4.44    0.23 
   0  -2   7    5.15    0.24 
   0  -2   7    5.31    0.22 
   0   2  -7    4.74    0.27 
   0  -1   7   19.51    0.71 
   0  -1   7   19.31    0.69 
   0   1  -7   20.00    0.79 
   0   0   7   18.86    0.69 
   0   0   7   18.97    0.68 
   0   0  -7   18.81    0.77 
   0   1   7    5.33    0.26 
   0   1   7    5.35    0.25 
   0  -1  -7    5.72    0.32 
   0   2   7    0.03    0.05 
   0   2   7    0.03    0.04 
   0  -2  -7   -0.04    0.03 
   0   3   7   11.10    0.45 
   0   3   7   10.68    0.46 
   0  -3  -7   10.95    0.53 
   0   4   7   12.29    0.52 
   0  -4  -7   12.44    0.59 
   0   5   7    2.43    0.21 
   0  -5  -7    2.65    0.24 
   0   6   7    6.76    0.37 
   0  -6  -7    6.53    0.40 
   0   7   7    0.85    0.15 
   0  -7  -7    0.78    0.16 
   0   8   7    0.69    0.16 
   0  -8  -7    0.67    0.16 
   0  -8  -7    0.50    0.15 
   0   9   7    0.07    0.12 
   1 -12   7    0.37    0.13 
   1 -11   7    0.72    0.15 
   1 -10   7    0.05    0.09 
   1  -9   7    3.07    0.22 
   1  -8   7    1.43    0.16 
   1  -7   7    0.43    0.11 
   1  -7   7    0.44    0.09 
   1  -6   7    8.27    0.39 
   1  -6   7    8.80    0.38 
   1  -5   7    4.48    0.23 
   1  -5   7    4.71    0.24 
  -1   5  -7    4.53    0.20 
   1  -4   7    0.05    0.04 
   1  -4   7    0.11    0.05 
  -1   4  -7   -0.01    0.04 
   1  -3   7    6.34    0.28 
   1  -3   7    6.05    0.27 
  -1   3  -7    6.66    0.30 
   1  -2   7   46.89    1.54 
   1  -2   7   42.88    1.54 
  -1   2  -7   46.46    1.65 
   1  -1   7    0.17    0.05 
   1  -1   7    0.11    0.05 
  -1   1  -7    0.15    0.08 
   1   0   7   32.68    1.15 
   1   0   7   33.33    1.15 
  -1   0  -7   32.96    1.25 
   1   1   7    5.66    0.27 
   1   1   7    5.89    0.27 
   1   2   7    0.02    0.05 
   1   2   7    0.11    0.06 
  -1  -2  -7    0.14    0.09 
   1   3   7    5.24    0.29 
  -1  -3  -7    5.91    0.34 
   1   4   7   16.61    0.69 
  -1  -4  -7   17.51    0.75 
   1   5   7    2.68    0.24 
  -1  -5  -7    2.93    0.24 
   1   6   7    2.16    0.23 
  -1  -6  -7    2.52    0.25 
   1   7   7    2.49    0.26 
  -1  -7  -7    2.27    0.26 
  -1  -7  -7    2.53    0.26 
   1   8   7    0.50    0.15 
  -1  -8  -7    0.38    0.14 
   2 -12   7   -0.05    0.09 
   2 -11   7    0.52    0.13 
   2 -10   7    0.20    0.10 
   2  -9   7    2.91    0.21 
   2  -9   7    3.06    0.28 
   2  -8   7    3.28    0.22 
   2  -8   7    3.32    0.26 
   2  -7   7    1.17    0.15 
   2  -7   7    0.81    0.12 
   2  -6   7    0.10    0.06 
   2  -6   7    0.38    0.09 
   2  -5   7    0.71    0.10 
   2  -5   7    0.95    0.10 
  -2   5  -7    0.61    0.07 
   2  -4   7    0.60    0.08 
   2  -4   7    0.83    0.10 
  -2   4  -7    0.66    0.09 
   2  -3   7    1.15    0.10 
   2  -3   7    1.30    0.12 
  -2   3  -7    1.22    0.12 
   2  -2   7   24.92    0.90 
   2  -2   7   25.98    0.89 
  -2   2  -7   24.66    0.96 
   2  -1   7    5.05    0.25 
   2  -1   7    5.34    0.24 
  -2   1  -7    5.11    0.28 
   2   0   7   19.66    0.72 
   2   0   7   19.28    0.73 
  -2   0  -7   20.25    0.80 
   2   1   7    0.34    0.08 
   2   1   7    0.34    0.08 
  -2  -1  -7    0.18    0.07 
   2   2   7    0.32    0.08 
  -2  -2  -7    0.41    0.11 
   2   3   7    0.33    0.10 
  -2  -3  -7    0.21    0.11 
   2   4   7    5.53    0.33 
  -2  -4  -7    5.52    0.35 
   2   5   7    3.42    0.27 
  -2  -5  -7    3.13    0.27 
   2   6   7    0.01    0.10 
  -2  -6  -7   -0.02    0.10 
  -2  -6  -7    0.14    0.11 
   2   7   7    0.75    0.17 
  -2  -7  -7    0.71    0.17 
  -2  -7  -7    0.61    0.17 
   3 -13   7    0.26    0.12 
   3 -12   7    0.07    0.13 
   3 -12   7    0.25    0.11 
   3 -11   7    0.02    0.08 
   3 -11   7    0.01    0.12 
   3 -10   7    2.71    0.27 
   3 -10   7    2.56    0.21 
   3  -9   7    0.88    0.13 
   3  -9   7    0.80    0.16 
   3  -8   7    5.20    0.27 
   3  -8   7    4.76    0.31 
   3  -7   7    3.35    0.23 
   3  -7   7    3.00    0.19 
   3  -6   7    1.11    0.14 
   3  -6   7    1.15    0.12 
   3  -5   7    1.72    0.12 
   3  -5   7    1.57    0.15 
  -3   5  -7    1.50    0.12 
   3  -4   7    2.54    0.17 
   3  -4   7    2.64    0.15 
  -3   4  -7    2.40    0.17 
   3  -3   7    1.50    0.11 
   3  -3   7    1.32    0.13 
  -3   3  -7    1.45    0.14 
   3  -2   7   20.11    0.76 
   3  -2   7   20.23    0.73 
  -3   2  -7   20.76    0.80 
   3  -1   7   32.13    1.16 
   3  -1   7   32.06    1.12 
  -3   1  -7   33.40    1.23 
   3   0   7   -0.05    0.05 
   3   0   7   -0.01    0.05 
  -3   0  -7   -0.03    0.07 
   3   1   7    1.91    0.17 
  -3  -1  -7    1.92    0.19 
   3   2   7   17.52    0.72 
  -3  -2  -7   19.02    0.77 
   3   3   7   16.28    0.68 
  -3  -3  -7   15.97    0.71 
   3   4   7    2.72    0.24 
  -3  -4  -7    3.31    0.26 
   3   5   7   10.52    0.53 
  -3  -5  -7   10.15    0.52 
  -3  -5  -7   10.79    0.54 
   3   6   7    0.53    0.15 
  -3  -6  -7    0.44    0.15 
  -3  -6  -7    0.48    0.14 
   3   7   7    0.87    0.19 
  -3  -7  -7    1.05    0.20 
   4 -12   7   -0.24    0.11 
   4 -11   7    0.92    0.15 
   4 -11   7    0.78    0.18 
   4 -10   7    1.69    0.22 
   4 -10   7    1.54    0.17 
   4  -9   7    5.56    0.34 
   4  -9   7    4.92    0.27 
   4  -8   7    1.86    0.15 
   4  -8   7    1.61    0.19 
   4  -7   7    2.22    0.16 
   4  -7   7    2.17    0.20 
   4  -6   7    0.31    0.09 
   4  -6   7    0.39    0.07 
   4  -5   7    0.08    0.05 
   4  -5   7   -0.06    0.05 
  -4   5  -7   -0.09    0.04 
   4  -4   7    7.35    0.34 
   4  -4   7    7.04    0.29 
  -4   4  -7    7.21    0.34 
   4  -3   7   10.20    0.39 
   4  -3   7   10.31    0.44 
  -4   3  -7    9.96    0.45 
   4  -2   7    0.77    0.09 
   4  -2   7    0.95    0.12 
  -4   2  -7    0.93    0.14 
   4  -1   7    5.15    0.24 
   4  -1   7    4.93    0.28 
  -4   1  -7    5.13    0.30 
   4   0   7    0.33    0.09 
  -4   0  -7    0.04    0.09 
   4   1   7    2.81    0.21 
  -4  -1  -7    2.47    0.22 
   4   2   7   12.35    0.55 
  -4  -2  -7   11.93    0.57 
   4   3   7    4.05    0.28 
  -4  -3  -7    3.89    0.26 
  -4  -3  -7    3.63    0.29 
   4   4   7    3.08    0.26 
  -4  -4  -7    2.65    0.23 
  -4  -4  -7    2.40    0.26 
   4   5   7    3.21    0.29 
  -4  -5  -7    3.12    0.26 
  -4  -5  -7    3.24    0.28 
   4   6   7    0.02    0.12 
  -4  -6  -7    0.08    0.12 
  -4  -6  -7    0.07    0.12 
   5 -12   7    2.42    0.29 
   5 -11   7    1.18    0.21 
   5 -10   7    0.43    0.15 
   5  -9   7    3.13    0.27 
   5  -8   7    0.30    0.11 
   5  -7   7    3.51    0.25 
   5  -6   7    3.45    0.24 
  -5   6  -7    3.28    0.20 
   5  -5   7    6.39    0.33 
  -5   5  -7    6.20    0.31 
   5  -4   7    0.25    0.08 
  -5   4  -7    0.20    0.08 
   5  -3   7   14.06    0.58 
  -5   3  -7   14.19    0.60 
   5  -2   7    0.17    0.08 
  -5   2  -7    0.07    0.08 
   5  -1   7    9.32    0.43 
  -5   1  -7    8.53    0.44 
   5   0   7    5.73    0.32 
  -5   0  -7    5.73    0.34 
   5   1   7    0.03    0.08 
  -5  -1  -7    0.07    0.09 
   5   2   7    1.97    0.21 
  -5  -2  -7    2.39    0.25 
   5   3   7    0.29    0.12 
  -5  -3  -7    0.31    0.13 
   5   4   7   -0.03    0.11 
  -5  -4  -7    0.06    0.12 
   5   5   7    0.28    0.15 
  -5  -5  -7    0.15    0.13 
   6 -12   7    0.24    0.15 
   6 -11   7    0.56    0.16 
   6 -10   7    0.58    0.15 
   6  -9   7    0.05    0.10 
   6  -8   7    1.64    0.19 
   6  -7   7    0.94    0.15 
   6  -6   7    5.66    0.32 
  -6   6  -7    5.58    0.30 
   6  -5   7    0.20    0.09 
  -6   5  -7    0.14    0.08 
   6  -4   7    0.17    0.08 
  -6   4  -7    0.14    0.08 
   6  -3   7    0.56    0.11 
  -6   3  -7    0.62    0.12 
   6  -2   7    0.04    0.07 
  -6   2  -7    0.00    0.08 
   6  -1   7    1.38    0.17 
  -6   1  -7    1.19    0.17 
   6   0   7    1.71    0.20 
  -6   0  -7    2.04    0.22 
   6   1   7    0.14    0.10 
  -6  -1  -7    0.13    0.11 
   6   2   7   -0.04    0.09 
  -6  -2  -7    0.00    0.11 
   6   3   7    0.58    0.15 
  -6  -3  -7    0.36    0.14 
   6   4   7    0.06    0.12 
  -6  -4  -7    0.50    0.16 
   7 -12   7    0.13    0.14 
   7 -11   7    0.14    0.12 
   7 -10   7    1.22    0.19 
   7  -9   7    0.47    0.13 
   7  -8   7    4.85    0.32 
   7  -7   7   13.84    0.61 
   7  -6   7    1.68    0.19 
  -7   6  -7    1.90    0.19 
   7  -5   7    0.06    0.09 
  -7   5  -7    0.26    0.09 
   7  -4   7   -0.08    0.07 
  -7   4  -7   -0.10    0.07 
   7  -3   7    0.26    0.10 
  -7   3  -7    0.15    0.09 
   7  -2   7    0.08    0.08 
  -7   2  -7   -0.01    0.09 
   7  -1   7    1.57    0.19 
  -7   1  -7    1.29    0.18 
   7   0   7    2.46    0.25 
  -7   0  -7    2.99    0.25 
   7   1   7    0.18    0.12 
  -7  -1  -7    0.40    0.14 
   7   2   7    0.78    0.17 
  -7  -3  -7    0.51    0.16 
   8 -12   7   -0.10    0.12 
   8 -11   7    0.25    0.13 
   8 -10   7    3.67    0.30 
   8  -9   7    1.54    0.20 
   8  -8   7    2.24    0.23 
   8  -7   7    1.87    0.22 
   8  -6   7   -0.07    0.08 
  -8   6  -7   -0.08    0.07 
   8  -5   7    0.06    0.09 
  -8   5  -7    0.05    0.09 
   8  -4   7    1.10    0.16 
  -8   4  -7    1.52    0.20 
   8  -3   7    4.96    0.32 
  -8   3  -7    4.57    0.32 
   8  -2   7    0.03    0.10 
  -8   2  -7    0.05    0.10 
   8  -1   7    4.32    0.31 
  -8   1  -7    4.34    0.33 
   8   0   7    0.39    0.14 
  -8   0  -7    0.54    0.15 
   8   1   7    0.13    0.12 
  -8  -1  -7    0.04    0.12 
   9 -11   7   -0.03    0.11 
   9 -10   7    1.31    0.20 
   9  -9   7    3.71    0.31 
   9  -8   7   -0.06    0.10 
   9  -7   7    0.85    0.16 
  -9   7  -7    1.71    0.20 
   9  -6   7    0.11    0.10 
  -9   6  -7    0.11    0.09 
   9  -5   7   -0.01    0.09 
  -9   5  -7   -0.03    0.09 
   9  -4   7    0.27    0.12 
  -9   4  -7    0.23    0.11 
   9  -3   7    2.32    0.25 
  -9   3  -7    2.42    0.26 
   9  -2   7    1.52    0.20 
  -9   2  -7    1.66    0.23 
   9  -1   7    0.31    0.13 
  -9   1  -7    0.20    0.14 
  10 -10   7    0.31    0.14 
  10  -9   7    0.11    0.12 
  10  -8   7    0.02    0.11 
  10  -7   7   -0.03    0.10 
 -10   7  -7    0.00    0.09 
  10  -6   7    0.55    0.15 
 -10   6  -7    0.27    0.12 
  10  -5   7    1.72    0.22 
 -10   5  -7    1.90    0.24 
  10  -4   7    0.03    0.12 
 -10   4  -7    0.05    0.12 
  10  -3   7    0.52    0.16 
 -10   3  -7    0.30    0.15 
 -11   7  -7    0.23    0.12 
 -11   6  -7   -0.06    0.10 
 -11   5  -7    0.61    0.17 
 -12   0   8    0.45    0.17 
 -12   1   8    0.89    0.19 
 -12   2   8    0.21    0.15 
 -12   3   8   -0.19    0.10 
 -12   4   8    0.47    0.16 
 -12   5   8    0.07    0.12 
 -12   6   8    1.30    0.23 
 -12   7   8    0.70    0.19 
 -11  -1   8    1.04    0.20 
 -11   0   8    1.22    0.21 
 -11   1   8    2.58    0.29 
 -11   2   8    0.67    0.17 
 -11   3   8    0.48    0.14 
 -11   4   8    4.33    0.34 
 -11   5   8    0.73    0.17 
 -11   6   8    1.22    0.21 
 -11   7   8    0.84    0.19 
 -11   8   8    0.24    0.14 
 -11   9   8   -0.09    0.12 
 -10  -1   8    2.44    0.27 
 -10   0   8    0.03    0.11 
 -10   1   8   -0.07    0.10 
 -10   2   8   -0.11    0.09 
 -10   3   8    0.17    0.11 
 -10   4   8    0.02    0.09 
 -10   5   8    0.00    0.10 
 -10   6   8    0.49    0.16 
 -10   7   8   -0.15    0.10 
 -10   8   8   -0.08    0.10 
  10 -10  -8    0.12    0.18 
  -9  -2   8    3.63    0.29 
  -9  -1   8    1.54    0.18 
  -9  -1   8    1.55    0.21 
  -9   0   8    0.00    0.07 
  -9   0   8   -0.02    0.10 
  -9   1   8    0.00    0.07 
  -9   1   8   -0.01    0.10 
  -9   2   8    0.00    0.08 
  -9   2   8    0.03    0.07 
  -9   3   8    2.11    0.23 
  -9   4   8    0.11    0.10 
  -9   5   8    0.73    0.15 
  -9   6   8    0.23    0.13 
  -9   7   8    0.40    0.13 
  -9   8   8    0.17    0.14 
   9  -9  -8    1.12    0.24 
   9 -10  -8    0.17    0.17 
  -8  -6   8    0.01    0.10 
  -8  -5   8   -0.01    0.10 
  -8  -4   8    0.00    0.09 
  -8  -3   8    2.66    0.22 
  -8  -2   8    1.57    0.19 
  -8  -2   8    1.42    0.17 
  -8  -1   8    0.31    0.12 
  -8  -1   8    0.30    0.09 
  -8   0   8    0.08    0.08 
  -8   0   8   -0.12    0.08 
  -8   1   8    5.08    0.33 
  -8   1   8    5.54    0.29 
  -8   2   8    2.69    0.19 
  -8   2   8    2.68    0.23 
  -8   3   8    0.69    0.11 
  -8   3   8    1.00    0.16 
  -8   4   8    3.97    0.24 
  -8   4   8    3.76    0.29 
  -8   5   8    1.19    0.18 
  -8   5   8    1.08    0.15 
  -8   6   8    0.42    0.11 
  -8   6   8    0.35    0.13 
  -8   7   8    1.04    0.19 
  -8   7   8    1.57    0.19 
   8  -8  -8   -0.02    0.12 
   8  -9  -8    0.09    0.14 
   8 -10  -8    0.93    0.24 
  -7  -7   8    0.25    0.12 
  -7  -6   8    1.31    0.20 
  -7  -5   8    0.64    0.14 
  -7  -4   8    0.49    0.13 
  -7  -3   8    0.32    0.10 
  -7  -2   8   10.99    0.51 
  -7  -2   8   10.92    0.49 
  -7  -1   8   13.78    0.60 
  -7  -1   8   12.84    0.55 
  -7   0   8    0.83    0.14 
  -7   0   8    0.61    0.11 
  -7   1   8   16.81    0.74 
  -7   1   8   18.08    0.69 
  -7   2   8    7.98    0.42 
  -7   2   8    7.51    0.36 
  -7   3   8    1.46    0.15 
  -7   3   8    1.59    0.19 
  -7   4   8    5.68    0.35 
  -7   4   8    5.68    0.30 
  -7   5   8    5.00    0.32 
  -7   5   8    4.33    0.27 
  -7   6   8    0.28    0.12 
  -7   6   8    0.30    0.10 
  -7   7   8    2.13    0.22 
   7  -7  -8    1.99    0.28 
   7  -8  -8   -0.02    0.12 
   7  -9  -8    0.00    0.14 
  -6  -7   8    0.00    0.11 
  -6  -6   8    0.01    0.09 
  -6  -5   8    6.02    0.35 
  -6  -4   8    8.91    0.44 
  -6  -3   8    0.36    0.10 
  -6  -3   8    0.42    0.11 
  -6  -2   8    8.92    0.42 
  -6  -2   8    8.48    0.40 
  -6  -1   8    4.41    0.25 
  -6  -1   8    4.39    0.27 
  -6   0   8    2.51    0.18 
  -6   0   8    2.43    0.20 
  -6   1   8   20.41    0.82 
  -6   1   8   19.69    0.76 
  -6   2   8   20.05    0.76 
  -6   2   8   19.90    0.83 
  -6   3   8    4.59    0.30 
  -6   3   8    4.03    0.24 
  -6   4   8    1.47    0.18 
  -6   4   8    1.52    0.16 
  -6   5   8   12.46    0.53 
  -6   6   8    0.32    0.10 
   6  -6  -8    0.17    0.14 
   6  -7  -8    1.19    0.23 
   6  -8  -8    1.48    0.25 
   6  -9  -8    1.50    0.26 
  -5  -8   8    4.35    0.32 
  -5  -7   8    3.46    0.27 
  -5  -6   8    0.42    0.12 
  -5  -5   8    1.72    0.19 
  -5  -4   8   10.57    0.48 
  -5  -3   8    8.01    0.37 
  -5  -3   8    7.42    0.37 
  -5  -2   8    5.94    0.32 
  -5  -2   8    6.44    0.31 
  -5  -1   8   72.48    2.60 
  -5  -1   8   73.81    2.48 
  -5   0   8   12.39    0.55 
  -5   0   8   12.50    0.51 
  -5   1   8    4.63    0.25 
  -5   1   8    4.35    0.27 
  -5   2   8   10.06    0.47 
  -5   2   8    9.31    0.41 
  -5   3   8    9.93    0.48 
  -5   3   8    9.58    0.42 
  -5   4   8    0.25    0.09 
   5  -4  -8    0.12    0.11 
  -5   5   8   15.24    0.62 
   5  -5  -8   15.24    0.75 
  -5   6   8    1.57    0.17 
   5  -6  -8    1.27    0.21 
   5  -7  -8    2.34    0.29 
   5  -8  -8    1.16    0.23 
   5  -9  -8    0.61    0.19 
  -4  -9   8    1.46    0.21 
  -4  -8   8    0.07    0.10 
  -4  -7   8    5.78    0.34 
  -4  -6   8    2.10    0.21 
  -4  -5   8    0.16    0.08 
  -4  -4   8    7.73    0.38 
  -4  -3   8    2.27    0.18 
  -4  -3   8    2.12    0.17 
  -4  -2   8    0.13    0.08 
  -4  -2   8    0.22    0.08 
  -4  -1   8   26.89    1.02 
  -4  -1   8   26.91    0.98 
  -4   0   8   28.86    1.09 
  -4   0   8   28.32    1.02 
  -4   1   8   -0.02    0.05 
  -4   1   8    0.05    0.07 
  -4   2   8    0.46    0.09 
  -4   3   8    1.77    0.15 
   4  -3  -8    1.33    0.20 
  -4   4   8    0.08    0.07 
   4  -4  -8   -0.11    0.08 
  -4   5   8    3.31    0.22 
   4  -5  -8    2.48    0.29 
  -4   6   8    0.42    0.11 
   4  -6  -8    0.62    0.18 
   4  -7  -8    0.57    0.17 
   4  -8  -8   -0.03    0.13 
   4  -9  -8    0.01    0.14 
   4 -10  -8   -0.09    0.10 
  -3  -9   8    1.38    0.19 
  -3  -8   8    0.60    0.14 
  -3  -7   8    1.33    0.17 
  -3  -6   8    0.88    0.14 
  -3  -5   8    0.15    0.08 
  -3  -4   8    9.60    0.43 
  -3  -4   8    9.84    0.41 
  -3  -3   8   54.30    1.97 
  -3  -3   8   57.37    1.92 
  -3  -2   8   12.96    0.53 
  -3   0   8   11.06    0.49 
   3   0  -8   14.89    0.61 
  -3   1   8   -0.03    0.04 
   3  -1  -8   -0.04    0.06 
  -3   2   8    0.03    0.05 
   3  -2  -8    0.01    0.08 
  -3   3   8   11.79    0.45 
  -3   3   8   11.95    0.50 
   3  -3  -8   11.99    0.59 
  -3   4   8   40.61    1.45 
  -3   4   8   41.44    1.42 
   3  -4  -8   40.32    1.60 
  -3   5   8    2.91    0.21 
  -3   5   8    3.88    0.23 
   3  -5  -8    3.50    0.31 
  -3   6   8    0.67    0.11 
   3  -6  -8    0.67    0.17 
  -3   7   8    0.63    0.12 
   3  -7  -8    0.56    0.16 
  -3   8   8    0.18    0.10 
   3  -8  -8    0.21    0.14 
  -2 -10   8    0.03    0.10 
  -2  -9   8    1.52    0.20 
  -2  -8   8    1.54    0.19 
  -2  -7   8    0.81    0.14 
  -2  -6   8    6.42    0.34 
  -2  -5   8    0.44    0.09 
  -2  -4   8    4.22    0.22 
  -2  -4   8    4.08    0.24 
   2   4  -8    4.46    0.25 
  -2  -3   8    0.01    0.02 
  -2  -3   8    0.02    0.03 
   2   3  -8    0.32    0.09 
  -2  -2   8   16.79    0.58 
   2   2  -8   16.72    0.70 
  -2  -1   8    0.56    0.05 
   2   1  -8    0.44    0.10 
  -2   0   8    7.70    0.29 
   2   0  -8    7.65    0.41 
  -2   1   8    0.25    0.04 
   2  -1  -8    0.30    0.10 
   2  -2  -8    0.40    0.09 
  -2   3   8    6.03    0.28 
  -2   3   8    5.48    0.29 
   2  -3  -8    6.03    0.37 
  -2   4   8    2.37    0.18 
  -2   4   8    2.61    0.19 
   2  -4  -8    2.64    0.28 
  -2   5   8    3.20    0.21 
  -2   5   8    2.46    0.20 
   2  -5  -8    3.04    0.28 
  -2   6   8    0.52    0.11 
   2  -6  -8    0.66    0.17 
  -2   7   8    0.92    0.15 
   2  -7  -8    0.53    0.16 
  -2   8   8    0.32    0.11 
   2  -8  -8    0.15    0.13 
  -2   9   8   -0.06    0.10 
   2  -9  -8    0.01    0.11 
  -1 -11   8    0.46    0.14 
  -1 -10   8    1.16    0.19 
  -1  -9   8    0.11    0.09 
  -1  -8   8    1.31    0.17 
  -1  -7   8    3.12    0.22 
  -1  -6   8    3.40    0.22 
  -1  -5   8    5.14    0.27 
  -1  -5   8    5.36    0.28 
  -1  -4   8    3.80    0.20 
  -1  -4   8    3.83    0.22 
   1   4  -8    3.48    0.21 
  -1  -3   8   10.54    0.40 
  -1  -3   8   10.09    0.42 
   1   3  -8   10.00    0.45 
  -1  -2   8   16.36    0.60 
   1   2  -8   15.16    0.66 
  -1  -1   8   23.28    0.84 
   1   1  -8   22.49    0.91 
  -1   0   8    0.11    0.04 
  -1   0   8    0.09    0.06 
   1   0  -8    0.17    0.09 
  -1   1   8    9.34    0.40 
  -1   1   8    9.64    0.37 
   1  -1  -8    9.48    0.48 
  -1   2   8   46.58    1.60 
  -1   2   8   47.17    1.62 
  -1   3   8   19.05    0.74 
  -1   3   8   19.29    0.72 
   1  -3  -8   18.97    0.84 
  -1   4   8    0.95    0.12 
  -1   4   8    1.12    0.14 
   1  -4  -8    1.37    0.20 
  -1   5   8    2.80    0.22 
   1  -5  -8    3.22    0.28 
  -1   6   8    0.13    0.09 
   1  -6  -8    0.03    0.11 
  -1   7   8   -0.08    0.07 
   1  -7  -8   -0.13    0.10 
  -1   8   8    0.81    0.17 
   1  -8  -8    0.97    0.19 
  -1   9   8    2.31    0.27 
   0 -11   8   -0.14    0.08 
   0 -10   8    0.51    0.13 
   0  -9   8    0.09    0.09 
   0  -8   8    1.26    0.16 
   0  -7   8    1.92    0.19 
   0  -7   8    1.93    0.20 
   0  -6   8   -0.05    0.05 
   0  -6   8    0.02    0.06 
   0  -5   8    0.39    0.08 
   0  -5   8    0.44    0.09 
   0  -4   8    3.94    0.22 
   0  -4   8    4.27    0.21 
   0   4  -8    3.75    0.22 
   0  -3   8   15.63    0.58 
   0  -3   8   15.10    0.59 
   0   3  -8   16.08    0.64 
   0  -2   8   39.48    1.35 
   0  -2   8   40.09    1.34 
   0   2  -8   37.70    1.45 
   0  -1   8   55.78    1.89 
   0  -1   8   56.79    1.90 
   0   1  -8   55.45    2.04 
   0   0   8    0.22    0.05 
   0   0   8    0.07    0.06 
   0   0  -8    0.18    0.08 
   0   1   8    2.86    0.18 
   0   1   8    3.07    0.18 
   0  -1  -8    2.75    0.23 
   0   2   8    0.02    0.07 
   0   2   8   -0.14    0.04 
   0  -2  -8   -0.09    0.08 
   0   3   8   10.37    0.47 
   0   3   8   10.97    0.46 
   0  -3  -8   11.42    0.56 
   0   4   8    0.93    0.13 
   0  -4  -8    1.03    0.18 
   0   5   8    3.57    0.26 
   0  -5  -8    3.71    0.29 
   0   6   8    5.15    0.32 
   0  -6  -8    4.21    0.32 
   0   7   8    1.06    0.18 
   0  -7  -8    1.39    0.22 
   0   8   8   -0.05    0.10 
   0  -8  -8    0.09    0.13 
   0  -8  -8    0.12    0.12 
   1 -12   8    0.41    0.14 
   1 -11   8    0.24    0.11 
   1 -10   8    0.10    0.08 
   1  -9   8    4.68    0.29 
   1  -9   8    5.04    0.35 
   1  -8   8    0.03    0.09 
   1  -8   8    0.04    0.07 
   1  -7   8    4.20    0.25 
   1  -7   8    4.02    0.27 
   1  -6   8    3.30    0.22 
   1  -6   8    3.15    0.20 
   1  -5   8    6.84    0.33 
   1  -5   8    7.22    0.33 
   1  -4   8    0.01    0.05 
   1  -4   8    0.01    0.04 
  -1   4  -8    0.04    0.05 
   1  -3   8   26.42    0.93 
   1  -3   8   26.28    0.93 
  -1   3  -8   25.70    0.99 
   1  -2   8    9.99    0.41 
   1  -2   8   10.30    0.42 
  -1   2  -8   10.54    0.48 
   1  -1   8    0.11    0.06 
   1  -1   8    0.28    0.06 
  -1   1  -8    0.24    0.09 
   1   0   8    4.82    0.24 
   1   0   8    4.70    0.25 
  -1   0  -8    5.05    0.31 
   1   1   8   26.57    0.96 
   1   1   8   26.17    0.97 
  -1  -1  -8   27.33    1.07 
   1   2   8    0.86    0.12 
   1   2   8    1.07    0.13 
  -1  -2  -8    1.21    0.17 
   1   3   8   16.41    0.66 
  -1  -3  -8   16.16    0.73 
   1   4   8    9.29    0.45 
  -1  -4  -8    9.29    0.49 
   1   5   8   -0.04    0.08 
  -1  -5  -8    0.00    0.10 
   1   6   8    5.19    0.35 
  -1  -6  -8    5.60    0.37 
   1   7   8    2.43    0.27 
  -1  -7  -8    2.94    0.30 
  -1  -7  -8    2.80    0.29 
   1   8   8    0.12    0.12 
   2 -12   8    0.15    0.14 
   2 -12   8    0.02    0.09 
   2 -11   8    0.08    0.13 
   2 -11   8    0.25    0.11 
   2 -10   8    0.25    0.12 
   2 -10   8    0.04    0.08 
   2  -9   8    1.96    0.22 
   2  -9   8    1.87    0.19 
   2  -8   8    0.70    0.14 
   2  -8   8    0.73    0.12 
   2  -7   8    2.25    0.17 
   2  -7   8    1.93    0.19 
   2  -6   8    0.38    0.09 
   2  -6   8    0.43    0.09 
   2  -5   8    3.02    0.18 
   2  -5   8    3.01    0.20 
  -2   5  -8    2.77    0.16 
   2  -4   8    1.37    0.13 
   2  -4   8    1.36    0.12 
  -2   4  -8    1.25    0.13 
   2  -3   8   25.51    0.92 
   2  -3   8   25.69    0.91 
  -2   3  -8   25.54    0.97 
   2  -2   8   15.10    0.56 
   2  -2   8   14.61    0.57 
  -2   2  -8   14.51    0.62 
   2  -1   8    4.01    0.22 
   2  -1   8    3.85    0.22 
  -2   1  -8    3.90    0.26 
   2   0   8   16.19    0.64 
   2   0   8   15.87    0.62 
  -2   0  -8   17.08    0.70 
   2   1   8   46.03    1.61 
   2   1   8   45.71    1.59 
  -2  -1  -8   45.64    1.71 
   2   2   8    1.40    0.15 
  -2  -2  -8    1.41    0.19 
   2   3   8   16.62    0.69 
  -2  -3  -8   16.91    0.74 
   2   4   8   13.52    0.60 
  -2  -4  -8   12.91    0.62 
   2   5   8    0.37    0.12 
  -2  -5  -8    0.30    0.14 
   2   6   8    0.90    0.17 
  -2  -6  -8    0.94    0.19 
  -2  -6  -8    1.23    0.20 
   2   7   8    0.02    0.11 
  -2  -7  -8    0.03    0.11 
  -2  -7  -8    0.11    0.13 
   3 -13   8    0.11    0.11 
   3 -12   8   -0.03    0.12 
   3 -12   8    0.04    0.10 
   3 -11   8    0.55    0.16 
   3 -11   8    0.48    0.12 
   3 -10   8    1.08    0.19 
   3 -10   8    1.32    0.16 
   3  -9   8    0.19    0.10 
   3  -9   8    0.00    0.07 
   3  -8   8    9.12    0.45 
   3  -8   8    8.12    0.39 
   3  -7   8    4.21    0.24 
   3  -7   8    4.37    0.27 
   3  -6   8    0.23    0.08 
   3  -6   8    0.13    0.06 
   3  -5   8    7.59    0.35 
   3  -5   8    7.34    0.32 
  -3   5  -8    7.46    0.33 
   3  -4   8    7.83    0.36 
   3  -4   8    8.45    0.35 
  -3   4  -8    8.00    0.37 
   3  -3   8    3.51    0.20 
   3  -3   8    3.98    0.23 
  -3   3  -8    3.53    0.23 
   3  -2   8   29.47    1.06 
   3  -2   8   30.93    1.09 
  -3   2  -8   30.27    1.15 
   3  -1   8   20.55    0.76 
   3  -1   8   21.51    0.80 
  -3   1  -8   20.74    0.85 
   3   0   8   14.63    0.58 
   3   0   8   15.39    0.61 
  -3   0  -8   15.43    0.66 
   3   1   8   35.30    1.31 
  -3  -1  -8   37.01    1.39 
   3   2   8    0.19    0.09 
  -3  -2  -8    0.12    0.11 
   3   3   8    1.67    0.19 
  -3  -3  -8    1.56    0.21 
   3   4   8    2.07    0.22 
  -3  -4  -8    1.79    0.22 
   3   5   8    0.99    0.17 
  -3  -5  -8    0.71    0.16 
  -3  -5  -8    1.00    0.18 
   3   6   8    0.12    0.12 
  -3  -6  -8    0.21    0.13 
  -3  -6  -8    0.19    0.12 
   4 -12   8    0.31    0.15 
   4 -11   8    1.86    0.24 
   4 -10   8    1.48    0.21 
   4  -9   8    0.42    0.10 
   4  -9   8    0.41    0.13 
   4  -8   8    0.47    0.10 
   4  -8   8    0.72    0.14 
   4  -7   8    4.29    0.23 
   4  -7   8    4.11    0.27 
   4  -6   8    0.56    0.11 
   4  -6   8    0.56    0.09 
   4  -5   8   11.53    0.45 
   4  -5   8   11.82    0.50 
  -4   5  -8   11.09    0.48 
   4  -4   8    5.19    0.28 
   4  -4   8    5.19    0.24 
  -4   4  -8    5.26    0.28 
   4  -3   8    0.93    0.12 
   4  -3   8    0.91    0.10 
  -4   3  -8    1.10    0.14 
   4  -2   8   11.91    0.51 
   4  -2   8   12.06    0.47 
  -4   2  -8   11.69    0.54 
   4  -1   8    0.96    0.11 
   4  -1   8    1.15    0.14 
  -4   1  -8    1.14    0.16 
   4   0   8    9.60    0.45 
  -4   0  -8    9.70    0.48 
   4   1   8    5.03    0.30 
  -4  -1  -8    4.89    0.31 
   4   2   8    0.63    0.13 
  -4  -2  -8    0.47    0.13 
   4   3   8   -0.04    0.09 
  -4  -3  -8   -0.05    0.10 
   4   4   8   -0.04    0.10 
  -4  -4  -8   -0.04    0.09 
  -4  -4  -8    0.09    0.12 
   4   5   8   -0.07    0.10 
  -4  -5  -8    0.01    0.12 
   5 -12   8    0.27    0.14 
   5 -11   8    1.15    0.21 
   5 -10   8    0.48    0.15 
   5  -9   8    2.02    0.22 
   5  -8   8    0.30    0.12 
   5  -7   8    3.11    0.24 
   5  -6   8    0.68    0.12 
  -5   6  -8    0.99    0.12 
   5  -5   8    2.83    0.22 
  -5   5  -8    2.93    0.21 
   5  -4   8   -0.11    0.05 
  -5   4  -8    0.03    0.07 
   5  -3   8    1.37    0.16 
  -5   3  -8    1.13    0.15 
   5  -2   8   -0.01    0.07 
  -5   2  -8    0.03    0.08 
   5  -1   8    2.01    0.20 
  -5   1  -8    1.95    0.21 
   5   0   8    0.05    0.07 
  -5   0  -8    0.13    0.10 
   5   1   8    0.97    0.15 
  -5  -1  -8    0.91    0.16 
   5   2   8    1.12    0.17 
  -5  -2  -8    0.87    0.17 
   5   3   8    2.18    0.24 
  -5  -3  -8    2.00    0.24 
   5   4   8    2.69    0.28 
  -5  -4  -8    2.68    0.29 
   6 -12   8    0.20    0.14 
   6 -11   8    2.09    0.25 
   6 -10   8    0.89    0.17 
   6  -9   8    3.25    0.27 
   6  -8   8    0.68    0.14 
   6  -7   8    2.36    0.23 
   6  -6   8    1.20    0.16 
  -6   6  -8    1.51    0.16 
   6  -5   8    0.07    0.08 
  -6   5  -8    0.08    0.07 
   6  -4   8    4.11    0.27 
  -6   4  -8    4.15    0.27 
   6  -3   8    0.52    0.12 
  -6   3  -8    0.43    0.12 
   6  -2   8    1.73    0.19 
  -6   2  -8    1.73    0.20 
   6  -1   8   -0.03    0.08 
  -6   1  -8    0.09    0.10 
   6   0   8    1.63    0.20 
  -6   0  -8    1.18    0.19 
   6   1   8    3.13    0.26 
  -6  -1  -8    2.85    0.26 
   6   2   8    0.13    0.12 
  -6  -2  -8    0.13    0.13 
   6   3   8    1.42    0.22 
  -6  -3  -8    1.07    0.20 
   7 -12   8    0.40    0.16 
   7 -11   8    1.29    0.21 
   7 -10   8   -0.12    0.10 
   7  -9   8    2.40    0.24 
   7  -8   8    1.38    0.19 
   7  -7   8    1.33    0.17 
   7  -6   8    1.30    0.17 
  -7   6  -8    0.90    0.14 
   7  -5   8    2.15    0.21 
  -7   5  -8    2.42    0.21 
   7  -4   8    4.10    0.28 
  -7   4  -8    4.24    0.29 
   7  -3   8    1.00    0.16 
  -7   3  -8    0.96    0.17 
   7  -2   8    7.19    0.41 
  -7   2  -8    7.82    0.43 
   7  -1   8    1.02    0.17 
  -7   1  -8    1.23    0.19 
   7   0   8   -0.03    0.10 
  -7   0  -8   -0.03    0.10 
   7   1   8    0.69    0.16 
  -7  -1  -8    0.87    0.18 
   7   2   8    1.12    0.20 
  -7  -2  -8    1.04    0.20 
   8 -11   8    0.70    0.17 
   8 -10   8    0.18    0.13 
   8  -9   8    0.55    0.14 
   8  -8   8    1.22    0.19 
   8  -7   8   -0.07    0.09 
   8  -6   8   -0.02    0.09 
  -8   6  -8    0.06    0.08 
   8  -5   8    0.50    0.13 
  -8   5  -8    0.89    0.15 
   8  -4   8    1.44    0.19 
  -8   4  -8    1.26    0.19 
   8  -3   8    0.00    0.10 
  -8   3  -8    0.06    0.11 
   8  -2   8    4.46    0.32 
  -8   2  -8    4.14    0.32 
   8  -1   8    2.36    0.25 
  -8   1  -8    2.53    0.28 
   8   0   8    0.09    0.12 
  -8   0  -8    0.12    0.12 
   9 -10   8    0.27    0.13 
   9  -9   8    2.29    0.25 
   9  -8   8    0.51    0.15 
   9  -7   8    0.94    0.18 
   9  -6   8    0.22    0.12 
  -9   6  -8    0.22    0.11 
   9  -5   8    0.25    0.12 
  -9   5  -8    0.11    0.11 
   9  -4   8    1.08    0.18 
  -9   4  -8    0.73    0.17 
   9  -3   8    0.39    0.14 
  -9   3  -8    0.53    0.16 
   9  -2   8    0.12    0.12 
  -9   2  -8    0.19    0.14 
  10  -8   8    0.03    0.12 
  10  -7   8    1.06    0.19 
  10  -6   8    0.92    0.18 
 -10   6  -8    1.02    0.18 
  10  -5   8    0.14    0.13 
 -10   5  -8    0.20    0.13 
  10  -4   8    0.66    0.17 
 -10   4  -8    0.40    0.16 
 -12   1   9    0.07    0.13 
 -12   2   9    0.27    0.14 
 -12   3   9    0.60    0.17 
 -12   4   9    0.04    0.12 
 -12   5   9    0.31    0.16 
 -11  -1   9    0.18    0.13 
 -11   0   9    0.09    0.12 
 -11   1   9    0.63    0.17 
 -11   2   9    0.07    0.10 
 -11   3   9    0.22    0.13 
 -11   4   9   -0.06    0.10 
 -11   5   9    0.33    0.14 
 -11   6   9    0.52    0.16 
 -11   7   9    0.35    0.16 
 -11   8   9    0.10    0.14 
 -10  -1   9   -0.04    0.11 
 -10   0   9   -0.06    0.10 
 -10   1   9   -0.06    0.09 
 -10   2   9   -0.05    0.08 
 -10   3   9    0.06    0.11 
 -10   4   9    0.30    0.14 
 -10   5   9    1.52    0.23 
 -10   6   9   -0.06    0.10 
 -10   7   9    0.06    0.12 
 -10   8   9    0.02    0.12 
  10  -9  -9    0.13    0.17 
  -9  -3   9    0.27    0.11 
  -9  -2   9    0.28    0.11 
  -9  -1   9    1.67    0.21 
  -9  -1   9    1.71    0.19 
  -9   0   9    1.44    0.20 
  -9   0   9    1.23    0.16 
  -9   1   9    0.16    0.10 
  -9   1   9    0.12    0.08 
  -9   2   9    1.39    0.20 
  -9   2   9    1.66    0.18 
  -9   3   9    1.47    0.21 
  -9   3   9    1.69    0.18 
  -9   4   9   -0.04    0.06 
  -9   4   9   -0.03    0.09 
  -9   5   9    2.31    0.26 
  -9   5   9    2.59    0.21 
  -9   6   9    0.31    0.11 
  -9   6   9    0.27    0.12 
  -9   7   9    0.00    0.10 
   9  -8  -9    0.55    0.19 
   9  -9  -9    0.92    0.24 
   9 -10  -9   -0.11    0.15 
  -8  -6   9    0.48    0.15 
  -8  -5   9    0.22    0.12 
  -8  -4   9   -0.15    0.08 
  -8  -3   9    4.06    0.28 
  -8  -2   9    4.01    0.28 
  -8  -2   9    3.77    0.26 
  -8  -1   9    0.38    0.12 
  -8  -1   9    0.24    0.10 
  -8   0   9    2.84    0.24 
  -8   0   9    2.88    0.21 
  -8   1   9    2.96    0.21 
  -8   1   9    2.96    0.25 
  -8   2   9    1.31    0.19 
  -8   2   9    1.42    0.16 
  -8   3   9    1.22    0.19 
  -8   3   9    1.24    0.15 
  -8   4   9    2.53    0.20 
  -8   4   9    2.45    0.26 
  -8   5   9    0.28    0.12 
  -8   5   9    0.29    0.10 
  -8   6   9    0.17    0.09 
  -8   6   9    0.16    0.11 
  -8   7   9    0.08    0.09 
   8  -7  -9   -0.18    0.11 
   8  -8  -9    0.01    0.14 
   8  -9  -9    1.00    0.25 
   8 -10  -9    0.30    0.20 
  -7  -6   9    1.20    0.20 
  -7  -5   9    0.99    0.18 
  -7  -4   9    0.53    0.14 
  -7  -3   9    6.04    0.34 
  -7  -2   9   11.36    0.51 
  -7  -2   9   11.34    0.53 
  -7  -1   9    0.07    0.08 
  -7  -1   9    0.11    0.09 
  -7   0   9    4.90    0.27 
  -7   0   9    4.62    0.30 
  -7   1   9    4.67    0.30 
  -7   1   9    4.98    0.27 
  -7   2   9    0.31    0.09 
  -7   2   9    0.23    0.12 
  -7   3   9   11.72    0.57 
  -7   3   9   11.52    0.50 
  -7   4   9   10.34    0.53 
  -7   4   9   10.12    0.47 
  -7   5   9    0.08    0.10 
  -7   5   9    0.01    0.07 
  -7   6   9    2.57    0.21 
   7  -6  -9    2.61    0.32 
  -7   7   9    2.55    0.24 
   7  -7  -9    2.56    0.33 
   7  -8  -9    0.01    0.12 
   7  -9  -9    0.81    0.23 
  -6  -7   9    0.12    0.12 
  -6  -6   9    0.95    0.17 
  -6  -5   9    8.35    0.44 
  -6  -4   9    3.90    0.28 
  -6  -3   9    2.70    0.22 
  -6  -3   9    2.43    0.20 
  -6  -2   9   12.51    0.56 
  -6  -2   9   12.89    0.55 
  -6  -1   9    0.30    0.09 
  -6  -1   9    0.20    0.09 
  -6   0   9    5.71    0.33 
  -6   0   9    5.94    0.30 
  -6   1   9    2.73    0.19 
  -6   1   9    2.33    0.22 
  -6   2   9    5.12    0.31 
  -6   2   9    4.75    0.27 
  -6   3   9    0.04    0.09 
  -6   3   9   -0.06    0.06 
  -6   4   9    4.77    0.28 
  -6   5   9    0.10    0.08 
   6  -5  -9   -0.04    0.12 
  -6   6   9    1.40    0.18 
   6  -6  -9    1.99    0.28 
  -6   7   9    1.58    0.20 
   6  -7  -9    1.67    0.27 
   6  -8  -9   -0.14    0.11 
   6  -9  -9   -0.16    0.12 
  -5  -8   9    5.18    0.35 
  -5  -7   9    1.15    0.19 
  -5  -6   9    1.28    0.18 
  -5  -5   9    3.47    0.25 
  -5  -4   9   10.64    0.50 
  -5  -3   9    1.57    0.17 
  -5  -3   9    1.98    0.19 
  -5  -2   9    9.09    0.42 
  -5  -2   9    8.51    0.41 
  -5  -1   9   14.83    0.61 
  -5  -1   9   15.81    0.66 
  -5   0   9    0.02    0.07 
  -5   0   9    0.09    0.08 
  -5   1   9    2.70    0.19 
  -5   1   9    2.89    0.23 
  -5   2   9    3.06    0.20 
  -5   2   9    3.47    0.25 
  -5   3   9    2.76    0.20 
   5  -3  -9    2.87    0.30 
  -5   4   9    0.12    0.08 
   5  -4  -9    0.16    0.12 
  -5   5   9    0.74    0.12 
   5  -5  -9    0.58    0.17 
  -5   6   9   -0.03    0.06 
   5  -6  -9    0.08    0.11 
   5  -7  -9    0.97    0.21 
   5  -8  -9    0.03    0.14 
   5  -9  -9    0.22    0.17 
  -4  -9   9    0.01    0.10 
  -4  -8   9    0.75    0.16 
  -4  -7   9    4.17    0.29 
  -4  -6   9    0.08    0.09 
  -4  -5   9    0.46    0.11 
  -4  -4   9    2.42    0.20 
  -4  -3   9    0.57    0.11 
  -4  -3   9    0.68    0.11 
  -4  -2   9   16.98    0.67 
  -4  -2   9   16.99    0.69 
  -4  -1   9    7.97    0.39 
  -4  -1   9    7.91    0.37 
  -4   0   9    5.09    0.28 
  -4   1   9    3.22    0.20 
   4  -1  -9    3.29    0.28 
  -4   2   9    1.46    0.15 
   4  -2  -9    1.38    0.20 
  -4   3   9    8.39    0.39 
   4  -3  -9    8.45    0.49 
  -4   4   9    0.70    0.12 
   4  -4  -9    0.72    0.17 
  -4   5   9    6.50    0.35 
   4  -5  -9    6.50    0.45 
  -4   6   9    0.71    0.13 
   4  -6  -9    0.67    0.18 
   4  -7  -9    0.20    0.14 
   4  -8  -9    0.25    0.16 
   4  -9  -9    0.67    0.21 
  -3  -9   9    1.04    0.17 
  -3  -8   9    0.07    0.10 
  -3  -7   9    1.66    0.19 
  -3  -6   9    0.68    0.13 
  -3  -5   9    2.16    0.18 
  -3  -4   9    2.34    0.19 
  -3  -3   9   63.90    2.17 
   3   3  -9   62.72    2.29 
  -3  -2   9    7.18    0.34 
   3   2  -9    7.49    0.40 
   3   1  -9    2.85    0.24 
   3   0  -9    2.53    0.23 
  -3   1   9    3.69    0.22 
   3  -1  -9    4.11    0.30 
  -3   2   9    0.01    0.06 
   3  -2  -9    0.00    0.09 
  -3   3   9    6.33    0.33 
   3  -3  -9    6.34    0.41 
  -3   4   9    4.21    0.26 
   3  -4  -9    4.33    0.35 
  -3   5   9    0.10    0.08 
   3  -5  -9   -0.02    0.11 
   3  -6  -9    1.02    0.21 
   3  -7  -9    0.48    0.16 
   3  -8  -9   -0.28    0.10 
   3  -9  -9    1.69    0.28 
  -2 -10   9   -0.10    0.09 
  -2  -9   9    1.91    0.22 
  -2  -8   9    0.93    0.15 
  -2  -7   9    1.22    0.17 
  -2  -6   9    3.30    0.23 
  -2  -5   9    0.83    0.13 
  -2  -4   9    0.17    0.08 
  -2  -3   9   12.77    0.52 
   2   3  -9   12.17    0.55 
  -2  -2   9   10.98    0.45 
   2   2  -9   10.33    0.50 
  -2  -1   9    0.24    0.07 
   2   1  -9    0.26    0.10 
  -2   0   9    0.74    0.10 
   2   0  -9    0.60    0.13 
  -2   1   9    3.60    0.22 
   2  -1  -9    4.59    0.31 
  -2   2   9    0.05    0.06 
   2  -2  -9    0.04    0.10 
  -2   3   9    0.31    0.08 
  -2   3   9    0.68    0.12 
   2  -3  -9    0.63    0.15 
  -2   4   9    0.60    0.10 
  -2   4   9    0.68    0.12 
   2  -4  -9    0.79    0.18 
  -2   5   9    2.72    0.21 
  -2   5   9    2.57    0.21 
   2  -5  -9    2.64    0.29 
  -2   6   9    0.19    0.09 
   2  -6  -9    0.29    0.14 
  -2   7   9    0.26    0.10 
   2  -7  -9    0.27    0.15 
   2  -8  -9   -0.15    0.11 
  -1 -10   9    0.76    0.16 
  -1  -9   9    0.32    0.11 
  -1  -8   9    0.49    0.12 
  -1  -7   9    0.16    0.09 
  -1  -7   9   -0.04    0.07 
  -1  -6   9    2.07    0.18 
  -1  -6   9    2.41    0.20 
  -1  -5   9   24.99    0.91 
  -1  -5   9   24.92    0.94 
  -1  -4   9    2.01    0.15 
  -1  -4   9    1.96    0.16 
   1   4  -9    2.06    0.18 
  -1  -3   9    2.58    0.18 
  -1  -3   9    2.33    0.15 
   1   3  -9    2.04    0.20 
  -1  -2   9    0.06    0.04 
  -1  -2   9    0.07    0.06 
   1   2  -9    0.01    0.07 
  -1  -1   9    2.48    0.18 
  -1  -1   9    2.70    0.15 
   1   1  -9    2.49    0.22 
  -1   0   9    2.06    0.13 
  -1   0   9    2.01    0.16 
   1   0  -9    2.19    0.22 
  -1   1   9   14.56    0.58 
  -1   1   9   14.35    0.54 
   1  -1  -9   13.93    0.66 
  -1   2   9   44.21    1.52 
  -1   2   9   42.59    1.48 
   1  -2  -9   41.84    1.65 
  -1   3   9   12.54    0.55 
  -1   3   9   13.59    0.53 
   1  -3  -9   12.84    0.64 
  -1   4   9    1.73    0.16 
  -1   4   9    1.34    0.17 
   1  -4  -9    1.57    0.22 
  -1   5   9    8.74    0.42 
   1  -5  -9    8.73    0.51 
  -1   6   9    0.11    0.09 
   1  -6  -9    0.07    0.12 
  -1   7   9    1.29    0.19 
   1  -7  -9    0.88    0.19 
  -1   8   9    1.42    0.21 
   1  -8  -9    1.36    0.23 
   0 -11   9    0.46    0.14 
   0 -11   9    0.43    0.15 
   0 -10   9    0.61    0.13 
   0 -10   9    1.01    0.19 
   0  -9   9    0.43    0.11 
   0  -9   9    0.25    0.12 
   0  -8   9    3.58    0.26 
   0  -8   9    4.12    0.29 
   0  -7   9    0.93    0.14 
   0  -7   9    1.13    0.15 
   0  -6   9    1.32    0.15 
   0  -6   9    1.45    0.16 
   0  -5   9    0.57    0.09 
   0  -5   9    0.52    0.10 
   0  -4   9    4.07    0.21 
   0  -4   9    3.72    0.22 
   0   4  -9    3.66    0.23 
   0  -3   9   14.72    0.58 
   0  -3   9   15.07    0.56 
   0   3  -9   15.07    0.63 
   0  -2   9    0.81    0.11 
   0  -2   9    0.90    0.09 
   0   2  -9    1.01    0.15 
   0  -1   9   62.09    2.09 
   0  -1   9   61.83    2.08 
   0   1  -9   60.83    2.25 
   0   0   9   22.14    0.81 
   0   0   9   23.10    0.84 
   0   0  -9   22.29    0.93 
   0   1   9    0.33    0.08 
   0   1   9    0.41    0.10 
   0  -1  -9    0.48    0.13 
   0   2   9    4.97    0.26 
   0   2   9    4.62    0.27 
   0  -2  -9    4.93    0.34 
   0   3   9    8.04    0.39 
   0   3   9    8.16    0.38 
   0  -3  -9    7.64    0.46 
   0   4   9    0.52    0.11 
   0  -4  -9    0.70    0.17 
   0   5   9   10.80    0.49 
   0  -5  -9    9.14    0.53 
   0   6   9    0.36    0.12 
   0  -6  -9    0.54    0.15 
   0   7   9    0.91    0.17 
   0  -7  -9    0.58    0.17 
   0   8   9   -0.03    0.12 
   0  -8  -9    0.15    0.15 
   1 -12   9    0.62    0.18 
   1 -11   9    0.02    0.12 
   1 -11   9    0.09    0.10 
   1 -10   9    0.40    0.11 
   1 -10   9    0.15    0.12 
   1  -9   9    3.13    0.27 
   1  -9   9    2.68    0.22 
   1  -8   9   -0.08    0.07 
   1  -8   9   -0.10    0.07 
   1  -7   9    7.25    0.37 
   1  -7   9    7.12    0.36 
   1  -6   9    6.00    0.30 
   1  -6   9    5.59    0.31 
   1  -5   9    0.49    0.09 
   1  -5   9    0.35    0.09 
   1  -4   9    6.67    0.31 
   1  -4   9    6.43    0.31 
  -1   4  -9    6.21    0.32 
   1  -3   9   52.60    1.82 
   1  -3   9   53.26    1.82 
  -1   3  -9   54.21    1.93 
   1  -2   9   10.94    0.45 
   1  -2   9   10.73    0.45 
  -1   2  -9   10.86    0.51 
   1  -1   9  110.88    3.67 
   1  -1   9  107.43    3.64 
  -1   1  -9  111.10    3.88 
   1   0   9   63.26    2.13 
   1   0   9   60.80    2.12 
  -1   0  -9   62.91    2.29 
   1   1   9    1.36    0.14 
   1   1   9    1.25    0.15 
  -1  -1  -9    1.43    0.19 
   1   2   9    6.49    0.32 
   1   2   9    6.18    0.32 
  -1  -2  -9    6.08    0.38 
   1   3   9    7.57    0.38 
  -1  -3  -9    7.74    0.44 
   1   4   9    0.10    0.08 
  -1  -4  -9    0.16    0.12 
   1   5   9    2.22    0.23 
  -1  -5  -9    2.20    0.25 
   1   6   9    0.93    0.17 
  -1  -6  -9    1.09    0.19 
   1   7   9    0.63    0.16 
  -1  -7  -9    0.44    0.16 
  -1  -7  -9    0.91    0.20 
   2 -12   9    0.08    0.13 
   2 -12   9    0.46    0.13 
   2 -11   9    0.06    0.09 
   2 -11   9    0.13    0.13 
   2 -10   9    0.02    0.08 
   2 -10   9   -0.06    0.10 
   2  -9   9    3.61    0.30 
   2  -9   9    3.67    0.25 
   2  -8   9    1.96    0.21 
   2  -8   9    1.82    0.18 
   2  -7   9   11.48    0.51 
   2  -7   9   10.77    0.48 
   2  -6   9   11.23    0.49 
   2  -6   9   10.72    0.46 
   2  -5   9    0.02    0.05 
   2  -5   9    0.09    0.06 
  -2   5  -9   -0.05    0.05 
   2  -4   9   18.48    0.70 
   2  -4   9   18.34    0.69 
  -2   4  -9   18.53    0.73 
   2  -3   9   68.14    2.27 
   2  -3   9   67.46    2.29 
  -2   3  -9   66.14    2.40 
   2  -2   9    1.08    0.13 
   2  -2   9    0.63    0.11 
  -2   2  -9    0.84    0.15 
   2  -1   9   52.31    1.79 
   2  -1   9   50.34    1.76 
  -2   1  -9   51.80    1.90 
   2   0   9    5.68    0.29 
   2   0   9    5.13    0.28 
  -2   0  -9    5.35    0.34 
   2   1   9    2.83    0.21 
   2   1   9    2.77    0.19 
  -2  -1  -9    2.67    0.23 
   2   2   9    0.47    0.10 
  -2  -2  -9    0.26    0.12 
   2   3   9    5.51    0.33 
  -2  -3  -9    5.86    0.37 
   2   4   9    2.96    0.25 
  -2  -4  -9    3.38    0.29 
   2   5   9    0.16    0.11 
  -2  -5  -9    0.30    0.13 
   2   6   9    0.05    0.10 
  -2  -6  -9    0.15    0.13 
  -2  -6  -9    0.19    0.12 
   3 -12   9    0.06    0.09 
   3 -12   9   -0.06    0.12 
   3 -11   9    0.47    0.15 
   3 -11   9    0.50    0.13 
   3 -10   9    0.01    0.08 
   3 -10   9   -0.12    0.09 
   3  -9   9    4.78    0.34 
   3  -9   9    5.07    0.29 
   3  -8   9    8.27    0.39 
   3  -8   9    7.72    0.42 
   3  -7   9    1.49    0.17 
   3  -7   9    1.13    0.14 
   3  -6   9    6.32    0.30 
   3  -6   9    6.38    0.34 
   3  -5   9    0.22    0.07 
   3  -5   9    0.18    0.07 
  -3   5  -9    0.30    0.08 
   3  -4   9    0.27    0.08 
   3  -4   9    0.25    0.07 
  -3   4  -9    0.32    0.09 
   3  -3   9    8.02    0.37 
   3  -3   9    7.58    0.34 
  -3   3  -9    8.51    0.40 
   3  -2   9    2.31    0.19 
   3  -2   9    2.61    0.17 
  -3   2  -9    2.66    0.22 
   3  -1   9    4.22    0.24 
   3  -1   9    4.61    0.26 
  -3   1  -9    4.17    0.28 
   3   0   9    0.28    0.09 
   3   0   9    0.38    0.09 
  -3   0  -9    0.28    0.11 
   3   1   9    0.26    0.09 
  -3  -1  -9    0.17    0.10 
   3   2   9    2.03    0.21 
  -3  -2  -9    2.45    0.25 
   3   3   9    0.20    0.10 
  -3  -3  -9    0.41    0.13 
   3   4   9    0.65    0.15 
  -3  -4  -9    0.83    0.17 
   3   5   9    0.43    0.14 
  -3  -5  -9    0.43    0.15 
  -3  -5  -9    0.84    0.17 
  -3  -6  -9    0.02    0.11 
  -3  -6  -9   -0.04    0.13 
   4 -12   9    0.03    0.13 
   4 -11   9    0.88    0.18 
   4 -10   9    0.57    0.15 
   4  -9   9    2.05    0.23 
   4  -8   9    0.91    0.16 
   4  -7   9    3.73    0.26 
   4  -6   9    3.67    0.25 
   4  -5   9   -0.08    0.06 
  -4   5  -9   -0.03    0.06 
   4  -4   9    0.57    0.11 
  -4   4  -9    0.41    0.10 
   4  -3   9    0.03    0.07 
  -4   3  -9    0.06    0.08 
   4  -2   9    3.53    0.24 
  -4   2  -9    3.44    0.25 
   4  -1   9    0.88    0.12 
   4  -1   9    0.98    0.14 
  -4   1  -9    1.00    0.16 
   4   0   9    1.08    0.15 
  -4   0  -9    0.90    0.16 
   4   1   9    1.94    0.21 
  -4  -1  -9    2.06    0.23 
   4   2   9    6.46    0.37 
  -4  -2  -9    6.57    0.40 
   4   3   9    0.65    0.15 
  -4  -3  -9    0.72    0.17 
   4   4   9    0.19    0.12 
  -4  -4  -9    0.24    0.14 
  -4  -5  -9    0.48    0.16 
   5 -12   9    0.34    0.15 
   5 -11   9    0.26    0.14 
   5 -10   9    2.03    0.24 
   5  -9   9    0.74    0.15 
   5  -8   9   -0.09    0.08 
   5  -7   9   -0.07    0.07 
   5  -6   9    1.34    0.17 
   5  -5   9    0.53    0.11 
  -5   5  -9    0.44    0.10 
   5  -4   9    2.36    0.21 
  -5   4  -9    2.81    0.22 
   5  -3   9    6.39    0.34 
  -5   3  -9    5.76    0.35 
   5  -2   9   -0.02    0.08 
  -5   2  -9   -0.03    0.09 
   5  -1   9    2.82    0.23 
  -5   1  -9    3.48    0.27 
   5   0   9    2.54    0.22 
  -5   0  -9    2.31    0.25 
   5   1   9   -0.02    0.08 
  -5  -1  -9    0.02    0.11 
   5   2   9    1.29    0.20 
  -5  -2  -9    1.30    0.20 
   5   3   9    1.51    0.22 
  -5  -3  -9    1.57    0.23 
   6 -12   9    0.69    0.18 
   6 -11   9   -0.07    0.12 
   6 -10   9    0.06    0.11 
   6  -9   9    0.53    0.14 
   6  -8   9    0.09    0.10 
   6  -7   9    1.71    0.19 
   6  -6   9    7.65    0.40 
  -6   6  -9    7.47    0.38 
   6  -5   9    1.35    0.17 
  -6   5  -9    1.33    0.17 
   6  -4   9    1.64    0.19 
  -6   4  -9    1.63    0.19 
   6  -3   9    2.01    0.21 
  -6   3  -9    1.99    0.22 
   6  -2   9    0.15    0.10 
  -6   2  -9    0.25    0.12 
   6  -1   9    1.66    0.20 
  -6   1  -9    1.73    0.22 
   6   0   9    3.11    0.27 
  -6   0  -9    3.29    0.28 
   6   1   9    0.53    0.15 
  -6  -1  -9    1.05    0.19 
   6   2   9    0.22    0.13 
  -6  -2  -9    0.07    0.13 
   7 -11   9    0.16    0.13 
   7 -10   9    0.24    0.13 
   7  -9   9    0.48    0.14 
   7  -8   9    0.40    0.13 
   7  -7   9    0.06    0.09 
   7  -6   9    0.40    0.12 
  -7   6  -9    0.39    0.11 
   7  -5   9    0.91    0.15 
  -7   5  -9    1.14    0.17 
   7  -4   9    0.13    0.10 
  -7   4  -9   -0.07    0.09 
   7  -3   9    3.43    0.28 
  -7   3  -9    3.84    0.29 
   7  -2   9    3.55    0.28 
  -7   2  -9    2.76    0.29 
   7  -1   9    0.15    0.11 
  -7   1  -9   -0.06    0.11 
   7   0   9    1.80    0.23 
  -7   0  -9    1.70    0.24 
   7   1   9    1.02    0.19 
  -7  -1  -9    1.05    0.20 
   8 -10   9    1.04    0.19 
   8  -9   9    0.53    0.15 
   8  -8   9    5.18    0.35 
   8  -7   9    0.45    0.14 
   8  -6   9    0.08    0.10 
  -8   6  -9    0.21    0.10 
   8  -5   9    0.15    0.11 
  -8   5  -9    0.12    0.11 
   8  -4   9   -0.08    0.09 
  -8   4  -9    0.06    0.10 
   8  -3   9    0.63    0.15 
  -8   3  -9    0.43    0.14 
   8  -2   9    2.28    0.25 
  -8   2  -9    2.31    0.27 
   8  -1   9    0.60    0.16 
  -8   1  -9    0.41    0.16 
   9  -9   9    0.47    0.15 
   9  -8   9    0.04    0.12 
   9  -7   9    0.39    0.14 
   9  -6   9   -0.11    0.10 
  -9   6  -9   -0.09    0.09 
   9  -5   9    1.20    0.20 
  -9   5  -9    1.49    0.22 
   9  -4   9    1.01    0.19 
  -9   4  -9    1.09    0.20 
   9  -3   9    0.03    0.11 
  -9   3  -9    0.02    0.13 
 -10   6  -9    0.00    0.10 
 -10   5  -9    0.05    0.12 
 -11   0  10    0.08    0.12 
 -11   1  10    0.11    0.13 
 -11   2  10    0.32    0.15 
 -11   3  10    0.08    0.11 
 -11   4  10    0.09    0.13 
 -11   5  10    0.89    0.20 
 -11   6  10    1.10    0.23 
 -10  -1  10   -0.04    0.10 
 -10   0  10   -0.03    0.11 
 -10   1  10   -0.06    0.10 
 -10   2  10    0.00    0.11 
 -10   3  10    0.45    0.15 
 -10   4  10    1.65    0.25 
 -10   5  10    0.51    0.16 
 -10   6  10   -0.06    0.11 
 -10   7  10    0.32    0.15 
  10  -8 -10    0.20    0.17 
  -9  -4  10    1.19    0.19 
  -9  -3  10    0.79    0.16 
  -9  -2  10    1.24    0.18 
  -9  -1  10    2.56    0.22 
  -9  -1  10    2.49    0.27 
  -9   0  10    0.89    0.17 
  -9   0  10    1.04    0.16 
  -9   1  10   -0.08    0.09 
  -9   1  10    0.04    0.08 
  -9   2  10    2.05    0.24 
  -9   2  10    2.12    0.21 
  -9   3  10    0.37    0.14 
  -9   3  10    0.31    0.10 
  -9   4  10    0.64    0.13 
  -9   4  10    0.56    0.15 
  -9   5  10    1.37    0.21 
  -9   5  10    1.60    0.19 
  -9   6  10    0.25    0.10 
  -9   6  10   -0.05    0.11 
  -9   7  10    0.79    0.15 
   9  -7 -10    0.44    0.20 
   9  -8 -10    0.38    0.20 
  -8  -5  10    0.14    0.11 
  -8  -4  10    0.53    0.15 
  -8  -3  10    1.39    0.19 
  -8  -2  10    0.26    0.12 
  -8  -2  10   -0.14    0.08 
  -8  -1  10    1.34    0.18 
  -8  -1  10    1.22    0.18 
  -8   0  10    0.36    0.12 
  -8   0  10    0.36    0.10 
  -8   1  10    0.00    0.07 
  -8   1  10    0.00    0.09 
  -8   2  10    2.14    0.19 
  -8   2  10    2.37    0.26 
  -8   3  10    1.89    0.23 
  -8   3  10    1.99    0.20 
  -8   4  10    0.12    0.08 
  -8   4  10    0.14    0.11 
  -8   5  10    3.02    0.24 
  -8   5  10    2.80    0.30 
  -8   6  10    0.06    0.09 
   8  -6 -10    0.18    0.15 
  -8   7  10    1.66    0.21 
   8  -7 -10    1.17    0.25 
   8  -8 -10    0.49    0.20 
   8  -9 -10    0.35    0.20 
  -7  -6  10    1.15    0.20 
  -7  -5  10    0.44    0.14 
  -7  -4  10    3.51    0.27 
  -7  -3  10    6.69    0.37 
  -7  -2  10    0.54    0.12 
  -7  -2  10    0.50    0.13 
  -7  -1  10    2.49    0.21 
  -7  -1  10    2.87    0.24 
  -7   0  10    2.76    0.24 
  -7   0  10    2.48    0.20 
  -7   1  10    0.19    0.08 
  -7   1  10    0.44    0.13 
  -7   2  10    0.64    0.14 
  -7   2  10    0.48    0.11 
  -7   3  10    5.04    0.30 
  -7   3  10    5.35    0.34 
  -7   4  10    0.98    0.17 
  -7   4  10    1.04    0.15 
  -7   5  10    2.72    0.22 
   7  -5 -10    2.39    0.31 
  -7   6  10    1.41    0.18 
   7  -6 -10    1.53    0.26 
  -7   7  10    0.05    0.10 
   7  -7 -10   -0.15    0.12 
   7  -8 -10    0.07    0.16 
   7  -9 -10    0.46    0.21 
  -6  -7  10    0.98    0.19 
  -6  -6  10    0.99    0.18 
  -6  -5  10    2.58    0.26 
  -6  -4  10    0.37    0.12 
  -6  -3  10    3.63    0.26 
  -6  -2  10    3.56    0.27 
  -6  -2  10    4.02    0.26 
  -6  -1  10    0.48    0.13 
  -6  -1  10    0.65    0.12 
  -6   0  10    0.23    0.09 
  -6   0  10    0.27    0.10 
  -6   1  10    0.80    0.13 
  -6   1  10    0.84    0.16 
  -6   2  10    0.57    0.11 
  -6   2  10    0.54    0.13 
  -6   3  10    0.47    0.11 
  -6   4  10    0.36    0.11 
   6  -4 -10    0.35    0.15 
  -6   5  10    1.46    0.18 
   6  -5 -10    1.17    0.22 
  -6   6  10    0.10    0.09 
   6  -6 -10    0.22    0.15 
  -6   7  10   -0.10    0.07 
   6  -7 -10    0.10    0.14 
   6  -8 -10    0.36    0.19 
   6  -9 -10   -0.03    0.16 
  -5  -8  10    1.31    0.21 
  -5  -7  10    0.12    0.11 
  -5  -6  10    1.14    0.18 
  -5  -5  10    3.79    0.27 
  -5  -4  10    4.81    0.30 
  -5  -3  10    0.06    0.08 
  -5  -3  10    0.16    0.09 
  -5  -2  10    2.04    0.20 
  -5  -2  10    2.11    0.20 
  -5  -1  10    2.10    0.18 
  -5  -1  10    2.00    0.20 
  -5   0  10    0.79    0.14 
  -5   0  10    0.85    0.13 
  -5   1  10   11.20    0.49 
  -5   2  10    3.98    0.25 
   5  -2 -10    4.49    0.35 
  -5   3  10   -0.16    0.05 
   5  -3 -10    0.03    0.11 
  -5   4  10    1.75    0.19 
   5  -4 -10    2.07    0.28 
  -5   5  10    1.79    0.20 
   5  -5 -10    1.74    0.27 
  -5   6  10    0.37    0.11 
   5  -6 -10    0.59    0.18 
   5  -7 -10    1.59    0.27 
   5  -8 -10    3.30    0.38 
   5  -9 -10    0.15    0.17 
  -4  -8  10    1.04    0.18 
  -4  -7  10    3.32    0.27 
  -4  -6  10    0.76    0.15 
  -4  -5  10    3.22    0.24 
  -4  -4  10    4.43    0.27 
  -4  -3  10    0.61    0.12 
   4   3 -10    0.38    0.13 
  -4  -2  10   10.98    0.49 
   4   2 -10   11.22    0.56 
  -4  -1  10    5.27    0.29 
   4   1 -10    5.60    0.36 
  -4   0  10    0.47    0.10 
   4   0 -10    0.47    0.13 
  -4   1  10    0.13    0.07 
   4  -1 -10    0.14    0.11 
  -4   2  10    0.04    0.06 
   4  -2 -10    0.09    0.11 
  -4   3  10    0.19    0.08 
   4  -3 -10   -0.02    0.09 
  -4   4  10    0.87    0.14 
   4  -4 -10    0.59    0.16 
  -4   5  10    3.38    0.25 
   4  -5 -10    3.36    0.36 
  -4   6  10    0.14    0.10 
   4  -6 -10   -0.05    0.13 
   4  -7 -10    0.88    0.21 
   4  -8 -10    1.24    0.25 
   4  -9 -10   -0.09    0.15 
  -3  -9  10    0.70    0.16 
  -3  -8  10    0.92    0.17 
  -3  -7  10    3.41    0.26 
  -3  -6  10    1.23    0.17 
  -3  -5  10    0.50    0.11 
  -3  -4  10    0.19    0.09 
  -3  -3  10    9.55    0.44 
   3   3 -10   10.12    0.50 
  -3  -2  10    3.99    0.24 
   3   2 -10    4.19    0.30 
  -3  -1  10    3.18    0.21 
   3   1 -10    3.63    0.28 
  -3   0  10    1.24    0.14 
   3   0 -10    1.65    0.21 
  -3   1  10    3.53    0.22 
   3  -1 -10    2.92    0.27 
  -3   2  10    5.21    0.29 
   3  -2 -10    5.58    0.38 
  -3   3  10    2.33    0.19 
   3  -3 -10    2.05    0.26 
  -3   4  10    4.35    0.27 
   3  -4 -10    3.98    0.35 
  -3   5  10    1.89    0.20 
   3  -5 -10    1.64    0.25 
   3  -6 -10    1.57    0.26 
   3  -7 -10    0.06    0.14 
   3  -8 -10    0.03    0.15 
   3  -9 -10    0.11    0.16 
  -2 -10  10    0.15    0.11 
  -2  -9  10    1.47    0.20 
  -2  -8  10    0.14    0.10 
  -2  -7  10    1.19    0.17 
  -2  -6  10    0.05    0.08 
  -2  -5  10    3.49    0.23 
  -2  -4  10    0.25    0.09 
  -2  -3  10    2.02    0.17 
   2   3 -10    2.36    0.23 
  -2  -2  10   33.26    1.18 
   2   2 -10   32.29    1.28 
  -2  -1  10    0.75    0.12 
   2   1 -10    0.71    0.14 
  -2   0  10    2.63    0.20 
   2   0 -10    3.15    0.26 
  -2   1  10    5.49    0.30 
   2  -1 -10    5.57    0.37 
  -2   2  10    0.27    0.09 
   2  -2 -10    0.29    0.12 
  -2   3  10   15.86    0.68 
   2  -3 -10   17.64    0.80 
  -2   4  10    8.54    0.43 
   2  -4 -10    8.80    0.52 
  -2   5  10    0.04    0.07 
   2  -5 -10    0.04    0.12 
   2  -6 -10    0.24    0.15 
   2  -7 -10    0.03    0.14 
   2  -8 -10    0.02    0.13 
  -1 -10  10    0.22    0.11 
  -1  -9  10    0.55    0.14 
  -1  -8  10    1.13    0.16 
  -1  -7  10    0.25    0.10 
  -1  -6  10    0.16    0.08 
  -1  -5  10   28.09    1.05 
  -1  -4  10   55.92    1.93 
   1   4 -10   55.41    2.02 
  -1  -3  10    2.72    0.20 
   1   3 -10    2.57    0.22 
  -1  -2  10   58.35    2.01 
   1   2 -10   58.47    2.15 
  -1  -1  10    0.89    0.13 
   1   1 -10    1.40    0.19 
  -1   0  10    2.08    0.17 
   1   0 -10    2.20    0.24 
  -1   1  10    8.38    0.40 
   1  -1 -10    8.73    0.48 
  -1   2  10   21.46    0.83 
   1  -2 -10   21.12    0.93 
  -1   3  10    0.18    0.07 
  -1   3  10    0.17    0.10 
   1  -3 -10    0.27    0.13 
  -1   4  10    4.45    0.29 
  -1   4  10    4.99    0.28 
   1  -4 -10    4.87    0.36 
   1  -5 -10   -0.18    0.10 
   1  -6 -10    0.65    0.17 
   1  -7 -10    0.41    0.16 
   1  -8 -10    0.76    0.21 
   0 -11  10    0.53    0.14 
   0 -10  10    2.31    0.24 
   0  -9  10    0.37    0.12 
   0  -8  10   10.87    0.51 
   0  -8  10    9.98    0.48 
   0  -7  10    1.14    0.16 
   0  -7  10    1.61    0.18 
   0  -6  10    0.07    0.07 
   0  -6  10    0.12    0.08 
   0  -5  10   12.70    0.51 
   0  -5  10   12.26    0.53 
   0  -4  10   58.45    1.98 
   0  -4  10   56.32    1.99 
   0   4 -10   59.29    2.10 
   0  -3  10    3.24    0.20 
   0  -3  10    3.28    0.21 
   0   3 -10    3.27    0.26 
   0  -2  10   67.33    2.23 
   0  -2  10   64.53    2.24 
   0   2 -10   65.79    2.40 
   0  -1  10    4.08    0.23 
   0  -1  10    3.81    0.25 
   0   1 -10    4.60    0.31 
   0   0  10    3.21    0.19 
   0   0  10    2.99    0.21 
   0   0 -10    2.98    0.25 
   0   1  10    5.77    0.31 
   0   1  10    6.44    0.30 
   0  -1 -10    5.89    0.39 
   0   2  10    5.52    0.30 
   0   2  10    5.11    0.28 
   0  -2 -10    4.85    0.35 
   0   3  10   -0.04    0.07 
   0   3  10    0.13    0.07 
   0  -3 -10   -0.02    0.11 
   0   4  10    0.57    0.12 
   0  -4 -10    0.67    0.17 
   0   5  10    0.37    0.11 
   0  -5 -10    0.35    0.15 
   0   6  10   -0.02    0.09 
   0  -6 -10    0.07    0.12 
   0   7  10    0.74    0.16 
   0  -7 -10    0.52    0.17 
   1 -11  10   -0.07    0.11 
   1 -11  10    0.06    0.09 
   1 -10  10    2.75    0.28 
   1 -10  10    2.36    0.24 
   1  -9  10    0.39    0.11 
   1  -9  10    0.50    0.14 
   1  -8  10    8.05    0.42 
   1  -8  10    7.25    0.39 
   1  -7  10   12.81    0.54 
   1  -7  10   11.20    0.52 
   1  -6  10    0.05    0.08 
   1  -6  10    0.05    0.07 
   1  -5  10   10.18    0.44 
   1  -5  10    9.95    0.44 
   1  -4  10   18.41    0.70 
   1  -4  10   18.48    0.71 
  -1   4 -10   18.37    0.74 
   1  -3  10    6.46    0.32 
   1  -3  10    6.04    0.30 
  -1   3 -10    6.73    0.36 
   1  -2  10   17.89    0.70 
   1  -2  10   18.07    0.68 
  -1   2 -10   18.04    0.77 
   1  -1  10    2.05    0.18 
   1  -1  10    2.33    0.18 
  -1   1 -10    2.55    0.23 
   1   0  10   11.77    0.51 
   1   0  10   12.01    0.49 
  -1   0 -10   12.18    0.59 
   1   1  10    0.71    0.12 
   1   1  10    0.89    0.12 
  -1  -1 -10    0.57    0.15 
   1   2  10    3.52    0.23 
   1   2  10    3.30    0.24 
  -1  -2 -10    3.67    0.29 
   1   3  10    1.54    0.17 
  -1  -3 -10    1.02    0.19 
   1   4  10    0.14    0.09 
  -1  -4 -10    0.25    0.14 
   1   5  10    1.34    0.19 
  -1  -5 -10    1.56    0.23 
   1   6  10    1.02    0.18 
  -1  -6 -10    1.36    0.23 
   2 -12  10    0.20    0.14 
   2 -12  10    0.41    0.13 
   2 -11  10    0.49    0.13 
   2 -11  10    0.34    0.15 
   2 -10  10    5.14    0.36 
   2 -10  10    4.62    0.30 
   2  -9  10    0.60    0.14 
   2  -9  10    0.23    0.10 
   2  -8  10    3.35    0.24 
   2  -8  10    3.28    0.27 
   2  -7  10    3.94    0.25 
   2  -7  10    4.11    0.28 
   2  -6  10    0.99    0.14 
   2  -6  10    0.81    0.12 
   2  -5  10    0.31    0.09 
   2  -5  10    0.51    0.10 
   2  -4  10    8.06    0.37 
   2  -4  10    8.68    0.38 
  -2   4 -10    7.92    0.39 
   2  -3  10    4.72    0.26 
   2  -3  10    4.66    0.25 
  -2   3 -10    4.48    0.28 
   2  -2  10    0.32    0.09 
   2  -2  10    0.31    0.08 
  -2   2 -10    0.43    0.11 
   2  -1  10   -0.03    0.07 
   2  -1  10    0.01    0.06 
  -2   1 -10   -0.03    0.09 
   2   0  10    1.94    0.18 
   2   0  10    2.20    0.18 
  -2   0 -10    1.85    0.22 
   2   1  10    0.06    0.07 
   2   1  10    0.04    0.08 
  -2  -1 -10    0.09    0.10 
   2   2  10    0.55    0.11 
  -2  -2 -10    0.68    0.15 
   2   3  10    1.57    0.19 
  -2  -3 -10    1.47    0.21 
   2   4  10    0.79    0.16 
  -2  -4 -10    0.58    0.16 
   2   5  10    0.57    0.15 
  -2  -5 -10    0.59    0.17 
   2   6  10    0.12    0.12 
  -2  -6 -10    0.18    0.14 
  -2  -6 -10    0.32    0.14 
   3 -12  10    0.07    0.13 
   3 -11  10    0.01    0.11 
   3 -10  10    0.52    0.15 
   3 -10  10    0.53    0.13 
   3  -9  10    0.54    0.14 
   3  -9  10    0.57    0.13 
   3  -8  10    0.00    0.09 
   3  -8  10   -0.07    0.06 
   3  -7  10   -0.08    0.07 
   3  -7  10   -0.05    0.07 
   3  -6  10    0.79    0.11 
   3  -6  10    0.89    0.13 
   3  -5  10    0.44    0.09 
   3  -5  10    0.48    0.10 
  -3   5 -10    0.53    0.10 
   3  -4  10    0.08    0.07 
   3  -4  10    0.04    0.06 
  -3   4 -10    0.01    0.07 
   3  -3  10    2.95    0.21 
   3  -3  10    3.04    0.20 
  -3   3 -10    2.88    0.23 
   3  -2  10   11.63    0.49 
   3  -2  10   11.95    0.51 
  -3   2 -10   11.12    0.54 
   3  -1  10    0.34    0.10 
   3  -1  10    0.31    0.09 
  -3   1 -10    0.41    0.12 
   3   0  10    2.66    0.19 
   3   0  10    2.27    0.20 
  -3   0 -10    2.71    0.24 
   3   1  10    1.11    0.15 
  -3  -1 -10    1.35    0.19 
   3   2  10    0.62    0.13 
  -3  -2 -10    0.87    0.17 
   3   3  10   -0.04    0.08 
  -3  -3 -10   -0.07    0.11 
   3   4  10    1.60    0.22 
  -3  -4 -10    1.80    0.24 
   3   5  10    0.52    0.15 
  -3  -5 -10    0.76    0.18 
  -3  -5 -10    0.78    0.17 
   4 -12  10   -0.06    0.12 
   4 -11  10    0.21    0.13 
   4 -10  10    0.16    0.12 
   4  -9  10    0.58    0.14 
   4  -8  10    1.17    0.17 
   4  -7  10    0.06    0.08 
   4  -6  10    2.39    0.21 
   4  -5  10    3.84    0.26 
  -4   5 -10    4.04    0.26 
   4  -4  10    0.23    0.09 
  -4   4 -10    0.28    0.10 
   4  -3  10    0.21    0.09 
  -4   3 -10    0.38    0.11 
   4  -2  10    4.57    0.29 
  -4   2 -10    4.98    0.32 
   4  -1  10    1.05    0.15 
  -4   1 -10    0.88    0.16 
   4   0  10    0.56    0.12 
  -4   0 -10    0.67    0.15 
   4   1  10    2.26    0.23 
  -4  -1 -10    2.54    0.26 
   4   2  10    4.62    0.32 
  -4  -2 -10    4.11    0.32 
   4   3  10    0.23    0.13 
  -4  -3 -10    0.05    0.12 
   4   4  10    0.99    0.19 
  -4  -4 -10    1.45    0.22 
   5 -11  10    0.07    0.12 
   5 -10  10    2.20    0.26 
   5  -9  10    0.68    0.15 
   5  -8  10    1.56    0.20 
   5  -7  10    1.55    0.19 
   5  -6  10    0.02    0.08 
   5  -5  10    0.47    0.12 
  -5   5 -10    0.59    0.12 
   5  -4  10    4.53    0.29 
  -5   4 -10    4.20    0.29 
   5  -3  10    4.64    0.30 
  -5   3 -10    4.55    0.30 
   5  -2  10    0.27    0.11 
  -5   2 -10    0.28    0.12 
   5  -1  10    4.13    0.28 
  -5   1 -10    3.78    0.29 
   5   0  10    0.58    0.14 
  -5   0 -10    0.65    0.15 
   5   1  10    0.08    0.11 
  -5  -1 -10    0.14    0.12 
   5   2  10    0.84    0.17 
  -5  -2 -10    0.72    0.18 
   5   3  10    0.15    0.13 
   6 -11  10    0.03    0.12 
   6 -10  10    0.42    0.14 
   6  -9  10    0.12    0.11 
   6  -8  10    1.01    0.17 
   6  -7  10    2.51    0.25 
   6  -6  10    0.98    0.16 
   6  -5  10    0.01    0.09 
  -6   5 -10    0.09    0.10 
   6  -4  10    4.79    0.31 
  -6   4 -10    4.94    0.32 
   6  -3  10    3.37    0.28 
  -6   3 -10    4.42    0.31 
   6  -2  10    0.61    0.15 
  -6   2 -10    0.56    0.15 
   6  -1  10    7.11    0.40 
  -6   1 -10    6.39    0.41 
   6   0  10    2.49    0.26 
  -6   0 -10    2.23    0.27 
   6   1  10   -0.13    0.09 
  -6  -1 -10   -0.08    0.12 
   7 -10  10    0.23    0.14 
   7  -9  10    1.30    0.20 
   7  -8  10    0.19    0.12 
   7  -7  10    1.54    0.20 
   7  -6  10    0.92    0.17 
   7  -5  10    0.12    0.11 
  -7   5 -10    0.25    0.11 
   7  -4  10    0.00    0.10 
  -7   4 -10    0.05    0.10 
   7  -3  10    2.04    0.23 
  -7   3 -10    2.15    0.25 
   7  -2  10    0.25    0.12 
  -7   2 -10    0.09    0.13 
   7  -1  10    0.56    0.15 
  -7   1 -10    0.55    0.16 
   7   0  10    0.21    0.13 
  -7   0 -10    0.50    0.17 
   8  -9  10    1.96    0.25 
   8  -8  10    2.02    0.24 
   8  -7  10    0.08    0.11 
   8  -6  10    0.53    0.15 
  -8   6 -10    0.82    0.16 
   8  -5  10    0.09    0.11 
  -8   5 -10    0.07    0.11 
   8  -4  10   -0.01    0.11 
  -8   4 -10   -0.08    0.10 
   8  -3  10    1.49    0.22 
  -8   3 -10    1.15    0.21 
   8  -2  10    1.99    0.25 
  -8   2 -10    2.35    0.28 
   9  -7  10    0.06    0.12 
   9  -6  10   -0.06    0.11 
  -9   6 -10    0.02    0.11 
  -9   5 -10    0.91    0.18 
  -9   4 -10    0.70    0.19 
 -11   0  11    0.15    0.14 
 -11   1  11    0.17    0.14 
 -11   2  11   -0.09    0.10 
 -11   3  11    0.90    0.20 
 -11   4  11    0.20    0.14 
 -11   5  11    1.64    0.26 
 -10   0  11    0.40    0.16 
 -10   1  11    0.64    0.17 
 -10   2  11   -0.12    0.10 
 -10   3  11    0.80    0.18 
 -10   4  11    0.56    0.16 
 -10   5  11    0.50    0.16 
 -10   6  11    0.84    0.21 
  -9  -4  11    0.35    0.14 
  -9  -3  11   -0.09    0.10 
  -9  -2  11    0.78    0.16 
  -9  -1  11    0.68    0.16 
  -9  -1  11    0.80    0.14 
  -9   0  11    0.07    0.08 
  -9   0  11   -0.01    0.10 
  -9   1  11    0.33    0.11 
  -9   1  11    0.43    0.15 
  -9   2  11    0.58    0.12 
  -9   2  11    0.72    0.17 
  -9   3  11    1.11    0.16 
  -9   3  11    1.11    0.21 
  -9   4  11    4.49    0.36 
  -9   4  11    5.19    0.32 
  -9   5  11   -0.01    0.12 
  -9   5  11    0.06    0.11 
  -9   6  11    0.11    0.11 
   9  -6 -11   -0.03    0.14 
  -9   7  11    0.00    0.09 
   9  -7 -11   -0.09    0.13 
  -8  -5  11   -0.02    0.10 
  -8  -4  11    0.46    0.14 
  -8  -3  11    0.05    0.10 
  -8  -2  11    0.57    0.13 
  -8  -1  11    0.40    0.13 
  -8  -1  11    0.38    0.11 
  -8   0  11    0.75    0.14 
  -8   0  11    0.75    0.16 
  -8   1  11    1.83    0.20 
  -8   1  11    1.91    0.23 
  -8   2  11    1.76    0.19 
  -8   2  11    1.58    0.22 
  -8   3  11   -0.02    0.08 
  -8   3  11   -0.08    0.09 
  -8   4  11    1.18    0.17 
  -8   4  11    1.11    0.21 
  -8   5  11    0.15    0.10 
   8  -5 -11    0.11    0.15 
  -8   6  11    0.06    0.10 
   8  -6 -11   -0.07    0.14 
  -8   7  11   -0.16    0.08 
   8  -7 -11    0.13    0.17 
   8  -8 -11    0.93    0.26 
  -7  -6  11    0.54    0.15 
  -7  -5  11   -0.05    0.10 
  -7  -4  11    2.82    0.27 
  -7  -3  11    4.04    0.29 
  -7  -2  11    0.25    0.11 
  -7  -2  11    0.36    0.13 
  -7  -1  11    1.92    0.20 
  -7  -1  11    1.70    0.21 
  -7   0  11    2.52    0.21 
  -7   0  11    2.97    0.25 
  -7   1  11    0.07    0.09 
  -7   1  11    0.11    0.08 
  -7   2  11    0.30    0.13 
  -7   2  11    0.21    0.09 
  -7   3  11    1.12    0.16 
  -7   4  11    0.24    0.10 
   7  -4 -11    0.21    0.15 
  -7   5  11    0.09    0.10 
   7  -5 -11    0.19    0.15 
  -7   6  11    1.65    0.21 
   7  -6 -11    2.00    0.31 
  -7   7  11    0.51    0.14 
   7  -7 -11    0.33    0.18 
   7  -8 -11    1.47    0.29 
  -6  -7  11    0.60    0.16 
  -6  -6  11    0.64    0.16 
  -6  -5  11    0.19    0.12 
  -6  -4  11    0.19    0.11 
  -6  -3  11    4.34    0.29 
  -6  -2  11    0.21    0.10 
  -6  -2  11    0.37    0.12 
  -6  -1  11    2.44    0.20 
  -6  -1  11    2.25    0.23 
  -6   0  11    1.12    0.15 
  -6   0  11    0.83    0.15 
  -6   1  11    0.23    0.09 
  -6   2  11    0.31    0.10 
   6  -2 -11    0.24    0.14 
  -6   3  11    1.81    0.20 
   6  -3 -11    1.64    0.26 
  -6   4  11    1.69    0.20 
   6  -4 -11    1.75    0.28 
  -6   5  11    1.10    0.17 
   6  -5 -11    1.27    0.25 
  -6   6  11    5.54    0.35 
   6  -6 -11    5.36    0.44 
  -6   7  11    1.12    0.18 
   6  -7 -11    0.91    0.23 
   6  -8 -11    0.26    0.19 
  -5  -7  11    0.06    0.12 
  -5  -6  11    3.88    0.29 
  -5  -5  11    1.37    0.19 
  -5  -4  11    0.57    0.13 
  -5  -3  11    1.17    0.17 
  -5  -2  11    1.05    0.15 
  -5  -1  11    0.87    0.14 
   5   1 -11    1.12    0.20 
  -5   0  11    0.10    0.07 
   5   0 -11   -0.04    0.09 
  -5   1  11    0.89    0.14 
   5  -1 -11    1.03    0.19 
  -5   2  11    2.68    0.21 
   5  -2 -11    2.41    0.29 
  -5   3  11    1.27    0.17 
   5  -3 -11    1.07    0.21 
  -5   4  11    6.72    0.38 
   5  -4 -11    7.05    0.49 
  -5   5  11    0.04    0.09 
   5  -5 -11    0.04    0.14 
  -5   6  11    2.91    0.25 
   5  -6 -11    2.57    0.35 
   5  -7 -11    1.46    0.28 
   5  -8 -11   -0.05    0.14 
  -4  -8  11    0.56    0.16 
  -4  -7  11    0.22    0.12 
  -4  -6  11    0.04    0.09 
  -4  -5  11   -0.02    0.07 
  -4  -4  11    4.39    0.28 
  -4  -3  11    0.59    0.12 
  -4  -2  11    2.91    0.21 
   4   2 -11    3.19    0.28 
  -4  -1  11    0.21    0.08 
   4   1 -11    0.01    0.10 
  -4   0  11    1.81    0.18 
   4   0 -11    2.18    0.26 
  -4   1  11    0.54    0.10 
   4  -1 -11    0.59    0.15 
  -4   2  11    2.50    0.20 
   4  -2 -11    2.39    0.29 
  -4   3  11    0.04    0.08 
   4  -3 -11    0.07    0.12 
  -4   4  11    2.54    0.21 
   4  -4 -11    2.21    0.29 
  -4   5  11   -0.02    0.08 
   4  -5 -11    0.09    0.14 
  -4   6  11    1.67    0.20 
   4  -6 -11    1.35    0.25 
   4  -7 -11    0.24    0.17 
   4  -8 -11   -0.08    0.14 
  -3  -9  11    0.03    0.12 
  -3  -8  11    0.80    0.17 
  -3  -7  11    0.01    0.09 
  -3  -6  11    3.86    0.27 
  -3  -5  11    4.47    0.28 
  -3  -4  11    2.35    0.20 
  -3  -3  11    7.20    0.37 
   3   3 -11    8.02    0.43 
  -3  -2  11   -0.01    0.06 
   3   2 -11    0.05    0.10 
  -3  -1  11    7.06    0.35 
   3   1 -11    6.68    0.42 
  -3   0  11    8.98    0.42 
   3   0 -11    8.83    0.50 
  -3   1  11    0.28    0.09 
   3  -1 -11    0.38    0.13 
  -3   2  11    3.54    0.24 
   3  -2 -11    3.95    0.33 
  -3   3  11    1.15    0.16 
   3  -3 -11    0.96    0.19 
  -3   4  11    0.02    0.07 
   3  -4 -11    0.02    0.13 
  -3   5  11    1.04    0.16 
   3  -5 -11    1.23    0.23 
   3  -6 -11    1.05    0.23 
   3  -7 -11    0.19    0.14 
   3  -8 -11   -0.18    0.13 
  -2  -9  11    2.28    0.26 
  -2  -8  11    1.03    0.18 
  -2  -7  11    0.43    0.12 
  -2  -6  11   10.17    0.48 
  -2  -5  11    1.52    0.18 
  -2  -4  11   28.86    1.08 
  -2  -3  11   15.44    0.64 
   2   3 -11   15.74    0.70 
  -2  -2  11    2.10    0.20 
   2   2 -11    2.04    0.23 
  -2  -1  11    0.04    0.08 
   2   1 -11    0.05    0.09 
  -2   0  11    4.44    0.26 
   2   0 -11    4.87    0.35 
  -2   1  11    0.01    0.08 
   2  -1 -11   -0.09    0.08 
  -2   2  11    4.52    0.28 
   2  -2 -11    4.05    0.33 
  -2   3  11    3.56    0.25 
   2  -3 -11    3.59    0.32 
  -2   4  11    0.16    0.10 
   2  -4 -11    0.15    0.14 
  -2   5  11    0.69    0.15 
   2  -5 -11    0.35    0.16 
   2  -6 -11    0.62    0.19 
   2  -7 -11    0.09    0.15 
  -1 -10  11    0.29    0.13 
  -1  -9  11    3.14    0.27 
  -1  -8  11    2.13    0.23 
  -1  -7  11    0.52    0.12 
  -1  -6  11   12.58    0.56 
  -1  -5  11   16.47    0.68 
  -1  -4  11    0.28    0.11 
  -1  -3  11    7.55    0.37 
   1   3 -11    8.14    0.43 
  -1  -2  11    6.28    0.33 
   1   2 -11    7.11    0.40 
  -1  -1  11    0.69    0.13 
   1   1 -11    0.62    0.15 
  -1   0  11    2.18    0.19 
   1   0 -11    2.31    0.25 
  -1   1  11    0.85    0.13 
   1  -1 -11    0.94    0.18 
  -1   2  11    2.30    0.20 
   1  -2 -11    2.27    0.27 
  -1   3  11    0.03    0.08 
   1  -3 -11    0.10    0.12 
  -1   4  11    2.99    0.25 
   1  -4 -11    3.15    0.33 
   1  -5 -11    0.05    0.14 
   1  -6 -11    0.75    0.20 
   1  -7 -11    0.13    0.15 
   0 -10  11    0.01    0.10 
   0  -9  11    2.70    0.26 
   0  -8  11    4.21    0.28 
   0  -7  11    1.45    0.18 
   0  -6  11   14.59    0.62 
   0  -5  11    2.36    0.19 
   0  -4  11    0.16    0.08 
   0   4 -11    0.06    0.09 
   0  -3  11   -0.10    0.07 
   0   3 -11   -0.05    0.08 
   0  -2  11   10.19    0.45 
   0   2 -11   10.00    0.51 
   0  -1  11    1.27    0.15 
   0   1 -11    1.11    0.18 
   0   0  11   13.99    0.58 
   0   0 -11   13.10    0.65 
   0   1  11    8.62    0.43 
   0  -1 -11    9.14    0.51 
   0   2  11    2.16    0.21 
   0  -2 -11    2.06    0.26 
   0   3  11    0.03    0.08 
   0  -3 -11    0.01    0.10 
   0  -4 -11    1.66    0.24 
   0  -5 -11    0.01    0.13 
   0  -6 -11    0.32    0.16 
   1 -11  11    0.68    0.16 
   1 -10  11   -0.14    0.08 
   1  -9  11    0.51    0.14 
   1  -8  11    3.07    0.24 
   1  -7  11    5.89    0.34 
   1  -7  11    6.21    0.34 
   1  -6  11   -0.14    0.06 
   1  -6  11   -0.16    0.06 
   1  -5  11    0.76    0.11 
   1  -5  11    0.82    0.12 
   1  -4  11    2.38    0.18 
   1  -4  11    2.32    0.18 
  -1   4 -11    2.18    0.19 
   1  -3  11    0.64    0.11 
   1  -3  11    0.77    0.11 
  -1   3 -11    0.59    0.13 
   1  -2  11    6.79    0.32 
   1  -2  11    6.42    0.33 
  -1   2 -11    6.33    0.38 
   1  -1  11    2.74    0.20 
   1  -1  11    3.32    0.22 
  -1   1 -11    3.03    0.26 
   1   0  11    1.70    0.16 
   1   0  11    1.70    0.18 
  -1   0 -11    1.67    0.22 
   1   1  11    1.97    0.20 
   1   1  11    2.03    0.18 
  -1  -1 -11    1.42    0.21 
   1   2  11    0.51    0.12 
   1   2  11    0.44    0.11 
  -1  -2 -11    0.50    0.15 
   1   3  11    0.07    0.08 
  -1  -3 -11   -0.03    0.10 
   1   4  11    1.30    0.18 
  -1  -4 -11    0.83    0.19 
   1   5  11    0.25    0.12 
  -1  -5 -11    0.24    0.13 
   2 -11  11    0.25    0.13 
   2 -10  11    1.52    0.21 
   2 -10  11    1.17    0.18 
   2  -9  11   -0.02    0.08 
   2  -9  11    0.11    0.10 
   2  -8  11    2.28    0.23 
   2  -8  11    2.01    0.20 
   2  -7  11    2.56    0.23 
   2  -7  11    2.47    0.20 
   2  -6  11    0.21    0.09 
   2  -6  11    0.11    0.08 
   2  -5  11    0.08    0.07 
   2  -5  11   -0.07    0.06 
   2  -4  11    4.74    0.27 
   2  -4  11    4.65    0.27 
  -2   4 -11    4.49    0.28 
   2  -3  11    8.98    0.42 
   2  -3  11   10.01    0.43 
  -2   3 -11    9.45    0.47 
   2  -2  11    1.30    0.15 
   2  -2  11    1.44    0.16 
  -2   2 -11    1.30    0.18 
   2  -1  11    2.82    0.22 
   2  -1  11    3.23    0.22 
  -2   1 -11    3.27    0.27 
   2   0  11    0.34    0.10 
   2   0  11    0.30    0.09 
  -2   0 -11    0.14    0.11 
   2   1  11    1.49    0.17 
   2   1  11    1.39    0.17 
  -2  -1 -11    1.10    0.19 
   2   2  11    0.12    0.09 
  -2  -2 -11   -0.14    0.09 
   2   3  11    1.37    0.19 
  -2  -3 -11    1.35    0.21 
   2   4  11    0.07    0.10 
  -2  -4 -11    0.46    0.16 
   2   5  11    0.30    0.13 
  -2  -5 -11    0.64    0.18 
   3 -11  11   -0.01    0.12 
   3 -10  11    0.12    0.11 
   3  -9  11    1.80    0.22 
   3  -8  11   -0.06    0.08 
   3  -7  11    0.78    0.12 
   3  -7  11    0.58    0.13 
   3  -6  11    0.03    0.07 
   3  -6  11    0.03    0.07 
   3  -5  11    0.12    0.08 
   3  -5  11    0.08    0.07 
   3  -4  11    0.09    0.07 
   3  -4  11    0.04    0.07 
  -3   4 -11   -0.05    0.07 
   3  -3  11    7.01    0.34 
   3  -3  11    6.47    0.35 
  -3   3 -11    6.67    0.38 
   3  -2  11    7.73    0.37 
   3  -2  11    7.51    0.38 
  -3   2 -11    6.97    0.41 
   3  -1  11   -0.07    0.07 
   3  -1  11   -0.07    0.08 
  -3   1 -11   -0.08    0.09 
   3   0  11    2.30    0.20 
   3   0  11    2.04    0.21 
  -3   0 -11    2.09    0.24 
   3   1  11    1.74    0.20 
  -3  -1 -11    1.37    0.21 
   3   2  11    0.05    0.09 
  -3  -2 -11    0.19    0.12 
   3   3  11    1.30    0.19 
  -3  -3 -11    1.49    0.22 
   3   4  11    1.64    0.22 
  -3  -4 -11    1.78    0.25 
   4 -11  11    0.44    0.15 
   4 -10  11    0.08    0.11 
   4  -9  11    3.33    0.28 
   4  -8  11    2.52    0.25 
   4  -7  11   -0.07    0.07 
   4  -6  11    1.97    0.20 
   4  -5  11   11.26    0.52 
  -4   5 -11   11.19    0.52 
   4  -4  11    3.13    0.25 
  -4   4 -11    2.91    0.24 
   4  -3  11    3.79    0.27 
  -4   3 -11    3.93    0.29 
   4  -2  11    4.92    0.32 
  -4   2 -11    5.28    0.34 
   4  -1  11   -0.06    0.08 
  -4   1 -11    0.08    0.10 
   4   0  11    1.16    0.17 
  -4   0 -11    0.65    0.16 
   4   1  11    1.53    0.20 
  -4  -1 -11    1.37    0.21 
   4   2  11    0.95    0.18 
  -4  -2 -11    0.91    0.19 
   4   3  11    0.42    0.15 
  -4  -3 -11    0.28    0.14 
   5 -11  11    0.60    0.16 
   5 -10  11    0.93    0.18 
   5  -9  11    0.32    0.13 
   5  -8  11    1.74    0.21 
   5  -7  11   -0.05    0.08 
   5  -6  11    0.30    0.11 
   5  -5  11    4.50    0.30 
  -5   5 -11    4.02    0.29 
   5  -4  11    4.90    0.32 
  -5   4 -11    4.70    0.32 
   5  -3  11    0.50    0.13 
  -5   3 -11    0.40    0.14 
   5  -2  11    2.44    0.24 
  -5   2 -11    2.65    0.27 
   5  -1  11    1.04    0.17 
  -5   1 -11    0.89    0.17 
   5   0  11   -0.06    0.09 
  -5   0 -11    0.02    0.12 
   5   1  11    0.27    0.13 
  -5  -1 -11    0.24    0.14 
   5   2  11    0.99    0.19 
   6 -10  11    1.70    0.23 
   6  -9  11    0.25    0.12 
   6  -8  11    1.95    0.23 
   6  -7  11    0.57    0.14 
   6  -6  11    0.12    0.10 
   6  -5  11    0.47    0.13 
  -6   5 -11    0.17    0.11 
   6  -4  11    3.66    0.28 
  -6   4 -11    3.55    0.29 
   6  -3  11    0.73    0.16 
  -6   3 -11    0.23    0.13 
   6  -2  11    0.76    0.17 
  -6   2 -11    1.39    0.21 
   6  -1  11    3.37    0.28 
  -6   1 -11    3.37    0.30 
   6   0  11    1.84    0.24 
  -6   0 -11    1.40    0.23 
   7 -10  11    0.71    0.17 
   7  -9  11    0.17    0.12 
   7  -8  11    0.00    0.11 
   7  -7  11    0.95    0.18 
   7  -6  11    2.20    0.25 
   7  -5  11    0.52    0.15 
  -7   5 -11    0.50    0.15 
   7  -4  11    1.63    0.23 
  -7   4 -11    1.61    0.22 
   7  -3  11    1.99    0.24 
  -7   3 -11    1.92    0.25 
   7  -2  11   -0.16    0.10 
  -7   2 -11   -0.08    0.11 
   7  -1  11    0.78    0.18 
   8  -8  11    0.49    0.16 
   8  -7  11    0.49    0.16 
   8  -6  11    3.41    0.30 
   8  -5  11   -0.10    0.11 
  -8   5 -11    0.12    0.12 
   8  -4  11    2.80    0.30 
  -8   4 -11    2.76    0.30 
 -10   0  12    1.50    0.24 
 -10   1  12    0.18    0.14 
 -10   2  12    0.28    0.14 
 -10   3  12   -0.04    0.11 
 -10   4  12    0.20    0.15 
 -10   5  12    0.54    0.18 
  -9  -3  12    0.46    0.14 
  -9  -2  12    0.46    0.14 
  -9  -1  12    0.00    0.11 
  -9  -1  12   -0.03    0.09 
  -9   0  12    0.30    0.13 
  -9   0  12    0.28    0.11 
  -9   1  12    0.12    0.12 
  -9   1  12    0.08    0.08 
  -9   2  12    0.04    0.12 
  -9   2  12   -0.10    0.07 
  -9   3  12    0.94    0.20 
  -9   3  12    1.28    0.19 
  -9   4  12    3.66    0.28 
  -9   5  12    1.70    0.22 
   9  -5 -12    1.63    0.30 
  -9   6  12    0.04    0.10 
   9  -6 -12    0.00    0.15 
  -9   7  12    0.57    0.16 
  -8  -4  12    0.91    0.18 
  -8  -3  12    0.18    0.11 
  -8  -2  12    1.72    0.21 
  -8  -1  12    0.21    0.11 
  -8  -1  12    0.05    0.11 
  -8   0  12    0.46    0.14 
  -8   0  12    0.41    0.12 
  -8   1  12    0.43    0.14 
  -8   1  12    0.41    0.12 
  -8   2  12    0.56    0.16 
  -8   2  12    0.83    0.15 
  -8   3  12    0.37    0.12 
  -8   4  12    1.43    0.20 
   8  -4 -12    1.68    0.29 
  -8   5  12    2.88    0.28 
   8  -5 -12    2.95    0.38 
  -8   6  12    0.07    0.11 
   8  -6 -12   -0.15    0.12 
  -8   7  12    0.82    0.18 
   8  -7 -12    1.30    0.29 
  -7  -5  12   -0.05    0.10 
  -7  -4  12    1.68    0.22 
  -7  -3  12    0.39    0.13 
  -7  -2  12    0.32    0.12 
  -7  -1  12    0.24    0.12 
  -7  -1  12    0.06    0.09 
  -7   0  12    0.38    0.14 
  -7   0  12    0.41    0.12 
  -7   1  12    0.22    0.09 
  -7   2  12    5.39    0.32 
   7  -2 -12    4.83    0.41 
  -7   3  12    3.06    0.24 
   7  -3 -12    3.33    0.38 
  -7   4  12    1.23    0.18 
   7  -4 -12    1.13    0.25 
  -7   5  12    3.18    0.27 
   7  -5 -12    3.01    0.38 
  -7   6  12    0.01    0.10 
   7  -6 -12    0.05    0.15 
  -7   7  12    0.29    0.14 
   7  -7 -12    0.36    0.20 
  -6  -6  12   -0.14    0.09 
  -6  -5  12    0.07    0.11 
  -6  -4  12    0.63    0.15 
  -6  -3  12   -0.08    0.07 
  -6  -2  12    1.37    0.18 
  -6  -1  12    0.96    0.16 
   6   1 -12    1.28    0.22 
  -6   0  12    0.69    0.13 
   6   0 -12    1.08    0.21 
  -6   1  12    0.08    0.08 
   6  -1 -12    0.01    0.10 
  -6   2  12    4.69    0.30 
   6  -2 -12    4.87    0.40 
  -6   3  12    3.00    0.24 
   6  -3 -12    3.10    0.36 
  -6   4  12    0.75    0.15 
   6  -4 -12    0.88    0.23 
  -6   5  12    6.24    0.38 
   6  -5 -12    6.93    0.51 
  -6   6  12    1.83    0.23 
   6  -6 -12    1.82    0.31 
  -6   7  12    0.33    0.13 
   6  -7 -12    0.11    0.18 
  -5  -7  12    0.21    0.12 
  -5  -6  12    0.86    0.17 
  -5  -5  12    2.30    0.25 
  -5  -4  12    0.38    0.12 
  -5  -3  12    0.53    0.13 
  -5  -2  12    2.57    0.21 
   5   2 -12    2.96    0.31 
  -5  -1  12    0.18    0.10 
   5   1 -12    0.20    0.13 
  -5   0  12    0.75    0.13 
   5   0 -12    1.22    0.22 
  -5   1  12    0.72    0.13 
   5  -1 -12    0.89    0.20 
  -5   2  12    0.11    0.08 
   5  -2 -12    0.03    0.11 
  -5   3  12    0.79    0.14 
   5  -3 -12    0.98    0.22 
  -5   4  12    0.36    0.12 
   5  -4 -12    0.05    0.13 
  -5   5  12    0.71    0.14 
   5  -5 -12    0.63    0.22 
  -5   6  12    0.49    0.15 
   5  -6 -12    0.43    0.20 
   5  -7 -12    0.05    0.16 
  -4  -8  12    0.27    0.14 
  -4  -7  12    0.76    0.16 
  -4  -6  12   -0.06    0.09 
  -4  -5  12    2.51    0.25 
  -4  -4  12    1.32    0.18 
  -4  -3  12    0.00    0.07 
  -4  -2  12    3.50    0.24 
   4   2 -12    2.93    0.31 
  -4  -1  12    0.13    0.08 
   4   1 -12   -0.02    0.09 
  -4   0  12    3.00    0.22 
   4   0 -12    2.96    0.32 
  -4   1  12    0.35    0.10 
   4  -1 -12    0.32    0.14 
  -4   2  12    0.32    0.10 
   4  -2 -12    0.22    0.15 
  -4   3  12    0.80    0.15 
   4  -3 -12    0.94    0.22 
  -4   4  12    2.51    0.22 
   4  -4 -12    2.54    0.33 
  -4   5  12    0.02    0.10 
   4  -5 -12   -0.07    0.14 
  -4   6  12    0.00    0.09 
   4  -6 -12   -0.11    0.14 
   4  -7 -12    0.21    0.17 
  -3  -8  12    2.94    0.29 
  -3  -7  12    3.85    0.29 
  -3  -6  12    0.32    0.12 
  -3  -5  12    0.26    0.10 
  -3  -4  12    1.31    0.18 
  -3  -3  12    0.93    0.15 
  -3  -2  12    2.95    0.23 
   3   2 -12    2.95    0.30 
  -3  -1  12    4.46    0.28 
   3   1 -12    4.08    0.33 
  -3   0  12    0.03    0.07 
   3   0 -12    0.09    0.11 
  -3   1  12    0.04    0.08 
   3  -1 -12   -0.14    0.08 
  -3   2  12    1.68    0.19 
   3  -2 -12    1.55    0.24 
  -3   3  12    0.17    0.10 
   3  -3 -12    0.25    0.14 
  -3   4  12    1.59    0.20 
   3  -4 -12    1.52    0.26 
  -3   5  12    0.95    0.18 
   3  -5 -12    1.07    0.23 
   3  -6 -12    0.56    0.21 
   3  -7 -12    0.17    0.17 
  -2  -9  12    0.81    0.17 
  -2  -8  12    0.44    0.15 
  -2  -7  12    4.06    0.29 
  -2  -6  12    0.79    0.14 
  -2  -5  12   -0.01    0.08 
  -2  -4  12   11.65    0.53 
  -2  -3  12    8.95    0.44 
   2   3 -12    9.81    0.50 
  -2  -2  12    0.21    0.09 
   2   2 -12    0.45    0.14 
  -2  -1  12    0.94    0.14 
   2   1 -12    1.01    0.18 
  -2   0  12    0.15    0.09 
   2   0 -12    0.17    0.11 
  -2   1  12    0.22    0.10 
   2  -1 -12    0.44    0.15 
  -2   2  12    2.09    0.22 
   2  -2 -12    2.33    0.29 
  -2   3  12    1.40    0.18 
   2  -3 -12    1.20    0.23 
  -2   4  12    0.66    0.15 
   2  -4 -12    0.46    0.17 
  -2   5  12    0.98    0.18 
   2  -5 -12    1.08    0.23 
   2  -6 -12    0.35    0.18 
  -1  -9  12    2.12    0.24 
  -1  -8  12   -0.01    0.09 
  -1  -7  12    1.03    0.17 
  -1  -6  12    0.01    0.08 
  -1  -5  12    1.94    0.21 
  -1  -4  12    0.35    0.11 
  -1  -3  12   12.99    0.57 
   1   3 -12   13.09    0.62 
  -1  -2  12   -0.07    0.07 
   1   2 -12    0.01    0.09 
  -1  -1  12    0.83    0.13 
   1   1 -12    0.70    0.16 
  -1   0  12    0.54    0.12 
   1   0 -12    0.56    0.15 
  -1   1  12    0.16    0.10 
   1  -1 -12    0.22    0.13 
  -1   2  12    0.82    0.15 
   1  -2 -12    1.02    0.21 
  -1   3  12    1.86    0.21 
   1  -3 -12    1.98    0.27 
  -1   4  12    0.90    0.17 
   1  -4 -12    1.01    0.22 
   1  -5 -12   -0.13    0.12 
   1  -6 -12    0.22    0.16 
   0 -10  12   -0.06    0.11 
   0  -9  12    1.97    0.23 
   0  -8  12    0.48    0.13 
   0  -7  12    2.18    0.22 
   0  -6  12    7.20    0.38 
   0  -5  12    4.15    0.27 
   0  -4  12    0.46    0.11 
   0  -3  12    0.81    0.13 
   0   3 -12    1.04    0.17 
   0  -2  12    0.05    0.07 
   0   2 -12    0.05    0.10 
   0  -1  12    0.03    0.07 
   0   1 -12    0.01    0.10 
   0   0  12    1.99    0.20 
   0   0 -12    1.79    0.24 
   0   1  12    4.11    0.27 
   0  -1 -12    4.02    0.34 
   0   2  12   -0.01    0.09 
   0  -2 -12    0.06    0.12 
   0   3  12    0.15    0.11 
   0  -3 -12    0.13    0.13 
   0  -4 -12    0.49    0.17 
   0  -5 -12   -0.06    0.13 
   1 -10  12    0.03    0.09 
   1  -9  12    1.43    0.19 
   1  -8  12    0.68    0.14 
   1  -7  12    1.02    0.16 
   1  -6  12    1.14    0.16 
   1  -5  12    1.98    0.19 
   1  -4  12    4.41    0.26 
  -1   4 -12    3.73    0.27 
   1  -3  12    0.05    0.08 
  -1   3 -12   -0.01    0.08 
   1  -2  12    1.45    0.17 
  -1   2 -12    1.59    0.21 
   1  -1  12    1.85    0.19 
  -1   1 -12    1.62    0.22 
   1   0  12    1.47    0.18 
  -1   0 -12    1.19    0.20 
   1   1  12   -0.05    0.08 
  -1  -1 -12    0.21    0.13 
   1   2  12    0.92    0.16 
  -1  -2 -12    1.28    0.21 
  -1  -3 -12    0.32    0.15 
  -1  -4 -12    0.98    0.21 
   2 -11  12    0.04    0.10 
   2 -10  12    1.59    0.20 
   2  -9  12    0.11    0.09 
   2  -8  12    1.77    0.19 
   2  -7  12    0.68    0.13 
   2  -6  12    2.56    0.21 
   2  -6  12    2.45    0.20 
   2  -5  12    0.01    0.07 
   2  -5  12    0.07    0.08 
   2  -4  12    5.98    0.33 
   2  -4  12    6.79    0.34 
  -2   4 -12    6.63    0.36 
   2  -3  12    1.52    0.16 
   2  -3  12    1.24    0.16 
  -2   3 -12    1.39    0.19 
   2  -2  12    5.35    0.32 
   2  -2  12    6.60    0.34 
  -2   2 -12    6.36    0.38 
   2  -1  12    8.59    0.40 
   2  -1  12    8.01    0.40 
  -2   1 -12    7.27    0.45 
   2   0  12    0.45    0.12 
   2   0  12    0.39    0.11 
  -2   0 -12    0.39    0.14 
   2   1  12    0.16    0.10 
   2   1  12    0.02    0.07 
  -2  -1 -12   -0.02    0.10 
   2   2  12    1.60    0.20 
  -2  -2 -12    1.38    0.22 
   2   3  12    0.87    0.16 
  -2  -3 -12    0.93    0.19 
   3 -10  12    1.98    0.25 
   3  -9  12    2.23    0.24 
   3  -8  12   -0.08    0.08 
   3  -7  12    1.68    0.19 
   3  -6  12    3.14    0.24 
   3  -5  12    0.14    0.09 
   3  -4  12    4.02    0.28 
  -3   4 -12    4.79    0.30 
   3  -3  12    1.66    0.19 
  -3   3 -12    1.78    0.21 
   3  -2  12    1.26    0.17 
  -3   2 -12    1.30    0.20 
   3  -1  12    0.40    0.12 
  -3   1 -12    0.40    0.14 
   3   0  12    0.10    0.10 
  -3   0 -12    0.07    0.12 
   3   1  12    0.03    0.09 
  -3  -1 -12    0.03    0.11 
   3   2  12    0.98    0.17 
  -3  -2 -12    0.94    0.20 
   3   3  12    0.69    0.16 
   4 -11  12    0.09    0.13 
   4 -10  12    1.26    0.20 
   4  -9  12    1.52    0.21 
   4  -8  12    0.13    0.10 
   4  -7  12    0.13    0.10 
   4  -6  12    3.99    0.29 
   4  -5  12    2.85    0.24 
   4  -4  12    0.13    0.10 
  -4   4 -12    0.13    0.10 
   4  -3  12    2.26    0.23 
  -4   3 -12    2.56    0.26 
   4  -2  12    2.47    0.24 
  -4   2 -12    2.56    0.27 
   4  -1  12    0.07    0.10 
  -4   1 -12    0.12    0.13 
   4   0  12    0.89    0.16 
  -4   0 -12    0.98    0.19 
   4   1  12    1.35    0.19 
  -4  -1 -12    1.31    0.22 
   4   2  12    0.16    0.13 
   5 -10  12    0.01    0.12 
   5  -9  12    0.07    0.12 
   5  -8  12    0.48    0.14 
   5  -7  12    0.17    0.11 
   5  -6  12    0.63    0.14 
   5  -5  12    3.29    0.29 
   5  -4  12    2.45    0.24 
  -5   4 -12    2.35    0.25 
   5  -3  12    0.20    0.12 
  -5   3 -12    0.06    0.12 
   5  -2  12    3.87    0.30 
  -5   2 -12    4.30    0.33 
   5  -1  12    0.34    0.13 
  -5   1 -12    0.41    0.15 
   5   0  12    1.37    0.20 
  -5   0 -12    1.10    0.20 
   5   1  12    0.99    0.18 
   6 -10  12    1.11    0.20 
   6  -9  12    0.03    0.12 
   6  -8  12    5.44    0.37 
   6  -7  12    5.40    0.37 
   6  -6  12    0.55    0.15 
   6  -5  12    4.17    0.31 
  -6   5 -12    3.97    0.30 
   6  -4  12    1.74    0.23 
  -6   4 -12    2.29    0.26 
   6  -3  12   -0.09    0.11 
  -6   3 -12    0.22    0.13 
   6  -2  12    2.54    0.27 
  -6   2 -12    2.15    0.27 
   6  -1  12    0.45    0.14 
  -6   1 -12    0.54    0.17 
   7  -8  12    5.20    0.38 
   7  -7  12    2.01    0.25 
   7  -6  12    0.70    0.18 
   7  -5  12    0.85    0.19 
  -7   5 -12    0.99    0.19 
   7  -4  12   -0.04    0.11 
  -7   4 -12    0.08    0.12 
   7  -3  12   -0.03    0.11 
  -7   3 -12   -0.12    0.10 
  -8   5 -12    0.17    0.13 
 -10   0  13    0.35    0.17 
 -10   1  13    0.18    0.14 
 -10   2  13    0.11    0.14 
  -9  -2  13    0.11    0.11 
  -9  -1  13    0.00    0.09 
  -9   0  13    0.24    0.14 
  -9   0  13    0.49    0.13 
  -9   1  13    0.82    0.16 
  -9   1  13    0.90    0.20 
  -9   2  13    0.03    0.10 
  -9   3  13    3.41    0.28 
   9  -3 -13    2.99    0.39 
  -9   4  13    3.01    0.27 
   9  -4 -13    2.87    0.40 
  -9   5  13    0.10    0.12 
  -9   6  13    0.64    0.17 
  -8  -3  13    0.40    0.13 
  -8  -2  13    1.45    0.20 
  -8  -1  13    0.26    0.14 
  -8  -1  13    0.55    0.14 
  -8   0  13    0.56    0.14 
  -8   1  13    2.08    0.23 
  -8   2  13    0.10    0.09 
   8  -2 -13    0.13    0.15 
  -8   3  13    2.22    0.25 
   8  -3 -13    2.26    0.34 
  -8   4  13    3.64    0.29 
   8  -4 -13    3.28    0.41 
  -8   5  13    0.43    0.15 
   8  -5 -13    0.43    0.21 
  -8   6  13   -0.05    0.10 
  -7  -4  13    0.17    0.11 
  -7  -3  13    0.02    0.10 
  -7  -2  13    0.68    0.15 
  -7  -1  13    0.15    0.10 
   7   1 -13    0.01    0.12 
  -7   0  13    0.75    0.15 
   7   0 -13    0.71    0.19 
  -7   1  13    4.43    0.30 
   7  -1 -13    3.58    0.40 
  -7   2  13    4.51    0.31 
   7  -2 -13    4.81    0.42 
  -7   3  13   -0.09    0.09 
   7  -3 -13   -0.23    0.13 
  -7   4  13    2.23    0.25 
   7  -4 -13    1.92    0.32 
  -7   5  13    0.73    0.16 
   7  -5 -13    0.64    0.23 
  -7   6  13   -0.14    0.09 
   7  -6 -13   -0.15    0.14 
  -6  -5  13   -0.08    0.09 
  -6  -4  13    1.05    0.18 
  -6  -3  13    0.46    0.13 
  -6  -2  13    1.95    0.22 
  -6  -1  13    2.09    0.22 
   6   1 -13    2.13    0.29 
  -6   0  13   -0.01    0.08 
   6   0 -13   -0.18    0.08 
  -6   1  13    0.39    0.12 
   6  -1 -13    0.36    0.16 
  -6   2  13    2.05    0.22 
   6  -2 -13    2.08    0.30 
  -6   3  13   -0.10    0.08 
   6  -3 -13    0.06    0.14 
  -6   4  13    1.37    0.20 
   6  -4 -13    1.55    0.28 
  -6   5  13    1.38    0.20 
   6  -5 -13    1.55    0.29 
  -6   6  13    0.20    0.13 
   6  -6 -13    0.29    0.20 
  -5  -6  13    0.41    0.13 
  -5  -5  13    1.53    0.21 
  -5  -4  13   -0.09    0.08 
  -5  -3  13    1.02    0.16 
  -5  -2  13    0.04    0.08 
   5   2 -13    0.04    0.11 
  -5  -1  13    0.39    0.11 
   5   1 -13    0.27    0.14 
  -5   0  13    0.62    0.13 
   5   0 -13    0.64    0.17 
  -5   1  13    0.42    0.12 
   5  -1 -13    0.28    0.14 
  -5   2  13    0.47    0.13 
   5  -2 -13    0.29    0.15 
  -5   3  13    0.19    0.10 
   5  -3 -13    0.18    0.16 
  -5   4  13    0.17    0.11 
   5  -4 -13   -0.08    0.13 
  -5   5  13   -0.03    0.09 
   5  -5 -13   -0.11    0.14 
  -5   6  13    0.65    0.17 
   5  -6 -13    0.98    0.26 
  -4  -7  13    0.15    0.11 
  -4  -6  13    0.22    0.11 
  -4  -5  13    1.46    0.20 
  -4  -4  13   -0.03    0.08 
  -4  -3  13    1.55    0.19 
  -4  -2  13    0.04    0.09 
   4   2 -13    0.15    0.12 
  -4  -1  13    0.39    0.11 
   4   1 -13    0.53    0.16 
  -4   0  13    2.23    0.20 
   4   0 -13    2.50    0.30 
  -4   1  13    1.08    0.16 
   4  -1 -13    1.21    0.22 
  -4   2  13    0.16    0.09 
   4  -2 -13    0.26    0.15 
  -4   3  13    2.24    0.24 
   4  -3 -13    2.32    0.32 
  -4   4  13    4.90    0.33 
   4  -4 -13    4.43    0.41 
  -4   5  13    0.23    0.13 
   4  -5 -13    0.02    0.17 
  -4   6  13    1.46    0.23 
   4  -6 -13    1.43    0.28 
  -3  -8  13    2.25    0.26 
  -3  -7  13    1.17    0.20 
  -3  -6  13   -0.04    0.09 
  -3  -5  13    1.60    0.20 
  -3  -4  13    1.27    0.18 
  -3  -3  13    0.41    0.12 
  -3  -2  13    0.92    0.15 
   3   2 -13    0.71    0.17 
  -3  -1  13    1.76    0.19 
   3   1 -13    1.56    0.23 
  -3   0  13    0.11    0.08 
   3   0 -13    0.03    0.11 
  -3   1  13    0.31    0.11 
   3  -1 -13    0.50    0.16 
  -3   2  13    0.20    0.10 
   3  -2 -13    0.22    0.15 
  -3   3  13    0.02    0.10 
   3  -3 -13   -0.07    0.12 
  -3   4  13    1.88    0.23 
   3  -4 -13    2.74    0.35 
  -3   5  13    0.21    0.12 
   3  -5 -13    0.11    0.17 
   3  -6 -13    0.23    0.18 
  -2  -8  13    0.69    0.16 
  -2  -7  13    0.77    0.16 
  -2  -6  13    0.16    0.11 
  -2  -5  13    0.60    0.13 
  -2  -4  13    2.70    0.22 
  -2  -3  13    0.00    0.08 
  -2  -2  13    2.94    0.23 
   2   2 -13    3.30    0.29 
  -2  -1  13    1.79    0.20 
   2   1 -13    1.58    0.23 
  -2   0  13    0.09    0.10 
   2   0 -13    0.12    0.11 
  -2   1  13    0.60    0.13 
   2  -1 -13    0.62    0.17 
  -2   2  13    1.67    0.21 
   2  -2 -13    1.99    0.29 
  -2   3  13    0.63    0.14 
   2  -3 -13    0.85    0.21 
  -2   4  13    1.42    0.21 
   2  -4 -13    1.85    0.29 
   2  -5 -13    0.97    0.24 
  -1  -9  13    0.30    0.13 
  -1  -8  13   -0.02    0.08 
  -1  -7  13    0.02    0.09 
  -1  -6  13   -0.13    0.07 
  -1  -5  13    0.05    0.08 
  -1  -4  13    0.33    0.11 
  -1  -3  13    2.95    0.23 
   1   3 -13    3.40    0.28 
  -1  -2  13   -0.03    0.08 
   1   2 -13   -0.05    0.10 
  -1  -1  13    0.24    0.10 
   1   1 -13    0.22    0.12 
  -1   0  13    0.20    0.09 
   1   0 -13    0.12    0.11 
  -1   1  13    0.15    0.10 
   1  -1 -13    0.04    0.12 
  -1   2  13    0.70    0.15 
   1  -2 -13    0.54    0.19 
  -1   3  13    3.01    0.26 
   1  -3 -13    2.62    0.33 
  -1   4  13    0.12    0.12 
   1  -4 -13   -0.11    0.13 
   1  -5 -13    0.12    0.17 
   0  -9  13    0.59    0.15 
   0  -8  13    0.40    0.13 
   0  -7  13    0.36    0.12 
   0  -6  13    7.28    0.39 
   0  -5  13    3.76    0.26 
   0  -4  13    0.07    0.08 
   0  -3  13    1.61    0.19 
   0   3 -13    1.87    0.23 
   0  -2  13    0.25    0.10 
   0   2 -13    0.40    0.13 
   0  -1  13    0.06    0.09 
   0   1 -13   -0.02    0.11 
   0   0  13    0.55    0.12 
   0   0 -13    0.61    0.17 
   0   1  13    5.12    0.33 
   0  -1 -13    5.56    0.41 
   0   2  13   -0.13    0.09 
   0  -2 -13   -0.12    0.12 
   0   3  13    3.52    0.29 
   0  -3 -13    3.36    0.36 
   0  -4 -13    0.23    0.16 
   1 -10  13    0.00    0.10 
   1  -9  13    0.54    0.14 
   1  -8  13    0.38    0.13 
   1  -7  13    0.29    0.11 
   1  -6  13    0.34    0.11 
   1  -5  13    2.81    0.23 
   1  -4  13   -0.11    0.07 
   1  -3  13    0.96    0.15 
  -1   3 -13    1.18    0.18 
   1  -2  13    0.39    0.12 
  -1   2 -13    0.47    0.14 
   1  -1  13    0.08    0.09 
  -1   1 -13    0.11    0.10 
   1   0  13    0.74    0.14 
  -1   0 -13    0.59    0.16 
   1   1  13    2.36    0.24 
  -1  -1 -13    2.12    0.27 
   1   2  13    0.18    0.12 
  -1  -2 -13   -0.16    0.11 
  -1  -3 -13    1.12    0.22 
   2  -9  13    0.37    0.13 
   2  -8  13    4.48    0.30 
   2  -7  13    1.35    0.18 
   2  -6  13   -0.15    0.08 
   2  -5  13   -0.12    0.07 
   2  -4  13    0.36    0.10 
   2  -3  13    0.37    0.12 
  -2   3 -13    0.46    0.13 
   2  -2  13    1.78    0.20 
  -2   2 -13    1.49    0.21 
   2  -1  13    4.30    0.29 
  -2   1 -13    4.32    0.34 
   2   0  13   -0.09    0.09 
  -2   0 -13   -0.03    0.10 
   2   1  13    0.73    0.15 
  -2  -1 -13    0.63    0.17 
  -2  -2 -13    0.15    0.13 
  -3   4 -13    2.76    0.25 
   3  -3  13    4.27    0.29 
  -3   3 -13    4.05    0.31 
   3  -2  13    0.10    0.10 
  -3   2 -13   -0.12    0.11 
   3  -1  13    0.10    0.10 
  -3   1 -13    0.02    0.11 
  -3   0 -13   -0.07    0.11 
  -3  -1 -13    0.01    0.12 
   4  -8  13    0.20    0.12 
   4  -7  13    1.05    0.17 
   4  -6  13    2.09    0.22 
   4  -5  13    1.49    0.19 
   4  -4  13    3.44    0.29 
  -4   4 -13    4.81    0.32 
   4  -3  13    7.61    0.43 
  -4   3 -13    8.12    0.46 
   4  -2  13    0.03    0.09 
  -4   2 -13   -0.01    0.12 
   4  -1  13    0.58    0.14 
  -4   1 -13    0.80    0.18 
   4   0  13   -0.05    0.09 
  -4   0 -13    0.12    0.13 
   4   1  13    0.25    0.12 
   5 -10  13    0.23    0.15 
   5  -9  13    6.16    0.40 
   5  -8  13    0.23    0.13 
   5  -7  13    2.43    0.25 
   5  -6  13    2.01    0.23 
   5  -5  13    1.06    0.18 
   5  -4  13   -0.07    0.10 
  -5   4 -13    0.01    0.11 
   5  -3  13    0.17    0.12 
  -5   3 -13    0.08    0.12 
   5  -2  13   -0.05    0.09 
  -5   2 -13    0.07    0.12 
   5  -1  13    0.14    0.11 
  -5   1 -13    0.04    0.12 
   6  -8  13    0.09    0.13 
   6  -7  13   -0.10    0.11 
   6  -6  13    0.07    0.12 
   6  -5  13    0.49    0.15 
   6  -4  13    0.36    0.14 
  -6   4 -13    0.18    0.14 
   6  -3  13    0.01    0.11 
  -6   3 -13   -0.08    0.11 
  -9   0  14    2.25    0.25 
   9   0 -14    1.46    0.29 
  -9   1  14    0.62    0.15 
   9  -1 -14    0.73    0.24 
  -9   2  14    0.20    0.12 
   9  -2 -14    0.13    0.19 
  -9   3  14    1.27    0.21 
  -8  -2  14    0.52    0.15 
  -8  -1  14    0.05    0.11 
  -8   0  14    1.50    0.21 
   8   0 -14    1.42    0.28 
  -8   1  14    0.68    0.15 
   8  -1 -14    0.60    0.21 
  -8   2  14    1.32    0.20 
   8  -2 -14    1.16    0.27 
  -8   3  14    4.47    0.33 
   8  -3 -14    4.45    0.49 
  -8   4  14    2.10    0.26 
  -7  -3  14    0.62    0.15 
  -7  -2  14    0.46    0.14 
  -7  -1  14    0.04    0.10 
   7   1 -14    0.14    0.15 
  -7   0  14    1.20    0.19 
   7   0 -14    1.30    0.25 
  -7   1  14    1.29    0.19 
   7  -1 -14    1.33    0.27 
  -7   2  14    0.64    0.16 
   7  -2 -14    0.79    0.23 
  -7   3  14    0.14    0.12 
   7  -3 -14   -0.19    0.15 
  -7   4  14    0.85    0.18 
   7  -4 -14    0.84    0.26 
  -7   5  14   -0.03    0.11 
  -6  -4  14    1.00    0.18 
  -6  -3  14    0.04    0.09 
  -6  -2  14    1.38    0.20 
  -6  -1  14    1.27    0.19 
   6   1 -14    1.15    0.23 
  -6   0  14    0.29    0.12 
   6   0 -14    0.17    0.15 
  -6   1  14    0.36    0.13 
   6  -1 -14    0.35    0.18 
  -6   2  14    1.27    0.19 
   6  -2 -14    1.53    0.27 
  -6   3  14    1.37    0.20 
   6  -3 -14    1.09    0.27 
  -6   4  14    0.49    0.15 
   6  -4 -14    0.78    0.23 
  -6   5  14    0.71    0.17 
  -5  -5  14    0.07    0.10 
  -5  -4  14   -0.07    0.08 
  -5  -3  14    0.01    0.09 
  -5  -2  14    0.54    0.13 
  -5  -1  14    1.46    0.19 
   5   1 -14    1.60    0.25 
  -5   0  14    0.49    0.13 
   5   0 -14    0.56    0.19 
  -5   1  14    0.21    0.11 
   5  -1 -14   -0.08    0.13 
  -5   2  14    1.45    0.20 
   5  -2 -14    1.62    0.29 
  -5   3  14    2.40    0.26 
   5  -3 -14    2.55    0.36 
  -5   4  14    0.78    0.17 
   5  -4 -14    1.04    0.26 
  -5   5  14    1.81    0.24 
   5  -5 -14    1.27    0.28 
  -4  -6  14    0.52    0.15 
  -4  -5  14    0.21    0.11 
  -4  -4  14    0.51    0.13 
  -4  -3  14    3.53    0.27 
  -4  -2  14    0.12    0.10 
   4   2 -14    0.04    0.12 
  -4  -1  14    1.24    0.18 
   4   1 -14    1.24    0.23 
  -4   0  14    0.78    0.15 
   4   0 -14    0.87    0.20 
  -4   1  14    0.92    0.17 
   4  -1 -14    0.89    0.22 
  -4   2  14    0.57    0.13 
   4  -2 -14    0.95    0.24 
  -4   3  14    3.33    0.28 
   4  -3 -14    3.55    0.41 
  -4   4  14   -0.05    0.09 
   4  -4 -14    0.02    0.15 
  -3  -7  14    0.23    0.13 
  -3  -6  14   -0.07    0.09 
  -3  -5  14    0.41    0.12 
  -3  -4  14    0.01    0.08 
  -3  -3  14    1.57    0.20 
  -3  -2  14    0.13    0.10 
   3   2 -14   -0.02    0.12 
  -3  -1  14    0.02    0.09 
   3   1 -14    0.00    0.11 
  -3   0  14    0.00    0.09 
   3   0 -14    0.11    0.13 
  -3   1  14    1.02    0.17 
   3  -1 -14    1.36    0.25 
  -3   2  14    0.05    0.10 
   3  -2 -14    0.20    0.16 
  -3   3  14    0.31    0.14 
   3  -3 -14    0.16    0.17 
  -3   4  14    0.18    0.13 
   3  -4 -14    0.13    0.17 
  -2  -8  14    0.21    0.13 
  -2  -7  14    0.58    0.15 
  -2  -6  14   -0.03    0.09 
  -2  -5  14    0.67    0.14 
  -2  -4  14    0.40    0.11 
  -2  -3  14    0.80    0.15 
  -2  -2  14    1.13    0.17 
   2   2 -14    1.21    0.21 
  -2  -1  14    0.81    0.15 
   2   1 -14    0.93    0.20 
  -2   0  14    0.18    0.11 
   2   0 -14    0.42    0.15 
  -2   1  14    4.74    0.32 
   2  -1 -14    4.07    0.38 
  -2   2  14    4.63    0.33 
   2  -2 -14    4.75    0.41 
  -2   3  14    0.01    0.11 
   2  -3 -14    0.30    0.18 
  -2   4  14    2.02    0.26 
   2  -4 -14    2.57    0.35 
  -1  -8  14   -0.01    0.09 
  -1  -7  14    0.48    0.13 
  -1  -6  14    0.08    0.09 
  -1  -5  14    0.66    0.13 
  -1  -4  14    0.73    0.15 
  -1  -3  14    1.19    0.17 
  -1  -2  14    0.05    0.09 
   1   2 -14    0.15    0.11 
  -1  -1  14    1.90    0.21 
   1   1 -14    1.77    0.25 
  -1   0  14    0.78    0.15 
   1   0 -14    0.73    0.18 
  -1   1  14    2.01    0.23 
   1  -1 -14    2.05    0.29 
  -1   2  14    2.88    0.29 
   1  -2 -14    3.54    0.38 
  -1   3  14    0.16    0.13 
   1  -3 -14    0.05    0.15 
  -1   4  14    1.17    0.20 
   0  -9  14    0.44    0.14 
   0  -8  14    0.06    0.10 
   0  -7  14    0.42    0.13 
   0  -6  14    0.70    0.14 
   0  -5  14    0.20    0.11 
   0  -4  14    0.82    0.15 
   0  -3  14    2.21    0.23 
   0   3 -14    2.46    0.27 
   0  -2  14   -0.06    0.09 
   0   2 -14    0.04    0.11 
   0  -1  14    5.05    0.33 
   0   1 -14    4.76    0.37 
   0   0  14    1.38    0.20 
   0   0 -14    1.47    0.24 
   0   1  14    0.67    0.15 
   0  -1 -14    0.36    0.17 
   0   2  14    2.08    0.24 
   0  -2 -14    1.57    0.26 
   0   3  14    0.56    0.16 
   0  -3 -14    0.77    0.21 
   1  -9  14    0.21    0.12 
   1  -8  14    0.21    0.11 
   1  -7  14   -0.03    0.09 
   1  -6  14    0.08    0.09 
   1  -5  14    2.82    0.23 
   1  -4  14    0.52    0.13 
   1  -3  14    1.36    0.18 
  -1   3 -14    1.46    0.20 
   1  -2  14    0.07    0.10 
  -1   2 -14   -0.01    0.11 
   1  -1  14    4.11    0.29 
  -1   1 -14    3.36    0.31 
   1   0  14    0.04    0.10 
  -1   0 -14   -0.06    0.11 
   1   1  14    0.40    0.13 
  -1  -1 -14    0.24    0.15 
   1   2  14   -0.05    0.10 
  -1  -2 -14   -0.07    0.12 
   2  -5  14    2.73    0.23 
   2  -4  14    0.29    0.11 
   2  -3  14    0.54    0.14 
  -2   3 -14    0.67    0.16 
   2  -2  14    0.41    0.12 
  -2   2 -14    0.31    0.14 
   2  -1  14    0.56    0.14 
  -2   1 -14    0.42    0.16 
   2   0  14    0.80    0.15 
  -2   0 -14    0.70    0.19 
   2   1  14    0.06    0.11 
  -2  -1 -14   -0.06    0.12 
  -3   3 -14    0.29    0.14 
  -3   2 -14    0.19    0.13 
  -3   1 -14    0.13    0.13 
  -3   0 -14    0.16    0.14 
  -4   3 -14    2.35    0.28 
  -4   2 -14    0.32    0.15 
  -4   1 -14    0.06    0.12 
   5  -6  14    0.96    0.18 
   5  -5  14    0.19    0.13 
   5  -4  14   -0.03    0.10 
  -5   4 -14   -0.04    0.11 
   5  -3  14    0.10    0.11 
  -5   3 -14    0.01    0.12 
   5  -2  14    0.00    0.10 
   8   0 -15    0.18    0.20 
   8  -1 -15    0.13    0.18 
  -7  -1  15   -0.02    0.09 
  -7   0  15    0.06    0.10 
   7   0 -15    0.09    0.16 
  -7   1  15    2.10    0.24 
   7  -1 -15    0.99    0.27 
  -7   2  15    0.34    0.14 
   7  -2 -15    0.46    0.22 
  -6  -3  15    0.38    0.13 
  -6  -2  15    0.46    0.14 
  -6  -1  15    0.22    0.12 
   6   1 -15    0.22    0.17 
  -6   0  15    0.60    0.15 
   6   0 -15    0.88    0.22 
  -6   1  15    5.44    0.36 
   6  -1 -15    4.89    0.45 
  -6   2  15    0.62    0.17 
   6  -2 -15    0.87    0.25 
  -6   3  15   -0.01    0.12 
   6  -3 -15    0.16    0.19 
  -5  -4  15    0.14    0.10 
  -5  -3  15    0.28    0.12 
  -5  -2  15    0.54    0.14 
  -5  -1  15    0.68    0.15 
   5   1 -15    1.07    0.24 
  -5   0  15    0.45    0.13 
   5   0 -15    0.32    0.17 
  -5   1  15    0.15    0.11 
   5  -1 -15    0.01    0.17 
  -5   2  15    0.13    0.12 
   5  -2 -15   -0.28    0.13 
  -5   3  15    0.16    0.13 
   5  -3 -15   -0.11    0.16 
  -4  -5  15    0.00    0.10 
  -4  -4  15    0.88    0.17 
  -4  -3  15    0.81    0.16 
  -4  -2  15    0.10    0.10 
  -4  -1  15    0.80    0.15 
   4   1 -15    0.82    0.21 
  -4   0  15    1.65    0.21 
   4   0 -15    1.73    0.29 
  -4   1  15    0.95    0.17 
   4  -1 -15    1.00    0.25 
  -4   2  15    0.05    0.10 
   4  -2 -15    0.37    0.20 
  -4   3  15    2.64    0.29 
   4  -3 -15    3.01    0.39 
  -3  -6  15   -0.06    0.10 
  -3  -5  15   -0.02    0.08 
  -3  -4  15    0.08    0.10 
  -3  -3  15    0.83    0.16 
  -3  -2  15    1.85    0.22 
  -3  -1  15    0.22    0.12 
   3   1 -15    0.06    0.14 
  -3   0  15    2.32    0.25 
   3   0 -15    3.05    0.35 
  -3   1  15    1.97    0.24 
   3  -1 -15    1.78    0.29 
  -3   2  15    0.15    0.13 
   3  -2 -15    0.01    0.15 
  -3   3  15    6.02    0.40 
   3  -3 -15    6.83    0.54 
  -2  -7  15   -0.01    0.09 
  -2  -6  15    0.05    0.10 
  -2  -5  15    1.69    0.22 
  -2  -4  15    0.86    0.16 
  -2  -3  15    2.61    0.26 
  -2  -2  15    7.00    0.40 
   2   2 -15    7.17    0.47 
  -2  -1  15   -0.09    0.08 
   2   1 -15    0.04    0.14 
  -2   0  15    2.10    0.24 
   2   0 -15    2.19    0.30 
  -2   1  15    3.85    0.31 
   2  -1 -15    3.65    0.40 
  -2   2  15    0.72    0.17 
   2  -2 -15    0.49    0.21 
  -2   3  15    2.61    0.29 
  -1  -7  15    0.02    0.10 
  -1  -6  15    0.00    0.08 
  -1  -5  15    2.03    0.23 
  -1  -4  15    0.83    0.16 
  -1  -3  15    1.40    0.19 
  -1  -2  15    2.82    0.25 
   1   2 -15    2.68    0.32 
  -1  -1  15   -0.07    0.09 
   1   1 -15    0.11    0.14 
  -1   0  15    0.90    0.16 
   1   0 -15    1.03    0.23 
  -1   1  15    0.91    0.18 
   1  -1 -15    0.88    0.23 
  -1   2  15    0.80    0.17 
   1  -2 -15    0.63    0.21 
   0  -8  15    0.17    0.12 
   0  -7  15    0.06    0.10 
   0  -6  15    0.64    0.15 
   0  -5  15    0.33    0.12 
   0  -4  15    1.58    0.20 
   0  -3  15    0.04    0.10 
   0  -2  15    0.95    0.17 
   0   2 -15    0.85    0.19 
   0  -1  15   -0.13    0.08 
   0   1 -15   -0.02    0.13 
   0   0  15    0.20    0.12 
   0   0 -15    0.05    0.13 
   0   1  15    0.00    0.10 
   0  -1 -15   -0.09    0.13 
   0   2  15    1.10    0.20 
   1  -8  15    0.07    0.10 
   1  -7  15    1.10    0.18 
   1  -6  15    0.53    0.14 
   1  -5  15    0.07    0.09 
   1  -4  15    0.07    0.09 
   1  -3  15   -0.10    0.09 
  -1   3 -15    0.05    0.12 
   1  -2  15    0.01    0.10 
  -1   2 -15    0.02    0.11 
   1  -1  15   -0.12    0.09 
  -1   1 -15   -0.05    0.12 
   1   0  15    0.49    0.14 
  -1   0 -15    0.16    0.15 
   1   1  15    0.18    0.13 
  -2   3 -15    0.69    0.17 
  -2   2 -15    0.84    0.19 
  -2   1 -15    0.29    0.15 
  -3   3 -15    0.89    0.19 
  -3   2 -15    0.80    0.19 
  -4   3 -15    0.55    0.18 
   7   0 -16   -0.04    0.15 
   6   0 -16    0.02    0.17 
   6  -1 -16    0.71    0.24 
  -5  -2  16    0.69    0.15 
  -5  -1  16    0.59    0.15 
  -5   0  16    2.04    0.25 
   5   0 -16    2.15    0.33 
   5  -1 -16    0.01    0.18 
  -4  -3  16    0.85    0.17 
  -4  -2  16    1.22    0.19 
  -4  -1  16    4.02    0.30 
   4   1 -16    3.65    0.40 
  -4   0  16    3.76    0.31 
   4   0 -16    2.86    0.38 
  -4   1  16   -0.05    0.12 
   4  -1 -16   -0.18    0.15 
  -3  -4  16    3.48    0.29 
  -3  -3  16    1.51    0.21 
  -3  -2  16    0.01    0.09 
  -3  -1  16    0.98    0.18 
   3   1 -16    0.87    0.23 
  -3   0  16    1.85    0.24 
   3   0 -16    1.85    0.30 
  -3   1  16   -0.09    0.12 
   3  -1 -16   -0.15    0.14 
  -2  -5  16    0.56    0.15 
  -2  -4  16    0.98    0.17 
  -2  -3  16    1.92    0.23 
  -2  -2  16    0.21    0.12 
  -2  -1  16    0.05    0.10 
   2   1 -16   -0.07    0.13 
  -2   0  16    1.04    0.18 
   2   0 -16    0.90    0.23 
  -2   1  16    0.73    0.18 
   2  -1 -16    0.65    0.22 
  -1  -6  16    0.37    0.14 
  -1  -5  16    0.04    0.11 
  -1  -4  16    0.17    0.12 
  -1  -3  16    0.55    0.14 
  -1  -2  16    0.17    0.13 
   1   2 -16    0.22    0.15 
  -1  -1  16   -0.11    0.10 
   1   1 -16   -0.14    0.13 
  -1   0  16    1.23    0.20 
   1   0 -16    0.97    0.23 
   0  -6  16    0.00    0.10 
   0  -5  16    0.25    0.12 
   0  -4  16    1.07    0.18 
   0  -3  16    0.05    0.10 
   0  -2  16    0.00    0.09 
   0   2 -16    0.19    0.14 
   0  -1  16    0.22    0.12 
   0   1 -16    0.02    0.14 
   0   0  16    0.35    0.14 
   1  -6  16    0.36    0.13 
   1  -5  16   -0.09    0.09 
   1  -4  16    0.25    0.12 
   1  -3  16    0.15    0.11 
   1  -2  16   -0.02    0.10 
  -1   2 -16   -0.11    0.12 
   1  -1  16    0.49    0.15 
  -1   1 -16    0.73    0.20 
   1   0  16    0.97    0.20 
   3   1 -17    0.83    0.23 
   2   1 -17    0.07    0.18 
   0   0   0    0.00    0.00 
;
_shelx_hkl_checksum              91868
loop_
_space_group_symop_operation_xyz
'x, y, z'
'-x, -y, -z'
loop_
_atom_site_label
_atom_site_type_symbol
_atom_site_fract_x
_atom_site_fract_y
_atom_site_fract_z
_atom_site_U_iso_or_equiv
_atom_site_adp_type
_atom_site_occupancy
_atom_site_site_symmetry_order
_atom_site_calc_flag
_atom_site_refinement_flags_posn
_atom_site_refinement_flags_adp
_atom_site_refinement_flags_occupancy
_atom_site_disorder_assembly
_atom_site_disorder_group
C1 C 0.7278(4) 0.9164(5) 0.3786(4) 0.0862(11) Uani 1 1 d . . . . .
H1A H 0.7728 1.0088 0.4502 0.129 Uiso 1 1 calc R U . . .
H1B H 0.6944 0.9492 0.3082 0.129 Uiso 1 1 calc R U . . .
H1C H 0.8115 0.8844 0.3680 0.129 Uiso 1 1 calc R U . . .
C2 C 0.5777(3) 0.7699(4) 0.3933(3) 0.0565(7) Uani 1 1 d . . . . .
C3 C 0.5077(3) 0.7909(3) 0.4871(2) 0.0555(6) Uani 1 1 d . . . . .
H3 H 0.5563 0.8954 0.5431 0.067 Uiso 1 1 calc R U . . .
C4 C 0.3672(3) 0.6604(3) 0.4999(2) 0.0456(5) Uani 1 1 d . . . . .
H4 H 0.3200 0.6771 0.5627 0.055 Uiso 1 1 calc R U . . .
C5 C 0.2976(2) 0.5046(3) 0.41788(19) 0.0375(5) Uani 1 1 d . . . . .
C6 C 0.3684(3) 0.4778(3) 0.3256(2) 0.0513(6) Uani 1 1 d . . . . .
H6 H 0.3233 0.3719 0.2724 0.062 Uiso 1 1 calc R U . . .
C7 C 0.5079(3) 0.6121(4) 0.3139(3) 0.0616(7) Uani 1 1 d . . . . .
H7 H 0.5555 0.5957 0.2513 0.074 Uiso 1 1 calc R U . . .
C8 C -0.1237(3) 0.3200(3) 0.12258(19) 0.0405(5) Uani 1 1 d . . . . .
C9 C -0.1131(3) 0.2660(3) -0.00398(19) 0.0421(5) Uani 1 1 d . . . . .
C10 C -0.1929(4) 0.2934(4) -0.1035(2) 0.0593(7) Uani 1 1 d . . . . .
H10 H -0.2559 0.3476 -0.0927 0.071 Uiso 1 1 calc R U . . .
C11 C -0.1804(4) 0.2410(4) -0.2195(2) 0.0681(8) Uani 1 1 d . . . . .
H11 H -0.2338 0.2624 -0.2852 0.082 Uiso 1 1 calc R U . . .
C12 C -0.0916(4) 0.1591(4) -0.2394(2) 0.0632(7) Uani 1 1 d . . . . .
H12 H -0.0858 0.1230 -0.3180 0.076 Uiso 1 1 calc R U . . .
C13 C -0.0113(4) 0.1308(4) -0.1422(2) 0.0685(8) Uani 1 1 d . . . . .
H13 H 0.0494 0.0743 -0.1545 0.082 Uiso 1 1 calc R U . . .
C14 C -0.0194(4) 0.1854(4) -0.0254(2) 0.0604(7) Uani 1 1 d . . . . .
H14 H 0.0388 0.1681 0.0401 0.073 Uiso 1 1 calc R U . . .
C15 C -0.2410(3) 0.3893(4) 0.1423(2) 0.0556(6) Uani 1 1 d D . . . .
H15A H -0.1981 0.4663 0.2232 0.067 Uiso 0.729(12) 1 d R U P A 1
H15B H -0.2478 0.4506 0.0827 0.067 Uiso 0.729(12) 1 d R U P A 1
H15C H -0.2215 0.4325 0.2294 0.067 Uiso 0.271(12) 1 d R U P A 2
H15D H -0.2161 0.4820 0.1057 0.067 Uiso 0.271(12) 1 d R U P A 2
C16 C -0.4118(8) 0.2525(12) 0.1318(9) 0.086(3) Uani 0.729(12) 1 d D U P A 1
H16 H -0.4202 0.1801 0.1809 0.104 Uiso 0.729(12) 1 calc R U P A 1
C17 C -0.5515(8) 0.2263(12) 0.0584(9) 0.158(4) Uani 0.729(12) 1 d D U P A 1
H17A H -0.5484 0.2959 0.0078 0.190 Uiso 0.729(12) 1 calc R U P A 1
H17B H -0.6533 0.1381 0.0571 0.190 Uiso 0.729(12) 1 calc R U P A 1
C17' C -0.478(3) 0.137(3) 0.137(2) 0.150(10) Uani 0.271(12) 1 d D U P A 2
H17C H -0.4055 0.1257 0.1972 0.181 Uiso 0.271(12) 1 calc R U P A 2
H17D H -0.5901 0.0564 0.1094 0.181 Uiso 0.271(12) 1 calc R U P A 2
C16' C -0.4218(15) 0.267(3) 0.093(2) 0.082(7) Uani 0.271(12) 1 d D U P A 2
H16' H -0.4914 0.2811 0.0327 0.098 Uiso 0.271(12) 1 calc R U P A 2
N1 N -0.0415(2) 0.3381(2) 0.32662(16) 0.0409(4) Uani 1 1 d . . . . .
H1 H -0.1164 0.3606 0.3467 0.049 Uiso 1 1 calc R U . . .
N2 N -0.0346(2) 0.2960(2) 0.20606(15) 0.0399(4) Uani 1 1 d . . . . .
O1 O 0.1109(2) 0.1862(2) 0.38666(15) 0.0493(4) Uani 1 1 d . . . . .
O2 O 0.0811(2) 0.3831(2) 0.54197(13) 0.0461(4) Uani 1 1 d . . . . .
S1 S 0.11070(6) 0.33984(6) 0.42597(4) 0.03662(19) Uani 1 1 d . . . . .
loop_
_atom_site_aniso_label
_atom_site_aniso_U_11
_atom_site_aniso_U_22
_atom_site_aniso_U_33
_atom_site_aniso_U_23
_atom_site_aniso_U_13
_atom_site_aniso_U_12
C1 0.0569(18) 0.084(2) 0.103(3) 0.048(2) 0.0241(17) 0.0133(16)
C2 0.0396(12) 0.0633(16) 0.0651(16) 0.0324(13) 0.0106(11) 0.0195(11)
C3 0.0509(14) 0.0437(13) 0.0563(14) 0.0129(11) 0.0044(11) 0.0132(11)
C4 0.0440(12) 0.0437(12) 0.0411(11) 0.0095(9) 0.0099(9) 0.0155(10)
C5 0.0340(10) 0.0418(11) 0.0376(10) 0.0131(9) 0.0084(8) 0.0184(9)
C6 0.0464(13) 0.0546(14) 0.0561(14) 0.0123(11) 0.0202(11) 0.0257(11)
C7 0.0501(14) 0.0784(19) 0.0679(17) 0.0295(15) 0.0312(13) 0.0322(14)
C8 0.0388(11) 0.0374(11) 0.0402(11) 0.0064(9) 0.0065(9) 0.0169(9)
C9 0.0458(12) 0.0388(11) 0.0366(11) 0.0067(9) 0.0046(9) 0.0193(9)
C10 0.0669(16) 0.0698(17) 0.0471(13) 0.0103(12) 0.0026(12) 0.0441(14)
C11 0.085(2) 0.082(2) 0.0390(13) 0.0169(13) 0.0022(13) 0.0466(17)
C12 0.089(2) 0.0642(16) 0.0352(12) 0.0100(11) 0.0151(12) 0.0371(15)
C13 0.102(2) 0.081(2) 0.0489(15) 0.0182(14) 0.0274(15) 0.0638(19)
C14 0.089(2) 0.0769(18) 0.0414(13) 0.0213(12) 0.0190(13) 0.0594(16)
C15 0.0616(15) 0.0668(16) 0.0444(13) 0.0036(11) 0.0058(11) 0.0426(13)
C16 0.062(3) 0.114(5) 0.100(6) 0.032(4) 0.031(3) 0.053(3)
C17 0.066(4) 0.165(8) 0.210(9) -0.013(6) 0.026(5) 0.052(4)
C17' 0.112(14) 0.127(15) 0.136(15) 0.027(12) 0.005(11) 0.005(10)
C16' 0.053(8) 0.115(10) 0.089(11) 0.034(7) 0.013(6) 0.051(7)
N1 0.0359(9) 0.0523(11) 0.0359(9) 0.0091(8) 0.0115(7) 0.0228(8)
N2 0.0393(9) 0.0453(10) 0.0332(9) 0.0072(7) 0.0089(7) 0.0203(8)
O1 0.0565(10) 0.0394(8) 0.0532(9) 0.0121(7) 0.0147(8) 0.0243(7)
O2 0.0520(9) 0.0518(9) 0.0361(8) 0.0151(7) 0.0171(7) 0.0232(7)
S1 0.0379(3) 0.0373(3) 0.0341(3) 0.0104(2) 0.0105(2) 0.0171(2)
loop_
_atom_type_symbol
_atom_type_description
_atom_type_scat_dispersion_real
_atom_type_scat_dispersion_imag
_atom_type_scat_source
C C 0.0033 0.0016 'International Tables Vol C Tables 4.2.6.8 and 6.1.1.4'
H H 0.0000 0.0000 'International Tables Vol C Tables 4.2.6.8 and 6.1.1.4'
N N 0.0061 0.0033 'International Tables Vol C Tables 4.2.6.8 and 6.1.1.4'
O O 0.0106 0.0060 'International Tables Vol C Tables 4.2.6.8 and 6.1.1.4'
S S 0.1246 0.1234 'International Tables Vol C Tables 4.2.6.8 and 6.1.1.4'
loop_
_geom_angle_atom_site_label_1
_geom_angle_atom_site_label_2
_geom_angle_atom_site_label_3
_geom_angle
C2 C1 H1A 109.5
C2 C1 H1B 109.5
H1A C1 H1B 109.5
C2 C1 H1C 109.5
H1A C1 H1C 109.5
H1B C1 H1C 109.5
C3 C2 C7 118.4(2)
C3 C2 C1 120.4(3)
C7 C2 C1 121.2(3)
C2 C3 C4 121.5(2)
C2 C3 H3 119.2
C4 C3 H3 119.2
C3 C4 C5 119.0(2)
C3 C4 H4 120.5
C5 C4 H4 120.5
C6 C5 C4 120.9(2)
C6 C5 S1 119.14(17)
C4 C5 S1 119.84(17)
C5 C6 C7 118.7(2)
C5 C6 H6 120.7
C7 C6 H6 120.7
C2 C7 C6 121.4(2)
C2 C7 H7 119.3
C6 C7 H7 119.3
N2 C8 C9 115.16(19)
N2 C8 C15 125.1(2)
C9 C8 C15 119.67(19)
C10 C9 C14 117.1(2)
C10 C9 C8 122.5(2)
C14 C9 C8 120.4(2)
C9 C10 C11 120.7(2)
C9 C10 H10 119.6
C11 C10 H10 119.6
C12 C11 C10 121.4(2)
C12 C11 H11 119.3
C10 C11 H11 119.3
C11 C12 C13 118.9(2)
C11 C12 H12 120.6
C13 C12 H12 120.6
C12 C13 C14 120.4(3)
C12 C13 H13 119.8
C14 C13 H13 119.8
C13 C14 C9 121.3(2)
C13 C14 H14 119.3
C9 C14 H14 119.3
C16' C15 C8 115.1(14)
C16 C15 C8 111.3(5)
C16 C15 H15A 108.5
C8 C15 H15A 109.6
C16 C15 H15B 109.6
C8 C15 H15B 109.6
H15A C15 H15B 108.2
C16' C15 H15C 107.0
C8 C15 H15C 109.2
C16' C15 H15D 108.7
C8 C15 H15D 108.8
H15C C15 H15D 107.8
C17 C16 C15 125.2(10)
C17 C16 H16 117.4
C15 C16 H16 117.4
C16 C17 H17A 120.0
C16 C17 H17B 120.0
H17A C17 H17B 120.0
C16' C17' H17C 120.0
C16' C17' H17D 120.0
H17C C17' H17D 120.0
C17' C16' C15 116.5(16)
C17' C16' H16' 121.8
C15 C16' H16' 121.8
N2 N1 S1 112.19(13)
N2 N1 H1 123.9
S1 N1 H1 123.9
C8 N2 N1 118.74(18)
O1 S1 O2 120.19(10)
O1 S1 N1 107.78(10)
O2 S1 N1 103.76(9)
O1 S1 C5 108.97(10)
O2 S1 C5 109.14(10)
N1 S1 C5 106.04(9)
loop_
_geom_bond_atom_site_label_1
_geom_bond_atom_site_label_2
_geom_bond_distance
C1 C2 1.510(4)
C1 H1A 0.9600
C1 H1B 0.9600
C1 H1C 0.9600
C2 C3 1.378(4)
C2 C7 1.382(4)
C3 C4 1.380(3)
C3 H3 0.9300
C4 C5 1.382(3)
C4 H4 0.9300
C5 C6 1.380(3)
C5 S1 1.758(2)
C6 C7 1.387(4)
C6 H6 0.9300
C7 H7 0.9300
C8 N2 1.272(3)
C8 C9 1.494(3)
C8 C15 1.510(3)
C9 C10 1.377(3)
C9 C14 1.394(3)
C10 C11 1.386(4)
C10 H10 0.9300
C11 C12 1.360(4)
C11 H11 0.9300
C12 C13 1.365(4)
C12 H12 0.9300
C13 C14 1.382(4)
C13 H13 0.9300
C14 H14 0.9300
C15 C16' 1.485(9)
C15 C16 1.494(6)
C15 H15A 0.9703
C15 H15B 0.9690
C15 H15C 0.9704
C15 H15D 0.9689
C16 C17 1.316(11)
C16 H16 0.9300
C17 H17A 0.9300
C17 H17B 0.9300
C17' C16' 1.306(14)
C17' H17C 0.9300
C17' H17D 0.9300
C16' H16' 0.9300
N1 N2 1.399(2)
N1 S1 1.6509(18)
N1 H1 0.8600
O1 S1 1.4167(16)
O2 S1 1.4354(15)
loop_
_geom_hbond_atom_site_label_D
_geom_hbond_atom_site_label_H
_geom_hbond_atom_site_label_A
_geom_hbond_distance_DH
_geom_hbond_distance_HA
_geom_hbond_distance_DA
_geom_hbond_angle_DHA
_geom_hbond_site_symmetry_A
N1 H1 O2 0.86 2.35 2.962(3) 128.3 2_566
C15 H15A O2 0.97 2.62 3.574(3) 167.1 2_566
N1 H1 O2 0.86 2.35 2.962(3) 128.3 2_566
C15 H15A O2 0.97 2.62 3.574(3) 167.1 2_566
N1 H1 O2 0.86 2.35 2.962(3) 128.3 2_566
C15 H15A O2 0.97 2.62 3.574(3) 167.1 2_566
loop_
_geom_torsion_atom_site_label_1
_geom_torsion_atom_site_label_2
_geom_torsion_atom_site_label_3
_geom_torsion_atom_site_label_4
_geom_torsion
C7 C2 C3 C4 -2.6(4)
C1 C2 C3 C4 177.7(3)
C2 C3 C4 C5 1.3(4)
C3 C4 C5 C6 1.1(3)
C3 C4 C5 S1 -175.79(18)
C4 C5 C6 C7 -2.2(4)
S1 C5 C6 C7 174.74(19)
C3 C2 C7 C6 1.5(4)
C1 C2 C7 C6 -178.8(3)
C5 C6 C7 C2 0.9(4)
N2 C8 C9 C10 -175.6(2)
C15 C8 C9 C10 7.3(3)
N2 C8 C9 C14 4.1(3)
C15 C8 C9 C14 -173.1(3)
C14 C9 C10 C11 0.5(4)
C8 C9 C10 C11 -179.9(2)
C9 C10 C11 C12 1.0(5)
C10 C11 C12 C13 -1.1(5)
C11 C12 C13 C14 -0.4(5)
C12 C13 C14 C9 1.9(5)
C10 C9 C14 C13 -1.9(4)
C8 C9 C14 C13 178.4(3)
N2 C8 C15 C16' -109.3(9)
C9 C8 C15 C16' 67.5(10)
N2 C8 C15 C16 -89.0(5)
C9 C8 C15 C16 87.9(5)
C8 C15 C16 C17 -125.5(9)
C8 C15 C16' C17' 61(3)
C9 C8 N2 N1 -177.97(17)
C15 C8 N2 N1 -1.0(3)
S1 N1 N2 C8 -167.02(16)
N2 N1 S1 O1 -50.86(16)
N2 N1 S1 O2 -179.34(13)
N2 N1 S1 C5 65.72(16)
C6 C5 S1 O1 34.3(2)
C4 C5 S1 O1 -148.74(18)
C6 C5 S1 O2 167.30(18)
C4 C5 S1 O2 -15.7(2)
C6 C5 S1 N1 -81.50(19)
C4 C5 S1 N1 95.48(19)
