#------------------------------------------------------------------------------
#$Date: 2017-11-07 03:15:21 +0200 (Tue, 07 Nov 2017) $
#$Revision: 202796 $
#$URL: file:///home/coder/svn-repositories/cod/cif/1/54/71/1547169.cif $
#------------------------------------------------------------------------------
#
# This file is available in the Crystallography Open Database (COD),
# http://www.crystallography.net/
#
# All data on this site have been placed in the public domain by the
# contributors.
#
data_1547169
loop_
_publ_author_name
'Kazak, Mihail'
'Priede, Martins'
'Shubin, Kirill'
'Bartrum, Hannah E.'
'Poisson, Jean-Fran\,cois'
'Suna, Edgars'
_publ_section_title
;
 Stereodivergent Synthesis of Pseudotabersonine Alkaloids.
;
_journal_issue                   19
_journal_name_full               'Organic letters'
_journal_page_first              5356
_journal_page_last               5359
_journal_paper_doi               10.1021/acs.orglett.7b02635
_journal_volume                  19
_journal_year                    2017
_chemical_absolute_configuration ad
_chemical_formula_moiety         'C19 H27 N O2 S'
_chemical_formula_sum            'C19 H27 N O2 S'
_chemical_formula_weight         333.48
_chemical_name_systematic
; 
 ? 
;
_space_group_IT_number           19
_symmetry_cell_setting           orthorhombic
_symmetry_space_group_name_Hall  'P 2ac 2ab'
_symmetry_space_group_name_H-M   'P 21 21 21'
_atom_sites_solution_hydrogens   mixed
_atom_sites_solution_primary     direct
_atom_sites_solution_secondary   difmap
_audit_creation_method           SHELXL
_cell_angle_alpha                90.00
_cell_angle_beta                 90.00
_cell_angle_gamma                90.00
_cell_formula_units_Z            4
_cell_length_a                   7.4989(2)
_cell_length_b                   11.9755(3)
_cell_length_c                   20.6566(6)
_cell_measurement_reflns_used    2174
_cell_measurement_temperature    173(2)
_cell_measurement_theta_max      27.5
_cell_measurement_theta_min      0.9
_cell_volume                     1855.03(9)
_computing_structure_refinement  'SHELXL (Sheldrick, 2008)'
_computing_structure_solution    'SHELXS-97 (Sheldrick, 1990)'
_diffrn_ambient_temperature      173(2)
_diffrn_measured_fraction_theta_full 0.996
_diffrn_measured_fraction_theta_max 0.996
_diffrn_measurement_device_type  'Bruker-Nonius KappaCCD'
_diffrn_measurement_method       '\f amd \w scan'
_diffrn_radiation_monochromator  graphite
_diffrn_radiation_source         'fine-focus sealed tube'
_diffrn_radiation_type           MoK\a
_diffrn_radiation_wavelength     0.71073
_diffrn_reflns_av_R_equivalents  0.0204
_diffrn_reflns_av_sigmaI/netI    0.0767
_diffrn_reflns_limit_h_max       10
_diffrn_reflns_limit_h_min       -10
_diffrn_reflns_limit_k_max       16
_diffrn_reflns_limit_k_min       -16
_diffrn_reflns_limit_l_max       29
_diffrn_reflns_limit_l_min       -28
_diffrn_reflns_number            5352
_diffrn_reflns_theta_full        30.0
_diffrn_reflns_theta_max         30.0
_diffrn_reflns_theta_min         1.97
_exptl_absorpt_coefficient_mu    0.184
_exptl_absorpt_correction_type   none
_exptl_crystal_colour            'Colourless '
_exptl_crystal_density_diffrn    1.194
_exptl_crystal_density_method    'not measured'
_exptl_crystal_description       Prism
_exptl_crystal_F_000             720
_exptl_crystal_size_max          0.27
_exptl_crystal_size_mid          0.22
_exptl_crystal_size_min          0.21
_refine_diff_density_max         0.229
_refine_diff_density_min         -0.252
_refine_diff_density_rms         0.053
_refine_ls_abs_structure_details 'Flack H D (1983), Acta Cryst. A39, 876-881'
_refine_ls_abs_structure_Flack   0.06(9)
_refine_ls_extinction_method     none
_refine_ls_goodness_of_fit_ref   1.040
_refine_ls_hydrogen_treatment    mixed
_refine_ls_matrix_type           full
_refine_ls_number_parameters     212
_refine_ls_number_reflns         5348
_refine_ls_number_restraints     0
_refine_ls_restrained_S_all      1.040
_refine_ls_R_factor_all          0.0974
_refine_ls_R_factor_gt           0.0606
_refine_ls_shift/su_max          0.001
_refine_ls_shift/su_mean         0.000
_refine_ls_structure_factor_coef Fsqd
_refine_ls_weighting_details
'calc w=1/[\s^2^(Fo^2^)+(0.0318P)^2^+0.8925P] where P=(Fo^2^+2Fc^2^)/3'
_refine_ls_weighting_scheme      calc
_refine_ls_wR_factor_gt          0.1079
_refine_ls_wR_factor_ref         0.1230
_reflns_d_resolution_high        0.7099
_reflns_number_gt                3936
_reflns_number_total             5348
_reflns_threshold_expression     >2sigma(I)
_cod_data_source_file            ol7b02635_si_002.cif
_cod_data_source_block           7g
_cod_depositor_comments
'Adding full bibliography for 1547168--1547169.cif.'
_cod_original_sg_symbol_H-M      'P 21 21 21 '
_cod_database_code               1547169
_shelx_f_squared_multiplier      1.000
loop_
_symmetry_equiv_pos_as_xyz
'x, y, z'
'-x+1/2, -y, z+1/2'
'x+1/2, -y+1/2, -z'
'-x, y+1/2, -z+1/2'
loop_
_atom_site_label
_atom_site_type_symbol
_atom_site_fract_x
_atom_site_fract_y
_atom_site_fract_z
_atom_site_U_iso_or_equiv
_atom_site_adp_type
_atom_site_occupancy
_atom_site_symmetry_multiplicity
_atom_site_calc_flag
_atom_site_refinement_flags
S12 S 0.32131(9) 0.12564(5) 0.40519(3) 0.03372(16) Uani 1 1 d .
C9 C 0.1775(3) -0.00277(19) 0.23579(10) 0.0266(5) Uani 1 1 d .
C1 C 0.2138(3) 0.0035(2) 0.30681(10) 0.0256(5) Uani 1 1 d .
N11 N 0.2779(3) 0.09671(16) 0.32778(9) 0.0285(5) Uani 1 1 d .
C2 C 0.1735(3) -0.09948(18) 0.34599(10) 0.0263(5) Uani 1 1 d .
H2 H 0.1687 -0.0830 0.3907 0.032 Uiso 1 1 d R
O19 O 0.4971(2) -0.13326(17) 0.35376(11) 0.0400(5) Uani 1 1 d .
H19 H 0.482(5) -0.090(3) 0.3839(16) 0.060(12) Uiso 1 1 d .
O13 O 0.3861(3) 0.02766(16) 0.44355(8) 0.0455(5) Uani 1 1 d .
C14 C 0.5220(3) 0.2112(2) 0.39049(11) 0.0319(6) Uani 1 1 d .
C3 C -0.0053(3) -0.1485(2) 0.32413(12) 0.0331(5) Uani 1 1 d .
H3A H -0.0303 -0.2146 0.3488 0.040 Uiso 1 1 d R
H3B H -0.0980 -0.0945 0.3311 0.040 Uiso 1 1 d R
C18 C 0.3297(3) -0.18426(19) 0.33956(11) 0.0290(5) Uani 1 1 d .
H18 H 0.3288 -0.2104 0.2945 0.035 Uiso 1 1 d R
C17 C 0.6650(4) 0.1394(2) 0.35992(14) 0.0434(6) Uani 1 1 d .
H17A H 0.7694 0.1840 0.3526 0.052 Uiso 1 1 d R
H17B H 0.6221 0.1108 0.3194 0.052 Uiso 1 1 d R
H17C H 0.6942 0.0783 0.3881 0.052 Uiso 1 1 d R
C5 C 0.0498(3) -0.0936(2) 0.14324(12) 0.0375(6) Uani 1 1 d .
H5 H -0.0302 -0.1427 0.1261 0.045 Uiso 1 1 d R
C10 C 0.0752(3) -0.0906(2) 0.21051(12) 0.0309(5) Uani 1 1 d .
C8 C 0.2516(3) 0.0778(2) 0.19428(11) 0.0312(5) Uani 1 1 d .
H8 H 0.3288 0.1363 0.2165 0.037 Uiso 1 1 d R
C15 C 0.4695(4) 0.3096(2) 0.34824(15) 0.0418(7) Uani 1 1 d .
H15A H 0.5726 0.3550 0.3402 0.050 Uiso 1 1 d R
H15B H 0.3803 0.3532 0.3700 0.050 Uiso 1 1 d R
H15C H 0.4227 0.2828 0.3079 0.050 Uiso 1 1 d R
C16 C 0.5773(4) 0.2492(3) 0.45814(14) 0.0532(8) Uani 1 1 d .
H16A H 0.6825 0.2945 0.4548 0.064 Uiso 1 1 d R
H16B H 0.6021 0.1853 0.4847 0.064 Uiso 1 1 d R
H16C H 0.4829 0.2921 0.4773 0.064 Uiso 1 1 d R
C4 C -0.0054(4) -0.1794(2) 0.25293(13) 0.0370(6) Uani 1 1 d .
H4A H 0.0637 -0.2462 0.2473 0.044 Uiso 1 1 d R
H4B H -0.1254 -0.1924 0.2386 0.044 Uiso 1 1 d R
C7 C 0.2236(3) 0.0718(2) 0.12841(12) 0.0360(6) Uani 1 1 d .
H7 H 0.2648 0.1362 0.0985 0.043 Uiso 1 1 d R
C6 C 0.1217(4) -0.0143(2) 0.10277(12) 0.0394(7) Uani 1 1 d .
H6 H 0.1018 -0.0182 0.0569 0.047 Uiso 1 1 d R
C20 C 0.3023(3) -0.2874(2) 0.38083(12) 0.0341(6) Uani 1 1 d .
C21 C 0.2872(4) -0.3859(2) 0.35289(15) 0.0463(7) Uani 1 1 d .
H21A H 0.2931 -0.4648 0.3744 0.056 Uiso 1 1 d R
H21B H 0.2914 -0.3935 0.3020 0.056 Uiso 1 1 d R
C22 C 0.2962(5) -0.2700(2) 0.45306(13) 0.0498(8) Uani 1 1 d .
H22A H 0.3971 -0.2260 0.4659 0.060 Uiso 1 1 d R
H22B H 0.1883 -0.2311 0.4639 0.060 Uiso 1 1 d R
C23 C 0.3009(5) -0.3750(3) 0.49435(15) 0.0595(8) Uani 1 1 d .
H23A H 0.2963 -0.3547 0.5393 0.071 Uiso 1 1 d R
H23B H 0.4088 -0.4156 0.4860 0.071 Uiso 1 1 d R
H23C H 0.2000 -0.4210 0.4839 0.071 Uiso 1 1 d R
loop_
_atom_site_aniso_label
_atom_site_aniso_U_11
_atom_site_aniso_U_22
_atom_site_aniso_U_33
_atom_site_aniso_U_23
_atom_site_aniso_U_13
_atom_site_aniso_U_12
S12 0.0403(3) 0.0390(3) 0.0218(2) -0.0051(3) 0.0025(3) -0.0117(3)
C9 0.0285(11) 0.0292(12) 0.0220(10) -0.0017(9) -0.0006(10) 0.0053(10)
C1 0.0257(12) 0.0285(12) 0.0227(10) -0.0012(9) -0.0004(9) 0.0018(9)
N11 0.0338(11) 0.0309(11) 0.0209(8) 0.0007(8) -0.0014(8) -0.0020(8)
C2 0.0286(10) 0.0294(13) 0.0210(9) 0.0002(9) 0.0021(10) -0.0032(10)
O19 0.0278(8) 0.0415(12) 0.0506(11) 0.0069(10) -0.0009(9) -0.0051(8)
O13 0.0673(14) 0.0472(12) 0.0220(8) 0.0074(8) -0.0107(9) -0.0194(10)
C14 0.0346(13) 0.0331(14) 0.0280(12) -0.0026(10) -0.0012(10) -0.0094(10)
C3 0.0289(11) 0.0356(14) 0.0348(12) 0.0011(11) 0.0018(11) -0.0045(10)
C18 0.0288(11) 0.0312(13) 0.0270(11) -0.0020(9) 0.0013(11) -0.0019(10)
C17 0.0354(13) 0.0454(17) 0.0494(15) 0.0022(13) 0.0026(14) -0.0024(13)
C5 0.0329(12) 0.0493(17) 0.0303(13) -0.0109(12) -0.0095(11) 0.0076(11)
C10 0.0279(12) 0.0363(14) 0.0283(11) -0.0053(10) -0.0055(10) 0.0063(10)
C8 0.0352(12) 0.0329(13) 0.0256(11) 0.0004(10) -0.0006(10) 0.0052(11)
C15 0.0387(14) 0.0326(15) 0.0540(17) 0.0049(13) -0.0053(14) -0.0076(11)
C16 0.0575(19) 0.063(2) 0.0392(15) -0.0093(15) -0.0057(15) -0.0275(16)
C4 0.0353(13) 0.0404(15) 0.0355(13) -0.0043(12) -0.0068(11) -0.0075(11)
C7 0.0410(14) 0.0412(16) 0.0259(11) 0.0037(11) 0.0020(11) 0.0131(12)
C6 0.0430(15) 0.0548(17) 0.0205(11) -0.0048(12) -0.0069(11) 0.0193(12)
C20 0.0291(12) 0.0322(14) 0.0412(13) 0.0069(11) 0.0012(12) -0.0007(10)
C21 0.0485(16) 0.0351(15) 0.0554(17) 0.0011(14) 0.0028(14) 0.0011(12)
C22 0.066(2) 0.0437(17) 0.0398(15) 0.0121(13) -0.0023(15) -0.0020(15)
C23 0.067(2) 0.058(2) 0.0538(17) 0.0232(16) -0.0084(17) -0.0132(18)
loop_
_atom_type_symbol
_atom_type_description
_atom_type_scat_dispersion_real
_atom_type_scat_dispersion_imag
_atom_type_scat_source
C C 0.0033 0.0016 'International Tables Vol C Tables 4.2.6.8 and 6.1.1.4'
H H 0.0000 0.0000 'International Tables Vol C Tables 4.2.6.8 and 6.1.1.4'
N N 0.0061 0.0033 'International Tables Vol C Tables 4.2.6.8 and 6.1.1.4'
O O 0.0106 0.0060 'International Tables Vol C Tables 4.2.6.8 and 6.1.1.4'
S S 0.1246 0.1234 'International Tables Vol C Tables 4.2.6.8 and 6.1.1.4'
loop_
_geom_angle_atom_site_label_1
_geom_angle_atom_site_label_2
_geom_angle_atom_site_label_3
_geom_angle
O13 S12 N11 114.07(10)
O13 S12 C14 104.91(12)
N11 S12 C14 96.71(10)
C10 C9 C8 120.2(2)
C10 C9 C1 120.2(2)
C8 C9 C1 119.5(2)
N11 C1 C9 116.2(2)
N11 C1 C2 127.08(19)
C9 C1 C2 116.73(19)
C1 N11 S12 125.05(17)
C1 C2 C3 109.33(19)
C1 C2 C18 109.71(18)
C3 C2 C18 112.58(19)
C1 C2 H2 111.2
C3 C2 H2 109.5
C18 C2 H2 104.4
C18 O19 H19 108(3)
C17 C14 C15 112.6(2)
C17 C14 C16 111.1(2)
C15 C14 C16 111.4(2)
C17 C14 S12 109.36(17)
C15 C14 S12 108.28(17)
C16 C14 S12 103.67(17)
C4 C3 C2 112.3(2)
C4 C3 H3A 108.3
C2 C3 H3A 109.3
C4 C3 H3B 108.1
C2 C3 H3B 109.3
H3A C3 H3B 109.5
O19 C18 C20 110.66(19)
O19 C18 C2 111.44(18)
C20 C18 C2 112.45(19)
O19 C18 H18 109.7
C20 C18 H18 105.9
C2 C18 H18 106.5
C14 C17 H17A 109.1
C14 C17 H17B 109.2
H17A C17 H17B 109.5
C14 C17 H17C 110.0
H17A C17 H17C 109.5
H17B C17 H17C 109.5
C6 C5 C10 122.0(2)
C6 C5 H5 117.9
C10 C5 H5 119.4
C5 C10 C9 117.6(2)
C5 C10 C4 120.2(2)
C9 C10 C4 122.2(2)
C7 C8 C9 120.4(2)
C7 C8 H8 124.5
C9 C8 H8 115.0
C14 C15 H15A 109.3
C14 C15 H15B 109.5
H15A C15 H15B 109.5
C14 C15 H15C 109.6
H15A C15 H15C 109.5
H15B C15 H15C 109.5
C14 C16 H16A 109.0
C14 C16 H16B 109.7
H16A C16 H16B 109.5
C14 C16 H16C 109.7
H16A C16 H16C 109.5
H16B C16 H16C 109.5
C10 C4 C3 113.0(2)
C10 C4 H4A 107.6
C3 C4 H4A 108.7
C10 C4 H4B 108.1
C3 C4 H4B 109.8
H4A C4 H4B 109.5
C8 C7 C6 119.9(3)
C8 C7 H7 120.3
C6 C7 H7 119.3
C5 C6 C7 119.8(2)
C5 C6 H6 120.3
C7 C6 H6 119.9
C21 C20 C22 123.7(3)
C21 C20 C18 119.7(2)
C22 C20 C18 116.6(2)
C20 C21 H21A 128.2
C20 C21 H21B 120.7
H21A C21 H21B 110.2
C20 C22 C23 116.1(3)
C20 C22 H22A 109.0
C23 C22 H22A 106.3
C20 C22 H22B 108.9
C23 C22 H22B 106.8
H22A C22 H22B 109.5
C22 C23 H23A 109.4
C22 C23 H23B 109.7
H23A C23 H23B 109.5
C22 C23 H23C 109.3
H23A C23 H23C 109.5
H23B C23 H23C 109.5
loop_
_geom_bond_atom_site_label_1
_geom_bond_atom_site_label_2
_geom_bond_distance
S12 O13 1.497(2)
S12 N11 1.6682(19)
S12 C14 1.846(2)
C9 C10 1.402(3)
C9 C8 1.405(3)
C9 C1 1.494(3)
C1 N11 1.290(3)
C1 C2 1.506(3)
C2 C3 1.532(3)
C2 C18 1.556(3)
C2 H2 0.9457
O19 C18 1.426(3)
O19 H19 0.82(3)
C14 C17 1.512(4)
C14 C15 1.518(4)
C14 C16 1.527(4)
C3 C4 1.517(4)
C3 H3A 0.9600
C3 H3B 0.9599
C18 C20 1.515(3)
C18 H18 0.9827
C17 H17A 0.9599
C17 H17B 0.9599
C17 H17C 0.9600
C5 C6 1.376(4)
C5 C10 1.403(3)
C5 H5 0.9111
C10 C4 1.505(4)
C8 C7 1.379(3)
C8 H8 1.0180
C15 H15A 0.9599
C15 H15B 0.9600
C15 H15C 0.9599
C16 H16A 0.9599
C16 H16B 0.9601
C16 H16C 0.9599
C4 H4A 0.9600
C4 H4B 0.9600
C7 C6 1.388(4)
C7 H7 1.0359
C6 H6 0.9600
C20 C21 1.318(4)
C20 C22 1.507(4)
C21 H21A 1.0450
C21 H21B 1.0564
C22 C23 1.520(4)
C22 H22A 0.9599
C22 H22B 0.9599
C23 H23A 0.9600
C23 H23B 0.9600
C23 H23C 0.9600
loop_
_geom_torsion_atom_site_label_1
_geom_torsion_atom_site_label_2
_geom_torsion_atom_site_label_3
_geom_torsion_atom_site_label_4
_geom_torsion
C10 C9 C1 N11 -166.9(2)
C8 C9 C1 N11 15.2(3)
C10 C9 C1 C2 13.6(3)
C8 C9 C1 C2 -164.3(2)
C9 C1 N11 S12 177.35(17)
C2 C1 N11 S12 -3.2(3)
O13 S12 N11 C1 34.8(2)
C14 S12 N11 C1 144.4(2)
N11 C1 C2 C3 137.7(2)
C9 C1 C2 C3 -42.9(3)
N11 C1 C2 C18 -98.4(3)
C9 C1 C2 C18 81.0(2)
O13 S12 C14 C17 53.7(2)
N11 S12 C14 C17 -63.47(19)
O13 S12 C14 C15 176.77(17)
N11 S12 C14 C15 59.62(19)
O13 S12 C14 C16 -64.8(2)
N11 S12 C14 C16 178.0(2)
C1 C2 C3 C4 59.2(3)
C18 C2 C3 C4 -63.0(3)
C1 C2 C18 O19 51.9(2)
C3 C2 C18 O19 173.93(19)
C1 C2 C18 C20 176.86(19)
C3 C2 C18 C20 -61.2(2)
C6 C5 C10 C9 0.1(4)
C6 C5 C10 C4 -179.7(2)
C8 C9 C10 C5 -0.4(3)
C1 C9 C10 C5 -178.3(2)
C8 C9 C10 C4 179.4(2)
C1 C9 C10 C4 1.6(4)
C10 C9 C8 C7 0.4(4)
C1 C9 C8 C7 178.3(2)
C5 C10 C4 C3 -165.5(2)
C9 C10 C4 C3 14.7(3)
C2 C3 C4 C10 -45.2(3)
C9 C8 C7 C6 -0.1(4)
C10 C5 C6 C7 0.3(4)
C8 C7 C6 C5 -0.3(4)
O19 C18 C20 C21 -117.4(3)
C2 C18 C20 C21 117.3(3)
O19 C18 C20 C22 61.9(3)
C2 C18 C20 C22 -63.5(3)
C21 C20 C22 C23 9.4(5)
C18 C20 C22 C23 -169.8(3)
loop_
_refln_index_h
_refln_index_k
_refln_index_l
_refln_F_squared_calc
_refln_F_squared_meas
_refln_F_squared_sigma
_refln_observed_status
2 0 0 4816.06 4222.06 237.19 o
4 0 0 1973.72 2160.31 87.98 o
6 0 0 1592.97 1726.31 63.42 o
8 0 0 153.06 144.67 9.93 o
10 0 0 86.69 100.56 20.20 o
1 1 0 20155.52 19563.45 334.58 o
2 1 0 546.42 552.56 31.57 o
3 1 0 0.04 -0.70 2.82 o
4 1 0 93.42 116.12 5.59 o
5 1 0 17.84 13.09 2.98 o
6 1 0 21.78 20.55 3.73 o
7 1 0 18.35 23.28 4.43 o
8 1 0 7.78 11.37 4.43 o
9 1 0 28.65 41.29 10.00 o
10 1 0 15.70 24.46 10.72 o
0 2 0 16.33 13.96 3.75 o
2 2 0 4042.66 4190.63 150.19 o
3 2 0 6608.42 6390.10 200.12 o
4 2 0 624.79 678.89 14.33 o
5 2 0 1052.03 1063.03 23.88 o
6 2 0 312.28 321.67 9.86 o
7 2 0 107.17 115.14 6.22 o
8 2 0 1.75 1.37 4.17 o
9 2 0 49.43 48.88 7.69 o
10 2 0 8.74 -0.47 11.00 o
1 3 0 3767.81 3861.38 87.26 o
2 3 0 5959.99 6055.38 161.53 o
3 3 0 244.26 240.03 7.11 o
4 3 0 121.52 124.51 5.45 o
5 3 0 128.23 121.11 4.71 o
6 3 0 98.22 113.51 4.54 o
7 3 0 30.95 30.36 3.54 o
8 3 0 8.73 0.23 4.47 o
9 3 0 20.80 21.39 6.08 o
10 3 0 71.25 91.59 13.72 o
0 4 0 6940.06 6681.29 202.12 o
1 4 0 736.26 775.17 15.31 o
2 4 0 323.09 345.64 9.09 o
3 4 0 450.84 526.33 14.70 o
4 4 0 856.71 829.64 18.48 o
5 4 0 324.18 340.01 9.58 o
6 4 0 628.98 630.48 17.64 o
7 4 0 6.01 3.24 2.80 o
8 4 0 28.15 23.11 4.71 o
9 4 0 89.66 84.44 9.25 o
10 4 0 0.76 25.21 10.41 o
1 5 0 579.11 612.98 12.09 o
2 5 0 20.02 18.92 2.80 o
3 5 0 13.45 8.15 2.52 o
4 5 0 229.34 219.67 6.34 o
5 5 0 507.30 559.76 15.17 o
6 5 0 194.20 202.82 7.39 o
7 5 0 158.32 161.28 7.76 o
8 5 0 11.11 14.91 4.96 o
9 5 0 6.21 6.27 5.13 o
10 5 0 2.74 -3.47 10.46 o
0 6 0 38.69 30.03 5.85 o
1 6 0 23.22 19.87 3.94 o
2 6 0 619.03 610.72 12.07 o
3 6 0 2090.52 2177.36 45.57 o
4 6 0 30.13 33.11 3.33 o
5 6 0 595.05 625.12 17.54 o
6 6 0 603.88 573.58 22.67 o
7 6 0 76.36 69.46 5.59 o
8 6 0 25.92 32.76 4.89 o
9 6 0 147.01 204.57 16.15 o
1 7 0 234.88 232.53 10.25 o
2 7 0 76.59 78.10 3.24 o
3 7 0 10.08 4.89 2.56 o
4 7 0 402.71 427.15 11.35 o
5 7 0 156.88 130.36 6.62 o
6 7 0 81.01 78.10 5.94 o
7 7 0 154.72 133.50 8.83 o
8 7 0 48.85 39.17 6.10 o
9 7 0 39.02 35.81 11.70 o
0 8 0 2366.90 2257.88 71.09 o
1 8 0 88.98 74.91 5.55 o
2 8 0 520.06 488.52 16.19 o
3 8 0 57.07 58.71 3.75 o
4 8 0 61.68 48.02 4.24 o
5 8 0 142.18 128.61 6.92 o
6 8 0 223.45 214.28 11.63 o
7 8 0 111.54 94.83 8.04 o
8 8 0 88.31 89.28 8.08 o
9 8 0 11.29 28.22 12.65 o
1 9 0 159.50 172.72 8.83 o
2 9 0 52.60 44.69 6.52 o
3 9 0 62.86 67.43 6.78 o
4 9 0 239.54 261.30 10.37 o
5 9 0 39.09 34.72 5.41 o
6 9 0 35.49 27.56 5.62 o
7 9 0 73.12 71.76 8.27 o
8 9 0 0.14 3.24 6.76 o
0 10 0 1051.07 1057.06 52.61 o
1 10 0 214.43 216.52 13.47 o
2 10 0 157.61 134.93 12.77 o
3 10 0 1489.07 1794.18 87.93 o
4 10 0 4.28 8.41 8.41 o
5 10 0 202.39 173.53 10.46 o
6 10 0 3.94 14.21 5.87 o
7 10 0 11.15 27.10 5.41 o
8 10 0 39.04 33.29 7.76 o
1 11 0 529.12 527.03 25.93 o
2 11 0 209.74 210.72 14.63 o
3 11 0 40.97 36.72 17.19 o
4 11 0 5.09 0.00 2.33 o
5 11 0 8.19 17.75 14.40 o
6 11 0 10.40 -5.10 8.62 o
7 11 0 0.06 -8.08 8.08 o
0 12 0 22.15 29.87 12.35 o
1 12 0 28.07 21.39 9.04 o
2 12 0 0.02 -7.90 10.72 o
3 12 0 3.39 -9.97 14.66 o
4 12 0 4.05 10.67 10.67 o
5 12 0 21.11 16.36 15.94 o
6 12 0 204.53 201.07 30.73 o
7 12 0 2.33 -11.91 14.00 o
1 13 0 9.32 -6.97 12.81 o
2 13 0 69.82 41.50 17.10 o
3 13 0 32.42 30.71 15.40 o
4 13 0 13.53 30.71 10.48 o
5 13 0 152.78 191.66 22.83 o
6 13 0 8.66 -6.97 16.52 o
0 14 0 44.72 7.71 17.31 o
1 14 0 63.64 67.68 11.30 o
2 14 0 27.35 28.87 15.42 o
3 14 0 59.58 63.98 15.87 o
4 14 0 70.26 62.51 13.51 o
5 14 0 13.22 69.97 21.20 o
1 15 0 28.66 42.08 21.60 o
2 15 0 0.92 -3.94 11.63 o
3 15 0 63.27 115.80 22.67 o
4 15 0 12.88 22.83 19.99 o
0 16 0 43.42 35.25 17.03 o
1 16 0 0.84 3.03 16.10 o
2 16 0 30.75 -12.12 22.83 o
3 16 0 0.17 12.53 15.77 o
1 0 1 51.21 47.81 3.17 o
2 0 1 8996.64 8370.25 282.62 o
3 0 1 1272.15 1161.77 28.10 o
4 0 1 1523.78 1505.55 37.91 o
5 0 1 519.43 517.27 15.28 o
6 0 1 299.18 299.09 10.04 o
7 0 1 7.85 7.90 3.26 o
8 0 1 10.27 9.32 3.73 o
9 0 1 4.45 1.37 4.87 o
10 0 1 0.13 -6.97 10.72 o
-10 1 1 17.05 11.37 10.72 o
-9 1 1 24.38 14.45 4.87 o
-8 1 1 35.25 31.03 5.10 o
-7 1 1 55.58 47.39 4.19 o
-6 1 1 99.85 95.43 5.36 o
-5 1 1 54.11 51.03 4.36 o
-4 1 1 378.00 368.73 9.39 o
-3 1 1 617.16 598.70 14.19 o
-1 1 1 4662.01 4320.05 152.49 o
0 1 1 41.51 43.62 10.93 o
1 1 1 4720.24 4412.85 117.61 o
2 1 1 4356.12 4272.03 265.38 o
3 1 1 607.26 604.69 12.77 o
4 1 1 366.25 357.08 9.23 o
5 1 1 51.09 46.34 3.94 o
6 1 1 94.57 91.59 5.27 o
7 1 1 57.45 60.37 5.22 o
8 1 1 34.66 32.60 4.36 o
9 1 1 25.88 24.91 7.46 o
10 1 1 16.49 0.47 11.25 o
-10 2 1 9.40 7.90 8.83 o
-9 2 1 81.47 86.14 7.64 o
-8 2 1 27.93 20.97 4.61 o
-7 2 1 134.58 130.71 5.94 o
-6 2 1 243.23 262.77 7.92 o
-5 2 1 270.01 303.33 9.58 o
-4 2 1 720.39 816.50 20.06 o
-3 2 1 1368.62 1437.63 30.10 o
0 2 1 55.16 41.29 3.33 o
3 2 1 1379.41 1463.19 38.54 o
4 2 1 725.90 819.11 17.47 o
5 2 1 259.78 289.14 8.83 o
6 2 1 249.84 261.79 8.39 o
7 2 1 128.73 133.88 7.41 o
8 2 1 27.52 33.11 4.92 o
9 2 1 82.75 92.47 10.86 o
10 2 1 9.33 17.75 10.55 o
-10 3 1 3.72 8.85 11.63 o
-9 3 1 41.87 60.37 11.86 o
-8 3 1 90.01 78.10 6.73 o
-7 3 1 27.45 19.59 3.24 o
-6 3 1 67.17 73.32 4.19 o
-5 3 1 247.76 252.49 6.78 o
-4 3 1 1404.14 1472.56 33.97 o
-3 3 1 1757.92 1887.17 38.47 o
-2 3 1 1328.17 1259.46 26.00 o
-1 3 1 1674.38 1669.69 37.42 o
0 3 1 15.03 17.50 6.76 o
1 3 1 1698.80 1656.02 37.28 o
2 3 1 1329.99 1245.41 24.79 o
3 3 1 1794.74 1935.21 51.03 o
4 3 1 1410.67 1449.21 37.19 o
5 3 1 253.93 239.56 7.55 o
6 3 1 65.81 75.70 4.78 o
7 3 1 26.41 25.21 3.68 o
8 3 1 88.69 85.00 6.76 o
9 3 1 40.71 37.47 7.48 o
10 3 1 3.84 5.82 10.23 o
-10 4 1 3.12 -11.63 11.63 o
-9 4 1 16.53 24.46 9.97 o
-8 4 1 139.86 120.46 8.71 o
-7 4 1 3.75 4.64 2.75 o
-6 4 1 416.70 448.23 12.93 o
-5 4 1 614.68 647.46 14.75 o
-4 4 1 818.27 865.17 20.64 o
-3 4 1 3170.51 3348.50 72.44 o
-2 4 1 165.16 165.96 5.50 o
-1 4 1 127.69 120.11 4.01 o
0 4 1 2515.32 2442.83 48.28 o
1 4 1 124.16 113.51 4.54 o
2 4 1 174.48 176.75 5.27 o
3 4 1 3193.09 3355.56 67.20 o
4 4 1 848.36 904.22 22.04 o
5 4 1 613.23 630.48 18.41 o
6 4 1 415.23 427.77 11.37 o
7 4 1 3.75 4.43 3.29 o
8 4 1 136.85 127.59 8.97 o
9 4 1 17.47 31.03 8.34 o
10 4 1 3.35 3.47 9.72 o
-10 5 1 36.54 40.70 13.44 o
-9 5 1 13.91 15.87 10.21 o
-8 5 1 94.73 88.42 7.76 o
-7 5 1 102.52 88.12 4.59 o
-6 5 1 131.01 130.01 6.27 o
-5 5 1 425.61 423.37 11.30 o
-4 5 1 301.80 307.60 7.50 o
-3 5 1 192.79 205.87 6.13 o
-2 5 1 1690.55 1783.86 36.11 o
-1 5 1 42.84 31.73 3.10 o
0 5 1 18.13 18.41 4.19 o
1 5 1 47.31 35.44 4.01 o
2 5 1 1707.99 1841.04 37.98 o
3 5 1 204.21 221.95 6.83 o
4 5 1 303.18 309.20 9.67 o
5 5 1 420.99 443.06 12.86 o
6 5 1 134.51 130.36 5.22 o
7 5 1 99.56 90.14 5.80 o
8 5 1 96.59 103.36 7.13 o
9 5 1 13.48 17.24 6.97 o
10 5 1 36.82 49.30 15.87 o
-9 6 1 98.63 112.86 16.22 o
-8 6 1 44.51 44.29 5.89 o
-7 6 1 161.20 166.36 9.46 o
-6 6 1 88.73 96.92 5.41 o
-5 6 1 200.78 217.43 7.20 o
-4 6 1 220.62 237.21 7.06 o
-3 6 1 137.98 114.82 4.59 o
-2 6 1 849.63 820.86 18.36 o
-1 6 1 364.08 331.06 8.34 o
0 6 1 99.02 85.83 5.10 o
1 6 1 368.24 342.24 10.16 o
2 6 1 844.33 838.45 17.68 o
3 6 1 137.16 127.94 5.52 o
4 6 1 219.27 226.98 7.36 o
5 6 1 208.47 248.63 8.67 o
6 6 1 84.64 85.28 5.64 o
7 6 1 160.55 173.53 8.04 o
8 6 1 42.81 32.60 6.45 o
9 6 1 101.31 107.41 11.70 o
-9 7 1 19.08 5.59 9.32 o
-8 7 1 50.14 44.29 6.71 o
-7 7 1 16.68 26.14 5.62 o
-6 7 1 90.36 100.56 6.73 o
-5 7 1 178.61 175.14 7.67 o
-4 7 1 107.06 98.74 5.15 o
-3 7 1 604.88 613.73 15.89 o
-2 7 1 31.90 39.35 3.63 o
-1 7 1 200.24 175.54 6.87 o
0 7 1 73.19 71.51 5.43 o
1 7 1 195.46 181.66 6.59 o
2 7 1 33.46 34.53 2.87 o
3 7 1 614.94 628.94 16.85 o
4 7 1 110.53 85.28 5.08 o
5 7 1 174.68 167.15 7.90 o
6 7 1 87.27 94.55 6.24 o
7 7 1 15.91 8.15 4.87 o
8 7 1 50.26 35.25 5.80 o
9 7 1 18.74 18.92 8.62 o
-9 8 1 15.54 5.59 7.95 o
-8 8 1 103.27 100.56 8.88 o
-7 8 1 25.98 19.99 5.87 o
-6 8 1 16.06 15.14 5.10 o
-5 8 1 22.06 34.53 4.66 o
-4 8 1 602.86 602.45 17.24 o
-3 8 1 66.66 65.45 3.96 o
-2 8 1 215.00 191.66 8.04 o
-1 8 1 47.73 60.60 5.48 o
0 8 1 214.03 222.86 8.20 o
1 8 1 46.87 58.71 5.38 o
2 8 1 221.91 198.07 6.87 o
3 8 1 61.86 67.68 4.26 o
4 8 1 620.52 618.27 16.71 o
5 8 1 20.92 23.56 4.15 o
6 8 1 15.21 11.91 4.64 o
7 8 1 25.89 19.06 6.52 o
8 8 1 101.41 91.59 9.65 o
9 8 1 15.39 15.87 9.11 o
-8 9 1 27.21 32.76 6.99 o
-7 9 1 154.45 160.11 12.74 o
-6 9 1 48.66 39.35 5.75 o
-5 9 1 65.96 63.72 6.10 o
-4 9 1 339.48 349.07 13.12 o
-3 9 1 134.28 120.78 7.39 o
-2 9 1 522.60 526.33 22.41 o
-1 9 1 103.70 96.62 8.11 o
0 9 1 301.48 308.13 11.79 o
1 9 1 106.88 96.32 6.59 o
2 9 1 535.65 566.29 22.53 o
3 9 1 138.48 126.89 8.95 o
4 9 1 333.06 316.78 11.95 o
5 9 1 68.92 62.28 5.29 o
6 9 1 46.30 57.78 6.97 o
7 9 1 155.46 141.75 10.53 o
8 9 1 28.09 24.00 7.48 o
-8 10 1 68.33 61.56 10.53 o
-7 10 1 36.29 39.17 6.69 o
-6 10 1 104.21 116.80 8.90 o
-5 10 1 35.38 30.03 6.52 o
-4 10 1 43.97 38.98 6.48 o
-3 10 1 144.76 144.32 20.53 o
-2 10 1 59.56 100.89 15.94 o
-1 10 1 1117.75 1192.13 40.05 o
0 10 1 441.24 437.30 21.71 o
1 10 1 1121.37 1164.89 43.76 o
2 10 1 62.33 81.38 9.93 o
3 10 1 146.16 132.46 17.57 o
4 10 1 44.16 33.83 5.15 o
5 10 1 37.02 51.91 7.27 o
6 10 1 102.84 100.56 8.88 o
7 10 1 35.92 20.55 7.20 o
8 10 1 67.60 61.32 11.46 o
-8 11 1 13.73 19.87 12.79 o
-7 11 1 15.22 13.54 10.44 o
-6 11 1 43.94 48.44 9.13 o
-5 11 1 51.46 40.52 9.32 o
-4 11 1 0.62 33.83 14.21 o
-3 11 1 36.24 21.25 11.67 o
-2 11 1 108.65 133.16 23.95 o
-1 11 1 57.69 35.81 8.76 o
0 11 1 203.49 189.56 12.19 o
1 11 1 54.71 43.29 10.65 o
2 11 1 111.91 114.82 10.46 o
3 11 1 33.62 16.36 16.05 o
4 11 1 0.96 -7.90 9.51 o
5 11 1 50.45 44.50 6.31 o
6 11 1 42.44 33.29 12.86 o
7 11 1 14.54 50.37 14.96 o
8 11 1 14.05 0.23 14.14 o
-7 12 1 31.56 24.91 11.11 o
-6 12 1 28.53 21.95 17.45 o
-5 12 1 183.67 205.87 32.85 o
-4 12 1 161.40 202.38 20.41 o
-3 12 1 88.23 83.04 14.75 o
-2 12 1 122.09 100.56 18.06 o
-1 12 1 367.51 376.98 23.11 o
0 12 1 121.28 104.59 13.75 o
1 12 1 366.34 364.05 23.88 o
2 12 1 122.21 101.49 11.07 o
3 12 1 88.60 86.70 15.07 o
4 12 1 163.99 148.00 23.02 o
5 12 1 182.38 172.32 22.44 o
6 12 1 29.40 23.11 9.97 o
7 12 1 31.68 38.21 17.17 o
-6 13 1 52.70 25.68 18.41 o
-5 13 1 19.47 21.67 10.65 o
-4 13 1 89.94 117.45 19.20 o
-3 13 1 46.89 63.49 17.52 o
-2 13 1 120.82 136.72 21.06 o
-1 13 1 22.90 22.83 8.32 o
0 13 1 5.22 16.12 11.88 o
1 13 1 22.95 33.11 9.13 o
2 13 1 118.76 116.12 18.10 o
3 13 1 49.16 63.23 14.82 o
4 13 1 89.69 133.16 20.78 o
5 13 1 19.89 28.38 13.49 o
6 13 1 52.66 34.72 13.49 o
-5 14 1 31.77 28.87 11.81 o
-4 14 1 42.46 48.02 18.20 o
-3 14 1 76.84 31.90 19.48 o
-2 14 1 3.42 15.38 13.05 o
-1 14 1 16.23 31.38 14.38 o
0 14 1 25.73 40.33 12.21 o
1 14 1 16.54 23.11 13.35 o
2 14 1 3.83 10.27 13.30 o
3 14 1 76.13 91.31 20.99 o
4 14 1 42.29 38.58 16.50 o
5 14 1 32.43 55.27 16.33 o
-4 15 1 6.60 13.98 15.42 o
-3 15 1 61.39 46.55 14.59 o
-2 15 1 4.55 -18.99 18.99 o
-1 15 1 5.28 -13.02 13.02 o
0 15 1 3.11 6.27 9.55 o
1 15 1 4.82 7.71 10.76 o
2 15 1 4.16 6.97 13.70 o
3 15 1 59.66 51.03 18.55 o
4 15 1 6.84 -2.82 12.60 o
-3 16 1 4.62 -2.33 12.58 o
-2 16 1 27.22 20.27 14.17 o
-1 16 1 19.46 21.67 14.49 o
0 16 1 5.38 11.37 20.69 o
1 16 1 19.17 32.41 18.43 o
2 16 1 26.20 35.44 24.00 o
3 16 1 4.39 -2.33 23.30 o
0 0 2 2902.63 2774.46 68.97 o
1 0 2 8719.02 7859.51 216.52 o
2 0 2 277.14 267.75 8.48 o
3 0 2 2264.29 2397.80 53.82 o
4 0 2 1536.26 1612.82 35.55 o
5 0 2 721.97 738.21 20.74 o
6 0 2 26.42 33.99 4.26 o
7 0 2 516.28 538.31 17.01 o
8 0 2 20.91 13.98 5.59 o
9 0 2 160.57 149.86 12.70 o
10 0 2 0.53 -4.89 10.74 o
-10 1 2 24.62 22.11 11.35 o
-9 1 2 25.82 29.19 6.76 o
-8 1 2 52.07 35.25 5.62 o
-7 1 2 36.04 33.99 4.64 o
-6 1 2 1121.23 1155.53 35.28 o
-5 1 2 248.62 255.90 9.27 o
-4 1 2 171.34 177.98 5.71 o
-3 1 2 1061.02 1088.05 23.16 o
-2 1 2 430.02 418.99 10.62 o
-1 1 2 4701.84 4244.14 107.39 o
0 1 2 2333.26 2244.58 72.25 o
1 1 2 4747.26 4328.09 106.45 o
2 1 2 446.28 416.50 9.34 o
3 1 2 1096.22 1144.16 23.74 o
4 1 2 172.61 164.80 5.48 o
5 1 2 255.89 267.75 8.48 o
6 1 2 1112.12 1171.16 34.48 o
7 1 2 37.22 32.60 4.01 o
8 1 2 49.96 39.17 4.59 o
9 1 2 27.27 26.14 6.24 o
10 1 2 25.15 26.61 12.28 o
-10 2 2 10.82 8.41 10.97 o
-9 2 2 13.32 14.21 8.18 o
-8 2 2 172.51 167.15 8.69 o
-7 2 2 7.11 5.82 3.24 o
-6 2 2 168.76 154.38 6.45 o
-5 2 2 11.85 10.27 2.54 o
-4 2 2 3903.07 4030.14 83.34 o
-3 2 2 810.67 830.50 19.36 o
-2 2 2 2547.48 2488.31 54.82 o
0 2 2 1687.36 1466.71 47.93 o
1 2 2 1006.64 1049.14 36.58 o
2 2 2 2607.54 2583.63 79.15 o
3 2 2 809.19 815.61 20.92 o
4 2 2 3916.70 3976.06 105.87 o
5 2 2 12.59 14.68 2.80 o
6 2 2 171.69 171.53 6.41 o
7 2 2 7.07 1.37 3.24 o
8 2 2 175.21 186.21 10.41 o
9 2 2 13.18 17.24 6.08 o
10 2 2 10.88 -1.16 10.74 o
-10 3 2 5.26 19.87 11.02 o
-9 3 2 22.28 14.91 5.31 o
-8 3 2 3.97 6.50 4.19 o
-7 3 2 87.68 98.74 6.36 o
-6 3 2 914.90 889.59 21.85 o
-5 3 2 437.01 451.47 11.02 o
-4 3 2 1.18 3.24 3.03 o
-3 3 2 7608.79 7762.38 182.90 o
-2 3 2 194.11 173.53 5.22 o
-1 3 2 439.33 391.33 10.27 o
0 3 2 4965.66 4663.74 156.36 o
1 3 2 449.81 412.14 13.02 o
2 3 2 204.21 184.55 5.80 o
3 3 2 7613.78 7786.61 226.28 o
4 3 2 1.25 -0.47 3.05 o
5 3 2 441.37 459.93 12.44 o
6 3 2 918.60 882.32 25.40 o
7 3 2 88.52 91.89 5.57 o
8 3 2 4.90 5.59 3.98 o
9 3 2 22.20 31.38 7.18 o
10 3 2 4.89 15.38 11.86 o
-10 4 2 6.72 -2.10 10.04 o
-9 4 2 25.97 31.73 6.71 o
-8 4 2 127.98 125.19 7.53 o
-7 4 2 217.97 223.77 7.76 o
-6 4 2 142.68 158.57 6.15 o
-5 4 2 256.54 246.23 8.15 o
-4 4 2 170.86 199.35 6.90 o
-3 4 2 267.15 279.36 8.15 o
-2 4 2 1702.60 1707.32 42.89 o
-1 4 2 780.52 754.90 17.61 o
0 4 2 1442.84 1509.09 32.01 o
1 4 2 784.09 764.98 15.19 o
2 4 2 1695.52 1762.01 30.76 o
3 4 2 261.96 261.79 8.39 o
4 4 2 172.52 197.62 8.15 o
5 4 2 257.10 258.83 8.34 o
6 4 2 145.32 145.04 7.36 o
7 4 2 225.17 223.30 8.67 o
8 4 2 126.80 134.58 8.50 o
9 4 2 24.61 23.28 6.34 o
10 4 2 6.78 6.50 11.37 o
-10 5 2 17.66 17.87 13.93 o
-9 5 2 53.84 75.16 12.44 o
-8 5 2 22.88 38.58 6.06 o
-7 5 2 92.47 91.89 5.57 o
-6 5 2 594.62 612.98 18.90 o
-5 5 2 261.71 280.90 9.72 o
-4 5 2 118.26 111.58 5.48 o
-3 5 2 845.71 833.16 17.61 o
-2 5 2 296.12 279.87 7.15 o
-1 5 2 7.19 8.15 3.05 o
0 5 2 627.85 544.69 13.54 o
1 5 2 8.38 12.86 3.49 o
2 5 2 293.86 282.43 7.18 o
3 5 2 832.76 815.61 17.43 o
4 5 2 114.55 110.28 5.13 o
5 5 2 270.01 267.75 8.99 o
6 5 2 595.28 594.22 17.12 o
7 5 2 93.28 88.70 5.45 o
8 5 2 22.52 26.14 5.31 o
9 5 2 53.35 43.08 8.41 o
10 5 2 17.98 24.00 10.76 o
-9 6 2 6.27 15.38 9.58 o
-8 6 2 31.95 28.38 5.03 o
-7 6 2 7.89 8.85 4.45 o
-6 6 2 360.49 341.68 12.42 o
-5 6 2 402.36 426.52 12.60 o
-4 6 2 253.62 237.68 7.53 o
-3 6 2 66.01 68.69 4.31 o
-2 6 2 372.33 382.92 12.53 o
-1 6 2 67.49 84.72 5.34 o
0 6 2 241.44 233.92 6.08 o
1 6 2 66.88 84.44 4.50 o
2 6 2 378.73 376.38 11.25 o
3 6 2 69.43 75.70 4.78 o
4 6 2 246.37 235.32 8.43 o
5 6 2 396.85 393.76 15.14 o
6 6 2 366.97 379.36 13.07 o
7 6 2 7.94 4.19 5.36 o
8 6 2 31.47 28.70 5.08 o
9 6 2 6.34 2.56 7.25 o
-9 7 2 35.86 44.29 12.60 o
-8 7 2 54.54 54.36 6.52 o
-7 7 2 14.11 26.14 7.50 o
-6 7 2 74.24 65.94 4.96 o
-5 7 2 44.29 44.08 4.26 o
-4 7 2 326.44 365.80 11.09 o
-3 7 2 1396.49 1336.44 34.60 o
-2 7 2 571.52 586.81 14.80 o
-1 7 2 140.86 135.28 4.96 o
0 7 2 2785.66 2982.79 68.36 o
1 7 2 147.00 133.50 5.64 o
2 7 2 556.49 551.84 15.05 o
3 7 2 1389.45 1336.44 35.72 o
4 7 2 321.37 362.89 12.79 o
5 7 2 46.65 38.40 4.73 o
6 7 2 76.25 59.18 6.80 o
7 7 2 13.40 12.33 4.61 o
8 7 2 55.70 43.90 7.08 o
9 7 2 34.87 52.35 9.72 o
-9 8 2 22.47 17.50 8.69 o
-8 8 2 5.00 13.30 6.34 o
-7 8 2 64.04 54.12 6.97 o
-6 8 2 3.79 3.94 4.66 o
-5 8 2 47.05 48.44 4.68 o
-4 8 2 662.35 709.46 21.13 o
-3 8 2 464.13 499.37 16.38 o
-2 8 2 70.70 60.83 4.05 o
-1 8 2 750.09 735.72 20.71 o
0 8 2 313.61 300.68 9.53 o
1 8 2 742.52 712.72 19.57 o
2 8 2 68.28 66.19 3.73 o
3 8 2 462.66 437.30 18.52 o
4 8 2 665.02 754.06 21.78 o
5 8 2 44.05 37.65 4.50 o
6 8 2 4.24 4.19 4.19 o
7 8 2 68.78 59.41 6.36 o
8 8 2 5.41 -2.10 6.55 o
9 8 2 22.20 15.63 8.20 o
-8 9 2 0.89 0.00 2.33 o
-7 9 2 20.37 22.39 6.94 o
-6 9 2 28.68 38.98 6.66 o
-5 9 2 8.98 0.23 5.89 o
-4 9 2 7.57 12.33 5.15 o
-3 9 2 437.31 427.15 18.92 o
-2 9 2 106.48 111.25 6.43 o
-1 9 2 135.32 130.71 8.71 o
0 9 2 177.42 165.96 9.04 o
1 9 2 139.69 126.21 9.95 o
2 9 2 103.62 117.13 4.96 o
3 9 2 440.87 456.67 22.83 o
4 9 2 7.90 10.67 4.19 o
5 9 2 10.62 8.85 4.01 o
6 9 2 29.15 29.36 5.13 o
7 9 2 19.41 32.76 6.48 o
8 9 2 1.08 -6.31 6.31 o
-8 10 2 35.87 35.81 9.32 o
-7 10 2 19.07 7.22 8.11 o
-6 10 2 59.82 51.91 8.81 o
-5 10 2 43.18 55.03 9.30 o
-4 10 2 199.73 193.78 13.61 o
-3 10 2 130.10 113.19 8.76 o
-2 10 2 450.01 464.52 29.61 o
-1 10 2 493.18 499.37 22.51 o
0 10 2 479.21 454.71 20.18 o
1 10 2 497.39 459.27 21.60 o
2 10 2 458.13 488.52 23.63 o
3 10 2 134.41 128.96 7.62 o
4 10 2 200.33 180.43 13.12 o
5 10 2 42.82 51.26 6.78 o
6 10 2 60.24 58.71 7.25 o
7 10 2 19.09 19.06 6.52 o
8 10 2 36.88 45.92 10.76 o
-7 11 2 40.06 27.73 9.32 o
-6 11 2 39.49 51.26 9.83 o
-5 11 2 1.00 0.23 4.71 o
-4 11 2 17.37 11.70 5.64 o
-3 11 2 9.10 21.95 12.16 o
-2 11 2 236.17 248.63 22.13 o
-1 11 2 239.71 208.06 14.54 o
0 11 2 275.75 285.51 17.54 o
1 11 2 243.38 253.45 17.50 o
2 11 2 241.93 219.22 14.47 o
3 11 2 10.44 6.03 8.18 o
4 11 2 16.61 9.51 3.29 o
5 11 2 0.79 1.16 3.52 o
6 11 2 40.48 50.16 11.67 o
7 11 2 39.87 21.25 14.91 o
-7 12 2 15.10 5.10 12.07 o
-6 12 2 40.35 31.38 13.68 o
-5 12 2 23.86 27.10 12.07 o
-4 12 2 20.30 3.24 10.67 o
-3 12 2 6.80 9.32 12.12 o
-2 12 2 98.31 104.89 15.63 o
-1 12 2 278.58 285.00 27.31 o
0 12 2 426.88 468.48 25.77 o
1 12 2 277.70 258.34 18.64 o
2 12 2 98.88 127.94 11.39 o
3 12 2 6.63 7.71 9.58 o
4 12 2 20.37 32.76 13.98 o
5 12 2 25.30 26.14 11.86 o
6 12 2 39.96 30.03 10.21 o
-6 13 2 10.77 -13.54 13.54 o
-5 13 2 8.03 -16.12 16.80 o
-4 13 2 43.57 42.87 12.79 o
-3 13 2 25.23 19.06 11.18 o
-2 13 2 100.55 96.62 19.20 o
-1 13 2 168.12 201.96 21.69 o
0 13 2 78.25 70.74 11.30 o
1 13 2 167.06 209.83 16.80 o
2 13 2 100.89 109.02 12.44 o
3 13 2 23.62 23.28 15.31 o
4 13 2 42.59 72.27 18.43 o
5 13 2 7.65 27.73 11.42 o
6 13 2 11.52 13.75 12.56 o
-5 14 2 17.78 33.99 21.02 o
-4 14 2 23.68 3.24 13.02 o
-3 14 2 2.79 -10.67 12.77 o
-2 14 2 32.54 41.29 18.83 o
-1 14 2 99.36 100.89 21.16 o
0 14 2 11.57 32.06 10.88 o
1 14 2 100.45 116.12 13.49 o
2 14 2 31.10 12.12 10.00 o
3 14 2 3.02 -10.53 10.53 o
4 14 2 24.27 3.70 11.86 o
5 14 2 17.91 33.46 19.25 o
-4 15 2 11.39 1.65 17.78 o
-3 15 2 17.39 11.37 13.70 o
-2 15 2 13.06 -0.47 12.67 o
-1 15 2 1.76 10.46 16.31 o
0 15 2 15.87 12.86 11.93 o
1 15 2 1.52 -11.11 11.11 o
2 15 2 14.00 3.03 18.85 o
3 15 2 16.84 5.82 20.04 o
4 15 2 11.29 23.72 18.13 o
-3 16 2 10.77 12.86 14.24 o
-2 16 2 11.67 8.60 16.01 o
-1 16 2 6.48 4.19 19.29 o
0 16 2 0.29 -10.46 20.06 o
1 16 2 6.18 -8.60 15.12 o
2 16 2 11.29 28.22 14.26 o
3 16 2 10.97 19.99 16.52 o
2 0 3 966.80 919.90 24.07 o
3 0 3 1149.59 1133.83 25.70 o
4 0 3 185.60 192.94 6.36 o
5 0 3 1762.66 1897.79 49.21 o
6 0 3 366.77 399.23 14.03 o
7 0 3 0.02 0.00 2.33 o
8 0 3 2.78 -0.70 3.29 o
9 0 3 17.83 21.39 6.92 o
10 0 3 1.39 12.53 9.30 o
-10 1 3 81.45 64.21 14.19 o
-9 1 3 21.35 14.91 5.31 o
-8 1 3 35.53 34.72 5.03 o
-7 1 3 6.58 3.47 2.80 o
-6 1 3 89.10 80.29 4.38 o
-5 1 3 181.84 188.30 6.29 o
-4 1 3 292.95 274.28 7.60 o
-3 1 3 3.88 2.10 2.07 o
-2 1 3 729.59 771.76 19.50 o
-1 1 3 1138.74 1102.19 54.73 o
0 1 3 92.15 93.94 5.03 o
1 1 3 1104.28 1111.35 34.60 o
2 1 3 730.58 758.25 19.34 o
3 1 3 4.56 8.85 2.10 o
4 1 3 299.63 298.56 8.43 o
5 1 3 183.22 188.30 5.87 o
6 1 3 86.16 90.73 5.24 o
7 1 3 7.58 1.16 3.05 o
8 1 3 34.41 26.61 4.26 o
9 1 3 20.63 29.87 7.67 o
10 1 3 82.83 77.31 15.56 o
-10 2 3 15.42 -14.73 14.73 o
-9 2 3 41.06 30.03 6.52 o
-8 2 3 113.88 122.46 8.11 o
-7 2 3 29.43 28.70 3.75 o
-6 2 3 311.40 317.85 10.88 o
-5 2 3 361.94 371.67 8.83 o
-4 2 3 50.05 46.97 3.36 o
-3 2 3 344.50 375.21 10.04 o
-2 2 3 1574.32 1590.83 35.32 o
-1 2 3 2858.39 2591.39 124.32 o
2 2 3 1596.99 1604.25 31.78 o
3 2 3 346.50 374.02 9.44 o
4 2 3 48.92 52.35 3.31 o
5 2 3 364.85 375.79 10.65 o
6 2 3 309.91 310.81 9.16 o
7 2 3 29.52 22.39 3.47 o
8 2 3 114.64 104.29 6.85 o
9 2 3 41.34 66.45 7.97 o
10 2 3 15.51 20.97 8.81 o
-10 3 3 11.83 22.11 10.48 o
-9 3 3 45.05 61.79 8.64 o
-8 3 3 155.18 142.85 8.39 o
-7 3 3 85.72 74.65 4.75 o
-6 3 3 76.52 72.81 3.91 o
-5 3 3 186.35 180.01 6.15 o
-4 3 3 473.42 505.52 11.67 o
-3 3 3 587.45 586.81 14.05 o
-2 3 3 99.50 119.78 3.68 o
-1 3 3 2549.31 2429.27 54.17 o
0 3 3 3.34 9.79 3.54 o
1 3 3 2556.86 2433.79 54.22 o
2 3 3 98.39 117.13 3.96 o
3 3 3 592.75 572.84 14.61 o
4 3 3 453.32 473.11 12.60 o
5 3 3 180.95 167.15 5.92 o
6 3 3 78.96 71.76 4.92 o
7 3 3 85.27 80.29 5.48 o
8 3 3 157.29 137.07 8.22 o
9 3 3 45.22 47.60 8.01 o
10 3 3 11.43 23.56 13.49 o
-10 4 3 50.34 66.45 15.94 o
-9 4 3 16.89 13.54 5.85 o
-8 4 3 46.18 46.97 4.82 o
-7 4 3 145.82 145.78 5.89 o
-6 4 3 221.65 219.22 7.69 o
-5 4 3 101.69 84.44 4.22 o
-4 4 3 289.89 292.27 8.34 o
-3 4 3 349.24 371.06 10.00 o
-2 4 3 31.88 44.50 4.29 o
-1 4 3 53.75 46.76 3.33 o
0 4 3 538.85 470.46 11.93 o
1 4 3 58.17 50.16 3.03 o
2 4 3 30.26 42.87 3.40 o
3 4 3 329.07 325.51 10.46 o
4 4 3 295.22 264.77 9.44 o
5 4 3 106.83 104.29 5.62 o
6 4 3 220.31 219.22 9.48 o
7 4 3 145.99 152.12 7.90 o
8 4 3 46.51 38.58 5.13 o
9 4 3 16.77 23.72 7.74 o
10 4 3 51.10 54.36 13.51 o
-10 5 3 22.77 17.50 14.42 o
-9 5 3 61.68 69.71 8.41 o
-8 5 3 65.95 77.03 6.71 o
-7 5 3 170.29 165.19 7.85 o
-6 5 3 84.30 71.25 5.15 o
-5 5 3 37.01 47.60 4.01 o
-4 5 3 210.38 208.06 7.04 o
-3 5 3 271.71 291.75 8.85 o
-2 5 3 1169.25 1284.51 28.45 o
-1 5 3 1746.07 1721.23 39.26 o
0 5 3 43.48 47.39 4.61 o
1 5 3 1717.70 1656.02 32.29 o
2 5 3 1147.08 1232.53 24.65 o
3 5 3 277.89 295.41 7.88 o
4 5 3 222.65 232.53 8.39 o
5 5 3 39.44 48.88 4.47 o
6 5 3 82.30 77.31 5.89 o
7 5 3 176.81 160.51 8.50 o
8 5 3 64.86 58.95 7.04 o
9 5 3 63.76 43.48 7.64 o
10 5 3 24.14 37.09 15.24 o
-9 6 3 12.94 22.83 9.04 o
-8 6 3 215.63 234.86 12.16 o
-7 6 3 5.85 -2.82 4.01 o
-6 6 3 111.41 115.47 5.89 o
-5 6 3 403.29 381.13 13.70 o
-4 6 3 187.06 174.74 6.85 o
-3 6 3 4.24 9.32 4.01 o
-2 6 3 601.37 600.19 19.45 o
-1 6 3 228.54 236.25 7.50 o
0 6 3 1.27 11.70 3.75 o
1 6 3 225.95 238.61 8.01 o
2 6 3 594.19 577.96 14.68 o
3 6 3 4.11 9.32 4.01 o
4 6 3 185.26 189.56 7.15 o
5 6 3 406.93 395.57 13.96 o
6 6 3 119.07 131.41 6.99 o
7 6 3 5.41 4.89 4.45 o
8 6 3 222.41 249.12 15.89 o
9 6 3 13.31 10.97 6.78 o
-9 7 3 19.59 27.26 11.63 o
-8 7 3 12.06 12.53 5.29 o
-7 7 3 111.47 121.11 9.74 o
-6 7 3 345.89 300.68 13.77 o
-5 7 3 58.11 58.25 4.43 o
-4 7 3 686.59 697.32 20.97 o
-3 7 3 36.80 23.28 5.59 o
-2 7 3 648.36 689.28 20.83 o
-1 7 3 13.20 13.09 4.64 o
0 7 3 165.69 146.88 5.17 o
1 7 3 13.24 15.38 3.96 o
2 7 3 652.82 670.18 18.97 o
3 7 3 37.29 30.36 4.71 o
4 7 3 683.52 658.39 24.28 o
5 7 3 58.25 61.07 5.73 o
6 7 3 347.20 373.44 14.17 o
7 7 3 116.05 109.65 7.04 o
8 7 3 12.38 12.33 6.55 o
9 7 3 20.08 29.52 9.13 o
-9 8 3 35.06 53.91 17.47 o
-8 8 3 1.15 -4.64 4.64 o
-7 8 3 51.82 55.27 7.27 o
-6 8 3 35.00 26.61 4.40 o
-5 8 3 253.19 257.36 13.72 o
-4 8 3 93.55 63.72 6.10 o
-3 8 3 917.49 909.74 26.70 o
-2 8 3 101.93 109.97 4.80 o
-1 8 3 167.87 186.21 7.50 o
0 8 3 27.43 35.25 2.35 o
1 8 3 172.23 175.54 7.27 o
2 8 3 102.91 84.44 5.34 o
3 8 3 912.24 905.13 28.47 o
4 8 3 94.47 73.32 9.67 o
5 8 3 255.24 250.56 13.05 o
6 8 3 35.34 21.25 5.78 o
7 8 3 51.62 52.12 5.73 o
8 8 3 1.04 -5.82 7.22 o
9 8 3 36.39 22.39 10.25 o
-8 9 3 28.40 29.19 6.59 o
-7 9 3 95.78 96.04 11.98 o
-6 9 3 18.30 41.10 8.01 o
-5 9 3 33.72 32.41 6.08 o
-4 9 3 127.71 132.46 7.39 o
-3 9 3 200.16 181.66 10.69 o
-2 9 3 1375.73 1423.77 51.84 o
-1 9 3 323.99 289.14 16.61 o
0 9 3 10.32 9.04 4.87 o
1 9 3 317.98 318.94 19.08 o
2 9 3 1354.20 1346.51 49.30 o
3 9 3 204.16 214.73 10.30 o
4 9 3 133.13 146.88 8.50 o
5 9 3 33.00 35.25 5.43 o
6 9 3 18.34 21.39 6.78 o
7 9 3 93.64 85.55 9.88 o
8 9 3 27.63 41.10 11.16 o
-8 10 3 61.19 45.53 11.95 o
-7 10 3 2.22 0.70 8.67 o
-6 10 3 88.27 135.65 13.16 o
-5 10 3 27.62 32.06 6.22 o
-4 10 3 29.25 40.52 6.99 o
-3 10 3 94.04 83.32 8.08 o
-2 10 3 421.34 408.44 19.13 o
-1 10 3 125.99 139.59 14.80 o
0 10 3 607.62 627.43 28.29 o
1 10 3 126.51 130.36 11.16 o
2 10 3 416.57 425.26 19.52 o
3 10 3 94.08 104.59 5.94 o
4 10 3 29.43 27.73 5.62 o
5 10 3 27.23 32.76 6.99 o
6 10 3 90.26 98.44 10.60 o
7 10 3 1.97 1.16 5.17 o
8 10 3 60.74 83.88 13.42 o
-7 11 3 9.70 13.54 8.88 o
-6 11 3 1.80 3.94 7.69 o
-5 11 3 115.43 144.67 11.02 o
-4 11 3 67.75 64.47 7.60 o
-3 11 3 15.47 12.86 4.50 o
-2 11 3 21.65 -8.41 13.72 o
-1 11 3 33.98 31.73 12.88 o
0 11 3 56.97 62.51 8.69 o
1 11 3 34.98 42.47 7.57 o
2 11 3 19.60 21.25 7.74 o
3 11 3 15.89 12.86 2.52 o
4 11 3 72.57 68.45 5.80 o
5 11 3 112.83 113.84 9.76 o
6 11 3 2.24 4.43 5.59 o
7 11 3 10.41 1.16 8.18 o
-7 12 3 29.41 16.36 12.60 o
-6 12 3 2.99 -15.82 15.82 o
-5 12 3 119.50 131.06 11.53 o
-4 12 3 48.14 51.47 16.64 o
-3 12 3 159.79 180.01 20.06 o
-2 12 3 56.69 47.39 18.71 o
-1 12 3 73.75 129.31 19.43 o
0 12 3 8.43 10.97 9.30 o
1 12 3 75.94 90.73 11.93 o
2 12 3 57.87 61.79 9.37 o
3 12 3 165.26 175.14 22.23 o
4 12 3 47.36 44.69 16.33 o
5 12 3 122.55 111.58 17.10 o
6 12 3 2.87 12.86 12.37 o
-6 13 3 23.48 42.08 15.45 o
-5 13 3 6.00 -5.59 10.04 o
-4 13 3 77.48 108.36 21.92 o
-3 13 3 17.98 19.06 13.72 o
-2 13 3 51.97 59.65 18.38 o
-1 13 3 31.45 43.08 18.43 o
0 13 3 3.21 -12.81 12.81 o
1 13 3 32.22 18.92 8.62 o
2 13 3 50.68 53.91 10.97 o
3 13 3 18.25 9.97 10.51 o
4 13 3 80.05 76.77 13.91 o
5 13 3 6.09 15.63 16.78 o
6 13 3 23.67 48.23 18.24 o
-5 14 3 51.13 42.68 14.96 o
-4 14 3 1.85 -3.70 11.63 o
-3 14 3 23.52 30.52 14.68 o
-2 14 3 57.88 38.40 15.52 o
-1 14 3 0.58 0.00 2.33 o
0 14 3 60.24 59.41 18.59 o
1 14 3 0.57 20.69 9.72 o
2 14 3 56.89 43.08 11.02 o
3 14 3 23.43 15.87 15.19 o
4 14 3 1.75 -7.22 17.47 o
5 14 3 51.16 71.25 13.40 o
-4 15 3 67.87 70.99 16.73 o
-3 15 3 18.15 16.50 13.77 o
-2 15 3 15.16 57.32 16.64 o
-1 15 3 33.15 31.90 17.24 o
0 15 3 1.26 7.46 12.35 o
1 15 3 33.25 31.03 14.96 o
2 15 3 14.66 46.97 10.88 o
3 15 3 18.04 -0.47 15.00 o
4 15 3 69.33 54.36 17.54 o
-3 16 3 30.12 45.11 21.95 o
-2 16 3 9.18 18.13 15.33 o
-1 16 3 9.72 10.67 22.53 o
0 16 3 0.04 44.69 21.44 o
1 16 3 10.01 -14.42 14.42 o
2 16 3 8.99 0.23 14.38 o
3 16 3 31.03 4.19 13.23 o
0 0 4 24181.60 23299.34 305.87 o
2 0 4 336.63 334.95 10.07 o
3 0 4 230.01 246.23 8.15 o
4 0 4 445.87 471.13 9.95 o
5 0 4 82.18 70.99 3.08 o
6 0 4 734.76 720.90 21.32 o
7 0 4 10.65 9.32 2.05 o
8 0 4 26.45 25.37 3.54 o
9 0 4 5.28 12.12 6.06 o
10 0 4 1.49 0.70 10.30 o
-10 1 4 20.91 1.16 9.37 o
-9 1 4 39.60 46.34 8.95 o
-8 1 4 38.44 33.29 4.22 o
-7 1 4 15.39 16.12 2.56 o
-6 1 4 55.76 61.32 3.82 o
-5 1 4 12.27 19.99 2.59 o
-4 1 4 283.07 263.28 7.43 o
-3 1 4 275.45 265.26 8.46 o
-2 1 4 157.80 162.44 5.06 o
-1 1 4 1696.13 1676.54 26.30 o
0 1 4 282.01 289.14 11.42 o
1 1 4 1693.07 1673.17 25.77 o
2 1 4 165.65 167.15 5.52 o
3 1 4 275.46 251.52 8.22 o
4 1 4 295.44 281.92 8.20 o
5 1 4 10.21 20.55 2.35 o
6 1 4 53.09 52.12 3.31 o
7 1 4 16.11 14.91 3.08 o
8 1 4 38.12 30.03 7.04 o
9 1 4 38.43 34.90 7.76 o
10 1 4 21.90 12.53 10.69 o
-10 2 4 38.21 61.56 11.25 o
-9 2 4 112.58 118.45 10.97 o
-8 2 4 123.91 126.21 7.20 o
-7 2 4 31.87 27.73 3.70 o
-6 2 4 151.27 158.97 6.15 o
-5 2 4 119.92 119.11 4.66 o
-4 2 4 45.62 51.03 3.05 o
-3 2 4 4115.73 4204.47 83.13 o
-2 2 4 2028.75 1981.16 40.77 o
-1 2 4 8.30 6.73 2.54 o
0 2 4 6.71 16.50 5.34 o
1 2 4 7.70 8.41 4.68 o
2 2 4 2028.67 1974.35 46.11 o
3 2 4 4156.26 4234.22 85.42 o
4 2 4 39.83 45.11 3.29 o
5 2 4 118.17 110.93 4.50 o
6 2 4 154.85 156.66 6.50 o
7 2 4 31.96 23.28 3.54 o
8 2 4 122.69 151.72 15.80 o
9 2 4 113.04 126.21 10.97 o
10 2 4 38.00 74.11 12.09 o
-10 3 4 12.59 21.95 12.30 o
-9 3 4 44.90 51.26 7.64 o
-8 3 4 101.61 102.42 7.11 o
-7 3 4 77.00 71.51 4.38 o
-6 3 4 71.55 72.81 3.38 o
-5 3 4 147.03 146.88 5.17 o
-4 3 4 269.77 316.22 8.69 o
-3 3 4 283.41 264.77 6.94 o
-2 3 4 617.07 622.09 15.24 o
-1 3 4 791.11 744.85 23.32 o
0 3 4 186.65 197.20 7.29 o
1 3 4 794.73 751.54 21.76 o
2 3 4 617.95 631.25 15.33 o
3 3 4 273.59 257.85 8.83 o
4 3 4 270.82 281.41 8.71 o
5 3 4 150.39 144.32 6.24 o
6 3 4 75.52 80.01 4.64 o
7 3 4 75.64 78.91 4.89 o
8 3 4 100.23 120.11 8.69 o
9 3 4 44.14 58.25 8.15 o
10 3 4 12.26 2.33 12.58 o
-10 4 4 0.29 25.68 12.53 o
-9 4 4 5.43 -0.23 6.85 o
-8 4 4 91.14 92.17 6.45 o
-7 4 4 106.01 116.80 5.62 o
-6 4 4 509.46 537.61 14.86 o
-5 4 4 1.17 2.10 2.80 o
-4 4 4 474.36 505.52 13.72 o
-3 4 4 226.81 218.78 5.87 o
-2 4 4 328.05 357.08 9.81 o
-1 4 4 546.87 479.78 13.37 o
0 4 4 7743.80 7840.57 205.45 o
1 4 4 528.53 448.23 11.00 o
2 4 4 324.86 346.23 9.09 o
3 4 4 228.53 222.39 7.29 o
4 4 4 478.15 491.89 15.56 o
5 4 4 1.76 6.03 3.01 o
6 4 4 514.24 524.23 18.17 o
7 4 4 102.61 121.46 7.06 o
8 4 4 89.63 102.42 9.27 o
9 4 4 5.06 0.23 6.62 o
10 4 4 0.32 3.24 9.74 o
-9 5 4 6.94 22.11 7.76 o
-8 5 4 45.82 45.92 6.01 o
-7 5 4 410.70 427.77 15.14 o
-6 5 4 107.17 109.97 6.73 o
-5 5 4 267.06 271.76 9.55 o
-4 5 4 207.91 208.95 7.06 o
-3 5 4 470.98 473.11 13.93 o
-2 5 4 808.30 807.78 21.69 o
-1 5 4 2011.05 2217.44 48.88 o
0 5 4 636.24 687.68 19.22 o
1 5 4 2033.36 2262.24 45.01 o
2 5 4 795.20 816.50 17.45 o
3 5 4 475.97 469.81 13.23 o
4 5 4 204.51 205.87 8.76 o
5 5 4 275.15 281.92 10.25 o
6 5 4 102.36 92.47 5.57 o
7 5 4 410.66 427.15 18.92 o
8 5 4 44.97 54.80 9.04 o
9 5 4 6.87 0.93 6.97 o
-9 6 4 61.37 74.91 10.30 o
-8 6 4 22.78 19.06 5.99 o
-7 6 4 1.50 -5.15 5.15 o
-6 6 4 15.68 26.14 3.75 o
-5 6 4 114.53 110.28 5.78 o
-4 6 4 104.68 114.82 6.22 o
-3 6 4 983.70 1010.93 31.06 o
-2 6 4 178.75 231.59 7.43 o
-1 6 4 160.15 167.15 5.92 o
0 6 4 80.62 95.43 6.57 o
1 6 4 154.65 153.24 4.54 o
2 6 4 188.84 221.95 7.74 o
3 6 4 977.92 1028.48 29.38 o
4 6 4 113.28 131.41 6.29 o
5 6 4 110.57 116.45 7.57 o
6 6 4 14.58 12.86 3.94 o
7 6 4 1.46 -1.65 4.22 o
8 6 4 23.31 24.00 7.18 o
9 6 4 61.39 78.66 10.02 o
-9 7 4 4.97 1.65 11.23 o
-8 7 4 156.21 141.03 10.51 o
-7 7 4 17.74 27.73 6.10 o
-6 7 4 42.38 36.72 4.64 o
-5 7 4 4.52 6.50 3.73 o
-4 7 4 591.21 566.29 23.25 o
-3 7 4 212.19 203.26 9.58 o
-2 7 4 780.61 776.00 24.67 o
-1 7 4 104.35 120.11 5.01 o
0 7 4 68.95 83.04 5.01 o
1 7 4 110.57 109.97 5.45 o
2 7 4 784.56 790.54 23.18 o
3 7 4 210.75 187.05 8.34 o
4 7 4 584.87 577.96 26.42 o
5 7 4 3.81 2.10 7.71 o
6 7 4 43.04 51.03 6.99 o
7 7 4 17.27 18.66 4.87 o
8 7 4 156.92 157.81 11.51 o
9 7 4 5.31 3.70 8.11 o
-9 8 4 4.47 -17.24 19.13 o
-8 8 4 22.15 18.13 7.41 o
-7 8 4 219.50 221.48 15.45 o
-6 8 4 123.75 155.52 13.33 o
-5 8 4 309.00 292.27 15.66 o
-4 8 4 96.38 81.66 6.62 o
-3 8 4 28.53 30.36 4.87 o
-2 8 4 46.97 43.90 5.66 o
-1 8 4 235.47 201.52 8.22 o
0 8 4 135.30 112.21 4.52 o
1 8 4 224.98 196.34 8.13 o
2 8 4 44.67 46.13 4.57 o
3 8 4 28.93 33.11 4.92 o
4 8 4 97.73 92.47 9.97 o
5 8 4 315.08 349.07 32.50 o
6 8 4 122.79 131.76 10.51 o
7 8 4 220.84 244.32 13.84 o
8 8 4 23.04 17.50 8.69 o
9 8 4 4.24 9.04 10.65 o
-8 9 4 35.19 37.47 10.09 o
-7 9 4 5.24 12.12 9.79 o
-6 9 4 76.05 57.55 8.81 o
-5 9 4 83.64 73.07 7.57 o
-4 9 4 125.03 122.46 8.11 o
-3 9 4 105.69 104.59 6.87 o
-2 9 4 181.97 177.17 9.76 o
-1 9 4 45.85 49.30 3.22 o
0 9 4 0.08 0.93 1.84 o
1 9 4 42.87 37.65 6.92 o
2 9 4 189.20 198.93 12.49 o
3 9 4 102.98 98.74 9.41 o
4 9 4 126.32 124.51 13.63 o
5 9 4 83.03 66.94 7.50 o
6 9 4 76.30 74.37 8.69 o
7 9 4 5.97 8.60 5.36 o
8 9 4 34.08 33.29 9.86 o
-8 10 4 1.09 -8.67 8.67 o
-7 10 4 12.44 27.89 7.74 o
-6 10 4 13.13 18.92 7.97 o
-5 10 4 145.52 146.88 12.21 o
-4 10 4 152.71 163.61 11.32 o
-3 10 4 313.49 338.86 21.37 o
-2 10 4 121.01 123.49 8.83 o
-1 10 4 403.37 381.13 25.63 o
0 10 4 84.44 105.52 10.34 o
1 10 4 407.35 440.50 19.85 o
2 10 4 122.21 115.47 6.24 o
3 10 4 320.67 345.09 13.05 o
4 10 4 154.80 155.90 10.30 o
5 10 4 143.80 114.49 10.46 o
6 10 4 13.47 17.50 4.73 o
7 10 4 12.39 12.12 5.85 o
8 10 4 1.21 1.37 8.57 o
-7 11 4 11.62 8.60 8.60 o
-6 11 4 28.57 23.72 9.51 o
-5 11 4 31.34 27.26 6.22 o
-4 11 4 79.89 70.48 7.69 o
-3 11 4 28.52 21.39 4.94 o
-2 11 4 331.59 347.93 30.76 o
-1 11 4 53.09 48.02 13.54 o
0 11 4 27.15 35.81 11.14 o
1 11 4 55.88 67.20 8.25 o
2 11 4 336.20 390.73 20.53 o
3 11 4 28.21 31.38 3.42 o
4 11 4 77.94 77.03 8.32 o
5 11 4 30.24 39.17 6.69 o
6 11 4 27.85 22.83 11.67 o
-7 12 4 29.38 43.29 20.29 o
-6 12 4 106.00 70.48 16.40 o
-5 12 4 72.12 70.99 10.30 o
-4 12 4 58.41 50.37 7.36 o
-2 12 4 4.23 10.46 13.05 o
-1 12 4 126.73 103.96 18.06 o
0 12 4 449.76 473.79 37.88 o
1 12 4 128.81 128.29 12.79 o
2 12 4 4.92 7.71 8.64 o
3 12 4 26.39 14.21 10.02 o
4 12 4 59.24 67.20 18.52 o
5 12 4 72.26 80.29 14.49 o
6 12 4 105.92 143.57 19.01 o
-6 13 4 41.28 103.36 20.78 o
-5 13 4 113.68 142.85 29.54 o
-4 13 4 12.21 9.51 16.75 o
-3 13 4 13.80 30.03 19.41 o
-2 13 4 8.82 4.89 13.51 o
-1 13 4 26.16 16.73 13.75 o
0 13 4 98.17 169.53 21.46 o
1 13 4 27.16 50.61 10.86 o
2 13 4 8.40 7.22 7.71 o
3 13 4 13.74 12.53 8.11 o
4 13 4 11.26 18.13 12.35 o
5 13 4 112.91 143.94 22.72 o
6 13 4 43.12 71.76 17.33 o
-5 14 4 3.18 -11.91 14.00 o
-4 14 4 83.15 92.78 21.18 o
-3 14 4 64.64 39.54 18.83 o
-2 14 4 41.46 45.92 14.28 o
-1 14 4 40.52 50.16 13.84 o
0 14 4 19.74 43.08 15.82 o
1 14 4 41.70 51.47 16.22 o
2 14 4 43.47 48.88 11.95 o
3 14 4 65.60 68.45 17.17 o
4 14 4 81.97 96.92 20.13 o
5 14 4 3.62 -2.10 11.91 o
-4 15 4 7.43 14.68 20.95 o
-3 15 4 35.91 41.89 20.55 o
-2 15 4 52.61 105.85 16.64 o
-1 15 4 4.66 17.75 12.60 o
0 15 4 19.30 49.09 16.05 o
1 15 4 5.36 17.87 16.26 o
2 15 4 53.12 31.73 14.61 o
3 15 4 36.06 36.35 18.22 o
4 15 4 7.86 33.11 13.00 o
-2 16 4 1.76 5.82 15.61 o
-1 16 4 3.34 49.30 22.51 o
0 16 4 0.08 -4.64 20.90 o
1 16 4 3.82 18.66 16.61 o
2 16 4 1.56 16.99 16.47 o
1 0 5 391.28 342.83 10.18 o
2 0 5 1047.78 962.03 22.72 o
3 0 5 199.63 196.34 7.27 o
4 0 5 1167.38 1196.37 32.74 o
5 0 5 982.64 1022.60 28.31 o
6 0 5 2.46 2.82 1.37 o
7 0 5 88.00 88.42 3.45 o
8 0 5 10.06 5.10 6.97 o
9 0 5 6.19 1.37 6.03 o
10 0 5 2.56 7.71 12.14 o
-10 1 5 2.38 -12.60 12.60 o
-9 1 5 5.73 11.18 6.34 o
-8 1 5 4.03 11.37 6.08 o
-7 1 5 139.93 138.14 5.38 o
-6 1 5 475.12 481.13 14.73 o
-5 1 5 822.69 835.79 22.06 o
-4 1 5 20.62 19.59 1.89 o
-3 1 5 754.61 745.69 19.18 o
-2 1 5 1423.93 1358.86 27.00 o
-1 1 5 2162.78 1964.87 69.01 o
0 1 5 3396.91 3210.38 157.41 o
1 1 5 2163.34 2009.79 62.95 o
2 1 5 1449.72 1412.26 30.96 o
3 1 5 761.75 774.30 22.93 o
4 1 5 19.52 12.53 4.43 o
5 1 5 811.12 782.83 26.47 o
6 1 5 473.47 452.10 17.52 o
7 1 5 139.90 161.28 13.19 o
8 1 5 4.61 8.60 7.25 o
9 1 5 6.19 6.73 7.69 o
10 1 5 2.26 6.50 19.99 o
-10 2 5 37.44 52.80 14.42 o
-9 2 5 13.62 21.95 9.58 o
-8 2 5 2.65 7.22 7.22 o
-7 2 5 143.96 139.21 6.13 o
-6 2 5 342.37 339.42 10.69 o
-5 2 5 478.98 478.45 12.02 o
-4 2 5 23.50 25.21 1.84 o
-3 2 5 86.14 98.74 3.94 o
-2 2 5 3740.15 3806.58 88.51 o
-1 2 5 1148.86 1107.27 37.58 o
0 2 5 928.58 846.42 27.54 o
1 2 5 1195.39 1198.47 39.10 o
2 2 5 3737.54 3739.06 97.06 o
3 2 5 84.00 86.14 5.94 o
4 2 5 23.53 24.00 2.10 o
5 2 5 476.22 459.27 12.44 o
6 2 5 343.54 365.80 11.09 o
7 2 5 149.63 139.94 11.93 o
8 2 5 2.63 0.00 2.33 o
9 2 5 13.13 17.87 7.62 o
10 2 5 37.60 37.65 13.49 o
-10 3 5 3.32 3.03 12.79 o
-9 3 5 40.63 38.98 7.25 o
-8 3 5 81.18 70.22 9.20 o
-7 3 5 158.15 157.43 6.90 o
-6 3 5 231.00 225.14 9.16 o
-5 3 5 519.30 520.04 15.31 o
-4 3 5 156.01 155.52 5.34 o
-3 3 5 680.09 764.98 19.43 o
-2 3 5 897.71 902.38 21.09 o
-1 3 5 1226.04 1188.98 33.69 o
0 3 5 1299.70 1202.71 36.00 o
1 3 5 1215.33 1154.50 32.15 o
2 3 5 896.57 919.90 23.16 o
3 3 5 707.31 794.83 17.22 o
4 3 5 156.89 142.13 5.10 o
5 3 5 520.26 506.22 13.75 o
6 3 5 236.60 217.87 9.02 o
7 3 5 159.55 155.52 7.99 o
8 3 5 78.41 91.89 10.25 o
9 3 5 40.58 27.26 7.64 o
10 3 5 3.26 -0.47 10.09 o
-10 4 5 45.34 58.95 23.67 o
-9 4 5 144.37 133.88 13.77 o
-8 4 5 142.36 142.47 9.48 o
-7 4 5 18.67 16.50 2.98 o
-6 4 5 13.90 13.75 2.38 o
-5 4 5 10.86 7.46 2.33 o
-4 4 5 403.72 422.74 10.67 o
-3 4 5 36.76 26.14 3.29 o
-2 4 5 235.80 289.66 8.32 o
-1 4 5 958.82 1026.52 29.33 o
0 4 5 35.39 31.03 4.59 o
1 4 5 957.13 1002.22 31.90 o
2 4 5 254.83 310.81 10.76 o
3 4 5 35.57 28.87 3.29 o
4 4 5 421.58 425.26 12.58 o
5 4 5 11.35 14.91 3.31 o
6 4 5 15.48 13.75 3.29 o
7 4 5 18.74 18.41 3.01 o
8 4 5 142.06 143.22 14.98 o
9 4 5 144.14 135.28 10.65 o
10 4 5 45.26 49.30 23.79 o
-9 5 5 96.68 106.15 12.26 o
-8 5 5 143.64 148.74 10.41 o
-7 5 5 35.72 32.60 5.57 o
-6 5 5 221.60 228.36 8.29 o
-5 5 5 225.42 212.05 8.90 o
-4 5 5 645.84 687.68 20.81 o
-3 5 5 984.55 997.39 24.11 o
-2 5 5 514.84 530.55 15.47 o
-1 5 5 991.16 1041.24 25.61 o
0 5 5 1623.10 1756.88 43.50 o
1 5 5 1006.91 1107.27 26.42 o
2 5 5 523.12 534.76 11.30 o
3 5 5 993.47 1009.00 34.90 o
4 5 5 642.81 699.75 31.50 o
5 5 5 226.47 210.72 8.41 o
6 5 5 220.82 250.07 11.58 o
7 5 5 35.88 32.60 4.36 o
8 5 5 145.58 147.25 14.82 o
9 5 5 97.17 102.42 12.98 o
-9 6 5 68.19 81.38 10.46 o
-8 6 5 69.40 81.66 7.99 o
-7 6 5 167.99 180.43 13.93 o
-6 6 5 110.17 91.31 6.99 o
-5 6 5 232.86 226.52 10.11 o
-4 6 5 256.97 254.92 10.23 o
-3 6 5 61.72 55.48 3.63 o
-2 6 5 571.13 577.96 15.40 o
-1 6 5 862.84 883.23 24.49 o
0 6 5 14.58 4.64 3.94 o
1 6 5 902.18 912.49 19.36 o
2 6 5 571.67 556.15 12.95 o
3 6 5 63.90 62.05 4.33 o
4 6 5 255.90 251.52 11.14 o
5 6 5 225.07 192.94 12.30 o
6 6 5 111.63 111.58 8.06 o
7 6 5 170.48 185.39 10.81 o
8 6 5 68.60 65.70 13.35 o
9 6 5 70.74 66.19 12.42 o
-9 7 5 4.02 1.65 9.37 o
-8 7 5 34.16 32.41 6.78 o
-7 7 5 117.02 134.58 12.40 o
-6 7 5 184.34 127.59 9.32 o
-5 7 5 188.26 179.19 10.62 o
-4 7 5 23.54 15.87 4.61 o
-3 7 5 841.36 858.90 28.63 o
-2 7 5 324.03 321.13 10.95 o
-1 7 5 409.27 432.20 12.07 o
0 7 5 39.26 31.90 4.47 o
1 7 5 415.86 427.77 12.00 o
2 7 5 324.49 297.51 10.53 o
3 7 5 839.86 891.41 26.42 o
4 7 5 24.36 16.99 4.66 o
5 7 5 186.82 188.72 17.61 o
6 7 5 180.45 180.01 15.56 o
7 7 5 117.49 130.01 12.19 o
8 7 5 35.28 38.21 8.11 o
9 7 5 4.33 -11.39 11.39 o
-9 8 5 6.35 13.09 11.93 o
-8 8 5 38.53 46.76 8.97 o
-7 8 5 3.16 4.64 6.97 o
-6 8 5 46.48 37.65 7.88 o
-5 8 5 25.14 30.71 5.41 o
-4 8 5 183.81 191.24 9.30 o
-3 8 5 63.01 64.96 5.89 o
-2 8 5 410.69 410.91 18.57 o
-1 8 5 105.80 88.70 5.45 o
0 8 5 133.02 112.21 7.11 o
1 8 5 106.43 86.98 5.69 o
2 8 5 410.91 432.85 16.52 o
3 8 5 63.99 64.47 6.62 o
4 8 5 191.14 208.50 12.79 o
5 8 5 24.59 39.54 9.02 o
6 8 5 48.47 18.41 8.11 o
7 8 5 3.13 7.22 5.82 o
8 8 5 37.28 28.22 8.11 o
9 8 5 6.50 0.93 9.74 o
-8 9 5 35.70 54.36 10.14 o
-7 9 5 43.51 22.83 8.18 o
-6 9 5 29.40 31.90 7.92 o
-5 9 5 38.89 44.90 6.13 o
-4 9 5 22.10 10.46 5.64 o
-3 9 5 120.94 111.58 10.32 o
-2 9 5 97.33 81.66 9.39 o
-1 9 5 126.38 125.54 6.85 o
0 9 5 652.22 706.22 29.22 o
1 9 5 127.27 129.66 10.44 o
2 9 5 97.27 105.85 10.04 o
3 9 5 122.70 134.58 11.32 o
4 9 5 22.52 2.33 7.46 o
5 9 5 40.01 52.35 9.95 o
6 9 5 29.16 36.53 6.83 o
7 9 5 42.60 58.48 10.97 o
8 9 5 36.04 40.12 11.02 o
-8 10 5 41.73 12.53 9.74 o
-7 10 5 34.54 29.19 8.41 o
-6 10 5 14.13 11.70 9.30 o
-5 10 5 119.88 151.72 12.42 o
-4 10 5 50.27 51.91 7.92 o
-3 10 5 11.64 12.12 5.10 o
-2 10 5 14.64 15.63 3.98 o
-1 10 5 282.95 232.53 20.48 o
0 10 5 105.00 112.21 11.98 o
1 10 5 276.09 260.81 9.86 o
2 10 5 14.57 4.64 7.22 o
3 10 5 11.39 28.87 8.85 o
4 10 5 50.01 30.71 12.86 o
5 10 5 122.85 130.36 9.41 o
6 10 5 13.55 2.10 6.55 o
7 10 5 36.16 38.02 8.08 o
8 10 5 40.71 30.52 9.79 o
-7 11 5 0.45 8.85 11.00 o
-6 11 5 35.89 33.11 9.13 o
-5 11 5 66.15 55.48 10.46 o
-4 11 5 181.51 186.63 15.84 o
-3 11 5 38.44 42.08 4.75 o
-2 11 5 27.10 25.37 3.68 o
-1 11 5 289.14 339.42 27.00 o
0 11 5 84.72 109.65 13.75 o
1 11 5 286.79 309.20 17.71 o
2 11 5 25.47 24.16 2.40 o
3 11 5 38.17 34.90 4.68 o
4 11 5 183.24 194.64 14.05 o
5 11 5 65.38 68.45 7.83 o
6 11 5 34.87 22.39 6.50 o
-7 12 5 1.53 29.52 15.75 o
-6 12 5 5.60 -3.94 10.90 o
-5 12 5 32.48 12.12 12.86 o
-4 12 5 165.67 175.14 13.75 o
-3 12 5 58.54 51.91 13.63 o
-2 12 5 90.65 96.04 22.74 o
-1 12 5 18.17 0.23 12.49 o
0 12 5 15.87 19.59 11.88 o
1 12 5 17.83 16.36 13.58 o
2 12 5 89.80 89.56 10.97 o
3 12 5 58.61 85.55 11.02 o
4 12 5 170.96 155.52 22.09 o
5 12 5 31.91 34.90 14.42 o
6 12 5 6.08 -8.60 12.07 o
-6 13 5 8.16 6.03 12.53 o
-5 13 5 5.47 8.85 19.36 o
-4 13 5 26.30 7.22 13.05 o
-3 13 5 40.67 40.33 15.70 o
-2 13 5 34.03 14.91 13.79 o
-1 13 5 7.58 20.27 11.81 o
0 13 5 132.45 179.19 22.48 o
1 13 5 7.78 19.59 13.12 o
2 13 5 35.86 56.17 10.76 o
3 13 5 41.53 35.44 8.18 o
4 13 5 25.95 55.94 13.23 o
5 13 5 5.88 9.97 15.33 o
6 13 5 7.76 6.73 8.88 o
-5 14 5 13.00 19.59 13.23 o
-4 14 5 43.80 67.94 21.13 o
-3 14 5 25.76 29.87 21.69 o
-2 14 5 3.92 23.72 14.42 o
-1 14 5 62.71 72.55 19.25 o
0 14 5 0.39 -3.70 10.93 o
1 14 5 63.25 64.96 14.52 o
2 14 5 3.96 -0.23 13.44 o
3 14 5 26.29 30.03 9.37 o
4 14 5 43.62 49.09 15.82 o
5 14 5 13.62 37.65 13.30 o
-4 15 5 18.10 33.83 22.37 o
-3 15 5 44.83 72.81 20.32 o
-2 15 5 46.06 50.16 18.17 o
-1 15 5 38.94 29.52 21.39 o
0 15 5 14.72 38.98 17.33 o
1 15 5 38.67 39.35 15.52 o
2 15 5 46.40 72.55 19.25 o
-2 16 5 59.17 45.71 17.96 o
-1 16 5 41.50 53.45 25.44 o
0 16 5 1.74 24.00 22.13 o
1 16 5 41.16 57.78 17.17 o
2 16 5 57.10 105.85 29.52 o
0 0 6 3254.96 3205.98 82.02 o
1 0 6 0.92 -1.37 2.54 o
2 0 6 32.02 54.59 2.26 o
3 0 6 0.07 -2.33 4.19 o
4 0 6 1665.42 1751.78 44.71 o
5 0 6 0.47 3.24 4.68 o
6 0 6 61.61 62.28 8.43 o
7 0 6 84.65 67.68 10.55 o
8 0 6 40.72 40.33 9.30 o
9 0 6 50.64 55.71 11.86 o
10 0 6 2.85 -2.82 18.24 o
-10 1 6 51.16 14.45 26.56 o
-9 1 6 38.14 24.77 8.20 o
-8 1 6 30.74 50.82 9.58 o
-7 1 6 60.83 58.71 8.90 o
-6 1 6 197.65 188.72 7.13 o
-5 1 6 527.97 580.90 13.23 o
-4 1 6 778.60 797.42 18.97 o
-3 1 6 714.43 730.76 20.62 o
-2 1 6 945.22 913.42 17.52 o
-1 1 6 1228.41 1216.50 30.87 o
0 1 6 12.91 16.99 4.92 o
1 1 6 1217.66 1215.45 30.87 o
2 1 6 933.11 903.31 20.18 o
3 1 6 726.68 786.26 21.41 o
4 1 6 781.21 775.17 25.49 o
5 1 6 531.95 583.86 19.18 o
6 1 6 192.87 164.40 10.18 o
7 1 6 61.57 77.31 10.74 o
8 1 6 31.47 30.52 8.60 o
9 1 6 38.63 34.72 8.81 o
10 1 6 50.38 37.47 16.26 o
-10 2 6 15.02 23.28 13.70 o
-9 2 6 28.70 31.73 7.39 o
-8 2 6 52.14 35.44 8.90 o
-7 2 6 122.29 117.45 5.29 o
-6 2 6 85.41 86.14 3.96 o
-5 2 6 95.38 94.83 4.17 o
-4 2 6 859.31 894.16 25.56 o
-3 2 6 144.30 146.88 4.80 o
-2 2 6 220.91 216.96 6.73 o
-1 2 6 1162.34 1181.62 37.77 o
0 2 6 205.74 172.72 9.23 o
1 2 6 1147.56 1177.43 31.43 o
2 2 6 226.25 224.23 6.85 o
3 2 6 160.94 149.86 5.62 o
4 2 6 871.55 898.72 25.63 o
5 2 6 94.31 85.28 7.34 o
6 2 6 86.69 88.70 6.62 o
7 2 6 122.40 105.22 9.72 o
8 2 6 52.29 41.50 8.85 o
9 2 6 27.69 44.08 10.95 o
10 2 6 15.17 28.87 21.81 o
-10 3 6 3.28 27.56 21.97 o
-9 3 6 39.39 27.10 12.07 o
-8 3 6 8.87 -2.56 8.85 o
-7 3 6 114.69 128.29 6.22 o
-6 3 6 49.34 43.90 3.45 o
-5 3 6 26.15 23.72 2.07 o
-4 3 6 179.61 185.39 6.24 o
-3 3 6 1407.56 1444.58 31.34 o
-2 3 6 707.41 711.09 17.10 o
-1 3 6 118.27 89.84 5.22 o
0 3 6 2823.21 2674.40 85.25 o
1 3 6 123.13 100.56 6.73 o
2 3 6 709.65 675.72 18.24 o
3 3 6 1406.98 1423.77 35.72 o
4 3 6 183.87 199.35 8.18 o
5 3 6 26.73 30.71 2.38 o
6 3 6 50.32 45.71 6.20 o
7 3 6 119.83 112.86 11.02 o
8 3 6 9.58 12.53 9.51 o
9 3 6 38.38 36.53 10.34 o
10 3 6 2.98 21.95 15.59 o
-10 4 6 2.68 -13.98 15.87 o
-9 4 6 1.70 6.97 7.41 o
-8 4 6 80.39 83.60 13.40 o
-7 4 6 0.62 5.10 2.75 o
-6 4 6 38.68 50.37 3.26 o
-5 4 6 408.12 414.63 14.91 o
-4 4 6 148.65 145.78 5.52 o
-3 4 6 13.96 10.97 2.33 o
-2 4 6 113.61 79.73 4.08 o
-1 4 6 2073.76 2099.73 51.75 o
0 4 6 4267.70 4220.43 126.33 o
1 4 6 2053.08 2140.50 57.90 o
2 4 6 111.61 88.98 5.48 o
3 4 6 14.39 15.87 3.03 o
4 4 6 149.66 152.87 7.18 o
5 4 6 413.85 412.14 16.12 o
6 4 6 43.86 53.91 4.47 o
7 4 6 0.89 4.64 8.81 o
8 4 6 79.50 84.44 12.63 o
9 4 6 1.50 4.19 10.67 o
10 4 6 2.65 -15.91 15.91 o
-9 5 6 62.48 75.16 12.98 o
-8 5 6 8.99 -3.70 13.21 o
-7 5 6 76.72 71.25 8.50 o
-6 5 6 126.96 133.88 7.06 o
-5 5 6 288.81 295.41 11.02 o
-4 5 6 800.10 792.24 24.93 o
-3 5 6 582.26 601.68 15.73 o
-2 5 6 418.87 401.05 11.63 o
-1 5 6 88.00 58.25 4.66 o
0 5 6 1388.65 1423.77 35.72 o
1 5 6 91.50 58.95 5.15 o
2 5 6 420.61 398.63 12.79 o
3 5 6 580.76 625.12 16.03 o
4 5 6 795.02 793.11 32.67 o
5 5 6 298.25 321.13 16.40 o
6 5 6 129.17 145.78 10.32 o
7 5 6 76.27 86.42 6.52 o
8 5 6 8.75 25.68 15.63 o
9 5 6 62.93 60.37 11.14 o
-9 6 6 26.82 27.56 9.79 o
-8 6 6 12.57 17.87 7.62 o
-7 6 6 58.68 50.37 12.14 o
-6 6 6 26.67 32.76 4.19 o
-5 6 6 3.26 3.70 3.24 o
-4 6 6 0.87 -3.24 3.73 o
-3 6 6 129.77 117.13 5.94 o
-2 6 6 494.41 497.32 14.31 o
-1 6 6 401.75 441.78 14.75 o
0 6 6 528.09 564.10 17.40 o
1 6 6 405.80 443.71 13.51 o
2 6 6 500.64 515.87 13.16 o
3 6 6 118.28 103.03 5.27 o
4 6 6 0.96 4.43 4.43 o
5 6 6 3.31 5.38 4.47 o
6 6 6 27.37 24.46 5.29 o
7 6 6 58.48 51.91 5.29 o
8 6 6 12.44 10.97 10.51 o
9 6 6 27.67 25.37 9.83 o
-9 7 6 10.73 0.47 11.25 o
-8 7 6 56.23 61.79 11.51 o
-7 7 6 112.28 154.38 15.54 o
-6 7 6 162.30 141.75 11.63 o
-5 7 6 81.16 72.27 5.71 o
-4 7 6 9.06 18.92 4.38 o
-3 7 6 517.18 477.77 16.01 o
-2 7 6 64.92 66.94 4.99 o
-1 7 6 1844.69 1989.31 49.02 o
0 7 6 0.43 -2.10 3.98 o
1 7 6 1849.13 1968.93 47.41 o
2 7 6 59.71 57.78 3.70 o
3 7 6 515.39 471.79 14.59 o
4 7 6 10.55 11.18 3.98 o
5 7 6 79.48 76.24 7.20 o
6 7 6 162.67 152.87 11.70 o
7 7 6 111.58 99.95 10.69 o
8 7 6 55.27 52.56 9.53 o
9 7 6 10.64 32.06 8.81 o
-9 8 6 6.89 11.91 8.64 o
-8 8 6 103.04 91.89 16.10 o
-7 8 6 68.18 63.49 9.48 o
-6 8 6 92.14 106.15 18.55 o
-5 8 6 7.22 -4.64 6.76 o
-4 8 6 296.22 273.28 14.63 o
-3 8 6 130.89 103.66 7.15 o
-2 8 6 492.45 495.30 15.63 o
-1 8 6 73.46 70.22 4.10 o
0 8 6 200.81 193.36 9.34 o
1 8 6 69.56 71.51 4.12 o
2 8 6 482.71 482.46 22.13 o
3 8 6 129.60 111.25 9.34 o
4 8 6 298.17 309.20 15.56 o
5 8 6 7.33 -5.10 6.97 o
6 8 6 88.41 77.31 7.53 o
7 8 6 69.13 72.81 17.96 o
8 8 6 105.50 99.05 13.37 o
9 8 6 6.73 22.39 12.14 o
-8 9 6 5.46 -6.27 11.84 o
-7 9 6 28.08 19.99 7.92 o
-6 9 6 183.02 202.82 17.38 o
-5 9 6 207.33 198.07 13.33 o
-4 9 6 85.40 59.88 8.97 o
-3 9 6 205.98 167.94 13.05 o
-2 9 6 554.02 576.49 25.65 o
-1 9 6 392.30 372.83 14.14 o
0 9 6 86.19 82.76 3.61 o
1 9 6 381.70 383.53 26.30 o
2 9 6 546.59 551.84 25.82 o
3 9 6 207.12 221.04 12.70 o
4 9 6 86.80 97.23 9.34 o
5 9 6 206.83 247.18 23.51 o
6 9 6 182.55 187.89 21.76 o
7 9 6 28.06 7.46 10.93 o
8 9 6 5.40 19.87 11.70 o
-8 10 6 22.94 12.12 12.33 o
-7 10 6 9.99 1.65 11.00 o
-6 10 6 47.72 48.23 10.81 o
-5 10 6 53.31 57.78 9.27 o
-4 10 6 59.33 73.32 8.88 o
-3 10 6 110.96 84.16 14.28 o
-2 10 6 196.69 187.47 17.96 o
-1 10 6 81.20 78.91 4.08 o
0 10 6 34.80 25.21 3.52 o
1 10 6 84.11 93.36 16.52 o
2 10 6 201.03 181.66 11.93 o
3 10 6 113.37 111.58 10.32 o
4 10 6 59.43 58.02 9.76 o
5 10 6 49.60 40.70 10.32 o
6 10 6 48.28 43.90 8.50 o
7 10 6 10.06 1.16 7.25 o
8 10 6 23.17 54.36 16.87 o
-7 11 6 34.99 12.86 9.86 o
-6 11 6 26.81 27.89 9.51 o
-5 11 6 3.68 -6.73 6.73 o
-4 11 6 121.49 104.29 10.90 o
-3 11 6 119.97 106.48 9.46 o
-2 11 6 113.87 100.89 8.57 o
-1 11 6 414.96 472.46 33.18 o
0 11 6 89.44 141.03 20.67 o
1 11 6 415.87 432.85 17.15 o
2 11 6 116.31 116.12 10.86 o
3 11 6 123.20 99.35 9.44 o
4 11 6 118.07 142.47 14.93 o
5 11 6 3.62 3.03 6.06 o
6 11 6 27.41 41.68 15.17 o
7 11 6 34.24 60.14 17.75 o
-7 12 6 54.81 60.14 19.41 o
-6 12 6 1.27 11.18 17.96 o
-5 12 6 12.96 38.21 12.07 o
-4 12 6 9.85 9.32 7.46 o
-3 12 6 92.06 116.12 18.10 o
-2 12 6 103.31 116.80 17.15 o
-1 12 6 81.71 84.72 16.87 o
0 12 6 127.60 220.13 24.46 o
1 12 6 83.74 81.92 19.34 o
2 12 6 103.70 98.74 14.56 o
3 12 6 91.59 106.15 13.54 o
4 12 6 10.37 8.60 9.58 o
5 12 6 13.24 19.59 15.68 o
6 12 6 1.40 9.04 9.27 o
-6 13 6 47.71 35.81 17.89 o
-5 13 6 3.94 14.91 19.57 o
-4 13 6 55.95 69.46 16.29 o
-3 13 6 14.39 11.91 14.21 o
-2 13 6 24.78 16.12 15.45 o
-1 13 6 62.70 46.76 15.45 o
0 13 6 3.52 2.56 12.81 o
1 13 6 63.36 64.21 13.47 o
2 13 6 24.61 30.36 17.50 o
3 13 6 13.73 17.50 16.99 o
4 13 6 56.21 53.01 13.12 o
5 13 6 3.88 -14.45 14.45 o
-5 14 6 69.42 41.68 20.90 o
-4 14 6 21.09 -3.24 14.84 o
-3 14 6 10.02 17.50 22.34 o
-2 14 6 63.02 96.62 19.20 o
-1 14 6 58.95 54.59 16.24 o
0 14 6 14.98 18.66 12.79 o
1 14 6 59.78 84.16 18.48 o
2 14 6 64.40 73.07 16.17 o
3 14 6 9.42 1.16 15.21 o
-4 15 6 50.02 74.37 24.49 o
-3 15 6 9.96 33.11 21.25 o
-2 15 6 24.99 34.72 15.66 o
-1 15 6 80.17 96.04 27.82 o
0 15 6 4.25 17.50 15.84 o
1 15 6 80.94 106.15 20.13 o
2 15 6 26.08 5.59 12.86 o
-2 16 6 11.62 31.03 17.52 o
-1 16 6 2.61 -18.92 22.44 o
0 16 6 22.46 29.52 22.55 o
1 16 6 2.37 -16.08 16.08 o
2 16 6 11.53 20.27 19.52 o
1 0 7 601.75 635.86 16.17 o
2 0 7 680.11 699.75 16.15 o
3 0 7 0.68 8.15 3.75 o
4 0 7 58.37 49.09 5.13 o
5 0 7 479.23 412.77 20.46 o
6 0 7 353.50 343.94 23.79 o
7 0 7 3.09 7.71 7.71 o
8 0 7 53.06 60.14 11.84 o
9 0 7 30.00 13.09 16.78 o
10 0 7 124.40 106.15 14.77 o
-10 1 7 48.84 82.76 25.28 o
-9 1 7 78.82 102.42 16.38 o
-8 1 7 31.04 37.65 10.86 o
-7 1 7 62.13 35.25 12.51 o
-6 1 7 149.51 184.97 18.69 o
-5 1 7 330.07 336.07 24.07 o
-4 1 7 57.20 51.91 6.38 o
-3 1 7 1181.00 1152.43 31.08 o
-2 1 7 429.07 461.91 10.51 o
-1 1 7 1510.20 1498.44 40.17 o
0 1 7 1841.26 2009.79 57.48 o
1 1 7 1516.91 1483.11 37.63 o
2 1 7 446.14 453.40 13.00 o
3 1 7 1190.01 1164.89 28.12 o
4 1 7 56.34 58.48 5.13 o
5 1 7 338.46 381.13 17.29 o
6 1 7 149.30 143.57 11.35 o
7 1 7 61.12 80.29 12.86 o
8 1 7 31.47 51.26 15.31 o
9 1 7 78.88 60.37 15.66 o
10 1 7 50.14 50.16 11.88 o
-10 2 7 23.92 13.54 14.49 o
-9 2 7 10.61 36.72 14.42 o
-8 2 7 156.70 133.50 19.06 o
-7 2 7 185.31 201.96 20.83 o
-6 2 7 701.19 710.28 21.97 o
-5 2 7 355.19 395.57 10.93 o
-4 2 7 35.48 38.40 3.03 o
-3 2 7 399.59 404.13 8.60 o
-2 2 7 658.72 710.28 17.89 o
-1 2 7 639.09 645.13 20.95 o
0 2 7 1544.57 1529.32 40.59 o
1 2 7 639.32 649.79 16.33 o
2 2 7 681.22 771.76 19.50 o
3 2 7 401.71 407.81 10.48 o
4 2 7 36.42 33.99 4.45 o
5 2 7 355.51 356.53 18.45 o
6 2 7 705.22 756.57 37.79 o
7 2 7 187.78 195.92 22.23 o
8 2 7 158.90 150.61 17.61 o
9 2 7 10.42 17.87 14.73 o
10 2 7 24.31 21.25 10.69 o
-10 3 7 37.86 21.95 17.31 o
-9 3 7 9.71 4.89 10.74 o
-8 3 7 15.44 19.59 15.14 o
-7 3 7 412.49 432.85 18.43 o
-6 3 7 139.56 133.16 5.99 o
-5 3 7 214.41 226.52 9.65 o
-4 3 7 110.96 116.12 3.94 o
-3 3 7 50.36 62.28 3.61 o
-2 3 7 981.10 1059.04 24.84 o
-1 3 7 303.61 328.82 10.51 o
0 3 7 3108.40 3109.14 102.14 o
1 3 7 317.27 365.22 13.42 o
2 3 7 984.45 1036.33 22.60 o
3 3 7 48.73 53.45 4.01 o
4 3 7 108.69 99.95 6.10 o
5 3 7 214.89 211.16 12.86 o
6 3 7 145.06 152.49 15.07 o
7 3 7 418.12 416.50 35.51 o
8 3 7 15.69 4.64 9.27 o
9 3 7 10.41 -11.70 16.08 o
10 3 7 36.79 49.95 14.68 o
-9 4 7 105.42 120.11 12.72 o
-8 4 7 12.67 14.21 10.25 o
-7 4 7 84.11 71.25 6.45 o
-6 4 7 2.42 8.41 3.98 o
-5 4 7 50.19 58.71 3.98 o
-4 4 7 178.88 162.44 5.45 o
-3 4 7 872.77 910.65 22.11 o
-2 4 7 77.42 85.28 4.52 o
-1 4 7 1310.06 1411.12 33.25 o
0 4 7 2110.76 2307.46 65.98 o
1 4 7 1311.69 1361.12 42.80 o
2 4 7 72.85 79.19 4.89 o
3 4 7 875.96 889.59 28.22 o
4 4 7 174.84 157.81 7.29 o
5 4 7 55.68 55.94 8.90 o
6 4 7 2.75 8.60 12.07 o
7 4 7 84.06 69.20 13.21 o
8 4 7 12.83 17.24 12.16 o
9 4 7 103.36 96.32 19.48 o
-9 5 7 18.98 31.38 11.46 o
-8 5 7 143.95 136.72 19.99 o
-7 5 7 56.17 63.49 7.78 o
-6 5 7 91.16 79.73 4.92 o
-5 5 7 100.36 101.19 5.22 o
-4 5 7 463.64 473.11 15.28 o
-3 5 7 725.83 721.72 20.50 o
-2 5 7 1096.52 1194.25 26.37 o
-1 5 7 819.50 849.09 23.14 o
0 5 7 23.71 26.30 4.22 o
1 5 7 804.43 826.12 23.70 o
2 5 7 1088.64 1137.96 33.99 o
3 5 7 730.38 732.41 23.14 o
4 5 7 475.12 475.77 17.31 o
5 5 7 101.38 97.53 11.77 o
6 5 7 88.94 76.77 15.52 o
7 5 7 53.79 68.69 12.40 o
8 5 7 141.52 163.23 23.79 o
9 5 7 19.79 18.92 9.55 o
-9 6 7 51.79 50.61 10.00 o
-8 6 7 2.27 5.10 8.83 o
-7 6 7 247.79 265.75 30.36 o
-6 6 7 90.58 84.16 5.87 o
-5 6 7 166.35 162.44 8.55 o
-4 6 7 152.20 141.75 6.55 o
-3 6 7 3.55 4.64 2.56 o
-2 6 7 50.84 48.65 4.26 o
-1 6 7 63.50 67.20 5.27 o
0 6 7 478.64 494.60 14.93 o
1 6 7 58.56 69.97 5.10 o
2 6 7 49.02 41.50 3.73 o
3 6 7 3.48 11.37 3.91 o
4 6 7 151.66 166.36 8.27 o
5 6 7 165.66 147.62 9.27 o
6 6 7 90.32 79.73 8.18 o
7 6 7 242.95 245.74 27.75 o
8 6 7 2.81 16.12 17.78 o
9 6 7 51.07 63.23 14.82 o
-9 7 7 8.44 20.69 8.34 o
-8 7 7 21.97 14.91 11.44 o
-7 7 7 59.47 81.66 17.10 o
-6 7 7 310.11 296.97 16.31 o
-5 7 7 63.14 51.47 4.59 o
-4 7 7 284.06 293.31 13.58 o
-3 7 7 347.34 323.32 10.97 o
-2 7 7 56.45 63.49 5.10 o
-1 7 7 380.72 389.52 15.66 o
0 7 7 277.43 286.56 11.88 o
1 7 7 386.87 404.73 16.59 o
2 7 7 58.74 58.71 3.75 o
3 7 7 341.73 294.36 18.85 o
4 7 7 278.46 283.46 13.37 o
5 7 7 61.57 74.91 8.46 o
6 7 7 306.68 277.33 20.85 o
7 7 7 61.36 62.05 18.52 o
8 7 7 21.27 5.59 17.47 o
9 7 7 8.48 -1.84 11.11 o
-8 8 7 52.31 40.52 11.65 o
-7 8 7 6.60 7.90 7.90 o
-6 8 7 18.39 37.47 10.27 o
-5 8 7 307.41 321.67 16.96 o
-4 8 7 239.90 208.50 12.35 o
-3 8 7 100.21 102.42 6.17 o
-2 8 7 419.20 376.98 12.44 o
-1 8 7 124.97 134.58 5.66 o
0 8 7 11.72 7.71 6.27 o
1 8 7 128.72 133.88 7.78 o
2 8 7 414.99 401.05 18.34 o
3 8 7 100.20 91.89 7.90 o
4 8 7 235.92 225.61 14.68 o
5 8 7 306.80 327.73 17.12 o
6 8 7 17.89 11.37 4.64 o
7 8 7 6.66 -12.84 12.84 o
8 8 7 53.03 62.77 9.44 o
-8 9 7 16.48 18.92 9.83 o
-7 9 7 32.79 19.87 15.10 o
-6 9 7 1.57 -16.52 16.52 o
-5 9 7 89.62 82.20 16.05 o
-4 9 7 247.94 210.28 14.17 o
-3 9 7 494.70 483.13 26.17 o
-2 9 7 138.65 113.84 7.50 o
-1 9 7 205.82 185.79 14.14 o
0 9 7 281.02 318.94 20.18 o
1 9 7 207.20 202.82 10.00 o
2 9 7 132.40 165.96 15.73 o
3 9 7 495.76 501.42 23.25 o
4 9 7 253.25 242.87 14.28 o
5 9 7 86.86 66.45 11.95 o
6 9 7 1.60 0.93 7.67 o
7 9 7 32.18 12.12 18.38 o
8 9 7 15.61 18.66 8.18 o
-8 10 7 5.79 -0.93 8.60 o
-7 10 7 8.66 6.27 7.88 o
-6 10 7 125.65 130.01 12.88 o
-5 10 7 47.91 49.09 8.13 o
-4 10 7 89.58 68.20 15.38 o
-3 10 7 7.27 8.41 13.54 o
-2 10 7 2.49 -16.57 16.57 o
-1 10 7 19.54 11.91 5.15 o
0 10 7 172.34 184.97 6.22 o
1 10 7 20.02 10.27 9.97 o
2 10 7 2.25 11.37 9.58 o
3 10 7 7.45 23.28 10.74 o
4 10 7 89.91 74.37 9.48 o
5 10 7 47.33 49.72 12.28 o
6 10 7 127.80 132.81 18.99 o
7 10 7 9.65 4.64 6.76 o
8 10 7 5.73 22.83 17.94 o
-7 11 7 25.63 11.91 10.95 o
-6 11 7 20.88 20.97 7.69 o
-5 11 7 58.61 65.70 11.14 o
-4 11 7 184.22 209.39 16.78 o
-3 11 7 72.09 88.12 8.01 o
-2 11 7 178.27 182.48 15.26 o
-1 11 7 37.77 33.83 13.49 o
0 11 7 258.41 277.33 11.70 o
1 11 7 40.45 46.97 4.82 o
2 11 7 175.68 192.10 20.32 o
3 11 7 73.49 68.45 13.40 o
4 11 7 184.58 151.72 19.18 o
5 11 7 57.85 72.02 12.70 o
6 11 7 21.63 20.69 7.92 o
7 11 7 26.64 -6.27 16.96 o
-6 12 7 0.27 2.82 20.81 o
-5 12 7 98.71 91.31 20.13 o
-4 12 7 61.78 48.65 18.52 o
-3 12 7 127.24 139.59 21.27 o
-2 12 7 9.88 2.10 15.40 o
-1 12 7 111.93 114.49 22.86 o
0 12 7 115.05 54.12 13.70 o
1 12 7 111.48 141.03 20.67 o
2 12 7 10.85 27.73 10.76 o
3 12 7 130.21 149.49 19.04 o
-6 13 7 2.66 12.86 14.89 o
-5 13 7 35.68 -7.46 12.84 o
-4 13 7 79.76 44.50 17.71 o
-3 13 7 53.05 95.43 17.59 o
-2 13 7 16.82 31.38 14.19 o
-1 13 7 67.51 52.80 16.19 o
0 13 7 0.57 4.43 12.35 o
1 13 7 68.66 93.94 18.06 o
2 13 7 15.98 44.69 19.59 o
3 13 7 52.68 77.56 15.05 o
-5 14 7 43.50 59.65 24.04 o
-4 14 7 1.33 57.08 19.59 o
-3 14 7 6.14 28.22 23.35 o
-2 14 7 70.93 45.11 18.66 o
-1 14 7 59.87 73.32 18.57 o
0 14 7 221.33 221.48 26.79 o
1 14 7 62.10 84.16 18.76 o
2 14 7 70.15 119.78 23.39 o
3 14 7 5.95 -19.18 19.18 o
-4 15 7 7.09 -24.72 24.72 o
-3 15 7 0.51 10.46 19.57 o
-2 15 7 34.12 47.81 18.57 o
-1 15 7 108.98 114.49 25.49 o
0 15 7 12.41 6.03 14.19 o
1 15 7 109.79 139.94 27.07 o
2 15 7 32.74 44.69 15.31 o
3 15 7 0.62 31.03 21.76 o
-2 16 7 8.68 -14.63 14.63 o
-1 16 7 10.52 22.39 23.84 o
0 16 7 14.22 55.48 27.96 o
1 16 7 10.63 -0.93 16.24 o
2 16 7 8.79 -8.15 23.28 o
0 0 8 870.27 898.41 23.42 o
1 0 8 627.09 750.70 19.25 o
2 0 8 244.90 286.04 7.22 o
3 0 8 3.70 12.33 4.17 o
4 0 8 137.13 131.06 7.34 o
5 0 8 94.22 103.66 7.46 o
6 0 8 512.11 505.52 36.37 o
7 0 8 46.04 35.62 12.58 o
8 0 8 35.39 35.25 11.23 o
9 0 8 24.99 12.12 12.86 o
10 0 8 2.58 -1.16 10.53 o
-10 1 8 6.55 16.50 10.41 o
-9 1 8 5.07 -14.70 14.70 o
-8 1 8 69.48 76.77 18.20 o
-7 1 8 53.98 60.83 10.23 o
-6 1 8 47.49 37.28 9.13 o
-5 1 8 499.21 538.31 31.87 o
-4 1 8 173.99 169.13 9.93 o
-3 1 8 264.73 252.49 8.25 o
-2 1 8 153.56 159.74 5.41 o
-1 1 8 1646.64 1675.94 38.75 o
0 1 8 670.39 737.37 19.06 o
1 1 8 1623.52 1658.49 42.26 o
2 1 8 146.19 136.00 6.41 o
3 1 8 255.51 240.98 7.11 o
4 1 8 176.53 170.71 8.39 o
5 1 8 495.09 501.42 19.15 o
6 1 8 51.91 76.49 10.95 o
7 1 8 53.76 61.07 13.35 o
8 1 8 70.43 81.38 18.45 o
9 1 8 4.93 0.23 10.62 o
10 1 8 6.66 1.65 9.11 o
-10 2 8 28.93 29.52 22.06 o
-9 2 8 67.02 75.16 15.35 o
-8 2 8 193.47 192.52 20.34 o
-7 2 8 43.03 52.12 10.58 o
-6 2 8 16.47 12.33 12.53 o
-5 2 8 57.64 60.83 2.87 o
-4 2 8 317.86 309.20 11.28 o
-3 2 8 214.72 213.37 5.36 o
-2 2 8 385.04 388.93 9.62 o
-1 2 8 387.48 432.85 11.44 o
0 2 8 738.20 816.50 21.81 o
1 2 8 387.34 423.37 13.19 o
2 2 8 393.28 394.97 12.74 o
3 2 8 213.59 200.21 6.48 o
4 2 8 305.25 269.25 11.53 o
5 2 8 57.16 48.65 5.55 o
6 2 8 15.48 39.54 9.60 o
7 2 8 43.30 32.60 10.62 o
8 2 8 194.77 183.71 26.49 o
9 2 8 66.85 55.27 17.92 o
10 2 8 27.94 30.36 9.60 o
-9 3 8 9.34 31.22 14.49 o
-8 3 8 90.18 68.45 10.86 o
-7 3 8 86.55 82.76 4.73 o
-6 3 8 18.69 16.36 2.35 o
-5 3 8 107.76 106.15 6.59 o
-4 3 8 191.33 184.97 4.57 o
-3 3 8 25.94 34.18 3.03 o
-2 3 8 397.69 417.10 11.84 o
-1 3 8 280.61 305.99 12.81 o
0 3 8 480.94 498.70 17.73 o
1 3 8 288.83 325.51 9.37 o
2 3 8 411.56 421.48 15.05 o
3 3 8 30.08 26.77 3.47 o
4 3 8 189.04 185.79 9.16 o
5 3 8 104.82 112.86 9.41 o
6 3 8 16.75 25.21 14.26 o
7 3 8 87.34 40.33 10.09 o
8 3 8 86.83 45.92 13.23 o
9 3 8 9.55 -13.98 16.78 o
-9 4 8 15.68 21.67 17.19 o
-8 4 8 9.88 21.39 15.40 o
-7 4 8 194.25 221.48 14.10 o
-6 4 8 10.83 14.21 4.15 o
-5 4 8 519.41 524.23 16.78 o
-4 4 8 112.53 111.58 4.52 o
-3 4 8 112.57 106.15 5.03 o
-2 4 8 628.99 637.40 19.27 o
-1 4 8 841.25 845.53 23.09 o
0 4 8 853.01 826.12 24.56 o
1 4 8 870.07 875.07 28.01 o
2 4 8 628.22 651.35 23.37 o
3 4 8 115.77 112.21 5.50 o
4 4 8 112.42 110.60 5.45 o
5 4 8 513.76 633.55 33.04 o
6 4 8 11.14 -5.38 12.60 o
7 4 8 192.56 196.34 23.53 o
8 4 8 9.68 -2.33 8.62 o
9 4 8 14.43 -6.27 12.07 o
-9 5 8 1.49 -4.43 10.04 o
-8 5 8 47.53 37.47 8.78 o
-7 5 8 33.27 26.30 6.27 o
-6 5 8 99.00 99.95 4.59 o
-5 5 8 102.90 97.53 4.82 o
-4 5 8 499.82 506.90 14.42 o
-3 5 8 442.01 445.64 13.54 o
-2 5 8 599.41 571.39 15.33 o
-1 5 8 398.01 403.52 12.88 o
0 5 8 101.97 69.46 5.59 o
1 5 8 397.34 384.13 15.56 o
2 5 8 598.11 575.77 17.59 o
3 5 8 431.34 403.52 14.73 o
4 5 8 501.55 486.49 14.82 o
5 5 8 106.56 88.98 14.12 o
6 5 8 99.76 99.35 19.18 o
7 5 8 32.93 34.90 14.24 o
8 5 8 46.99 75.96 16.75 o
9 5 8 1.38 -14.91 17.68 o
-9 6 8 27.57 16.36 8.90 o
-8 6 8 37.22 46.97 12.14 o
-7 6 8 32.44 55.71 13.68 o
-6 6 8 1.77 -3.24 4.17 o
-5 6 8 83.78 73.86 5.24 o
-4 6 8 124.88 108.36 5.41 o
-3 6 8 697.83 732.41 22.30 o
-2 6 8 318.10 305.99 10.67 o
-1 6 8 166.80 184.13 8.69 o
0 6 8 90.56 106.78 5.69 o
1 6 8 167.62 180.43 8.20 o
2 6 8 314.67 303.87 10.65 o
3 6 8 697.15 738.21 24.04 o
4 6 8 125.35 123.14 11.86 o
6 6 8 2.05 -6.03 10.21 o
7 6 8 32.61 12.12 14.86 o
8 6 8 37.70 82.48 21.06 o
9 6 8 27.25 18.13 14.70 o
-9 7 8 4.15 -6.27 8.64 o
-8 7 8 105.92 141.75 22.90 o
-7 7 8 27.60 16.73 13.23 o
-6 7 8 51.51 29.87 7.50 o
-5 7 8 63.12 63.49 5.36 o
-4 7 8 140.09 120.78 6.71 o
-3 7 8 11.19 11.91 3.68 o
-2 7 8 812.52 839.33 23.88 o
-1 7 8 118.48 103.36 5.59 o
0 7 8 7.95 6.73 3.96 o
1 7 8 120.15 91.89 6.15 o
2 7 8 809.65 835.79 24.72 o
3 7 8 11.84 25.68 6.03 o
4 7 8 139.38 126.89 14.80 o
5 7 8 62.97 87.26 13.70 o
6 7 8 49.61 34.18 14.63 o
7 7 8 27.49 64.70 18.92 o
8 7 8 104.97 100.89 19.01 o
9 7 8 4.62 -10.00 10.00 o
-8 8 8 5.26 -9.60 9.60 o
-7 8 8 157.97 227.89 31.80 o
-6 8 8 111.88 116.12 20.39 o
-5 8 8 15.68 23.28 6.78 o
-4 8 8 147.32 131.76 9.46 o
-3 8 8 84.43 61.79 5.29 o
-2 8 8 85.03 79.73 5.73 o
-1 8 8 340.74 361.14 14.49 o
0 8 8 14.30 16.73 5.99 o
1 8 8 329.50 326.63 17.66 o
2 8 8 84.56 95.74 7.76 o
3 8 8 86.64 102.73 14.54 o
4 8 8 146.71 138.86 16.19 o
6 8 8 111.51 131.06 16.08 o
7 8 8 155.60 215.61 28.68 o
8 8 8 5.17 49.30 22.09 o
-8 9 8 18.31 22.53 13.47 o
-7 9 8 19.66 14.45 9.04 o
-6 9 8 76.64 100.89 21.76 o
-5 9 8 212.83 239.56 23.63 o
-4 9 8 11.16 13.30 6.01 o
-3 9 8 95.37 70.22 6.15 o
-2 9 8 31.54 30.03 5.52 o
-1 9 8 73.12 48.65 5.75 o
0 9 8 132.89 77.31 19.59 o
1 9 8 70.74 62.28 4.82 o
2 9 8 31.05 32.41 4.68 o
3 9 8 90.17 82.20 15.77 o
4 9 8 10.48 6.97 13.07 o
6 9 8 74.42 56.62 19.52 o
7 9 8 19.62 12.12 14.86 o
8 9 8 17.31 28.22 9.09 o
-7 10 8 70.66 84.16 12.33 o
-6 10 8 40.97 49.30 8.78 o
-5 10 8 26.20 56.85 15.89 o
-4 10 8 79.08 98.44 17.57 o
-3 10 8 68.41 63.00 15.52 o
-2 10 8 150.35 128.96 11.09 o
-1 10 8 288.12 284.48 13.91 o
0 10 8 13.73 9.04 2.31 o
1 10 8 288.09 284.48 12.88 o
2 10 8 142.56 105.85 16.33 o
3 10 8 67.16 66.94 11.23 o
4 10 8 78.90 73.32 14.91 o
7 10 8 70.66 61.07 15.98 o
-7 11 8 9.99 -8.34 8.34 o
-6 11 8 20.31 20.27 8.11 o
-5 11 8 69.35 87.56 11.14 o
-4 11 8 35.75 53.01 14.45 o
-3 11 8 35.28 26.30 13.77 o
-2 11 8 407.41 398.00 34.72 o
-1 11 8 47.62 42.08 5.73 o
0 11 8 227.05 194.22 11.07 o
1 11 8 47.32 48.02 17.36 o
2 11 8 409.19 459.93 28.80 o
3 11 8 32.82 32.60 12.02 o
4 11 8 35.79 39.54 16.52 o
7 11 8 10.45 41.50 19.27 o
-6 12 8 2.70 -6.73 18.38 o
-5 12 8 110.76 92.78 24.11 o
-4 12 8 70.10 51.03 21.81 o
-3 12 8 24.77 17.24 13.93 o
-2 12 8 44.95 58.25 20.04 o
-1 12 8 224.17 257.85 26.47 o
0 12 8 121.03 153.61 19.29 o
1 12 8 221.78 290.70 30.20 o
2 12 8 44.75 48.88 12.81 o
3 12 8 25.00 19.87 12.79 o
4 12 8 70.50 98.44 21.20 o
-6 13 8 25.08 6.27 16.29 o
-5 13 8 30.20 28.38 23.25 o
-4 13 8 7.38 11.91 13.05 o
-3 13 8 21.10 -2.56 11.44 o
-2 13 8 9.17 44.08 16.61 o
-1 13 8 94.92 97.53 18.99 o
0 13 8 144.38 143.57 21.95 o
1 13 8 94.45 66.45 16.17 o
2 13 8 8.47 7.90 15.35 o
3 13 8 21.63 25.68 12.53 o
-5 14 8 1.65 6.97 16.05 o
-4 14 8 75.35 87.26 27.96 o
-3 14 8 26.63 33.99 20.48 o
-2 14 8 149.37 141.03 30.45 o
-1 14 8 55.03 78.66 21.11 o
0 14 8 16.19 5.38 13.82 o
1 14 8 55.05 67.94 17.61 o
2 14 8 148.14 126.89 20.64 o
3 14 8 26.45 53.45 22.09 o
-3 15 8 104.13 178.80 30.62 o
-2 15 8 16.42 -0.47 15.47 o
-1 15 8 16.11 17.50 21.20 o
0 15 8 39.23 55.27 18.62 o
1 15 8 16.38 33.29 23.79 o
2 15 8 16.02 12.86 19.83 o
3 15 8 104.67 133.88 22.25 o
-1 16 8 23.83 40.70 17.73 o
0 16 8 18.34 7.22 17.22 o
1 16 8 23.53 13.98 15.42 o
1 0 9 158.57 144.32 5.13 o
2 0 9 337.30 336.63 8.97 o
3 0 9 395.34 370.48 10.00 o
4 0 9 419.36 410.28 14.84 o
5 0 9 48.73 54.80 7.69 o
6 0 9 2.39 -8.41 10.27 o
7 0 9 0.05 9.04 13.96 o
8 0 9 6.78 14.68 10.30 o
9 0 9 85.28 85.00 19.71 o
10 0 9 98.95 93.66 19.20 o
-10 1 9 28.78 31.90 15.68 o
-9 1 9 44.71 31.38 15.05 o
-8 1 9 50.35 65.70 17.08 o
-7 1 9 132.62 160.11 17.38 o
-6 1 9 457.58 461.23 34.09 o
-5 1 9 155.95 141.03 18.50 o
-4 1 9 610.48 632.78 25.35 o
-3 1 9 195.49 221.04 4.54 o
-2 1 9 977.28 1036.33 22.60 o
-1 1 9 3610.15 3757.77 84.20 o
0 1 9 583.69 670.18 15.80 o
1 1 9 3613.09 3842.44 100.30 o
2 1 9 997.59 1044.20 25.65 o
3 1 9 201.19 217.87 7.67 o
4 1 9 607.75 637.40 26.98 o
5 1 9 156.28 145.78 10.32 o
6 1 9 456.77 459.93 34.69 o
7 1 9 132.19 125.19 18.78 o
8 1 9 51.94 54.59 19.18 o
9 1 9 44.76 42.47 16.71 o
10 1 9 28.88 19.99 12.84 o
-9 2 9 90.89 117.78 22.53 o
-8 2 9 54.92 56.62 14.00 o
-7 2 9 204.69 210.28 20.81 o
-6 2 9 321.72 317.85 29.94 o
-5 2 9 308.85 297.51 20.53 o
-4 2 9 222.66 225.14 7.78 o
-3 2 9 56.06 73.58 2.89 o
-2 2 9 171.54 168.34 6.34 o
-1 2 9 384.18 380.55 11.91 o
0 2 9 2929.95 3088.76 81.43 o
1 2 9 393.32 401.05 11.63 o
2 2 9 168.36 187.05 7.53 o
3 2 9 57.39 78.91 4.61 o
4 2 9 223.78 226.52 10.11 o
5 2 9 306.97 295.41 15.75 o
6 2 9 325.21 309.20 30.59 o
7 2 9 203.45 229.29 19.41 o
8 2 9 51.73 87.26 19.69 o
9 2 9 92.06 81.38 23.42 o
-9 3 9 9.00 8.85 17.26 o
-8 3 9 55.53 79.73 17.17 o
-7 3 9 153.24 177.56 21.16 o
-6 3 9 134.01 149.86 5.99 o
-5 3 9 20.08 20.27 3.31 o
-4 3 9 541.29 577.96 12.49 o
-3 3 9 328.52 351.35 8.01 o
-2 3 9 836.32 821.74 20.13 o
-1 3 9 1218.99 1270.32 41.36 o
0 3 9 0.10 0.93 3.94 o
1 3 9 1225.27 1249.75 30.22 o
2 3 9 818.41 828.75 22.86 o
3 3 9 318.68 315.68 9.23 o
4 3 9 535.96 562.65 19.55 o
5 3 9 21.70 30.36 12.28 o
6 3 9 136.20 141.75 15.63 o
7 3 9 154.59 158.57 21.13 o
8 3 9 56.67 52.12 15.42 o
9 3 9 9.43 3.94 13.44 o
-9 4 9 9.96 -4.19 13.23 o
-8 4 9 17.76 14.91 13.79 o
-7 4 9 88.34 82.76 6.38 o
-6 4 9 16.64 9.79 3.54 o
-5 4 9 45.99 33.99 4.45 o
-4 4 9 69.68 65.45 3.70 o
-3 4 9 949.04 959.18 24.58 o
-2 4 9 530.79 506.22 15.12 o
-1 4 9 439.32 417.10 11.84 o
0 4 9 57.14 86.14 7.08 o
1 4 9 429.06 402.28 15.91 o
2 4 9 517.40 516.57 15.96 o
3 4 9 936.67 959.18 24.58 o
4 4 9 72.74 61.32 4.78 o
5 4 9 47.02 39.17 11.84 o
6 4 9 15.66 6.97 9.51 o
7 4 9 88.26 86.98 17.36 o
8 4 9 17.38 25.68 11.60 o
9 4 9 9.85 14.21 13.23 o
-9 5 9 50.10 82.20 16.89 o
-8 5 9 3.90 9.04 9.09 o
-7 5 9 72.49 63.00 7.76 o
-6 5 9 157.78 143.22 10.60 o
-5 5 9 195.47 180.85 8.62 o
-4 5 9 502.65 508.97 17.92 o
-3 5 9 407.37 407.81 12.95 o
-2 5 9 510.40 500.05 15.03 o
-1 5 9 220.03 246.23 8.62 o
0 5 9 973.39 985.84 27.80 o
1 5 9 224.42 249.58 12.53 o
2 5 9 518.95 528.43 21.06 o
3 5 9 407.15 388.33 13.23 o
4 5 9 501.21 515.87 17.33 o
5 5 9 190.55 174.32 18.94 o
6 5 9 155.90 206.76 21.06 o
7 5 9 73.96 66.45 14.19 o
8 5 9 3.74 22.83 12.84 o
9 5 9 49.43 27.10 16.36 o
-9 6 9 2.79 2.82 9.39 o
-8 6 9 31.64 41.89 17.38 o
-7 6 9 43.61 25.84 15.35 o
-6 6 9 75.14 59.18 7.53 o
-5 6 9 97.57 80.29 5.48 o
-4 6 9 133.66 126.89 5.85 o
-3 6 9 45.44 47.81 4.01 o
-2 6 9 159.09 152.12 7.15 o
-1 6 9 284.74 285.51 11.86 o
0 6 9 417.38 418.36 14.98 o
1 6 9 289.12 287.58 11.39 o
2 6 9 154.56 135.28 6.38 o
3 6 9 46.41 33.11 4.92 o
4 6 9 131.91 126.21 8.22 o
6 6 9 74.55 78.66 14.07 o
7 6 9 43.08 35.62 16.03 o
8 6 9 31.16 48.02 14.17 o
9 6 9 2.60 -17.50 18.01 o
-9 7 9 1.87 18.92 9.30 o
-8 7 9 40.03 40.33 18.80 o
-7 7 9 104.85 129.66 21.20 o
-6 7 9 35.91 16.73 10.25 o
-5 7 9 56.07 58.95 4.92 o
-4 7 9 89.04 80.01 7.11 o
-3 7 9 322.44 300.68 11.11 o
-2 7 9 68.61 61.32 4.54 o
-1 7 9 723.62 685.28 23.18 o
0 7 9 103.60 102.42 7.11 o
1 7 9 715.27 652.91 24.95 o
2 7 9 66.00 64.47 6.13 o
3 7 9 323.78 305.45 15.47 o
4 7 9 87.53 90.73 13.09 o
5 7 9 53.02 22.39 15.45 o
6 7 9 33.59 27.26 14.19 o
7 7 9 106.05 152.12 22.20 o
8 7 9 39.27 22.83 13.28 o
9 7 9 2.03 4.19 13.23 o
-8 8 9 50.17 64.70 22.34 o
-7 8 9 1.08 3.47 10.90 o
-6 8 9 17.13 -2.82 16.61 o
-5 8 9 63.27 97.83 18.13 o
-4 8 9 171.48 154.75 11.39 o
-3 8 9 375.86 367.55 17.57 o
-2 8 9 422.46 411.51 15.47 o
-1 8 9 27.64 27.26 5.57 o
0 8 9 7.32 8.60 5.55 o
1 8 9 26.14 46.55 12.49 o
2 8 9 422.49 448.86 19.41 o
3 8 9 367.93 391.94 18.73 o
4 8 9 171.01 167.94 17.80 o
5 8 9 59.22 53.01 13.77 o
6 8 9 17.65 2.33 11.88 o
7 8 9 1.12 4.43 18.64 o
8 8 9 49.98 29.52 13.09 o
-8 9 9 24.21 44.69 13.07 o
-7 9 9 61.15 53.91 14.80 o
-6 9 9 46.00 63.98 19.04 o
-5 9 9 20.05 -17.99 17.99 o
-4 9 9 356.54 333.83 24.53 o
-3 9 9 119.98 97.83 7.55 o
-2 9 9 215.46 173.93 11.28 o
-1 9 9 187.34 176.75 10.55 o
0 9 9 53.03 77.03 16.87 o
1 9 9 184.20 189.14 9.65 o
2 9 9 217.61 212.93 12.47 o
3 9 9 117.33 109.32 17.24 o
4 9 9 350.38 402.28 33.06 o
6 9 9 45.55 60.14 17.52 o
7 9 9 60.07 56.85 17.96 o
8 9 9 25.73 31.90 15.35 o
-7 10 9 45.13 40.12 10.25 o
-6 10 9 62.92 86.14 20.69 o
-5 10 9 24.94 18.13 17.03 o
-4 10 9 32.24 10.46 12.84 o
-3 10 9 74.89 59.41 14.82 o
-2 10 9 14.54 18.13 6.10 o
-1 10 9 103.64 88.70 9.20 o
0 10 9 10.23 1.84 10.46 o
1 10 9 107.18 116.45 6.92 o
2 10 9 13.17 25.37 10.76 o
3 10 9 74.41 82.20 17.17 o
4 10 9 33.16 61.56 10.30 o
7 10 9 47.12 60.14 20.60 o
-7 11 9 40.15 60.14 13.96 o
-6 11 9 6.35 9.97 8.88 o
-5 11 9 81.41 93.06 23.28 o
-4 11 9 100.87 74.65 15.03 o
-3 11 9 25.14 28.70 11.44 o
-2 11 9 52.89 20.69 11.81 o
-1 11 9 155.13 165.96 9.83 o
0 11 9 11.29 12.86 1.86 o
1 11 9 153.10 183.71 21.11 o
2 11 9 52.49 46.34 16.01 o
3 11 9 23.32 2.10 9.79 o
4 11 9 100.60 126.89 19.27 o
6 11 9 6.23 2.56 14.91 o
7 11 9 40.51 27.26 19.13 o
-6 12 9 40.27 51.26 17.26 o
-5 12 9 13.44 22.53 12.02 o
-4 12 9 98.69 147.25 20.36 o
-3 12 9 68.49 69.71 14.54 o
-2 12 9 1.49 48.02 18.41 o
-1 12 9 4.55 -6.97 17.01 o
0 12 9 118.76 101.79 16.94 o
1 12 9 5.04 23.28 14.86 o
2 12 9 1.93 18.92 11.02 o
3 12 9 67.11 89.84 13.89 o
4 12 9 97.46 111.88 19.38 o
-5 13 9 8.19 43.90 24.07 o
-4 13 9 45.56 84.44 21.04 o
-3 13 9 3.63 -2.33 12.81 o
-2 13 9 35.25 44.29 13.61 o
-1 13 9 14.29 19.99 15.42 o
0 13 9 22.91 9.51 15.14 o
1 13 9 15.68 30.36 15.47 o
2 13 9 37.63 36.35 17.66 o
3 13 9 3.91 -2.10 18.41 o
4 13 9 43.81 50.37 18.20 o
-4 14 9 57.41 69.46 22.90 o
-3 14 9 20.33 22.39 19.64 o
-2 14 9 30.22 43.90 18.62 o
-1 14 9 61.36 91.31 20.13 o
0 14 9 28.37 28.87 17.06 o
1 14 9 62.22 106.78 21.46 o
2 14 9 31.62 37.65 16.50 o
3 14 9 20.16 70.22 23.53 o
-3 15 9 8.12 33.29 17.96 o
-2 15 9 73.31 113.51 27.33 o
-1 15 9 11.89 9.04 15.14 o
0 15 9 0.03 -1.16 17.54 o
1 15 9 12.28 24.16 19.50 o
2 15 9 74.74 63.49 24.09 o
3 15 9 8.32 33.83 17.75 o
0 16 9 0.62 -9.04 16.05 o
0 0 10 1019.30 1101.17 71.31 o
1 0 10 2093.29 2300.15 51.24 o
2 0 10 1849.79 1835.79 37.93 o
3 0 10 4.12 3.70 2.12 o
4 0 10 42.96 51.91 5.06 o
5 0 10 0.20 -6.97 11.86 o
6 0 10 65.09 71.25 16.24 o
7 0 10 57.33 41.50 14.17 o
8 0 10 18.26 30.36 12.12 o
9 0 10 5.85 14.45 14.73 o
-9 1 10 8.81 -5.10 12.35 o
-8 1 10 46.85 15.38 14.49 o
-7 1 10 12.17 19.87 8.57 o
-6 1 10 3.37 -9.32 9.51 o
-5 1 10 92.02 107.41 12.02 o
-4 1 10 478.70 481.78 22.11 o
-3 1 10 278.78 265.26 5.48 o
-2 1 10 1197.32 1292.18 30.73 o
-1 1 10 688.04 694.90 15.28 o
0 1 10 4603.09 5018.40 114.61 o
1 1 10 679.05 673.35 19.80 o
2 1 10 1184.71 1235.75 32.20 o
3 1 10 282.82 278.33 8.15 o
4 1 10 474.58 479.78 18.73 o
5 1 10 96.84 128.96 16.64 o
6 1 10 3.69 11.18 8.88 o
7 1 10 13.96 6.73 12.12 o
8 1 10 45.42 46.76 15.03 o
9 1 10 9.52 -9.04 12.58 o
-9 2 10 28.76 19.59 10.95 o
-8 2 10 13.03 -13.54 16.73 o
-7 2 10 0.27 -0.93 8.60 o
-6 2 10 18.66 13.54 9.76 o
-5 2 10 230.46 230.66 21.32 o
-4 2 10 58.12 58.25 3.26 o
-3 2 10 166.01 172.72 4.82 o
-2 2 10 275.14 286.56 9.30 o
-1 2 10 1202.26 1328.64 33.39 o
0 2 10 844.00 911.58 22.11 o
1 2 10 1184.68 1305.39 30.89 o
2 2 10 277.40 281.92 10.25 o
3 2 10 154.29 154.38 6.45 o
4 2 10 61.29 58.71 6.08 o
5 2 10 230.63 192.52 18.64 o
6 2 10 19.14 9.32 10.25 o
7 2 10 0.26 6.03 9.53 o
8 2 10 12.73 28.38 12.35 o
9 2 10 26.92 29.52 14.93 o
-9 3 10 13.90 11.91 15.17 o
-8 3 10 2.76 2.82 11.23 o
-7 3 10 66.93 75.44 16.17 o
-6 3 10 32.68 33.11 2.10 o
-5 3 10 67.90 75.16 5.82 o
-4 3 10 88.14 88.98 5.17 o
-3 3 10 14.85 18.41 2.10 o
-2 3 10 11.42 14.91 3.08 o
-1 3 10 1155.73 1178.48 31.43 o
0 3 10 5.63 -0.47 3.98 o
1 3 10 1181.78 1192.13 30.57 o
2 3 10 13.26 15.38 4.43 o
3 3 10 15.02 9.79 3.24 o
4 3 10 92.04 96.92 5.10 o
5 3 10 68.72 80.83 11.53 o
6 3 10 32.26 52.12 11.67 o
7 3 10 66.72 69.71 12.23 o
8 3 10 2.87 21.67 11.65 o
9 3 10 14.17 14.91 13.56 o
-9 4 10 17.16 22.39 16.03 o
-8 4 10 123.03 154.01 23.86 o
-7 4 10 8.51 24.16 10.65 o
-6 4 10 5.02 0.23 3.08 o
-5 4 10 85.97 103.03 7.43 o
-4 4 10 309.99 332.15 8.34 o
-3 4 10 139.44 131.76 4.92 o
-2 4 10 630.17 652.91 20.27 o
-1 4 10 376.13 390.12 15.68 o
0 4 10 230.01 213.84 10.27 o
1 4 10 382.57 391.33 14.49 o
2 4 10 638.50 625.89 19.08 o
3 4 10 139.43 116.45 6.92 o
4 4 10 309.34 328.29 12.72 o
5 4 10 84.08 94.25 13.63 o
6 4 10 3.55 4.64 10.44 o
7 4 10 8.81 -0.93 12.07 o
8 4 10 122.59 124.51 16.36 o
9 4 10 17.56 11.70 18.48 o
-9 5 10 26.85 -14.21 18.64 o
-8 5 10 38.76 26.30 17.54 o
-7 5 10 17.23 13.54 15.38 o
-6 5 10 37.13 41.50 6.10 o
-5 5 10 167.58 174.32 7.25 o
-4 5 10 424.14 448.23 15.52 o
-3 5 10 82.01 81.66 5.24 o
-2 5 10 320.80 327.17 12.14 o
-1 5 10 273.51 245.74 9.09 o
0 5 10 166.10 157.81 9.97 o
1 5 10 269.13 254.92 12.19 o
2 5 10 326.90 325.51 14.33 o
3 5 10 83.11 72.27 4.94 o
4 5 10 417.44 440.50 16.03 o
5 5 10 170.51 201.52 19.94 o
6 5 10 34.70 -2.10 14.91 o
7 5 10 16.41 23.72 17.68 o
8 5 10 39.58 68.45 17.68 o
9 5 10 27.66 10.67 19.73 o
-9 6 10 0.99 -8.15 18.38 o
-8 6 10 20.22 -3.47 12.28 o
-7 6 10 16.33 25.21 17.94 o
-6 6 10 78.84 71.76 16.82 o
-5 6 10 174.86 169.53 7.55 o
-4 6 10 300.10 273.28 12.12 o
-3 6 10 229.64 237.68 8.95 o
-2 6 10 287.65 290.19 9.37 o
-1 6 10 142.19 147.62 7.78 o
0 6 10 20.12 24.00 4.64 o
1 6 10 144.15 145.41 8.11 o
2 6 10 284.66 250.07 11.58 o
3 6 10 231.55 244.32 11.93 o
4 6 10 302.80 280.38 11.25 o
5 6 10 166.89 169.13 22.62 o
6 6 10 78.53 89.56 17.33 o
7 6 10 16.45 7.90 13.28 o
8 6 10 19.72 37.65 17.99 o
9 6 10 1.21 18.66 13.05 o
-8 7 10 9.92 51.91 16.50 o
-7 7 10 140.03 139.59 19.48 o
-6 7 10 54.92 94.25 19.57 o
-5 7 10 163.29 129.66 8.69 o
-4 7 10 4.91 13.30 4.24 o
-3 7 10 119.89 109.32 6.38 o
-2 7 10 306.69 296.97 12.09 o
-1 7 10 352.77 347.35 14.24 o
0 7 10 18.68 16.99 5.55 o
1 7 10 356.70 340.01 16.33 o
2 7 10 298.43 282.95 14.89 o
3 7 10 121.78 120.78 8.39 o
4 7 10 5.75 8.85 4.92 o
5 7 10 161.82 165.56 18.85 o
6 7 10 54.63 32.41 13.91 o
7 7 10 137.98 154.38 23.91 o
8 7 10 9.34 2.33 17.47 o
-8 8 10 19.82 21.95 13.72 o
-7 8 10 16.69 9.79 11.18 o
-6 8 10 151.79 145.41 24.67 o
-5 8 10 55.64 51.47 14.89 o
-4 8 10 41.89 24.00 6.13 o
-3 8 10 17.88 20.55 4.15 o
-2 8 10 129.26 121.46 7.06 o
-1 8 10 75.28 75.96 8.50 o
0 8 10 202.82 219.22 23.04 o
1 8 10 74.42 102.73 12.37 o
2 8 10 128.65 122.46 8.78 o
3 8 10 18.13 22.11 5.31 o
4 8 10 43.22 33.11 9.32 o
5 8 10 55.42 54.80 13.79 o
6 8 10 149.71 98.44 19.38 o
7 8 10 16.39 4.64 19.52 o
8 8 10 19.97 13.54 16.29 o
-8 9 10 53.48 39.54 11.32 o
-7 9 10 32.24 76.77 14.98 o
-6 9 10 78.75 50.82 19.80 o
-5 9 10 93.22 112.21 18.10 o
-4 9 10 40.51 61.56 8.85 o
-3 9 10 33.26 31.90 5.17 o
-2 9 10 326.61 285.51 17.03 o
-1 9 10 176.24 150.23 10.48 o
0 9 10 210.29 154.01 14.77 o
1 9 10 174.97 172.72 9.62 o
2 9 10 320.87 296.97 17.89 o
3 9 10 34.28 32.06 5.36 o
4 9 10 41.21 36.35 9.76 o
5 9 10 94.19 74.11 16.03 o
6 9 10 77.45 103.36 20.18 o
7 9 10 30.29 34.90 16.05 o
8 9 10 53.63 52.12 25.12 o
-7 10 10 27.60 12.33 12.53 o
-6 10 10 16.80 36.35 18.22 o
-5 10 10 123.57 154.38 20.11 o
-4 10 10 32.97 44.69 18.17 o
-3 10 10 1.28 8.85 7.46 o
-2 10 10 49.46 42.68 6.78 o
-1 10 10 127.08 125.19 9.23 o
0 10 10 0.81 -10.04 10.04 o
1 10 10 124.36 133.88 8.48 o
2 10 10 49.22 39.93 5.41 o
3 10 10 1.12 -4.19 12.37 o
4 10 10 32.76 9.04 9.55 o
6 10 10 16.97 33.46 14.49 o
7 10 10 27.68 68.94 18.76 o
-7 11 10 90.12 111.25 12.56 o
-6 11 10 9.27 7.22 14.19 o
-5 11 10 111.90 154.38 24.28 o
-4 11 10 47.84 39.17 12.42 o
-3 11 10 155.02 184.13 22.79 o
-2 11 10 18.29 17.87 12.51 o
-1 11 10 117.09 155.90 21.74 o
0 11 10 102.76 103.66 15.54 o
1 11 10 117.82 147.62 23.00 o
2 11 10 16.50 14.45 16.36 o
3 11 10 156.60 155.15 18.24 o
4 11 10 48.42 40.12 11.02 o
6 11 10 8.98 19.87 18.24 o
7 11 10 88.41 91.59 25.42 o
-6 12 10 74.76 89.56 23.39 o
-5 12 10 47.05 44.29 16.45 o
-4 12 10 8.84 22.11 13.07 o
-3 12 10 10.69 14.91 14.26 o
-2 12 10 14.25 21.39 16.94 o
-1 12 10 48.83 37.65 15.17 o
0 12 10 76.38 86.14 21.53 o
1 12 10 49.51 62.51 17.38 o
2 12 10 15.48 38.02 13.75 o
3 12 10 10.63 -1.84 11.81 o
4 12 10 8.99 33.11 19.32 o
6 12 10 73.29 82.76 19.43 o
-5 13 10 8.08 12.33 15.66 o
-4 13 10 87.26 105.85 24.81 o
-3 13 10 3.93 20.55 21.04 o
-2 13 10 38.37 22.53 15.80 o
-1 13 10 9.59 14.21 12.33 o
0 13 10 4.34 1.16 17.54 o
1 13 10 10.15 9.04 13.21 o
2 13 10 37.78 52.80 14.42 o
3 13 10 3.77 5.38 17.99 o
4 13 10 88.70 106.78 19.25 o
-4 14 10 27.30 41.68 16.17 o
-3 14 10 44.28 46.55 16.24 o
-2 14 10 20.33 29.87 16.36 o
-1 14 10 62.85 74.91 16.12 o
0 14 10 195.10 263.77 30.73 o
1 14 10 63.11 66.19 16.89 o
2 14 10 19.57 24.00 14.66 o
3 14 10 44.68 51.03 15.05 o
4 14 10 26.64 7.46 14.26 o
-3 15 10 6.72 -3.03 20.29 o
-2 15 10 26.41 19.59 22.44 o
-1 15 10 57.53 54.80 20.34 o
0 15 10 0.27 -14.47 14.47 o
1 15 10 56.12 58.95 17.33 o
2 15 10 26.83 27.56 17.47 o
3 15 10 6.51 38.21 15.66 o
1 0 11 4.70 6.50 3.03 o
2 0 11 150.75 121.11 5.03 o
3 0 11 42.52 43.29 3.22 o
4 0 11 505.95 432.85 18.43 o
5 0 11 216.41 230.66 19.01 o
6 0 11 42.47 39.54 12.09 o
7 0 11 49.09 28.22 10.21 o
8 0 11 37.11 18.41 13.23 o
9 0 11 33.56 75.16 14.28 o
-9 1 11 11.11 46.34 14.14 o
-8 1 11 103.12 95.74 18.83 o
-7 1 11 2.36 -0.23 12.98 o
-6 1 11 148.11 160.51 22.04 o
-5 1 11 137.93 118.45 15.28 o
-4 1 11 106.14 89.56 8.67 o
-3 1 11 503.50 475.77 11.32 o
-2 1 11 1093.98 1166.97 27.12 o
-1 1 11 372.75 384.72 10.18 o
0 1 11 378.35 391.33 10.27 o
1 1 11 364.49 382.34 11.35 o
2 1 11 1110.00 1140.01 29.89 o
3 1 11 493.13 439.87 12.81 o
4 1 11 109.00 123.14 7.78 o
5 1 11 144.67 100.89 13.49 o
6 1 11 147.74 148.00 15.24 o
7 1 11 2.52 -14.96 14.96 o
8 1 11 99.52 115.14 21.30 o
9 1 11 11.04 30.03 14.73 o
-9 2 11 98.71 84.44 19.36 o
-8 2 11 9.24 -0.70 15.42 o
-7 2 11 205.65 230.20 27.80 o
-6 2 11 445.65 495.30 34.65 o
-5 2 11 294.01 282.43 22.06 o
-4 2 11 272.47 287.07 11.91 o
-3 2 11 244.21 274.79 6.57 o
-2 2 11 261.57 258.83 7.85 o
-1 2 11 2079.86 2078.81 55.69 o
0 2 11 2177.48 2387.33 61.16 o
1 2 11 2112.74 2194.51 57.20 o
2 2 11 257.96 255.90 9.76 o
3 2 11 243.19 250.07 9.18 o
4 2 11 272.54 271.76 9.55 o
5 2 11 293.98 280.38 24.53 o
6 2 11 445.62 395.57 35.21 o
7 2 11 201.77 221.95 25.47 o
8 2 11 9.75 -1.65 11.93 o
9 2 11 95.95 54.36 14.86 o
-9 3 11 25.57 13.75 11.88 o
-8 3 11 28.04 64.21 14.68 o
-7 3 11 200.48 184.97 24.09 o
-6 3 11 59.33 69.20 13.72 o
-5 3 11 173.20 162.44 10.11 o
-4 3 11 0.24 -0.47 0.72 o
-3 3 11 1258.32 1347.63 25.77 o
-2 3 11 312.85 332.71 10.02 o
-1 3 11 230.81 244.78 9.06 o
0 3 11 214.14 162.44 8.18 o
1 3 11 235.71 244.32 10.97 o
2 3 11 313.76 322.76 12.07 o
3 3 11 1267.94 1302.08 33.04 o
4 3 11 0.13 2.33 3.26 o
5 3 11 176.13 181.24 18.90 o
6 3 11 61.19 42.68 10.58 o
7 3 11 201.45 157.81 23.39 o
8 3 11 26.38 55.48 16.82 o
9 3 11 24.60 40.33 19.20 o
-9 4 11 1.94 4.43 12.60 o
-8 4 11 10.41 0.47 13.12 o
-7 4 11 4.57 5.10 14.42 o
-6 4 11 208.97 238.61 14.14 o
-5 4 11 9.90 10.46 4.15 o
-4 4 11 1932.29 1978.43 50.23 o
-3 4 11 322.99 352.49 9.18 o
-2 4 11 1506.98 1556.90 32.53 o
-1 4 11 10.60 5.10 3.52 o
0 4 11 1062.68 1102.19 29.38 o
1 4 11 10.08 9.51 4.15 o
2 4 11 1533.59 1547.28 40.82 o
3 4 11 317.81 313.51 10.81 o
4 4 11 1929.15 1892.48 63.75 o
5 4 11 10.42 13.75 13.70 o
6 4 11 211.81 246.69 27.33 o
7 4 11 4.60 8.41 13.72 o
8 4 11 10.50 -6.27 11.84 o
9 4 11 1.78 -7.22 13.77 o
-9 5 11 17.76 37.09 13.77 o
-8 5 11 30.35 17.24 11.91 o
-7 5 11 13.29 8.60 11.63 o
-6 5 11 6.90 13.75 11.88 o
-5 5 11 101.38 102.73 4.03 o
-4 5 11 191.07 201.52 9.97 o
-3 5 11 975.73 952.59 28.26 o
-2 5 11 318.33 302.26 11.67 o
-1 5 11 255.07 272.76 9.58 o
0 5 11 159.22 151.35 8.27 o
1 5 11 246.78 252.00 12.12 o
2 5 11 307.46 310.81 11.30 o
3 5 11 984.30 1019.69 30.22 o
4 5 11 191.12 204.99 10.04 o
5 5 11 103.82 90.42 16.54 o
6 5 11 8.07 2.33 15.61 o
7 5 11 12.79 -14.21 16.12 o
8 5 11 29.27 3.03 17.96 o
9 5 11 16.79 38.40 16.26 o
-9 6 11 15.51 16.50 11.91 o
-8 6 11 0.57 10.27 12.81 o
-7 6 11 181.48 194.64 23.00 o
-6 6 11 1.39 13.54 15.84 o
-5 6 11 169.16 158.20 7.29 o
-4 6 11 119.52 126.89 6.52 o
-3 6 11 93.53 87.26 5.71 o
-2 6 11 12.16 2.10 4.92 o
-1 6 11 1322.13 1305.39 38.61 o
0 6 11 16.70 9.04 4.68 o
1 6 11 1313.34 1284.51 47.04 o
2 6 11 12.86 2.10 6.78 o
3 6 11 91.44 82.48 6.92 o
4 6 11 119.02 113.51 6.83 o
5 6 11 169.75 158.20 19.57 o
6 6 11 1.33 -2.56 12.37 o
7 6 11 180.26 151.72 19.18 o
8 6 11 0.58 33.99 21.18 o
9 6 11 14.80 -11.70 13.77 o
-8 7 11 0.21 -12.81 12.81 o
-7 7 11 22.54 58.71 14.49 o
-6 7 11 190.01 197.62 23.18 o
-5 7 11 100.05 78.66 8.39 o
-4 7 11 61.55 56.17 5.27 o
-3 7 11 126.95 123.81 7.13 o
-2 7 11 337.93 311.88 11.86 o
-1 7 11 86.32 102.42 7.11 o
0 7 11 555.85 517.97 25.70 o
1 7 11 88.90 60.60 10.23 o
2 7 11 338.35 345.64 18.73 o
3 7 11 122.64 129.31 7.99 o
4 7 11 59.57 57.32 5.31 o
5 7 11 98.93 82.20 16.05 o
6 7 11 188.19 185.79 25.79 o
7 7 11 22.67 17.87 16.01 o
8 7 11 0.12 13.54 19.32 o
-8 8 11 18.94 -8.60 12.79 o
-7 8 11 15.21 -16.50 17.85 o
-6 8 11 17.39 23.72 16.05 o
-5 8 11 46.45 45.53 13.79 o
-4 8 11 96.56 89.56 9.83 o
-3 8 11 128.79 114.49 7.83 o
-2 8 11 330.53 312.44 15.10 o
-1 8 11 6.66 23.72 8.32 o
0 8 11 62.03 55.71 16.64 o
1 8 11 6.94 22.83 12.98 o
2 8 11 333.56 338.31 20.22 o
3 8 11 127.15 132.46 9.13 o
4 8 11 93.24 83.60 7.81 o
6 8 11 16.66 -17.75 17.75 o
7 8 11 15.14 18.13 23.93 o
8 8 11 19.04 25.21 14.86 o
-7 9 11 25.44 19.87 15.10 o
-6 9 11 6.40 4.19 12.56 o
-5 9 11 69.80 34.90 12.63 o
-4 9 11 45.59 72.55 12.23 o
-3 9 11 157.60 158.20 11.14 o
-2 9 11 6.79 15.63 5.31 o
-1 9 11 23.21 38.21 14.54 o
0 9 11 13.90 25.68 11.44 o
1 9 11 24.50 27.73 11.42 o
2 9 11 6.05 16.36 5.20 o
3 9 11 159.63 148.37 10.79 o
4 9 11 45.82 50.61 10.41 o
5 9 11 68.01 61.32 15.05 o
6 9 11 5.84 41.29 13.93 o
7 9 11 25.22 26.14 17.01 o
-7 10 11 54.98 91.31 24.51 o
-6 10 11 78.12 93.66 18.62 o
-5 10 11 42.99 45.53 13.58 o
-4 10 11 5.94 -10.93 10.93 o
-3 10 11 0.12 12.86 11.72 o
-2 10 11 34.82 17.75 5.15 o
-1 10 11 104.01 94.83 8.92 o
0 10 11 15.53 32.41 10.09 o
1 10 11 102.98 116.12 7.90 o
2 10 11 34.10 11.18 5.10 o
3 10 11 0.09 0.93 12.53 o
4 10 11 5.93 25.21 9.04 o
5 10 11 44.54 32.60 16.03 o
6 10 11 78.97 76.49 16.82 o
7 10 11 53.11 99.05 22.79 o
-6 11 11 26.38 30.03 20.25 o
-5 11 11 32.35 21.39 14.26 o
-4 11 11 13.97 24.46 17.96 o
-3 11 11 81.74 70.74 19.78 o
-2 11 11 25.69 30.52 12.14 o
-1 11 11 12.93 65.19 18.48 o
0 11 11 245.86 269.25 31.06 o
1 11 11 12.22 28.87 14.26 o
2 11 11 26.25 41.68 16.96 o
3 11 11 81.85 55.94 13.70 o
4 11 11 13.08 -9.25 9.25 o
6 11 11 26.72 50.16 15.14 o
-6 12 11 72.02 100.26 26.91 o
-5 12 11 3.63 41.10 21.71 o
-4 12 11 101.31 122.13 21.60 o
-3 12 11 26.31 33.99 14.07 o
-2 12 11 79.25 146.88 22.58 o
-1 12 11 3.27 3.70 10.93 o
0 12 11 2.29 1.84 17.64 o
1 12 11 3.22 -7.22 14.45 o
2 12 11 78.95 103.36 17.68 o
3 12 11 25.43 34.72 14.40 o
4 12 11 100.23 153.24 21.55 o
6 12 11 70.59 108.36 21.30 o
-5 13 11 55.77 40.12 18.38 o
-4 13 11 1.04 31.38 21.20 o
-3 13 11 38.01 78.38 17.85 o
-2 13 11 8.59 -0.70 11.46 o
-1 13 11 49.51 94.25 19.85 o
0 13 11 62.15 51.26 20.76 o
1 13 11 50.62 68.69 17.96 o
2 13 11 8.20 13.75 11.88 o
3 13 11 39.26 25.68 15.63 o
4 13 11 1.04 22.53 13.33 o
-4 14 11 13.39 33.11 21.44 o
-3 14 11 6.22 -5.59 15.38 o
-2 14 11 9.77 27.56 21.97 o
-1 14 11 50.94 101.19 23.65 o
0 14 11 40.58 56.17 20.60 o
1 14 11 51.55 58.71 20.11 o
2 14 11 9.98 32.76 20.81 o
3 14 11 6.53 10.67 17.24 o
4 14 11 13.25 15.38 15.80 o
-2 15 11 0.66 -3.94 16.47 o
-1 15 11 7.85 31.03 22.62 o
0 15 11 25.34 2.82 24.35 o
1 15 11 8.19 32.06 14.35 o
2 15 11 0.76 -12.12 15.61 o
0 0 12 56.63 33.46 5.29 o
1 0 12 288.53 295.41 8.39 o
2 0 12 5.14 9.79 2.59 o
3 0 12 274.80 260.81 8.88 o
4 0 12 12.61 2.82 11.02 o
5 0 12 51.66 39.35 13.61 o
6 0 12 807.30 802.59 57.95 o
7 0 12 226.45 180.43 25.42 o
8 0 12 0.02 17.75 12.35 o
9 0 12 99.35 94.55 21.09 o
-9 1 12 4.30 -19.85 19.85 o
-8 1 12 154.14 158.57 26.54 o
-7 1 12 143.72 97.53 20.81 o
-6 1 12 149.44 131.76 19.62 o
-5 1 12 542.68 531.95 35.21 o
-4 1 12 422.69 425.89 28.36 o
-3 1 12 97.00 102.73 4.33 o
-2 1 12 486.41 491.22 12.19 o
-1 1 12 551.85 554.01 15.10 o
0 1 12 108.05 95.74 6.57 o
1 1 12 562.84 548.28 15.00 o
2 1 12 484.13 492.57 15.59 o
3 1 12 89.96 98.44 5.45 o
4 1 12 432.14 442.43 14.12 o
5 1 12 546.18 604.69 35.28 o
6 1 12 153.47 132.46 16.87 o
7 1 12 144.46 143.57 19.76 o
8 1 12 156.14 171.93 24.42 o
9 1 12 3.85 -11.37 12.98 o
-9 2 12 16.49 25.37 23.07 o
-8 2 12 74.92 80.29 18.59 o
-7 2 12 133.17 124.16 24.49 o
-6 2 12 87.97 101.49 13.23 o
-5 2 12 528.37 505.52 33.64 o
-4 2 12 144.66 141.38 6.90 o
-3 2 12 235.31 240.98 6.64 o
-2 2 12 404.00 393.15 12.12 o
-1 2 12 92.45 96.32 5.69 o
0 2 12 0.06 -2.10 3.98 o
1 2 12 93.02 103.36 6.52 o
2 2 12 396.09 381.13 11.93 o
3 2 12 243.52 231.59 8.36 o
4 2 12 148.82 135.28 8.53 o
5 2 12 532.55 532.64 34.53 o
6 2 12 88.28 126.21 19.20 o
7 2 12 133.34 139.94 20.60 o
8 2 12 73.93 119.46 23.70 o
9 2 12 16.53 22.39 20.81 o
-9 3 12 17.40 18.13 21.46 o
-8 3 12 15.47 19.99 16.94 o
-7 3 12 38.12 36.53 12.72 o
-6 3 12 14.01 -9.37 9.37 o
-5 3 12 191.05 177.98 10.18 o
-4 3 12 641.94 642.03 13.93 o
-3 3 12 56.16 64.21 3.19 o
-2 3 12 80.61 85.83 4.52 o
-1 3 12 815.25 803.45 20.76 o
0 3 12 353.57 377.56 11.86 o
1 3 12 818.47 808.67 21.69 o
2 3 12 83.55 93.06 6.17 o
3 3 12 61.26 62.77 4.59 o
4 3 12 642.67 626.66 25.21 o
5 3 12 190.84 168.73 17.06 o
6 3 12 13.08 -7.22 15.59 o
7 3 12 39.39 43.08 12.02 o
8 3 12 17.03 -4.89 12.84 o
9 3 12 18.06 4.43 13.05 o
-9 4 12 2.77 11.37 18.85 o
-8 4 12 15.19 20.69 16.10 o
-7 4 12 33.57 27.73 12.53 o
-6 4 12 115.60 133.50 13.40 o
-5 4 12 211.22 201.07 10.81 o
-4 4 12 107.56 96.32 4.80 o
-3 4 12 613.32 642.03 16.24 o
-2 4 12 431.68 461.91 13.12 o
-1 4 12 215.11 197.62 8.15 o
0 4 12 2304.66 2370.95 63.91 o
1 4 12 211.65 203.68 8.71 o
2 4 12 436.60 414.00 14.28 o
3 4 12 618.14 670.18 21.34 o
4 4 12 105.57 122.46 7.08 o
5 4 12 205.35 171.53 19.20 o
6 4 12 117.39 143.57 18.29 o
7 4 12 31.32 37.47 15.52 o
8 4 12 15.18 37.47 18.31 o
9 4 12 3.12 29.52 19.08 o
-9 5 12 19.16 24.91 20.57 o
-8 5 12 15.98 38.98 12.77 o
-7 5 12 7.40 1.84 17.64 o
-6 5 12 41.35 37.47 12.88 o
-5 5 12 120.71 120.11 4.36 o
-4 5 12 210.14 206.31 7.90 o
-3 5 12 73.89 65.45 4.45 o
-2 5 12 9.60 2.33 3.26 o
-1 5 12 283.88 293.83 11.51 o
0 5 12 28.97 30.03 6.36 o
1 5 12 294.28 279.36 10.21 o
2 5 12 11.24 9.79 7.92 o
3 5 12 72.37 64.96 5.17 o
4 5 12 203.28 178.38 10.60 o
5 5 12 120.81 157.04 22.58 o
6 5 12 39.95 19.99 14.61 o
7 5 12 8.04 26.61 12.28 o
8 5 12 15.39 7.22 13.05 o
9 5 12 19.09 -18.66 20.04 o
-8 6 12 4.25 19.32 15.84 o
-7 6 12 6.18 4.89 11.42 o
-6 6 12 2.04 0.70 9.81 o
-5 6 12 239.23 227.89 8.29 o
-4 6 12 104.31 99.35 5.48 o
-3 6 12 844.34 848.21 27.56 o
-2 6 12 567.71 546.83 20.71 o
-1 6 12 306.61 299.09 12.67 o
0 6 12 652.38 662.30 22.79 o
1 6 12 304.49 283.97 16.99 o
2 6 12 560.79 564.10 22.48 o
3 6 12 831.83 760.77 28.63 o
4 6 12 109.78 107.74 10.14 o
5 6 12 241.19 223.77 17.36 o
6 6 12 2.00 10.27 12.14 o
7 6 12 6.12 -13.91 13.91 o
8 6 12 4.29 -14.21 15.19 o
-8 7 12 57.09 68.94 20.04 o
-7 7 12 3.15 3.03 15.35 o
-6 7 12 12.82 -12.65 12.65 o
-5 7 12 6.80 10.67 12.07 o
-4 7 12 198.86 193.78 9.79 o
-3 7 12 10.23 22.11 4.59 o
-2 7 12 976.87 929.17 34.44 o
-1 7 12 352.91 297.51 18.97 o
0 7 12 31.81 39.93 8.11 o
1 7 12 346.41 314.59 21.67 o
2 7 12 971.97 1000.28 60.83 o
3 7 12 8.56 10.46 4.45 o
4 7 12 197.20 174.74 11.30 o
5 7 12 7.01 7.71 7.20 o
6 7 12 12.54 14.68 12.86 o
7 7 12 3.69 19.87 13.75 o
8 7 12 56.77 40.12 22.62 o
-8 8 12 16.21 -10.67 21.34 o
-7 8 12 116.87 99.35 21.60 o
-6 8 12 17.60 -1.65 19.41 o
-5 8 12 24.68 4.89 16.57 o
-4 8 12 69.18 56.85 7.36 o
-3 8 12 127.11 100.56 9.48 o
-2 8 12 269.40 237.68 11.30 o
-1 8 12 497.88 402.89 29.40 o
0 8 12 138.78 180.43 18.03 o
1 8 12 492.36 439.87 28.82 o
2 8 12 268.08 258.34 12.77 o
3 8 12 128.29 110.93 8.99 o
4 8 12 68.00 58.25 6.76 o
5 8 12 25.29 29.36 10.09 o
6 8 12 16.75 30.52 17.54 o
7 8 12 116.71 87.56 23.42 o
8 8 12 17.13 15.63 20.99 o
-7 9 12 28.01 38.58 20.29 o
-6 9 12 8.61 1.37 20.15 o
-5 9 12 211.97 244.32 25.77 o
-4 9 12 13.62 3.70 10.93 o
-3 9 12 42.55 39.17 11.65 o
-2 9 12 156.15 147.62 12.23 o
-1 9 12 277.05 276.82 25.40 o
0 9 12 301.53 272.27 25.70 o
1 9 12 273.99 206.76 19.76 o
2 9 12 157.29 135.28 10.65 o
3 9 12 39.48 19.99 6.29 o
4 9 12 14.95 7.46 10.25 o
5 9 12 209.55 252.49 17.94 o
6 9 12 7.91 4.19 13.75 o
7 9 12 29.04 40.52 17.87 o
-7 10 12 1.38 6.50 21.88 o
-6 10 12 17.82 14.21 13.47 o
-5 10 12 6.59 36.16 19.83 o
-4 10 12 171.84 178.80 25.30 o
-3 10 12 67.92 77.03 16.87 o
-2 10 12 52.27 24.00 7.48 o
-1 10 12 4.81 9.51 7.43 o
0 10 12 53.97 81.66 11.86 o
1 10 12 5.01 -2.33 5.13 o
2 10 12 48.67 39.17 13.37 o
3 10 12 69.85 73.07 17.22 o
4 10 12 173.36 170.71 21.53 o
5 10 12 7.53 9.97 7.90 o
6 10 12 18.55 23.72 16.36 o
7 10 12 1.35 -9.04 17.45 o
-6 11 12 13.60 28.70 20.27 o
-5 11 12 41.12 35.25 16.50 o
-4 11 12 39.00 45.92 34.76 o
-3 11 12 7.85 -14.96 14.96 o
-2 11 12 47.30 99.05 20.67 o
-1 11 12 9.76 -4.64 11.84 o
0 11 12 1.01 9.79 16.33 o
1 11 12 10.13 -6.03 10.95 o
2 11 12 47.05 39.54 16.31 o
3 11 12 7.16 3.70 11.16 o
4 11 12 39.88 59.18 16.68 o
5 11 12 42.49 56.62 16.54 o
6 11 12 13.19 10.46 16.50 o
-6 12 12 19.47 10.46 26.07 o
-5 12 12 43.42 37.65 16.29 o
-4 12 12 25.37 63.00 22.79 o
-3 12 12 17.27 6.73 16.96 o
-2 12 12 24.68 58.25 15.84 o
-1 12 12 9.00 16.36 12.84 o
0 12 12 38.10 66.68 16.71 o
1 12 12 8.78 36.53 14.96 o
2 12 12 25.45 13.54 16.52 o
3 12 12 17.54 26.30 19.27 o
4 12 12 24.95 25.68 14.24 o
6 12 12 19.54 40.33 18.03 o
-5 13 12 18.92 19.59 17.43 o
-4 13 12 3.30 29.36 14.89 o
-3 13 12 5.91 6.97 13.07 o
-2 13 12 17.79 51.68 22.39 o
-1 13 12 84.83 146.88 23.67 o
0 13 12 0.17 -7.46 12.84 o
1 13 12 85.86 70.99 18.52 o
2 13 12 17.30 23.11 12.33 o
3 13 12 5.32 23.56 11.86 o
4 13 12 3.41 19.99 15.84 o
-3 14 12 20.29 -11.37 26.77 o
-2 14 12 81.86 58.25 15.84 o
-1 14 12 57.76 32.76 16.59 o
0 14 12 74.15 46.76 18.99 o
1 14 12 56.77 37.47 15.52 o
2 14 12 79.84 70.74 16.94 o
3 14 12 19.74 25.84 19.85 o
-2 15 12 22.04 17.24 19.52 o
-1 15 12 3.61 3.47 15.80 o
0 15 12 32.47 15.14 18.41 o
1 15 12 3.53 -23.11 23.11 o
2 15 12 21.30 -23.46 23.46 o
1 0 13 88.59 93.36 5.31 o
2 0 13 109.43 125.86 4.80 o
3 0 13 481.37 481.13 15.40 o
4 0 13 30.84 25.37 11.70 o
5 0 13 104.45 74.65 12.40 o
6 0 13 203.42 168.73 21.41 o
7 0 13 297.40 267.24 28.94 o
8 0 13 19.50 -3.24 18.36 o
9 0 13 85.48 74.37 18.97 o
-9 1 13 26.65 59.88 22.44 o
-8 1 13 1.09 0.70 18.01 o
-7 1 13 83.89 107.41 18.03 o
-6 1 13 387.79 434.11 35.62 o
-5 1 13 87.87 115.14 17.03 o
-4 1 13 275.06 258.83 18.66 o
-3 1 13 38.50 25.21 3.08 o
-2 1 13 353.70 346.79 9.67 o
-1 1 13 856.09 858.02 21.46 o
0 1 13 56.41 44.90 6.55 o
1 1 13 857.52 872.37 25.26 o
2 1 13 363.72 356.53 12.12 o
3 1 13 37.95 21.67 3.98 o
4 1 13 278.17 259.32 11.30 o
5 1 13 84.03 78.10 18.08 o
6 1 13 390.36 388.33 30.08 o
7 1 13 83.23 85.28 18.31 o
8 1 13 1.27 -17.43 17.43 o
9 1 13 26.75 63.72 18.03 o
-9 2 13 10.10 23.56 22.37 o
-8 2 13 183.67 233.92 24.28 o
-7 2 13 65.86 75.16 16.68 o
-6 2 13 45.67 55.94 14.17 o
-5 2 13 254.38 288.10 24.88 o
-4 2 13 304.13 320.57 17.50 o
-3 2 13 116.78 120.78 4.36 o
-2 2 13 88.84 85.00 5.64 o
-1 2 13 28.81 16.36 3.45 o
0 2 13 628.48 640.50 17.01 o
1 2 13 28.82 34.90 5.06 o
2 2 13 87.27 64.96 5.66 o
3 2 13 116.71 122.46 7.08 o
4 2 13 300.32 294.36 13.09 o
5 2 13 255.25 229.29 21.27 o
6 2 13 40.44 36.35 14.73 o
7 2 13 66.08 89.56 17.92 o
8 2 13 180.51 163.61 23.04 o
9 2 13 10.02 2.56 19.57 o
-9 3 13 7.85 9.79 17.96 o
-8 3 13 20.51 27.73 19.13 o
-7 3 13 180.18 166.36 22.04 o
-6 3 13 67.30 74.11 12.88 o
-5 3 13 32.05 28.87 3.45 o
-4 3 13 384.25 388.33 9.02 o
-3 3 13 7.81 12.53 2.59 o
-2 3 13 1452.03 1427.22 36.91 o
-1 3 13 249.51 231.59 9.30 o
0 3 13 0.20 -4.19 4.19 o
1 3 13 250.37 220.57 9.97 o
2 3 13 1463.01 1378.06 39.66 o
3 3 13 7.50 6.27 4.66 o
4 3 13 379.49 326.07 18.73 o
5 3 13 29.46 14.91 12.37 o
6 3 13 64.63 86.14 18.99 o
7 3 13 177.37 175.54 22.25 o
8 3 13 21.08 0.47 18.29 o
9 3 13 7.81 6.97 13.96 o
-9 4 13 31.80 9.79 14.91 o
-8 4 13 9.00 16.73 17.73 o
-7 4 13 107.87 86.42 16.75 o
-6 4 13 26.00 44.69 11.02 o
-5 4 13 28.11 22.11 4.45 o
-4 4 13 27.40 26.30 2.35 o
-3 4 13 1560.18 1589.59 36.51 o
-2 4 13 40.65 33.46 3.70 o
-1 4 13 611.48 635.86 18.48 o
0 4 13 130.29 112.21 7.76 o
1 4 13 601.32 609.21 20.34 o
2 4 13 39.76 27.10 5.57 o
3 4 13 1546.56 1523.35 47.67 o
4 4 13 28.04 24.46 5.89 o
5 4 13 24.48 10.97 12.14 o
6 4 13 25.93 22.83 12.40 o
7 4 13 107.69 80.55 19.18 o
8 4 13 9.10 6.73 12.60 o
9 4 13 32.02 20.55 15.21 o
-8 5 13 0.59 -12.12 20.50 o
-7 5 13 118.59 155.52 22.46 o
-6 5 13 38.05 27.56 16.99 o
-5 5 13 186.23 191.66 13.96 o
-4 5 13 144.25 148.00 5.20 o
-3 5 13 1013.12 985.84 29.71 o
-2 5 13 1061.96 1030.43 27.45 o
-1 5 13 579.47 591.99 16.33 o
0 5 13 91.29 93.36 7.36 o
1 5 13 582.93 601.68 18.71 o
2 5 13 1050.20 1050.12 33.64 o
3 5 13 1005.17 929.17 28.84 o
4 5 13 136.92 127.59 14.82 o
5 5 13 191.10 184.13 12.84 o
6 5 13 38.55 27.89 11.44 o
7 5 13 122.90 107.41 23.42 o
8 5 13 0.74 13.98 13.93 o
-8 6 13 27.92 55.94 21.02 o
-7 6 13 4.39 19.06 16.80 o
-6 6 13 112.79 92.78 14.40 o
-5 6 13 8.36 11.70 3.54 o
-4 6 13 273.53 263.28 9.90 o
-3 6 13 21.98 18.41 4.45 o
-2 6 13 333.07 315.68 13.02 o
-1 6 13 707.02 668.60 22.90 o
0 6 13 1679.39 1634.95 53.08 o
1 6 13 704.54 675.72 26.19 o
2 6 13 326.87 308.13 16.08 o
3 6 13 21.99 27.73 5.62 o
4 6 13 277.49 267.24 20.46 o
5 6 13 8.65 18.41 6.94 o
6 6 13 118.22 130.36 21.62 o
7 6 13 4.59 14.45 12.77 o
8 6 13 27.69 12.33 14.68 o
-8 7 13 38.73 42.87 24.39 o
-7 7 13 42.16 55.27 20.20 o
-6 7 13 5.56 29.36 12.74 o
-5 7 13 77.33 59.65 7.78 o
-4 7 13 84.31 84.16 6.71 o
-3 7 13 59.68 50.37 6.71 o
-2 7 13 13.01 15.14 4.64 o
-1 7 13 941.19 992.57 37.51 o
0 7 13 1.56 4.43 9.06 o
1 7 13 933.34 962.03 56.80 o
2 7 13 10.94 22.53 11.88 o
3 7 13 59.99 48.02 6.55 o
4 7 13 84.90 109.65 9.27 o
5 7 13 80.90 64.21 9.53 o
6 7 13 5.22 28.70 13.58 o
7 7 13 40.67 91.89 17.57 o
8 7 13 39.09 22.39 14.45 o
-8 8 13 43.74 63.98 19.52 o
-7 8 13 13.50 -8.41 13.09 o
-6 8 13 26.34 40.12 14.89 o
-5 8 13 92.47 105.85 16.33 o
-4 8 13 57.04 88.98 19.01 o
-3 8 13 69.16 55.48 7.97 o
-2 8 13 133.39 120.78 11.74 o
-1 8 13 6.22 4.64 8.34 o
0 8 13 519.19 553.29 34.46 o
1 8 13 5.17 -8.13 8.13 o
2 8 13 132.66 106.15 9.11 o
3 8 13 71.66 59.65 5.89 o
4 8 13 57.76 41.50 7.88 o
5 8 13 88.37 74.65 10.02 o
6 8 13 26.49 11.37 17.92 o
7 8 13 13.47 75.96 21.02 o
8 8 13 43.11 44.50 22.81 o
-7 9 13 104.77 90.42 22.06 o
-6 9 13 57.19 45.92 14.89 o
-5 9 13 55.84 69.97 19.15 o
-4 9 13 128.04 110.28 20.83 o
-3 9 13 138.97 115.80 18.41 o
-2 9 13 38.82 49.72 17.87 o
-1 9 13 56.04 51.03 18.10 o
0 9 13 85.87 99.05 20.06 o
1 9 13 56.75 70.74 16.43 o
2 9 13 39.47 20.97 4.89 o
3 9 13 138.70 95.43 8.64 o
4 9 13 123.76 113.19 12.02 o
5 9 13 54.89 46.97 11.09 o
6 9 13 56.64 40.70 17.92 o
7 9 13 102.27 111.58 23.86 o
-7 10 13 15.01 -0.23 17.45 o
-6 10 13 171.76 190.40 30.76 o
-5 10 13 17.56 5.38 12.40 o
-4 10 13 54.98 76.49 21.62 o
-3 10 13 36.78 -16.36 17.03 o
-2 10 13 64.33 85.28 15.21 o
-1 10 13 88.68 76.77 9.37 o
0 10 13 101.87 107.74 15.21 o
1 10 13 87.79 70.48 16.40 o
2 10 13 66.79 59.65 13.91 o
3 10 13 36.86 76.24 15.73 o
4 10 13 54.13 49.09 10.04 o
5 10 13 18.09 10.46 7.71 o
6 10 13 168.08 118.10 24.88 o
7 10 13 15.60 -16.61 16.61 o
-6 11 13 0.36 -2.56 21.23 o
-5 11 13 2.24 27.10 19.87 o
-4 11 13 145.05 145.04 20.60 o
-3 11 13 104.95 114.49 20.25 o
-2 11 13 34.46 11.70 16.08 o
-1 11 13 61.35 38.02 16.38 o
0 11 13 38.18 44.69 16.94 o
1 11 13 60.82 59.18 13.63 o
2 11 13 36.71 29.36 12.07 o
3 11 13 105.04 101.19 15.66 o
4 11 13 146.78 110.93 19.29 o
5 11 13 2.06 3.70 11.63 o
6 11 13 0.52 16.12 19.13 o
-5 12 13 26.73 3.47 16.71 o
-4 12 13 18.92 8.41 13.98 o
-3 12 13 29.75 29.52 15.59 o
-2 12 13 12.18 14.21 19.11 o
-1 12 13 12.57 36.53 20.11 o
0 12 13 7.26 13.30 14.03 o
1 12 13 13.58 4.43 11.65 o
2 12 13 12.10 32.76 17.64 o
3 12 13 29.78 44.08 13.37 o
4 12 13 18.81 14.91 17.45 o
5 12 13 26.09 40.52 17.68 o
-4 13 13 45.74 141.03 32.99 o
-3 13 13 3.32 28.70 21.76 o
-2 13 13 53.75 28.70 18.64 o
-1 13 13 52.24 42.68 12.77 o
0 13 13 6.49 3.03 14.93 o
1 13 13 50.34 74.37 19.76 o
2 13 13 56.05 74.91 21.67 o
3 13 13 3.01 8.85 13.54 o
4 13 13 44.44 97.53 22.32 o
-3 14 13 10.46 40.52 19.04 o
-2 14 13 7.01 11.18 16.54 o
-1 14 13 6.33 25.21 17.01 o
0 14 13 45.06 63.00 14.77 o
1 14 13 6.33 18.66 15.42 o
2 14 13 7.25 -13.47 13.47 o
3 14 13 10.38 -15.10 15.10 o
0 15 13 9.29 19.59 21.90 o
0 0 14 319.95 303.87 14.38 o
1 0 14 697.64 773.47 20.39 o
2 0 14 98.41 101.49 4.92 o
3 0 14 168.90 178.80 8.97 o
4 0 14 21.33 26.61 14.66 o
5 0 14 2.37 11.91 15.91 o
6 0 14 54.77 55.48 13.86 o
7 0 14 77.62 91.89 19.62 o
8 0 14 23.05 3.24 14.19 o
9 0 14 0.19 -4.64 16.75 o
-9 1 14 2.32 -6.97 13.70 o
-8 1 14 16.99 -5.10 17.66 o
-7 1 14 7.36 2.33 12.35 o
-6 1 14 25.43 9.79 13.28 o
-5 1 14 290.27 292.27 24.53 o
-4 1 14 564.45 554.71 33.78 o
-3 1 14 443.40 475.77 13.98 o
-2 1 14 241.16 237.68 7.53 o
-1 1 14 523.64 504.85 14.40 o
0 1 14 239.58 282.43 11.79 o
1 1 14 528.40 502.80 15.75 o
2 1 14 234.39 226.52 10.11 o
3 1 14 456.38 473.79 20.60 o
4 1 14 557.19 537.61 21.23 o
5 1 14 287.89 262.28 25.70 o
6 1 14 27.95 18.92 13.02 o
7 1 14 8.04 10.46 10.97 o
8 1 14 15.84 18.41 12.84 o
9 1 14 2.36 3.94 20.22 o
-9 2 14 74.45 93.06 22.97 o
-8 2 14 7.90 26.30 18.78 o
-7 2 14 89.39 100.89 19.62 o
-6 2 14 18.62 75.70 16.73 o
-5 2 14 383.40 422.11 30.10 o
-4 2 14 389.06 400.44 19.55 o
-3 2 14 297.96 284.48 11.84 o
-2 2 14 435.35 408.44 14.19 o
-1 2 14 245.55 248.14 9.13 o
0 2 14 240.53 219.67 9.51 o
1 2 14 246.89 275.30 10.65 o
2 2 14 448.76 412.77 15.52 o
3 2 14 290.17 278.33 12.74 o
4 2 14 381.60 387.72 22.83 o
5 2 14 379.54 335.51 26.28 o
6 2 14 18.66 31.73 11.35 o
7 2 14 89.44 126.89 18.22 o
8 2 14 7.32 -4.19 17.47 o
9 2 14 74.72 87.26 19.69 o
-9 3 14 50.57 15.63 13.28 o
-8 3 14 57.43 77.03 21.44 o
-7 3 14 7.65 35.44 15.45 o
-6 3 14 248.03 231.13 23.21 o
-5 3 14 8.72 10.46 3.05 o
-4 3 14 387.18 387.72 11.42 o
-3 3 14 190.57 181.66 6.17 o
-2 3 14 535.31 533.37 18.34 o
-1 3 14 108.11 117.13 7.27 o
0 3 14 2441.37 2445.86 64.91 o
1 3 14 107.64 113.84 6.85 o
2 3 14 536.73 536.19 24.04 o
3 3 14 185.44 175.54 9.72 o
4 3 14 387.38 374.61 21.27 o
5 3 14 9.54 27.10 13.35 o
6 3 14 249.56 265.26 26.84 o
7 3 14 7.85 16.12 18.64 o
8 3 14 58.82 43.48 16.10 o
9 3 14 50.71 6.97 13.47 o
-8 4 14 13.56 7.71 20.53 o
-7 4 14 129.11 128.29 21.09 o
-6 4 14 36.55 55.48 13.86 o
-5 4 14 204.98 178.38 14.26 o
-4 4 14 35.53 36.72 2.59 o
-3 4 14 479.27 469.81 13.23 o
-2 4 14 86.82 74.37 5.01 o
-1 4 14 3551.67 3602.20 98.95 o
0 4 14 683.67 711.09 21.97 o
1 4 14 3576.89 3672.17 109.16 o
2 4 14 89.62 63.49 6.57 o
3 4 14 475.44 456.01 15.00 o
4 4 14 34.87 26.77 6.31 o
5 4 14 201.27 218.31 17.15 o
6 4 14 34.67 53.01 18.45 o
7 4 14 130.84 154.75 22.41 o
8 4 14 14.58 -6.50 19.99 o
-8 5 14 1.15 -11.18 12.56 o
-7 5 14 0.29 -12.77 12.77 o
-6 5 14 40.01 55.94 14.17 o
-5 5 14 12.23 19.59 12.84 o
-4 5 14 83.59 83.04 4.17 o
-3 5 14 322.91 350.77 10.30 o
-2 5 14 402.03 442.43 12.84 o
-1 5 14 183.63 183.71 9.11 o
0 5 14 1353.64 1326.43 37.79 o
1 5 14 183.14 202.38 12.16 o
2 5 14 403.36 416.50 16.82 o
3 5 14 334.00 314.05 13.51 o
4 5 14 81.65 80.29 6.83 o
5 5 14 11.12 14.21 6.10 o
6 5 14 37.73 27.10 16.05 o
7 5 14 0.27 -11.37 14.21 o
8 5 14 0.98 -14.91 20.76 o
-8 6 14 4.75 -10.97 14.26 o
-7 6 14 21.12 12.53 11.35 o
-6 6 14 83.60 104.59 20.29 o
-5 6 14 19.71 11.91 3.47 o
-4 6 14 608.22 600.93 26.19 o
-3 6 14 35.07 39.93 4.43 o
-2 6 14 1038.94 1026.52 28.36 o
-1 6 14 617.21 567.73 16.73 o
0 6 14 59.94 54.59 9.69 o
1 6 14 610.41 570.65 24.07 o
2 6 14 1048.07 1101.19 42.54 o
3 6 14 32.57 19.06 6.27 o
4 6 14 608.76 621.32 31.20 o
5 6 14 18.07 3.70 6.99 o
6 6 14 84.36 84.72 18.27 o
7 6 14 21.06 23.28 14.73 o
8 6 14 4.69 58.25 21.20 o
-8 7 14 0.43 12.53 17.19 o
-7 7 14 42.55 49.30 13.07 o
-6 7 14 77.59 77.31 20.67 o
-5 7 14 43.17 42.08 5.55 o
-4 7 14 117.07 121.79 8.08 o
-3 7 14 579.90 569.92 32.81 o
-2 7 14 291.10 252.98 16.99 o
-1 7 14 532.93 499.37 26.61 o
0 7 14 314.20 296.46 21.55 o
1 7 14 529.13 504.15 30.85 o
2 7 14 287.08 287.07 17.59 o
3 7 14 583.29 562.65 22.44 o
4 7 14 116.63 119.46 11.02 o
5 7 14 43.86 47.60 8.43 o
6 7 14 78.55 82.20 19.64 o
7 7 14 42.42 66.68 19.69 o
8 7 14 0.26 3.70 15.10 o
-7 8 14 20.35 24.46 15.54 o
-6 8 14 28.97 60.37 19.45 o
-5 8 14 62.73 64.70 17.92 o
-4 8 14 46.99 42.08 14.66 o
-3 8 14 55.27 46.55 8.55 o
-2 8 14 119.98 121.46 14.80 o
-1 8 14 73.20 75.16 12.70 o
0 8 14 24.42 22.11 14.49 o
1 8 14 80.66 84.16 12.60 o
2 8 14 122.26 103.36 8.39 o
3 8 14 54.08 41.68 5.92 o
4 8 14 46.95 40.70 7.20 o
5 8 14 64.30 87.26 10.55 o
6 8 14 30.56 3.70 20.67 o
7 8 14 20.94 15.87 21.41 o
-7 9 14 2.99 6.97 17.01 o
-6 9 14 29.90 39.93 20.46 o
-5 9 14 73.03 93.06 21.20 o
-4 9 14 30.23 48.65 16.82 o
-3 9 14 91.81 81.10 15.94 o
-2 9 14 131.99 122.13 17.19 o
-1 9 14 70.43 55.48 12.95 o
0 9 14 2.65 4.64 9.72 o
1 9 14 73.00 69.97 14.82 o
2 9 14 135.31 125.86 9.60 o
3 9 14 95.10 113.19 12.35 o
4 9 14 31.61 37.65 9.55 o
5 9 14 72.47 73.86 9.44 o
6 9 14 29.09 27.26 14.03 o
7 9 14 3.29 42.68 21.13 o
-6 10 14 36.53 72.02 17.87 o
-5 10 14 1.64 -11.86 11.86 o
-4 10 14 131.42 119.46 23.02 o
-3 10 14 11.52 -1.37 13.42 o
-2 10 14 67.22 57.55 20.39 o
-1 10 14 31.79 52.35 12.81 o
0 10 14 9.44 42.68 17.15 o
1 10 14 31.90 28.22 11.18 o
2 10 14 71.15 71.25 18.03 o
3 10 14 12.19 30.36 11.60 o
4 10 14 131.61 127.24 16.87 o
5 10 14 1.96 11.91 11.70 o
6 10 14 35.90 55.48 16.82 o
-6 11 14 20.04 51.03 19.41 o
-5 11 14 66.37 65.94 16.87 o
-4 11 14 14.35 3.03 16.10 o
-3 11 14 69.39 45.92 14.89 o
-2 11 14 23.54 36.35 14.91 o
0 11 14 45.38 38.02 13.56 o
1 11 14 14.05 29.52 10.95 o
2 11 14 22.78 16.73 10.48 o
3 11 14 71.82 80.01 18.57 o
4 11 14 14.69 23.56 12.16 o
5 11 14 65.79 81.92 16.59 o
6 11 14 19.79 6.50 17.19 o
-5 12 14 39.87 35.62 18.59 o
-4 12 14 32.75 36.53 18.83 o
-3 12 14 1.90 -11.18 19.08 o
-2 12 14 3.39 31.90 15.17 o
-1 12 14 30.64 21.25 13.51 o
0 12 14 0.48 4.89 22.16 o
1 12 14 32.25 64.70 20.39 o
2 12 14 3.43 -10.44 10.44 o
3 12 14 1.75 30.71 12.51 o
4 12 14 32.36 26.77 14.38 o
5 12 14 39.46 49.95 12.51 o
-4 13 14 29.95 3.94 17.19 o
-3 13 14 24.93 54.80 20.11 o
-2 13 14 45.91 58.02 18.13 o
-1 13 14 14.88 46.55 16.45 o
0 13 14 6.97 36.53 19.38 o
1 13 14 15.05 46.13 21.76 o
2 13 14 46.27 60.37 17.80 o
3 13 14 24.90 27.89 22.41 o
4 13 14 31.05 47.60 15.80 o
-2 14 14 11.09 18.41 22.39 o
-1 14 14 54.39 25.84 23.74 o
0 14 14 18.17 13.09 16.12 o
1 14 14 53.63 105.85 24.18 o
2 14 14 11.12 -19.87 21.23 o
1 0 15 39.82 52.12 5.29 o
2 0 15 307.48 313.51 13.51 o
3 0 15 6.88 6.03 4.19 o
4 0 15 1184.45 1226.10 43.83 o
5 0 15 358.19 361.14 29.01 o
6 0 15 16.52 12.53 18.59 o
7 0 15 124.58 131.76 21.37 o
8 0 15 27.13 60.60 14.03 o
9 0 15 13.57 -5.82 16.26 o
-9 1 15 3.09 -15.84 15.84 o
-8 1 15 3.48 -13.09 15.12 o
-7 1 15 18.16 25.84 15.35 o
-6 1 15 0.37 -4.19 14.93 o
-5 1 15 222.76 207.18 22.86 o
-4 1 15 188.74 171.11 16.78 o
-3 1 15 834.78 827.87 29.87 o
-2 1 15 251.02 240.03 9.93 o
-1 1 15 1.55 3.24 3.47 o
0 1 15 433.65 395.57 13.96 o
1 1 15 1.21 14.68 4.45 o
2 1 15 242.35 244.78 12.91 o
3 1 15 831.48 829.64 33.41 o
4 1 15 184.53 171.93 12.00 o
5 1 15 226.05 215.17 21.04 o
6 1 15 0.54 -10.46 15.61 o
7 1 15 18.63 -12.58 12.58 o
8 1 15 2.96 -10.67 18.85 o
9 1 15 3.34 -5.59 17.06 o
-8 2 15 1.01 27.26 22.32 o
-7 2 15 63.71 89.56 20.50 o
-6 2 15 57.45 61.32 15.31 o
-5 2 15 42.06 46.76 12.95 o
-4 2 15 52.29 50.82 2.17 o
-3 2 15 335.63 329.94 11.65 o
-2 2 15 81.47 80.29 6.29 o
-1 2 15 623.16 611.47 17.36 o
0 2 15 145.83 144.67 7.34 o
1 2 15 615.97 622.09 18.27 o
2 2 15 79.46 91.89 7.01 o
3 2 15 337.81 345.09 17.59 o
4 2 15 53.16 60.14 5.45 o
5 2 15 39.28 60.60 13.07 o
6 2 15 58.28 51.47 18.17 o
7 2 15 59.05 31.73 19.59 o
8 2 15 1.18 9.51 14.40 o
-8 3 15 2.40 13.09 21.44 o
-7 3 15 27.90 36.16 13.02 o
-6 3 15 32.43 40.70 14.80 o
-5 3 15 204.96 189.98 10.51 o
-4 3 15 102.48 99.35 3.96 o
-3 3 15 154.91 158.57 6.15 o
-2 3 15 1067.59 1041.24 27.59 o
-1 3 15 708.68 720.90 22.13 o
0 3 15 403.48 368.73 13.49 o
1 3 15 718.88 704.59 21.88 o
2 3 15 1076.61 1040.26 36.44 o
3 3 15 155.17 146.51 8.50 o
4 3 15 106.29 105.85 7.55 o
5 3 15 211.65 249.12 25.54 o
6 3 15 30.03 21.67 13.93 o
7 3 15 26.56 23.56 13.05 o
8 3 15 2.00 19.06 20.67 o
-8 4 15 17.11 27.89 14.19 o
-7 4 15 41.06 48.44 16.15 o
-6 4 15 28.27 16.12 11.88 o
-5 4 15 142.87 128.29 21.44 o
-4 4 15 43.52 46.76 2.91 o
-3 4 15 168.66 167.94 7.13 o
-2 4 15 63.61 70.99 6.17 o
-1 4 15 446.12 424.63 13.84 o
0 4 15 70.61 77.84 7.81 o
1 4 15 450.82 429.03 18.34 o
2 4 15 63.38 73.86 7.62 o
3 4 15 175.52 188.30 12.14 o
4 4 15 44.41 42.47 5.57 o
5 4 15 144.12 121.46 11.11 o
6 4 15 29.77 -0.93 16.47 o
7 4 15 41.04 35.81 14.26 o
8 4 15 16.64 23.56 13.93 o
-8 5 15 46.10 -16.73 18.36 o
-7 5 15 3.85 -7.71 12.63 o
-6 5 15 135.89 86.14 21.25 o
-5 5 15 6.71 6.73 11.42 o
-4 5 15 72.35 68.69 4.05 o
-3 5 15 4.94 5.59 3.75 o
-2 5 15 174.84 163.61 7.04 o
-1 5 15 61.50 57.78 5.57 o
0 5 15 13.89 20.97 8.81 o
1 5 15 64.97 51.47 8.97 o
2 5 15 166.31 192.94 12.72 o
3 5 15 5.34 -4.66 4.66 o
4 5 15 74.55 70.48 7.69 o
5 5 15 6.42 4.19 5.57 o
6 5 15 140.88 129.66 18.08 o
7 5 15 3.73 10.46 20.46 o
8 5 15 46.34 65.19 17.75 o
-8 6 15 12.78 -0.47 15.24 o
-7 6 15 82.89 99.35 20.08 o
-6 6 15 76.15 61.79 16.80 o
-5 6 15 169.95 215.61 29.15 o
-4 6 15 35.53 21.67 4.26 o
-3 6 15 5.75 8.60 3.22 o
-2 6 15 469.01 463.21 14.45 o
-1 6 15 793.99 799.14 27.61 o
0 6 15 626.66 555.43 21.58 o
1 6 15 771.72 803.45 29.43 o
2 6 15 474.56 502.80 22.60 o
3 6 15 6.22 4.19 6.99 o
4 6 15 34.68 23.72 6.69 o
5 6 15 174.78 183.32 11.98 o
6 6 15 75.28 68.20 19.66 o
7 6 15 83.03 113.84 28.98 o
8 6 15 13.31 19.06 23.32 o
-7 7 15 49.57 9.32 13.79 o
-6 7 15 29.90 9.32 12.58 o
-5 7 15 154.20 164.40 20.36 o
-4 7 15 5.90 -3.03 6.06 o
-3 7 15 416.64 386.51 19.20 o
-2 7 15 116.25 106.15 7.55 o
-1 7 15 22.46 29.87 7.67 o
0 7 15 376.92 380.55 19.06 o
1 7 15 24.16 15.38 9.81 o
2 7 15 118.06 146.16 12.19 o
3 7 15 417.98 414.63 20.50 o
4 7 15 6.38 5.38 6.52 o
5 7 15 156.89 173.53 12.07 o
6 7 15 29.27 8.60 19.32 o
7 7 15 47.99 48.23 16.12 o
-7 8 15 25.61 41.50 23.39 o
-6 8 15 40.32 41.50 17.50 o
-5 8 15 49.08 64.21 14.68 o
-4 8 15 343.03 331.59 26.68 o
-3 8 15 177.77 165.96 16.92 o
-2 8 15 228.99 259.32 24.09 o
-1 8 15 9.67 24.46 16.75 o
0 8 15 344.88 303.33 27.12 o
1 8 15 10.39 30.03 11.37 o
2 8 15 228.88 211.60 11.56 o
3 8 15 182.94 187.89 13.82 o
4 8 15 347.86 369.32 24.04 o
5 8 15 50.29 44.69 11.63 o
6 8 15 39.34 26.77 16.12 o
7 8 15 25.41 38.98 23.25 o
-7 9 15 0.80 3.47 25.07 o
-6 9 15 31.93 48.02 15.87 o
-5 9 15 101.21 112.86 19.13 o
-4 9 15 93.35 90.73 18.03 o
-3 9 15 182.19 167.94 18.99 o
-2 9 15 13.77 17.75 11.84 o
-1 9 15 147.93 191.24 21.95 o
0 9 15 32.26 39.54 16.12 o
1 9 15 148.18 134.58 19.13 o
2 9 15 15.72 0.47 6.57 o
3 9 15 182.43 203.68 15.68 o
4 9 15 95.81 117.78 13.91 o
5 9 15 102.19 108.06 13.00 o
6 9 15 32.05 -20.53 20.53 o
7 9 15 0.93 2.33 17.24 o
-6 10 15 2.51 -14.86 14.86 o
-5 10 15 106.61 147.25 25.93 o
-4 10 15 42.44 54.36 21.83 o
-3 10 15 42.50 81.38 18.17 o
-2 10 15 102.34 76.77 18.99 o
-1 10 15 59.74 83.88 14.82 o
0 10 15 20.07 29.19 15.00 o
1 10 15 55.95 58.71 17.08 o
2 10 15 101.41 104.29 20.88 o
3 10 15 43.65 18.13 9.11 o
4 10 15 43.17 76.24 14.12 o
5 10 15 107.58 90.73 12.21 o
6 10 15 2.26 -3.03 15.61 o
-5 11 15 5.92 17.87 22.32 o
-4 11 15 3.98 20.55 16.33 o
-3 11 15 7.37 1.84 14.61 o
-2 11 15 28.18 39.93 17.94 o
-1 11 15 2.67 0.23 11.09 o
0 11 15 68.35 82.20 19.92 o
1 11 15 2.67 33.99 17.08 o
2 11 15 26.93 9.04 18.83 o
3 11 15 6.70 15.63 11.95 o
4 11 15 3.58 27.89 8.88 o
5 11 15 6.49 29.36 11.42 o
-5 12 15 0.33 4.89 19.80 o
-4 12 15 7.87 15.87 16.29 o
-3 12 15 11.39 15.63 12.56 o
-2 12 15 16.86 31.38 22.06 o
-1 12 15 35.24 61.32 20.55 o
0 12 15 7.88 14.68 12.86 o
1 12 15 34.63 61.79 17.52 o
2 12 15 15.38 20.69 19.71 o
3 12 15 11.17 0.23 18.87 o
4 12 15 6.99 12.86 10.51 o
5 12 15 0.23 -6.03 12.84 o
-3 13 15 5.89 -19.06 19.06 o
-2 13 15 4.88 -16.12 18.01 o
-1 13 15 67.85 41.29 18.06 o
0 13 15 89.49 100.26 17.43 o
1 13 15 68.67 70.22 19.69 o
2 13 15 4.30 -0.23 14.14 o
3 13 15 5.99 3.94 13.70 o
-2 14 15 46.47 13.54 18.41 o
-1 14 15 2.76 28.22 17.68 o
0 14 15 47.48 48.02 19.66 o
1 14 15 2.57 13.75 15.84 o
2 14 15 46.68 51.91 20.22 o
0 0 16 337.98 349.07 16.54 o
1 0 16 148.51 143.22 7.32 o
2 0 16 0.05 7.71 4.40 o
3 0 16 81.21 83.60 7.81 o
4 0 16 227.47 246.69 11.51 o
5 0 16 8.37 -3.94 11.63 o
6 0 16 314.75 399.23 33.55 o
7 0 16 14.16 -17.24 20.27 o
8 0 16 133.05 90.14 25.51 o
-8 1 16 6.21 19.06 16.26 o
-7 1 16 198.14 178.80 32.67 o
-6 1 16 189.39 211.60 22.65 o
-5 1 16 235.45 214.73 21.92 o
-4 1 16 287.00 289.14 9.34 o
-3 1 16 285.21 269.25 10.02 o
-2 1 16 236.18 252.98 10.67 o
-1 1 16 416.61 432.20 13.96 o
0 1 16 245.33 215.61 10.32 o
1 1 16 432.03 397.39 15.21 o
2 1 16 234.58 252.00 12.12 o
3 1 16 282.45 303.87 17.57 o
4 1 16 294.28 307.60 16.59 o
5 1 16 235.23 261.30 26.65 o
6 1 16 192.10 178.38 21.60 o
7 1 16 198.73 218.78 26.19 o
8 1 16 5.96 43.48 17.92 o
-8 2 16 2.66 13.75 14.73 o
-7 2 16 51.87 35.44 15.45 o
-6 2 16 35.92 57.55 15.52 o
-5 2 16 166.34 124.84 17.40 o
-4 2 16 10.23 9.51 1.61 o
-3 2 16 854.97 895.06 25.58 o
-2 2 16 137.30 129.66 6.59 o
-1 2 16 82.46 61.79 5.52 o
0 2 16 212.09 210.28 9.74 o
1 2 16 77.44 73.86 6.57 o
2 2 16 137.98 147.62 10.02 o
3 2 16 842.05 839.33 37.14 o
4 2 16 10.65 8.85 3.73 o
5 2 16 175.40 134.58 17.01 o
6 2 16 36.26 -4.43 19.62 o
7 2 16 51.75 42.68 16.54 o
8 2 16 2.67 15.14 21.62 o
-8 3 16 14.01 -13.98 22.37 o
-7 3 16 155.74 195.92 22.65 o
-6 3 16 53.15 66.45 17.92 o
-5 3 16 109.22 103.96 18.99 o
-4 3 16 186.91 183.32 7.04 o
-3 3 16 85.44 73.86 3.94 o
-2 3 16 402.91 420.85 13.77 o
-1 3 16 1228.91 1277.96 33.83 o
0 3 16 305.92 283.97 11.32 o
1 3 16 1221.01 1313.12 43.15 o
2 3 16 405.06 406.57 17.24 o
3 3 16 84.69 76.77 6.43 o
4 3 16 183.05 175.54 12.14 o
5 3 16 111.79 79.19 15.49 o
6 3 16 53.64 73.58 15.70 o
7 3 16 158.80 184.97 29.05 o
8 3 16 14.02 24.91 15.40 o
-8 4 16 110.21 134.58 22.32 o
-7 4 16 3.98 -12.12 12.12 o
-6 4 16 143.92 171.53 24.39 o
-5 4 16 172.95 131.76 24.18 o
-4 4 16 74.09 76.49 4.01 o
-3 4 16 16.65 13.75 3.52 o
-2 4 16 240.27 214.73 11.63 o
-1 4 16 405.03 404.73 14.75 o
0 4 16 1169.44 1252.99 41.05 o
1 4 16 406.98 443.71 19.94 o
2 4 16 238.10 208.95 12.35 o
3 4 16 16.72 11.37 5.57 o
4 4 16 72.48 59.18 7.99 o
5 4 16 172.86 181.66 13.58 o
6 4 16 145.67 151.72 24.81 o
7 4 16 3.91 33.46 22.60 o
8 4 16 109.70 121.46 23.88 o
-8 5 16 32.50 -1.16 16.38 o
-7 5 16 89.69 67.68 19.85 o
-6 5 16 71.23 85.83 20.92 o
-5 5 16 119.05 135.65 15.63 o
-4 5 16 34.63 39.93 4.24 o
-3 5 16 75.35 70.48 4.36 o
-2 5 16 625.70 619.04 16.71 o
-1 5 16 141.49 132.81 8.81 o
0 5 16 604.38 593.48 22.32 o
1 5 16 141.54 113.19 11.37 o
2 5 16 639.48 661.51 25.12 o
3 5 16 75.75 79.73 8.18 o
4 5 16 36.40 38.40 5.69 o
5 5 16 115.12 103.96 10.58 o
6 5 16 73.58 111.88 18.08 o
7 5 16 90.58 102.10 23.74 o
8 5 16 32.88 46.13 25.30 o
-7 6 16 0.05 12.53 14.38 o
-6 6 16 5.30 -1.84 13.23 o
-5 6 16 202.09 226.98 25.30 o
-4 6 16 17.34 11.91 5.15 o
-3 6 16 458.36 441.78 18.62 o
-2 6 16 62.60 61.32 6.45 o
-1 6 16 429.78 412.77 16.75 o
0 6 16 39.07 32.06 7.43 o
1 6 16 438.24 473.11 21.92 o
2 6 16 63.09 67.94 7.81 o
3 6 16 463.74 461.23 20.97 o
4 6 16 18.02 18.41 6.29 o
5 6 16 207.17 216.08 13.47 o
6 6 16 5.47 19.32 14.24 o
-7 7 16 27.95 19.06 22.39 o
-6 7 16 0.28 42.08 15.66 o
-5 7 16 0.68 19.59 15.14 o
-4 7 16 152.68 152.87 14.73 o
-3 7 16 33.10 19.06 4.12 o
-2 7 16 279.73 260.30 12.30 o
-1 7 16 189.49 173.11 12.86 o
0 7 16 320.21 318.94 16.89 o
1 7 16 183.56 176.35 13.37 o
2 7 16 281.26 247.67 17.29 o
3 7 16 32.85 36.53 7.76 o
4 7 16 153.72 127.94 14.17 o
5 7 16 0.88 4.64 13.47 o
6 7 16 0.34 -18.41 18.41 o
7 7 16 30.03 22.83 16.47 o
-7 8 16 10.79 15.87 21.90 o
-6 8 16 54.65 52.35 17.22 o
-5 8 16 1.18 11.18 11.84 o
-4 8 16 9.40 15.38 6.10 o
-3 8 16 3.70 6.97 6.06 o
-2 8 16 80.36 96.04 8.67 o
-1 8 16 202.92 212.05 13.33 o
0 8 16 356.49 430.94 22.81 o
1 8 16 204.44 227.89 16.12 o
2 8 16 78.13 66.45 8.46 o
3 8 16 3.71 10.27 8.13 o
4 8 16 8.82 12.33 9.76 o
5 8 16 1.29 -6.03 6.52 o
6 8 16 57.33 60.37 18.50 o
7 8 16 10.76 16.50 23.67 o
-6 9 16 25.68 10.97 16.59 o
-5 9 16 40.22 27.26 15.14 o
-4 9 16 120.08 130.36 12.91 o
-3 9 16 2.20 54.12 20.43 o
-2 9 16 24.36 26.30 13.30 o
-1 9 16 130.46 142.47 20.41 o
0 9 16 44.00 31.03 10.04 o
1 9 16 129.81 120.78 11.74 o
2 9 16 22.34 32.41 11.11 o
3 9 16 2.14 19.99 8.20 o
4 9 16 121.04 105.22 11.91 o
5 9 16 39.53 31.03 9.86 o
6 9 16 27.09 75.70 24.16 o
-6 10 16 16.91 -2.82 22.25 o
-5 10 16 88.03 90.42 25.26 o
-4 10 16 56.79 65.70 17.31 o
-3 10 16 63.96 58.48 14.00 o
-2 10 16 12.95 14.91 12.60 o
-1 10 16 56.59 44.50 15.89 o
0 10 16 21.33 11.18 17.24 o
1 10 16 55.38 49.09 11.56 o
2 10 16 13.15 1.65 7.71 o
3 10 16 62.40 68.69 12.40 o
4 10 16 56.31 68.45 10.34 o
5 10 16 90.91 67.68 11.81 o
6 10 16 16.97 -9.32 24.70 o
-5 11 16 26.06 6.73 18.85 o
-4 11 16 49.25 8.85 16.36 o
-3 11 16 68.13 71.76 18.36 o
-2 11 16 45.38 74.37 25.00 o
-1 11 16 60.62 86.70 21.04 o
0 11 16 36.02 60.37 16.85 o
1 11 16 60.41 35.25 17.75 o
2 11 16 45.70 59.65 16.99 o
3 11 16 67.96 56.62 11.25 o
4 11 16 50.75 61.32 11.46 o
5 11 16 26.61 13.30 14.03 o
-4 12 16 54.61 91.89 28.38 o
-3 12 16 0.03 -22.13 22.13 o
-2 12 16 42.61 47.81 17.73 o
-1 12 16 0.72 26.30 13.77 o
0 12 16 93.94 123.14 24.72 o
1 12 16 0.69 2.10 14.21 o
2 12 16 43.57 88.42 16.66 o
3 12 16 0.03 -8.41 9.30 o
4 12 16 53.56 90.14 14.49 o
-3 13 16 32.76 -12.12 12.53 o
-2 13 16 43.27 38.40 22.90 o
-1 13 16 93.87 90.73 22.67 o
0 13 16 26.63 9.04 23.95 o
1 13 16 93.74 142.47 22.95 o
2 13 16 44.84 65.70 18.57 o
3 13 16 32.34 28.70 15.21 o
0 14 16 77.35 64.96 21.16 o
1 0 17 314.79 291.75 12.00 o
2 0 17 3.38 -1.65 4.89 o
3 0 17 65.61 56.41 5.73 o
4 0 17 100.70 87.26 6.57 o
5 0 17 433.58 382.34 35.23 o
6 0 17 5.14 36.72 19.80 o
7 0 17 28.61 42.87 16.99 o
8 0 17 38.67 31.22 18.94 o
-8 1 17 54.62 44.90 22.90 o
-7 1 17 23.83 27.73 15.12 o
-6 1 17 126.80 163.61 23.81 o
-5 1 17 49.31 59.65 17.45 o
-4 1 17 290.57 285.51 11.86 o
-3 1 17 75.62 65.94 5.45 o
-2 1 17 106.08 107.74 6.66 o
-1 1 17 48.75 30.52 5.06 o
0 1 17 282.23 264.26 11.91 o
1 1 17 53.37 44.69 6.34 o
2 1 17 102.80 86.42 8.50 o
3 1 17 72.28 73.07 6.78 o
4 1 17 292.32 296.97 17.89 o
5 1 17 51.00 20.55 13.70 o
6 1 17 129.72 87.26 18.55 o
7 1 17 25.03 22.53 23.77 o
8 1 17 56.07 47.60 16.64 o
-8 2 17 2.44 7.71 16.54 o
-7 2 17 49.28 20.27 22.41 o
-6 2 17 35.29 40.70 13.84 o
-5 2 17 3.15 21.39 17.94 o
-4 2 17 8.20 3.94 1.63 o
-3 2 17 33.83 31.03 3.91 o
-2 2 17 106.16 108.36 6.36 o
-1 2 17 222.58 212.05 10.23 o
0 2 17 1.46 -0.47 4.92 o
1 2 17 235.98 273.79 13.63 o
2 2 17 101.38 115.14 9.18 o
3 2 17 33.37 30.71 5.41 o
4 2 17 8.51 15.14 4.40 o
5 2 17 3.74 -2.82 16.87 o
6 2 17 35.11 60.14 16.10 o
7 2 17 52.38 49.30 17.36 o
8 2 17 2.10 8.85 15.35 o
-8 3 17 28.89 47.81 24.49 o
-7 3 17 63.84 49.95 17.92 o
-6 3 17 23.61 25.84 14.42 o
-5 3 17 182.06 194.22 24.67 o
-4 3 17 131.88 123.81 5.78 o
-3 3 17 248.84 259.32 10.32 o
-2 3 17 202.50 207.62 8.81 o
-1 3 17 499.47 491.22 17.59 o
0 3 17 6.98 6.50 6.08 o
1 3 17 491.92 481.78 20.11 o
2 3 17 210.92 183.71 12.00 o
3 3 17 244.61 259.32 14.26 o
4 3 17 132.87 141.03 9.44 o
5 3 17 182.79 188.72 23.49 o
6 3 17 25.93 -10.97 16.99 o
7 3 17 63.14 76.77 23.53 o
8 3 17 29.36 38.21 16.05 o
-8 4 17 14.88 20.55 16.61 o
-7 4 17 24.04 29.19 13.70 o
-6 4 17 34.82 55.71 18.45 o
-5 4 17 12.73 11.37 9.27 o
-4 4 17 143.66 115.80 7.22 o
-3 4 17 39.76 35.81 3.29 o
-2 4 17 402.92 387.72 14.42 o
-1 4 17 8.72 9.79 5.36 o
0 4 17 144.27 120.78 11.07 o
1 4 17 8.08 2.56 5.57 o
2 4 17 402.53 422.11 18.20 o
3 4 17 41.78 58.95 8.67 o
4 4 17 137.00 146.16 8.85 o
5 4 17 11.12 6.97 4.68 o
6 4 17 34.06 42.08 11.88 o
7 4 17 24.26 14.21 20.04 o
8 4 17 15.67 23.72 23.93 o
-7 5 17 12.44 5.59 13.28 o
-6 5 17 49.92 101.79 16.33 o
-5 5 17 2.42 -1.84 13.23 o
-4 5 17 13.48 12.12 4.47 o
-3 5 17 44.63 38.21 4.15 o
-2 5 17 54.64 48.65 4.89 o
-1 5 17 744.85 776.87 30.64 o
0 5 17 256.03 246.23 14.38 o
1 5 17 748.54 787.10 29.99 o
2 5 17 54.12 36.72 8.13 o
3 5 17 40.60 43.90 6.48 o
4 5 17 12.08 9.32 5.31 o
5 5 17 2.26 -0.70 5.15 o
6 5 17 49.19 56.85 14.73 o
7 5 17 13.37 -1.65 15.42 o
-7 6 17 20.19 44.90 16.57 o
-6 6 17 2.54 10.97 13.96 o
-5 6 17 88.34 100.89 19.01 o
-4 6 17 27.53 19.87 5.31 o
-3 6 17 4.89 0.00 2.33 o
-2 6 17 165.90 151.35 9.39 o
-1 6 17 250.13 219.22 14.00 o
0 6 17 73.94 67.43 9.53 o
1 6 17 250.91 254.43 15.10 o
2 6 17 168.51 165.56 12.58 o
3 6 17 5.05 6.03 8.18 o
4 6 17 28.01 9.32 6.99 o
5 6 17 85.56 96.04 8.39 o
6 6 17 2.88 1.65 14.52 o
7 6 17 21.00 17.87 23.49 o
-7 7 17 52.37 78.10 24.28 o
-6 7 17 36.72 48.65 17.24 o
-5 7 17 145.10 148.37 22.32 o
-4 7 17 234.30 188.30 17.17 o
-3 7 17 14.76 19.32 7.53 o
-2 7 17 50.04 51.91 8.13 o
-1 7 17 77.82 66.19 9.44 o
0 7 17 45.26 53.91 11.21 o
1 7 17 76.79 68.94 9.62 o
2 7 17 52.93 61.56 8.39 o
3 7 17 15.92 17.50 7.27 o
4 7 17 237.73 237.68 20.71 o
5 7 17 145.72 125.19 14.35 o
6 7 17 34.71 44.29 23.16 o
7 7 17 50.80 37.65 17.99 o
-6 8 17 0.39 12.53 14.70 o
-5 8 17 3.17 14.45 16.36 o
-4 8 17 53.85 48.02 7.83 o
-3 8 17 224.05 228.36 17.99 o
-2 8 17 16.43 19.32 8.18 o
-1 8 17 14.02 21.25 6.76 o
0 8 17 2.61 -0.70 10.53 o
1 8 17 14.37 34.53 9.16 o
2 8 17 14.46 25.21 9.97 o
3 8 17 230.62 249.12 19.27 o
4 8 17 53.21 53.68 9.62 o
5 8 17 2.58 2.10 13.07 o
6 8 17 0.32 -3.47 16.50 o
-6 9 17 34.13 64.70 25.79 o
-5 9 17 16.45 57.08 24.00 o
-4 9 17 9.19 29.52 13.09 o
-3 9 17 66.60 67.94 8.81 o
-2 9 17 158.02 149.86 14.59 o
-1 9 17 142.97 103.03 13.96 o
0 9 17 5.69 21.25 10.55 o
1 9 17 140.79 147.25 15.19 o
2 9 17 161.74 161.67 14.35 o
3 9 17 63.93 66.45 10.46 o
4 9 17 9.76 0.70 8.20 o
5 9 17 17.63 45.71 21.06 o
6 9 17 34.53 54.80 24.86 o
-5 10 17 9.92 -14.96 14.96 o
-4 10 17 93.67 109.32 21.71 o
-3 10 17 38.03 16.50 14.38 o
-2 10 17 120.57 171.93 25.21 o
-1 10 17 6.47 51.91 21.55 o
0 10 17 159.70 204.99 22.74 o
1 10 17 6.80 -3.94 14.17 o
2 10 17 120.10 119.46 13.68 o
3 10 17 38.21 14.21 11.16 o
4 10 17 94.55 126.21 14.07 o
5 10 17 10.92 24.91 14.93 o
-5 11 17 141.41 116.45 25.37 o
-4 11 17 3.04 15.38 23.84 o
-3 11 17 111.50 155.90 28.96 o
-2 11 17 29.84 22.53 12.60 o
-1 11 17 72.53 84.16 19.59 o
1 11 17 72.41 116.80 24.74 o
2 11 17 29.45 32.06 10.88 o
3 11 17 112.77 123.49 14.26 o
4 11 17 3.51 3.47 8.36 o
5 11 17 143.75 149.49 28.01 o
-4 12 17 55.93 74.11 18.92 o
-3 12 17 6.88 7.22 15.17 o
-2 12 17 21.74 21.95 21.74 o
-1 12 17 4.49 19.99 19.11 o
0 12 17 27.21 33.11 17.57 o
1 12 17 4.78 0.23 15.80 o
2 12 17 21.17 27.56 12.19 o
3 12 17 7.01 -1.37 12.95 o
4 12 17 57.64 75.96 13.30 o
-2 13 17 153.15 173.11 27.73 o
-1 13 17 53.20 52.56 17.03 o
0 13 17 63.27 43.48 16.31 o
1 13 17 51.74 59.18 19.50 o
2 13 17 154.45 154.38 24.28 o
0 0 18 0.98 4.19 7.25 o
1 0 18 559.09 500.05 19.11 o
2 0 18 5.87 11.18 4.89 o
3 0 18 286.75 251.52 14.05 o
4 0 18 116.96 108.06 6.66 o
5 0 18 211.80 258.34 31.41 o
6 0 18 0.13 4.64 16.03 o
7 0 18 287.47 338.31 31.45 o
8 0 18 0.10 -16.52 16.52 o
-8 1 18 64.42 62.51 21.25 o
-7 1 18 9.29 4.64 13.00 o
-6 1 18 268.70 241.45 26.56 o
-5 1 18 75.66 105.22 17.22 o
-4 1 18 11.91 12.86 3.49 o
-3 1 18 343.21 336.07 16.80 o
-2 1 18 441.72 437.30 15.33 o
-1 1 18 8.60 12.86 4.50 o
0 1 18 218.76 180.43 9.02 o
1 1 18 8.74 14.45 7.43 o
2 1 18 442.25 449.51 21.37 o
3 1 18 335.05 346.79 18.20 o
4 1 18 11.70 16.12 4.17 o
5 1 18 71.17 64.21 14.42 o
6 1 18 270.56 285.00 34.02 o
7 1 18 9.21 27.10 12.40 o
8 1 18 63.99 60.14 22.72 o
-8 2 18 37.83 45.71 17.75 o
-7 2 18 9.58 2.82 14.52 o
-6 2 18 2.54 -3.03 21.88 o
-5 2 18 4.35 7.71 12.37 o
-4 2 18 482.31 475.77 25.30 o
-3 2 18 47.77 48.23 4.66 o
-2 2 18 178.30 158.57 8.46 o
-1 2 18 3.11 0.00 2.33 o
0 2 18 25.77 25.84 8.69 o
1 2 18 3.24 5.38 6.80 o
2 2 18 169.34 157.43 9.95 o
3 2 18 49.26 53.68 6.71 o
4 2 18 470.71 445.64 25.14 o
5 2 18 4.04 -18.20 18.20 o
6 2 18 3.08 4.89 12.84 o
7 2 18 9.69 5.38 17.08 o
8 2 18 37.23 58.71 24.32 o
-8 3 18 17.30 19.59 18.64 o
-7 3 18 51.47 20.55 21.18 o
-6 3 18 37.65 85.28 26.77 o
-5 3 18 47.96 61.32 14.59 o
-4 3 18 103.38 91.59 6.43 o
-3 3 18 464.08 428.40 13.91 o
-2 3 18 170.89 173.53 9.25 o
-1 3 18 35.55 41.68 5.31 o
0 3 18 188.72 217.43 12.60 o
1 3 18 36.63 29.87 6.34 o
2 3 18 165.10 165.96 11.79 o
3 3 18 457.13 475.12 18.64 o
4 3 18 105.69 121.46 9.41 o
5 3 18 48.08 63.72 20.48 o
6 3 18 39.01 38.02 20.53 o
7 3 18 50.72 28.22 12.98 o
8 3 18 17.93 -1.37 21.99 o
-7 4 18 31.23 39.17 17.78 o
-6 4 18 31.60 10.97 21.04 o
-5 4 18 71.25 109.65 19.18 o
-4 4 18 51.40 50.16 6.48 o
-3 4 18 56.21 50.37 4.99 o
-2 4 18 28.04 23.28 5.59 o
-1 4 18 284.33 278.33 14.26 o
0 4 18 270.69 279.36 13.26 o
1 4 18 281.81 311.88 15.63 o
2 4 18 27.95 37.47 7.29 o
3 4 18 54.48 46.97 8.15 o
4 4 18 52.16 40.12 6.97 o
5 4 18 70.86 146.88 25.16 o
6 4 18 31.51 25.68 13.77 o
7 4 18 30.39 23.11 17.03 o
-7 5 18 32.37 80.55 21.11 o
-6 5 18 69.30 68.69 17.45 o
-5 5 18 31.45 63.72 13.89 o
-4 5 18 9.92 13.30 4.68 o
-3 5 18 366.92 350.77 14.86 o
-2 5 18 37.99 34.90 5.06 o
-1 5 18 4.15 -6.27 6.73 o
0 5 18 94.20 102.73 10.83 o
1 5 18 3.40 -7.48 7.48 o
2 5 18 36.39 40.12 7.55 o
3 5 18 373.36 372.25 17.08 o
4 5 18 9.89 9.32 7.46 o
5 5 18 32.67 11.91 12.84 o
6 5 18 68.24 64.70 18.66 o
7 5 18 31.50 26.61 17.80 o
-7 6 18 18.54 -10.46 16.80 o
-6 6 18 33.07 55.71 17.54 o
-5 6 18 26.13 38.98 16.01 o
-4 6 18 255.75 246.69 19.66 o
-3 6 18 112.37 116.80 11.88 o
-2 6 18 277.37 271.76 13.09 o
-1 6 18 39.85 57.78 9.51 o
0 6 18 8.96 25.37 7.39 o
1 6 18 40.15 44.50 8.15 o
2 6 18 278.52 236.25 15.49 o
3 6 18 114.92 108.06 11.42 o
4 6 18 258.69 265.26 18.90 o
5 6 18 25.52 26.77 12.63 o
6 6 18 31.94 51.68 17.33 o
7 6 18 18.38 19.99 23.49 o
-7 7 18 18.16 26.77 24.49 o
-6 7 18 35.68 45.92 19.04 o
-5 7 18 15.44 31.73 12.56 o
-4 7 18 4.30 5.38 10.97 o
-3 7 18 193.82 232.99 14.45 o
-2 7 18 39.71 30.71 8.62 o
-1 7 18 40.50 57.08 10.60 o
0 7 18 85.40 118.10 11.95 o
1 7 18 38.72 32.60 7.50 o
2 7 18 41.58 37.47 9.53 o
3 7 18 195.22 215.17 17.01 o
4 7 18 4.41 -4.64 8.34 o
5 7 18 14.81 7.71 21.46 o
6 7 18 36.94 39.35 24.91 o
7 7 18 17.86 2.56 19.13 o
-6 8 18 64.02 62.28 18.31 o
-5 8 18 106.39 91.59 19.57 o
-4 8 18 10.02 15.14 13.07 o
-3 8 18 41.41 33.46 7.60 o
-2 8 18 15.92 10.46 7.41 o
-1 8 18 105.06 127.24 12.05 o
0 8 18 15.81 21.39 11.58 o
1 8 18 106.03 101.79 10.46 o
2 8 18 16.03 9.79 7.92 o
3 8 18 40.70 41.68 9.46 o
4 8 18 10.32 5.10 7.25 o
5 8 18 109.30 109.65 23.35 o
6 8 18 63.97 76.24 21.60 o
-6 9 18 99.24 123.49 32.57 o
-5 9 18 5.09 29.87 20.69 o
-4 9 18 22.87 22.53 12.60 o
-3 9 18 107.29 127.94 13.12 o
-2 9 18 48.75 45.11 8.20 o
-1 9 18 32.80 46.34 11.84 o
0 9 18 54.42 48.65 9.58 o
1 9 18 31.82 38.02 11.11 o
2 9 18 50.72 45.11 12.30 o
3 9 18 107.12 109.32 13.40 o
4 9 18 23.16 -9.79 10.51 o
5 9 18 5.61 32.60 21.95 o
6 9 18 99.10 110.28 29.17 o
-5 10 18 29.29 33.29 19.01 o
-4 10 18 87.66 83.88 25.44 o
-3 10 18 12.46 18.41 6.80 o
-2 10 18 83.79 94.55 11.28 o
-1 10 18 67.61 63.49 10.95 o
0 10 18 0.08 -2.33 10.72 o
1 10 18 66.88 63.49 9.48 o
2 10 18 83.90 82.48 11.93 o
3 10 18 12.50 6.97 9.76 o
4 10 18 86.40 98.44 15.45 o
5 10 18 28.53 61.32 24.14 o
-4 11 18 8.74 13.09 16.12 o
-3 11 18 44.58 46.76 10.23 o
-2 11 18 2.15 -4.43 7.20 o
-1 11 18 18.58 8.15 11.16 o
0 11 18 68.01 85.28 12.98 o
1 11 18 18.63 28.70 9.16 o
2 11 18 2.37 3.94 9.27 o
3 11 18 44.72 56.41 11.93 o
4 11 18 8.47 38.40 14.75 o
-3 12 18 9.57 -14.73 14.73 o
-2 12 18 3.83 27.56 17.96 o
-1 12 18 19.86 5.59 14.96 o
0 12 18 29.46 27.73 22.18 o
1 12 18 20.63 53.91 14.35 o
2 12 18 4.02 -20.20 20.20 o
3 12 18 9.60 -1.16 10.53 o
-1 13 18 34.10 4.19 25.35 o
0 13 18 20.09 -7.22 13.28 o
1 13 18 35.29 39.54 13.26 o
1 0 19 28.47 52.35 8.39 o
2 0 19 225.17 211.60 12.44 o
3 0 19 61.46 72.55 8.57 o
4 0 19 5.93 13.09 3.98 o
5 0 19 37.62 79.47 19.32 o
6 0 19 11.31 -18.92 18.92 o
7 0 19 29.31 36.72 17.38 o
-7 1 19 46.57 58.48 22.18 o
-6 1 19 8.07 2.82 13.33 o
-5 1 19 99.46 112.86 20.11 o
-4 1 19 93.25 94.55 6.83 o
-3 1 19 23.20 21.95 5.43 o
-2 1 19 120.06 121.46 8.41 o
-1 1 19 150.54 131.06 8.74 o
0 1 19 34.97 38.02 8.08 o
1 1 19 143.88 131.41 10.16 o
2 1 19 126.87 118.10 9.62 o
3 1 19 24.64 24.77 4.71 o
4 1 19 88.94 107.74 9.18 o
5 1 19 95.58 80.83 18.66 o
6 1 19 7.83 14.45 18.22 o
7 1 19 45.66 85.55 23.44 o
-7 2 19 38.05 10.27 15.35 o
-6 2 19 82.08 63.98 20.27 o
-5 2 19 12.63 1.84 11.81 o
-4 2 19 229.52 204.57 12.23 o
-3 2 19 16.59 10.67 3.49 o
-2 2 19 313.31 277.84 12.72 o
-1 2 19 146.91 116.80 8.25 o
0 2 19 43.85 34.53 6.27 o
1 2 19 144.63 133.16 10.58 o
2 2 19 311.42 327.73 16.59 o
3 2 19 16.22 20.55 6.78 o
4 2 19 226.63 220.13 17.22 o
5 2 19 12.32 -0.23 12.98 o
6 2 19 78.53 75.44 21.48 o
7 2 19 39.10 31.22 18.43 o
-7 3 19 3.02 -10.46 13.05 o
-6 3 19 42.29 19.59 12.56 o
-5 3 19 152.70 154.01 20.83 o
-4 3 19 85.62 73.07 6.52 o
-3 3 19 8.26 9.32 3.73 o
-2 3 19 145.81 120.78 8.06 o
-1 3 19 22.38 37.09 8.55 o
0 3 19 66.15 48.88 8.53 o
1 3 19 22.75 22.53 7.97 o
2 3 19 147.86 150.23 11.23 o
3 3 19 7.57 11.37 6.29 o
4 3 19 84.99 78.38 8.92 o
5 3 19 149.79 125.19 20.83 o
6 3 19 44.06 49.09 17.54 o
7 3 19 3.81 -9.51 13.93 o
-7 4 19 16.81 33.29 25.89 o
-6 4 19 26.84 29.36 20.50 o
-5 4 19 195.66 234.86 29.47 o
-4 4 19 36.77 7.22 12.56 o
-3 4 19 182.37 174.32 10.48 o
-2 4 19 17.08 24.16 7.20 o
-1 4 19 198.86 196.79 12.42 o
0 4 19 0.18 -8.34 8.34 o
1 4 19 203.31 178.80 9.79 o
2 4 19 18.08 20.27 6.31 o
3 4 19 178.75 141.75 11.63 o
4 4 19 34.99 36.72 7.04 o
5 4 19 198.27 228.36 24.44 o
6 4 19 26.82 41.50 19.27 o
7 4 19 16.94 19.32 15.56 o
-7 5 19 25.05 24.00 17.50 o
-6 5 19 23.16 31.03 21.76 o
-5 5 19 13.77 -4.19 13.05 o
-4 5 19 60.89 80.55 15.89 o
-3 5 19 30.47 35.25 5.99 o
-2 5 19 53.21 39.54 6.34 o
-1 5 19 148.00 142.13 11.65 o
0 5 19 55.27 56.17 8.46 o
1 5 19 152.43 176.75 12.98 o
2 5 19 55.71 47.60 8.22 o
3 5 19 30.97 24.16 6.45 o
4 5 19 58.85 75.44 9.02 o
5 5 19 12.80 24.77 13.37 o
6 5 19 24.07 42.08 14.45 o
7 5 19 25.95 -1.16 16.15 o
-7 6 19 43.37 38.98 15.45 o
-6 6 19 83.80 72.81 21.11 o
-5 6 19 9.44 14.68 14.86 o
-4 6 19 42.09 50.16 15.14 o
-3 6 19 17.08 19.32 7.25 o
-2 6 19 88.08 84.16 12.88 o
-1 6 19 4.27 7.46 6.50 o
0 6 19 375.40 410.28 20.41 o
1 6 19 4.11 1.16 7.01 o
2 6 19 92.04 105.22 11.28 o
3 6 19 17.42 39.35 10.93 o
4 6 19 41.11 64.70 9.83 o
6 6 19 84.56 89.56 17.61 o
7 6 19 42.59 43.90 19.62 o
-6 7 19 1.42 6.73 18.62 o
-5 7 19 92.35 70.74 20.29 o
-4 7 19 9.48 3.03 13.98 o
-3 7 19 11.64 18.13 5.59 o
-2 7 19 10.59 16.73 9.48 o
-1 7 19 5.11 6.50 8.64 o
0 7 19 35.86 44.69 9.60 o
1 7 19 6.51 22.39 9.39 o
2 7 19 10.76 2.33 9.32 o
3 7 19 11.80 3.70 7.41 o
4 7 19 9.55 16.73 8.11 o
5 7 19 93.42 81.92 21.55 o
6 7 19 1.71 31.73 22.69 o
-6 8 19 15.13 -20.50 20.50 o
-5 8 19 97.85 85.83 30.27 o
-4 8 19 28.06 0.70 13.56 o
-3 8 19 48.58 58.02 8.60 o
-2 8 19 8.97 11.70 7.53 o
-1 8 19 129.65 132.81 14.07 o
0 8 19 70.59 59.41 8.71 o
1 8 19 129.71 139.21 12.26 o
2 8 19 9.19 19.59 9.06 o
3 8 19 51.04 55.27 8.62 o
4 8 19 28.99 44.69 10.62 o
5 8 19 100.34 71.76 20.18 o
6 8 19 14.70 37.65 17.99 o
-5 9 19 15.56 -1.37 18.29 o
-4 9 19 78.02 78.66 19.22 o
-3 9 19 40.86 62.51 10.14 o
-2 9 19 16.14 19.87 7.76 o
-1 9 19 12.09 -0.47 9.60 o
0 9 19 5.37 -9.04 9.04 o
1 9 19 12.23 15.63 7.74 o
2 9 19 15.66 4.19 8.62 o
3 9 19 42.16 43.08 10.41 o
4 9 19 81.54 102.10 12.95 o
5 9 19 14.86 29.19 16.99 o
-4 10 19 36.42 55.94 23.74 o
-3 10 19 13.52 24.16 10.65 o
-2 10 19 26.20 47.81 9.72 o
-1 10 19 121.69 138.14 16.15 o
0 10 19 75.68 69.97 13.79 o
1 10 19 119.57 126.56 14.42 o
2 10 19 26.64 35.62 10.93 o
3 10 19 13.52 16.50 9.30 o
4 10 19 35.81 19.59 10.95 o
-4 11 19 40.71 86.70 19.62 o
-3 11 19 0.92 -7.90 16.03 o
-2 11 19 94.33 109.65 13.42 o
-1 11 19 23.26 34.72 10.79 o
0 11 19 1.39 0.93 9.27 o
1 11 19 23.20 21.67 8.81 o
2 11 19 92.21 139.94 16.96 o
3 11 19 1.10 4.89 8.85 o
4 11 19 40.21 49.09 12.19 o
-2 12 19 13.72 27.89 10.32 o
-1 12 19 72.66 81.66 13.51 o
0 12 19 48.97 59.18 11.98 o
1 12 19 71.34 68.20 13.35 o
2 12 19 13.49 -0.47 11.95 o
0 0 20 1960.07 1912.45 80.10 o
1 0 20 56.29 27.89 7.74 o
2 0 20 14.63 17.50 5.87 o
3 0 20 0.93 2.33 6.06 o
4 0 20 21.65 38.02 18.27 o
5 0 20 0.04 -14.17 14.17 o
6 0 20 111.24 116.12 20.74 o
7 0 20 0.28 -13.30 20.95 o
-7 1 20 13.42 16.50 16.24 o
-6 1 20 15.77 2.33 16.54 o
-5 1 20 70.90 79.47 16.59 o
-4 1 20 26.81 29.19 21.44 o
-3 1 20 267.39 274.28 14.17 o
-2 1 20 58.74 38.98 5.92 o
-1 1 20 222.02 226.52 13.33 o
0 1 20 0.02 4.19 6.73 o
1 1 20 222.24 222.39 12.74 o
2 1 20 61.56 63.23 8.74 o
3 1 20 262.29 260.30 17.73 o
4 1 20 27.11 30.03 4.85 o
5 1 20 69.52 40.12 22.44 o
6 1 20 15.50 16.50 15.12 o
7 1 20 14.02 -4.64 14.40 o
-7 2 20 5.56 12.12 22.09 o
-6 2 20 5.98 -4.19 21.41 o
-5 2 20 38.90 42.47 13.72 o
-4 2 20 87.08 114.49 23.51 o
-3 2 20 428.23 449.51 23.95 o
-2 2 20 43.19 48.02 6.34 o
-1 2 20 66.78 32.60 6.27 o
0 2 20 2.27 2.56 6.31 o
1 2 20 67.39 58.71 8.90 o
2 2 20 44.96 56.85 9.90 o
3 2 20 428.90 425.89 24.58 o
4 2 20 82.88 83.04 6.69 o
5 2 20 39.00 43.29 17.47 o
6 2 20 6.30 17.24 15.07 o
7 2 20 5.50 -5.38 15.45 o
-7 3 20 57.12 43.48 21.74 o
-6 3 20 29.67 72.02 15.03 o
-5 3 20 26.42 8.41 16.12 o
-4 3 20 34.63 27.26 18.64 o
-3 3 20 29.15 25.21 5.06 o
-2 3 20 227.58 236.25 12.67 o
-1 3 20 3.27 -6.97 7.01 o
0 3 20 125.73 112.54 10.04 o
1 3 20 4.11 0.70 8.90 o
2 3 20 224.76 258.83 15.21 o
3 3 20 27.88 38.58 7.39 o
4 3 20 33.34 23.28 7.22 o
5 3 20 26.94 22.11 18.66 o
6 3 20 29.07 28.87 13.77 o
7 3 20 57.09 55.94 19.41 o
-7 4 20 14.81 10.97 25.19 o
-6 4 20 110.92 96.32 22.46 o
-5 4 20 37.19 57.55 22.93 o
-4 4 20 2.47 6.97 17.50 o
-3 4 20 46.58 49.30 7.50 o
-2 4 20 66.00 63.49 7.06 o
-1 4 20 83.13 109.65 9.90 o
0 4 20 84.06 87.56 10.58 o
1 4 20 78.74 90.14 10.14 o
2 4 20 64.09 71.25 9.53 o
3 4 20 46.48 36.35 7.92 o
4 4 20 2.64 1.16 5.17 o
5 4 20 37.35 33.11 21.97 o
6 4 20 111.34 117.78 25.84 o
7 4 20 14.98 46.34 16.01 o
-6 5 20 92.49 91.59 24.53 o
-5 5 20 37.42 14.45 14.40 o
-4 5 20 85.98 78.10 19.15 o
-3 5 20 105.36 100.26 10.69 o
-2 5 20 11.09 6.03 7.88 o
-1 5 20 26.19 26.14 6.08 o
0 5 20 98.90 84.16 8.97 o
1 5 20 23.70 16.73 8.11 o
2 5 20 12.88 6.27 7.88 o
3 5 20 102.76 126.89 12.37 o
4 5 20 89.57 88.42 9.48 o
5 5 20 38.51 23.11 19.38 o
6 5 20 93.41 44.69 20.83 o
-6 6 20 1.04 9.79 17.01 o
-5 6 20 98.85 98.44 21.51 o
-4 6 20 26.95 12.33 17.68 o
-3 6 20 250.76 241.94 19.94 o
-2 6 20 34.81 42.68 7.39 o
-1 6 20 0.99 -1.16 6.78 o
0 6 20 29.13 50.16 8.85 o
1 6 20 1.32 8.41 10.00 o
2 6 20 33.48 59.65 10.14 o
3 6 20 253.97 272.27 17.12 o
4 6 20 26.07 -1.84 7.43 o
5 6 20 101.67 109.02 24.23 o
6 6 20 0.97 -6.73 17.89 o
-6 7 20 7.55 -13.51 13.51 o
-5 7 20 10.04 -1.16 16.61 o
-4 7 20 52.65 57.78 18.34 o
-3 7 20 20.35 13.75 7.92 o
-2 7 20 22.85 35.62 9.30 o
-1 7 20 102.22 128.29 13.49 o
0 7 20 154.08 143.94 13.19 o
1 7 20 101.98 100.26 12.84 o
2 7 20 24.28 24.00 7.48 o
3 7 20 19.85 20.55 8.15 o
4 7 20 55.01 63.72 9.51 o
5 7 20 10.89 -0.47 15.24 o
6 7 20 7.50 -20.99 20.99 o
-5 8 20 9.92 11.70 23.07 o
-4 8 20 22.42 13.75 16.08 o
-3 8 20 64.21 68.45 10.34 o
-2 8 20 174.35 197.20 14.59 o
-1 8 20 84.81 93.06 12.07 o
0 8 20 239.63 254.43 16.57 o
1 8 20 83.54 95.43 13.12 o
2 8 20 174.07 206.31 15.80 o
3 8 20 64.15 55.94 8.90 o
4 8 20 22.90 18.66 8.83 o
5 8 20 10.82 25.21 20.08 o
-5 9 20 15.39 15.87 18.01 o
-4 9 20 20.17 3.24 16.71 o
-3 9 20 8.34 35.62 16.94 o
-2 9 20 51.78 60.83 9.30 o
-1 9 20 28.29 38.21 10.95 o
0 9 20 30.73 33.11 11.25 o
1 9 20 28.40 24.46 8.46 o
2 9 20 50.20 38.58 10.62 o
3 9 20 7.64 7.22 9.11 o
4 9 20 20.53 -12.98 12.98 o
5 9 20 15.28 15.87 15.82 o
-4 10 20 0.58 -19.06 23.07 o
-3 10 20 141.85 169.53 30.22 o
-2 10 20 26.50 42.08 10.69 o
-1 10 20 19.45 31.90 10.18 o
0 10 20 16.94 24.00 9.27 o
1 10 20 20.30 22.53 13.47 o
2 10 20 24.81 23.11 9.53 o
3 10 20 143.43 114.49 15.68 o
4 10 20 0.84 -2.10 15.40 o
-3 11 20 27.00 63.49 20.92 o
-2 11 20 82.04 75.70 12.21 o
-1 11 20 6.07 17.24 10.27 o
0 11 20 72.02 57.78 12.30 o
1 11 20 5.08 4.43 13.30 o
2 11 20 82.94 109.65 16.94 o
3 11 20 27.46 63.98 15.38 o
-1 12 20 41.40 23.28 13.54 o
0 12 20 31.21 38.58 12.14 o
1 12 20 40.09 69.46 14.49 o
1 0 21 14.74 15.38 8.39 o
2 0 21 176.86 170.71 13.56 o
3 0 21 36.71 21.25 4.64 o
4 0 21 80.90 59.88 20.32 o
5 0 21 19.19 18.66 16.36 o
6 0 21 2.13 4.89 12.56 o
7 0 21 4.44 -0.23 15.80 o
-7 1 21 85.96 109.65 27.82 o
-6 1 21 73.28 48.02 24.95 o
-5 1 21 12.33 19.32 20.67 o
-4 1 21 91.42 64.96 17.22 o
-3 1 21 98.11 104.29 9.34 o
-2 1 21 43.95 54.59 7.90 o
-1 1 21 163.84 157.43 11.49 o
0 1 21 138.47 165.56 12.19 o
1 1 21 166.55 152.12 10.93 o
2 1 21 45.52 52.12 8.36 o
3 1 21 100.33 78.66 8.67 o
4 1 21 91.63 105.85 21.67 o
5 1 21 11.61 35.25 22.83 o
6 1 21 72.29 74.91 24.30 o
7 1 21 85.90 96.92 22.83 o
-7 2 21 111.07 130.36 25.79 o
-6 2 21 40.53 32.76 15.54 o
-5 2 21 91.90 49.09 14.75 o
-4 2 21 2.91 -10.51 10.51 o
-3 2 21 0.39 6.50 5.82 o
-2 2 21 65.46 70.99 9.79 o
-1 2 21 184.78 207.18 13.19 o
0 2 21 115.26 107.74 10.14 o
1 2 21 187.51 201.52 12.14 o
2 2 21 65.40 66.45 8.95 o
3 2 21 0.33 -4.89 5.13 o
4 2 21 2.98 -0.70 13.09 o
5 2 21 90.33 103.03 22.62 o
6 2 21 40.35 35.44 18.90 o
7 2 21 112.46 153.61 30.64 o
-7 3 21 6.19 -24.25 24.25 o
-6 3 21 112.89 69.71 26.51 o
-5 3 21 63.76 54.36 15.31 o
-4 3 21 49.41 57.32 18.27 o
-3 3 21 23.49 15.87 6.08 o
-2 3 21 4.78 4.89 5.62 o
-1 3 21 125.09 128.96 9.72 o
0 3 21 21.57 37.09 7.25 o
1 3 21 121.42 112.86 9.41 o
2 3 21 3.89 22.53 7.97 o
3 3 21 21.66 20.69 6.80 o
4 3 21 48.94 47.60 21.06 o
5 3 21 62.77 123.49 22.74 o
6 3 21 114.75 132.46 24.95 o
7 3 21 6.16 27.73 21.39 o
-6 4 21 57.44 59.41 22.11 o
-5 4 21 13.47 34.72 17.26 o
-4 4 21 74.67 102.42 19.45 o
-3 4 21 37.16 30.71 6.76 o
-2 4 21 59.30 54.36 8.99 o
-1 4 21 13.56 10.67 6.48 o
0 4 21 4.39 9.79 7.74 o
1 4 21 13.42 13.98 6.29 o
2 4 21 57.33 64.70 8.83 o
3 4 21 37.11 48.44 10.21 o
4 4 21 73.04 103.03 18.59 o
5 4 21 13.55 24.16 21.02 o
6 4 21 56.87 41.89 18.17 o
-6 5 21 28.21 16.99 19.13 o
-5 5 21 39.31 103.03 24.16 o
-4 5 21 57.01 48.65 14.91 o
-3 5 21 5.28 -6.76 6.76 o
-2 5 21 154.71 131.06 12.23 o
-1 5 21 40.31 44.08 8.92 o
0 5 21 73.09 77.84 9.44 o
1 5 21 40.77 31.73 10.67 o
2 5 21 157.51 157.81 12.65 o
3 5 21 3.96 -1.16 7.25 o
4 5 21 56.41 57.55 16.22 o
5 5 21 39.26 31.90 22.41 o
6 5 21 28.04 3.47 12.51 o
-6 6 21 0.44 17.75 25.21 o
-5 6 21 16.03 -4.43 17.24 o
-4 6 21 2.47 27.73 23.46 o
-3 6 21 32.51 22.53 6.22 o
-2 6 21 13.37 16.36 7.04 o
-1 6 21 120.78 142.85 12.40 o
0 6 21 5.86 11.91 6.94 o
1 6 21 125.74 130.36 12.91 o
2 6 21 13.41 17.75 8.11 o
3 6 21 32.58 32.76 7.88 o
4 6 21 2.58 -12.63 12.63 o
5 6 21 15.65 49.95 26.10 o
6 6 21 0.52 6.73 18.38 o
-5 7 21 44.11 55.71 19.59 o
-4 7 21 16.18 10.46 19.06 o
-3 7 21 63.99 58.95 9.86 o
-2 7 21 10.99 33.29 7.22 o
-1 7 21 156.21 182.48 14.45 o
0 7 21 5.81 4.43 7.20 o
1 7 21 155.43 149.49 13.44 o
2 7 21 11.59 10.67 8.88 o
3 7 21 62.97 73.07 12.00 o
4 7 21 16.62 21.39 19.06 o
5 7 21 43.70 33.11 16.87 o
-5 8 21 1.32 24.00 22.88 o
-4 8 21 193.81 195.06 26.00 o
-3 8 21 35.22 21.67 14.91 o
-2 8 21 149.63 160.11 15.07 o
-1 8 21 53.89 65.70 11.39 o
0 8 21 46.61 44.90 8.39 o
1 8 21 53.92 59.18 10.09 o
2 8 21 147.98 169.53 17.89 o
3 8 21 35.48 70.48 14.10 o
4 8 21 194.56 268.24 36.51 o
5 8 21 1.34 -14.68 23.04 o
-4 9 21 36.70 32.60 19.52 o
-3 9 21 44.22 34.90 21.83 o
-2 9 21 82.70 87.26 12.56 o
-1 9 21 78.32 100.89 13.49 o
0 9 21 128.35 154.01 16.29 o
1 9 21 76.65 91.59 14.31 o
2 9 21 84.74 94.83 15.75 o
3 9 21 44.22 16.99 10.44 o
4 9 21 36.61 53.01 24.23 o
-3 10 21 17.95 12.12 15.61 o
-2 10 21 0.19 8.60 10.90 o
-1 10 21 143.69 165.96 18.08 o
0 10 21 58.06 50.82 10.88 o
1 10 21 144.17 123.14 16.59 o
2 10 21 0.19 3.47 8.36 o
3 10 21 18.07 21.25 13.51 o
-2 11 21 33.72 25.68 10.07 o
-1 11 21 38.93 33.83 11.91 o
0 11 21 34.37 24.46 14.05 o
1 11 21 38.59 43.90 12.33 o
2 11 21 34.22 13.54 13.02 o
0 0 22 171.61 245.74 23.44 o
1 0 22 59.13 66.19 9.93 o
2 0 22 187.05 191.24 14.35 o
3 0 22 0.96 -5.82 5.82 o
4 0 22 5.56 24.00 15.40 o
5 0 22 5.53 -19.97 19.97 o
6 0 22 10.12 56.85 24.16 o
-6 1 22 13.30 8.85 15.82 o
-5 1 22 5.02 -9.04 13.68 o
-4 1 22 66.76 87.56 18.29 o
-3 1 22 51.52 50.16 6.48 o
-2 1 22 26.23 36.72 8.69 o
-1 1 22 55.78 63.49 8.50 o
0 1 22 18.23 21.25 6.76 o
1 1 22 56.30 58.71 7.01 o
2 1 22 25.13 7.22 7.71 o
3 1 22 51.03 39.93 7.71 o
4 1 22 65.84 51.91 19.13 o
5 1 22 4.90 2.56 12.58 o
6 1 22 13.42 13.30 18.38 o
-6 2 22 40.90 96.32 26.68 o
-5 2 22 62.84 55.03 17.43 o
-4 2 22 65.42 70.74 21.58 o
-3 2 22 216.49 228.82 13.40 o
-2 2 22 52.66 62.28 8.67 o
-1 2 22 33.25 39.93 6.76 o
0 2 22 22.26 33.99 9.62 o
1 2 22 33.93 32.76 8.39 o
2 2 22 53.09 44.08 9.32 o
3 2 22 218.21 222.39 17.75 o
4 2 22 63.77 43.29 16.47 o
5 2 22 63.60 54.12 12.58 o
6 2 22 42.06 31.38 15.05 o
-6 3 22 55.69 64.70 18.41 o
-5 3 22 51.53 16.12 20.60 o
-4 3 22 22.56 33.11 20.74 o
-3 3 22 41.74 29.36 6.13 o
-2 3 22 19.38 24.16 8.41 o
-1 3 22 4.24 -6.73 6.73 o
0 3 22 22.48 19.87 7.90 o
1 3 22 5.41 -1.16 6.08 o
2 3 22 19.98 20.97 5.87 o
3 3 22 40.66 34.53 8.62 o
4 3 22 24.55 23.11 20.69 o
5 3 22 50.17 24.00 19.29 o
6 3 22 56.45 78.66 16.24 o
-6 4 22 50.48 24.77 25.82 o
-5 4 22 75.33 89.56 21.39 o
-4 4 22 19.31 -11.37 11.37 o
-3 4 22 48.10 43.29 7.43 o
-2 4 22 24.59 25.21 7.20 o
-1 4 22 52.51 54.80 8.60 o
0 4 22 176.81 181.24 11.93 o
1 4 22 52.35 49.72 10.34 o
2 4 22 23.48 21.39 6.92 o
3 4 22 47.09 43.08 9.23 o
4 4 22 18.50 48.88 19.43 o
5 4 22 75.14 125.86 27.40 o
6 4 22 50.16 19.59 17.71 o
-6 5 22 51.55 45.11 23.79 o
-5 5 22 18.63 -11.37 17.19 o
-4 5 22 137.69 140.66 21.37 o
-3 5 22 75.84 79.47 22.86 o
-2 5 22 58.85 52.56 7.97 o
-1 5 22 39.43 47.81 10.34 o
0 5 22 0.48 -0.70 8.43 o
1 5 22 38.22 12.53 8.64 o
2 5 22 56.64 48.88 8.32 o
3 5 22 75.47 69.71 10.95 o
4 5 22 132.97 135.65 23.81 o
5 5 22 18.86 27.10 22.55 o
6 5 22 50.59 106.15 26.75 o
-5 6 22 109.84 155.90 26.68 o
-4 6 22 50.81 51.03 17.01 o
-3 6 22 69.47 89.84 22.27 o
-2 6 22 38.43 24.77 7.76 o
-1 6 22 58.74 39.35 10.34 o
0 6 22 10.07 13.09 6.97 o
1 6 22 59.39 59.88 11.35 o
2 6 22 38.82 46.13 9.32 o
3 6 22 65.55 74.91 12.95 o
4 6 22 49.81 37.47 20.92 o
5 6 22 106.78 137.42 27.19 o
-5 7 22 33.33 49.30 17.36 o
-4 7 22 14.10 30.03 22.09 o
-3 7 22 21.07 22.39 14.17 o
-2 7 22 27.02 24.91 8.83 o
-1 7 22 34.55 54.80 11.74 o
0 7 22 18.06 7.90 8.41 o
1 7 22 36.55 25.68 12.53 o
2 7 22 24.67 27.10 9.37 o
3 7 22 20.88 0.93 7.90 o
4 7 22 12.72 3.03 15.82 o
5 7 22 32.30 59.88 18.66 o
-4 8 22 0.92 27.10 16.52 o
-3 8 22 17.12 8.85 11.44 o
-2 8 22 22.12 17.50 11.37 o
-1 8 22 55.90 67.43 10.02 o
0 8 22 382.96 460.58 32.76 o
1 8 22 54.27 80.55 12.05 o
2 8 22 21.79 14.21 9.55 o
3 8 22 16.84 21.95 10.30 o
4 8 22 0.85 7.22 16.99 o
-4 9 22 11.99 27.89 17.24 o
-3 9 22 59.68 85.28 20.01 o
-2 9 22 5.32 -0.23 10.83 o
-1 9 22 40.47 42.68 11.37 o
0 9 22 0.04 -8.62 8.62 o
1 9 22 38.29 3.94 11.63 o
2 9 22 4.63 20.27 13.07 o
3 9 22 59.86 61.79 13.91 o
-2 10 22 19.34 13.98 24.44 o
-1 10 22 16.15 14.21 9.79 o
0 10 22 66.61 76.77 13.37 o
1 10 22 15.67 29.36 10.09 o
2 10 22 18.97 27.73 12.53 o
0 11 22 59.55 42.68 15.75 o
1 0 23 80.42 78.91 11.39 o
2 0 23 22.61 38.58 7.97 o
3 0 23 78.72 73.32 8.36 o
4 0 23 164.39 236.25 26.28 o
5 0 23 28.59 49.09 26.10 o
6 0 23 74.97 73.32 16.99 o
-6 1 23 0.32 0.47 23.67 o
-5 1 23 73.94 73.86 18.62 o
-4 1 23 30.57 44.90 21.27 o
-3 1 23 82.94 65.94 7.69 o
-2 1 23 85.42 99.65 10.37 o
-1 1 23 118.59 150.61 13.12 o
0 1 23 36.20 32.41 8.69 o
1 1 23 116.45 126.89 12.72 o
2 1 23 88.78 74.91 8.99 o
3 1 23 84.14 84.44 9.53 o
4 1 23 28.26 59.88 23.39 o
5 1 23 72.81 78.38 22.97 o
6 1 23 0.22 -13.79 13.79 o
-6 2 23 88.32 110.28 20.83 o
-5 2 23 6.05 57.32 22.18 o
-4 2 23 43.95 54.80 16.73 o
-3 2 23 13.48 38.21 17.17 o
-2 2 23 153.68 154.75 12.53 o
-1 2 23 187.98 171.11 13.19 o
0 2 23 394.38 371.06 21.76 o
1 2 23 187.90 184.55 15.35 o
2 2 23 153.38 171.93 14.40 o
3 2 23 13.35 7.71 7.71 o
4 2 23 43.88 82.48 18.01 o
5 2 23 5.62 22.39 21.23 o
6 2 23 86.36 72.81 20.32 o
-6 3 23 22.87 80.55 26.58 o
-5 3 23 45.14 24.91 18.59 o
-4 3 23 62.13 88.42 17.80 o
-3 3 23 67.19 52.80 13.09 o
-2 3 23 87.74 90.73 9.02 o
-1 3 23 24.76 12.53 7.90 o
0 3 23 193.42 192.10 14.82 o
1 3 23 24.36 20.69 10.41 o
2 3 23 84.67 80.01 9.55 o
3 3 23 66.19 77.03 9.65 o
4 3 23 59.49 69.20 23.11 o
5 3 23 43.29 28.87 22.30 o
6 3 23 22.98 22.11 23.25 o
-5 4 23 122.95 117.13 31.38 o
-4 4 23 34.60 51.47 23.21 o
-3 4 23 238.64 271.25 34.18 o
-2 4 23 161.20 150.61 13.86 o
-1 4 23 93.18 100.89 12.26 o
0 4 23 3.91 -8.85 8.85 o
1 4 23 93.19 97.53 11.46 o
2 4 23 161.82 146.51 15.52 o
3 4 23 236.42 270.76 16.08 o
4 4 23 33.87 51.91 19.80 o
5 4 23 122.97 116.12 28.96 o
-5 5 23 24.52 7.90 15.10 o
-4 5 23 75.01 105.22 26.93 o
-3 5 23 183.37 181.24 19.73 o
-2 5 23 80.45 91.59 9.65 o
-1 5 23 99.24 99.65 11.88 o
0 5 23 18.04 6.03 8.62 o
1 5 23 103.22 99.05 11.23 o
2 5 23 81.01 59.65 10.60 o
3 5 23 184.66 196.79 19.27 o
4 5 23 74.74 132.46 23.88 o
5 5 23 23.92 55.71 25.75 o
-5 6 23 17.48 -2.82 18.97 o
-4 6 23 35.75 39.17 17.78 o
-3 6 23 54.37 44.90 14.73 o
-2 6 23 186.68 193.78 18.27 o
-1 6 23 59.04 42.08 9.69 o
0 6 23 94.45 103.36 13.65 o
1 6 23 58.97 66.68 11.46 o
2 6 23 190.05 182.48 15.26 o
3 6 23 53.94 57.78 10.90 o
4 6 23 35.21 28.22 22.23 o
5 6 23 17.76 25.68 16.40 o
-4 7 23 4.18 -4.43 17.03 o
-3 7 23 0.05 4.89 21.02 o
-2 7 23 18.07 11.91 8.43 o
-1 7 23 15.51 -3.70 8.34 o
0 7 23 230.36 229.29 19.87 o
1 7 23 17.20 13.30 10.25 o
2 7 23 16.40 7.90 10.04 o
3 7 23 0.07 -7.46 7.92 o
4 7 23 4.47 2.33 13.75 o
-4 8 23 23.54 19.99 17.47 o
-3 8 23 87.19 87.84 24.88 o
-2 8 23 1.88 22.83 12.40 o
-1 8 23 97.83 103.36 13.96 o
0 8 23 15.36 19.87 11.84 o
1 8 23 95.25 76.24 11.46 o
2 8 23 1.73 -7.74 7.74 o
3 8 23 87.18 111.58 14.19 o
4 8 23 23.56 87.26 27.66 o
-3 9 23 31.39 21.25 18.71 o
-2 9 23 25.60 57.78 15.31 o
-1 9 23 11.34 -5.59 10.04 o
0 9 23 26.20 35.25 13.77 o
1 9 23 10.77 6.03 11.18 o
2 9 23 23.99 44.50 13.23 o
3 9 23 31.90 30.36 17.66 o
-1 10 23 3.66 9.51 14.68 o
0 10 23 31.92 45.11 14.35 o
1 10 23 4.12 2.10 11.21 o
0 0 24 48.36 35.62 10.74 o
1 0 24 145.34 170.71 11.98 o
2 0 24 6.51 -0.70 7.71 o
3 0 24 16.08 -5.82 11.42 o
4 0 24 4.69 13.54 15.17 o
5 0 24 8.25 19.32 18.13 o
-5 1 24 42.27 26.30 22.86 o
-4 1 24 11.46 9.79 15.38 o
-3 1 24 171.02 188.30 28.08 o
-2 1 24 68.12 66.94 10.48 o
-1 1 24 33.99 44.29 9.95 o
0 1 24 143.23 150.98 12.37 o
1 1 24 35.33 29.36 9.76 o
2 1 24 69.90 71.51 11.37 o
3 1 24 168.83 226.05 28.91 o
4 1 24 11.11 20.27 16.50 o
5 1 24 41.35 31.38 14.19 o
-5 2 24 16.78 15.38 16.52 o
-4 2 24 145.69 159.74 32.01 o
-3 2 24 47.76 31.03 15.14 o
-2 2 24 115.41 107.74 12.05 o
-1 2 24 13.73 31.03 9.86 o
0 2 24 165.41 204.57 16.15 o
1 2 24 13.56 41.10 10.95 o
2 2 24 118.23 134.58 13.82 o
3 2 24 47.60 11.18 18.17 o
4 2 24 142.65 158.20 22.27 o
5 2 24 17.17 21.39 20.90 o
-5 3 24 46.34 108.36 28.61 o
-4 3 24 12.70 -6.03 20.25 o
-3 3 24 42.08 47.60 16.85 o
-2 3 24 28.49 13.98 7.64 o
-1 3 24 72.14 67.68 10.55 o
0 3 24 33.57 44.29 9.34 o
1 3 24 74.91 79.19 9.51 o
2 3 24 29.24 28.38 9.60 o
3 3 24 40.03 69.20 20.32 o
4 3 24 12.87 15.38 21.44 o
5 3 24 45.69 75.16 24.09 o
-5 4 24 4.60 4.43 17.50 o
-4 4 24 11.72 31.03 17.17 o
-3 4 24 62.45 69.20 22.09 o
-2 4 24 2.58 -6.97 6.97 o
-1 4 24 103.60 126.89 13.42 o
0 4 24 6.77 13.54 8.20 o
1 4 24 100.86 85.55 9.88 o
2 4 24 2.50 9.32 8.85 o
3 4 24 62.20 44.90 17.19 o
4 4 24 11.83 12.33 20.90 o
5 4 24 5.30 -7.71 27.05 o
-5 5 24 51.33 88.12 33.53 o
-4 5 24 18.19 30.36 21.88 o
-3 5 24 18.57 0.00 2.33 o
-2 5 24 53.69 68.20 11.09 o
-1 5 24 102.43 100.56 11.93 o
0 5 24 87.81 115.47 10.51 o
1 5 24 100.19 89.84 11.00 o
2 5 24 51.98 95.43 12.53 o
3 5 24 17.45 37.09 16.36 o
4 5 24 17.41 0.23 21.46 o
5 5 24 51.77 10.97 26.79 o
-4 6 24 79.35 77.84 26.65 o
-3 6 24 30.96 32.06 16.59 o
-2 6 24 25.62 41.10 10.18 o
-1 6 24 14.52 13.75 8.83 o
0 6 24 111.02 94.55 12.47 o
1 6 24 14.50 38.02 9.41 o
2 6 24 22.98 22.53 10.30 o
3 6 24 30.26 52.56 21.02 o
4 6 24 81.21 94.25 23.42 o
-4 7 24 5.46 2.10 15.63 o
-3 7 24 0.82 -0.23 17.45 o
-2 7 24 11.63 -5.10 14.89 o
-1 7 24 55.92 63.49 10.21 o
0 7 24 139.89 117.13 16.19 o
1 7 24 54.03 67.94 13.58 o
2 7 24 12.87 13.98 10.51 o
3 7 24 1.21 -10.27 16.33 o
4 7 24 5.37 -5.38 16.78 o
-3 8 24 42.57 -3.03 26.56 o
-2 8 24 20.12 -12.86 20.81 o
-1 8 24 76.89 126.21 16.80 o
0 8 24 85.93 95.43 13.12 o
1 8 24 76.83 69.71 11.98 o
2 8 24 19.89 12.53 9.51 o
3 8 24 43.41 35.81 21.18 o
-1 9 24 86.79 110.93 13.19 o
0 9 24 5.98 3.94 14.66 o
1 9 24 87.87 96.04 17.66 o
1 0 25 0.78 6.27 7.64 o
2 0 25 111.12 70.48 12.30 o
3 0 25 591.68 657.60 50.89 o
4 0 25 3.59 -2.82 22.25 o
5 0 25 23.30 -14.45 20.08 o
-5 1 25 7.82 5.59 20.50 o
-4 1 25 109.21 78.66 20.85 o
-3 1 25 61.14 91.31 14.59 o
-2 1 25 274.50 285.51 21.16 o
-1 1 25 155.19 171.53 14.80 o
0 1 25 226.05 242.87 17.61 o
1 1 25 152.59 170.32 13.96 o
2 1 25 273.48 312.98 18.90 o
3 1 25 61.58 58.48 18.45 o
4 1 25 109.14 98.74 20.62 o
5 1 25 7.32 -13.09 28.70 o
-5 2 25 24.93 76.77 26.49 o
-4 2 25 6.75 -3.47 21.37 o
-3 2 25 2.16 -13.02 13.02 o
-2 2 25 188.64 211.60 15.10 o
-1 2 25 235.61 249.58 17.85 o
0 2 25 191.97 189.56 15.12 o
1 2 25 239.84 255.90 19.04 o
2 2 25 185.89 186.63 15.42 o
3 2 25 2.20 19.87 19.87 o
4 2 25 7.07 -7.46 14.68 o
5 2 25 23.70 31.73 23.39 o
-5 3 25 85.46 116.80 24.42 o
-4 3 25 6.07 -17.26 17.26 o
-3 3 25 39.38 77.03 20.90 o
-2 3 25 14.20 19.32 8.60 o
-1 3 25 181.26 168.34 15.05 o
0 3 25 167.11 172.32 15.24 o
1 3 25 178.89 202.38 13.89 o
2 3 25 15.08 27.26 8.60 o
3 3 25 37.76 71.51 20.39 o
4 3 25 5.34 24.00 22.58 o
5 3 25 84.77 68.69 29.85 o
-4 4 25 86.11 85.83 28.56 o
-3 4 25 34.78 42.68 13.96 o
-2 4 25 11.72 10.46 7.90 o
-1 4 25 22.07 20.69 8.62 o
0 4 25 60.05 65.45 11.11 o
1 4 25 23.38 25.84 11.02 o
2 4 25 11.82 24.00 7.48 o
3 4 25 34.77 46.97 15.89 o
4 4 25 84.84 76.49 34.18 o
-4 5 25 63.26 80.01 20.48 o
-3 5 25 39.64 55.27 18.83 o
-2 5 25 24.35 44.90 15.75 o
-1 5 25 21.52 23.56 11.86 o
0 5 25 6.54 6.73 8.64 o
1 5 25 21.22 9.04 9.55 o
2 5 25 22.94 19.59 9.60 o
3 5 25 39.61 67.68 17.59 o
4 5 25 64.03 112.54 23.32 o
-3 6 25 29.43 -13.30 23.28 o
-2 6 25 14.64 15.63 19.80 o
-1 6 25 24.74 25.68 9.74 o
0 6 25 90.98 129.66 16.33 o
1 6 25 25.33 30.52 8.76 o
2 6 25 13.65 0.23 9.41 o
3 6 25 28.70 19.99 17.47 o
-3 7 25 73.08 66.68 18.69 o
-2 7 25 56.86 49.72 17.01 o
-1 7 25 45.38 28.87 8.69 o
0 7 25 2.37 5.10 13.02 o
1 7 25 44.81 25.68 9.74 o
2 7 25 56.82 43.08 10.02 o
3 7 25 71.64 112.86 25.96 o
-2 8 25 88.01 141.75 19.62 o
-1 8 25 49.63 41.89 12.26 o
0 8 25 3.31 5.59 10.46 o
1 8 25 50.49 48.88 13.23 o
2 8 25 86.28 74.65 18.20 o
0 0 26 103.27 94.83 18.73 o
1 0 26 38.26 27.26 8.46 o
2 0 26 0.48 1.84 7.43 o
3 0 26 13.44 -4.64 21.62 o
4 0 26 26.78 4.89 18.17 o
-4 1 26 49.41 58.95 18.76 o
-3 1 26 29.75 6.27 15.35 o
-2 1 26 98.17 130.01 14.96 o
-1 1 26 50.26 47.81 9.09 o
0 1 26 1.07 0.23 6.85 o
1 1 26 50.85 50.82 9.58 o
2 1 26 99.98 106.48 12.91 o
3 1 26 29.40 16.50 14.63 o
4 1 26 51.42 29.36 18.20 o
-4 2 26 22.54 36.35 20.25 o
-3 2 26 60.82 57.78 23.21 o
-2 2 26 49.61 52.80 17.08 o
-1 2 26 134.64 159.74 15.82 o
0 2 26 25.51 25.21 8.57 o
1 2 26 136.51 141.03 15.24 o
2 2 26 48.90 42.08 9.69 o
3 2 26 65.09 50.82 25.23 o
4 2 26 21.87 2.33 20.97 o
-4 3 26 5.28 14.45 24.25 o
-3 3 26 63.91 81.92 21.83 o
-2 3 26 45.02 56.62 17.92 o
-1 3 26 121.64 121.46 15.14 o
0 3 26 0.82 -5.82 9.06 o
1 3 26 123.97 129.66 12.86 o
2 3 26 46.39 42.08 11.88 o
3 3 26 63.11 96.32 23.07 o
4 3 26 5.15 39.17 27.70 o
-4 4 26 20.46 58.25 20.50 o
-3 4 26 3.52 17.87 21.69 o
-2 4 26 63.32 80.01 23.21 o
-1 4 26 1.87 14.45 10.90 o
0 4 26 292.34 355.94 27.66 o
1 4 26 1.86 -4.19 8.11 o
2 4 26 64.54 44.69 9.39 o
3 4 26 3.51 20.27 15.80 o
4 4 26 20.03 1.16 17.31 o
-3 5 26 32.83 15.38 19.15 o
-2 5 26 0.93 38.02 21.65 o
-1 5 26 73.89 63.23 10.44 o
0 5 26 5.14 9.97 11.67 o
1 5 26 74.79 68.94 12.67 o
2 5 26 1.28 8.85 8.18 o
3 5 26 33.32 57.32 19.87 o
-2 6 26 12.57 52.12 20.95 o
-1 6 26 12.00 18.13 10.02 o
0 6 26 0.14 -7.74 7.74 o
1 6 26 12.77 3.03 14.45 o
2 6 26 13.07 4.64 11.63 o
-1 7 26 13.08 16.73 13.98 o
0 7 26 6.84 0.70 11.00 o
1 7 26 14.28 27.10 11.60 o
1 0 27 29.63 24.91 7.46 o
2 0 27 274.42 344.53 35.69 o
3 0 27 73.48 113.84 18.24 o
-3 1 27 250.68 235.32 29.96 o
-2 1 27 78.95 112.86 21.41 o
-1 1 27 93.74 90.14 11.02 o
0 1 27 23.43 6.97 7.41 o
1 1 27 93.00 96.92 12.02 o
2 1 27 79.64 111.88 21.32 o
3 1 27 249.85 268.76 38.54 o
-3 2 27 19.24 12.53 17.19 o
-2 2 27 81.74 56.62 18.85 o
-1 2 27 106.95 115.47 15.10 o
0 2 27 0.86 12.53 12.98 o
1 2 27 104.84 85.83 13.86 o
2 2 27 82.30 94.83 16.66 o
3 2 27 18.62 7.22 24.93 o
-3 3 27 51.43 57.08 19.83 o
-2 3 27 8.70 63.72 20.97 o
-1 3 27 6.02 14.45 7.20 o
0 3 27 192.60 216.96 17.54 o
1 3 27 6.01 11.37 11.63 o
2 3 27 8.48 13.98 11.88 o
3 3 27 52.44 58.71 23.63 o
-3 4 27 54.57 50.82 20.90 o
-2 4 27 15.54 20.69 15.42 o
-1 4 27 3.67 23.28 10.02 o
0 4 27 14.87 31.73 11.70 o
1 4 27 3.48 12.12 10.51 o
2 4 27 15.41 24.91 19.06 o
3 4 27 54.46 114.82 23.23 o
-2 5 27 14.89 38.21 17.94 o
-1 5 27 23.53 3.03 8.60 o
0 5 27 45.94 43.90 9.72 o
1 5 27 23.20 26.30 9.72 o
2 5 27 14.91 38.21 20.76 o
-1 6 27 44.58 31.03 18.03 o
0 6 27 35.29 34.72 11.16 o
1 6 27 44.68 47.60 12.42 o
0 0 28 39.32 36.16 17.08 o
1 0 28 0.19 -6.73 8.39 o
2 0 28 337.59 437.93 46.65 o
-2 1 28 7.74 13.75 16.31 o
-1 1 28 147.87 161.28 16.29 o
0 1 28 11.28 14.45 11.14 o
1 1 28 145.99 154.75 18.22 o
2 1 28 7.84 -9.32 20.04 o
-2 2 28 12.45 4.19 14.93 o
-1 2 28 19.80 35.81 9.13 o
0 2 28 53.46 80.29 16.68 o
1 2 28 19.19 43.29 12.05 o
2 2 28 11.72 -13.98 16.57 o
-2 3 28 53.06 9.04 20.20 o
-1 3 28 10.38 4.19 14.93 o
0 3 28 157.61 142.47 15.31 o
1 3 28 9.76 6.73 9.51 o
2 3 28 52.02 102.73 18.87 o
-1 4 28 95.68 152.49 25.26 o
0 4 28 8.80 37.47 11.02 o
1 4 28 97.02 107.74 16.17 o
0 1 29 50.02 61.07 14.80 o
