#------------------------------------------------------------------------------
#$Date: 2017-09-28 15:55:54 +0300 (Thu, 28 Sep 2017) $
#$Revision: 201421 $
#$URL: file:///home/coder/svn-repositories/cod/cif/1/54/74/1547419.cif $
#------------------------------------------------------------------------------
#
# This file is available in the Crystallography Open Database (COD),
# http://www.crystallography.net/
#
# All data on this site have been placed in the public domain by the
# contributors.
#
data_1547419
loop_
_publ_author_name
'Anuradha R. Pallipurath'
'Jonathan M. Skelton'
'Mark R. Warren'
'Naghmeh Kamali'
'Patrick McArdle'
'Andrea Erxleben'
_publ_section_title
;
 Sulfamerazine: Understanding the Influence of Slip Planes in the
 Polymorphic Phase Transformation through X-Ray Crystallographic Studies
 and ab Initio Lattice Dynamics
;
_journal_name_full               'Molecular Pharmaceutics'
_journal_page_first              3735
_journal_page_last               3748
_journal_paper_doi               10.1021/acs.molpharmaceut.5b00504
_journal_volume                  12
_journal_year                    2015
_chemical_absolute_configuration ad
_chemical_formula_moiety         'C11 H12 N4 O2 S'
_chemical_formula_sum            'C11 H12 N4 O2 S'
_chemical_formula_weight         264.31
_chemical_name_common            Sulfamerazine
_chemical_name_systematic        4-amino-N-(4-methylpyrimidin-2-yl)
_space_group_crystal_system      orthorhombic
_space_group_IT_number           33
_space_group_name_Hall           'P 2c -2n'
_space_group_name_H-M_alt        'P n a 21'
_symmetry_space_group_name_Hall  'P 2c -2n'
_symmetry_space_group_name_H-M   'P n a 21'
_atom_sites_solution_hydrogens   mixed
_cell_angle_alpha                90
_cell_angle_beta                 90
_cell_angle_gamma                90
_cell_formula_units_Z            8
_cell_length_a                   14.4763(2)
_cell_length_b                   8.19460(10)
_cell_length_c                   21.8522(4)
_cell_measurement_reflns_used    5924
_cell_measurement_temperature    210
_cell_measurement_theta_max      29.4940
_cell_measurement_theta_min      2.5650
_cell_volume                     2592.27(7)
_computing_cell_refinement
;
CrysAlisPro, Agilent Technologies,
Version 1.171.37.35 (release 13-08-2014 CrysAlis171 .NET)
(compiled Aug 13 2014,18:06:01)
;
_computing_data_collection
;
CrysAlisPro, Agilent Technologies,
Version 1.171.37.35 (release 13-08-2014 CrysAlis171 .NET)
(compiled Aug 13 2014,18:06:01)
;
_computing_data_reduction
;
CrysAlisPro, Agilent Technologies,
Version 1.171.37.35 (release 13-08-2014 CrysAlis171 .NET)
(compiled Aug 13 2014,18:06:01)
;
_computing_molecular_graphics    OSCAIL
_computing_structure_refinement  'SHELXL-2014/7 (Sheldrick, 2014)'
_computing_structure_solution    SHELXT
_diffrn_ambient_temperature      210
_diffrn_measured_fraction_theta_full 0.978
_diffrn_measured_fraction_theta_max 0.943
_diffrn_measurement_device       'CrystalLogic Kappa (3 circle)'
_diffrn_measurement_device_type  'Rigaku Saturn724+ (2x2 bin mode)'
_diffrn_measurement_method
;
omega rotation with 1 degree frames
;
_diffrn_measurement_specimen_support 'MiTeGen loop'
_diffrn_radiation_monochromator  'double crystal Silicon 111'
_diffrn_radiation_source         'Diamond Light Source Beamline I19'
_diffrn_radiation_type           Synchrotron
_diffrn_radiation_wavelength     0.68890
_diffrn_reflns_av_R_equivalents  0.0441
_diffrn_reflns_av_unetI/netI     0.0574
_diffrn_reflns_Laue_measured_fraction_full 0.978
_diffrn_reflns_Laue_measured_fraction_max 0.943
_diffrn_reflns_limit_h_max       20
_diffrn_reflns_limit_h_min       -13
_diffrn_reflns_limit_k_max       11
_diffrn_reflns_limit_k_min       -11
_diffrn_reflns_limit_l_max       27
_diffrn_reflns_limit_l_min       -22
_diffrn_reflns_number            12040
_diffrn_reflns_theta_full        24.415
_diffrn_reflns_theta_max         29.474
_diffrn_reflns_theta_min         2.573
_exptl_absorpt_coefficient_mu    0.250
_exptl_absorpt_correction_T_max  1.00000
_exptl_absorpt_correction_T_min  0.96981
_exptl_absorpt_correction_type   multi-scan
_exptl_absorpt_process_details
;
CrysAlisPro, Agilent Technologies,
Version 1.171.36.28 (release 01-02-2013 CrysAlis171 .NET)
Empirical absorption correction using spherical harmonics,
implemented in SCALE3 ABSPACK scaling algorithm.
;
_exptl_crystal_colour            Colourless
_exptl_crystal_density_diffrn    1.354
_exptl_crystal_description       Parallelepiped
_exptl_crystal_F_000             1104
_exptl_crystal_size_max          0.50
_exptl_crystal_size_mid          0.40
_exptl_crystal_size_min          0.20
_refine_diff_density_max         0.256
_refine_diff_density_min         -0.340
_refine_diff_density_rms         0.055
_refine_ls_abs_structure_details
;
 Flack x determined using 1570 quotients [(I+)-(I-)]/[(I+)+(I-)]
 (Parsons, Flack and Wagner, Acta Cryst. B69 (2013) 249-259).
;
_refine_ls_abs_structure_Flack   0.10(7)
_refine_ls_extinction_coef       .
_refine_ls_extinction_method     none
_refine_ls_goodness_of_fit_ref   1.090
_refine_ls_hydrogen_treatment    mixed
_refine_ls_matrix_type           full
_refine_ls_number_parameters     344
_refine_ls_number_reflns         6415
_refine_ls_number_restraints     1
_refine_ls_restrained_S_all      1.090
_refine_ls_R_factor_all          0.0676
_refine_ls_R_factor_gt           0.0505
_refine_ls_shift/su_max          0.002
_refine_ls_shift/su_mean         0.000
_refine_ls_structure_factor_coef Fsqd
_refine_ls_weighting_details
'w=1/[\s^2^(Fo^2^)+(0.0541P)^2^+0.3587P] where P=(Fo^2^+2Fc^2^)/3'
_refine_ls_weighting_scheme      calc
_refine_ls_wR_factor_gt          0.1157
_refine_ls_wR_factor_ref         0.1389
_reflns_Friedel_coverage         0.679
_reflns_Friedel_fraction_full    0.774
_reflns_Friedel_fraction_max     0.672
_reflns_number_gt                5007
_reflns_number_total             6415
_reflns_threshold_expression     'I > 2\s(I)'
_cod_data_source_file            Exp_Form-I2FSynchrotron_Form-I_210K.cif
_cod_data_source_block           210k_smz-f1_a
_cod_database_code               1547419
_shelx_space_group_comment
;
The symmetry employed for this shelxl refinement is uniquely defined
by the following loop, which should always be used as a source of
symmetry information in preference to the above space-group names.
They are only intended as comments.
;
_shelx_estimated_absorpt_t_min   0.885
_shelx_estimated_absorpt_t_max   0.952
_shelx_res_file
;
    210k_smz-f1_a.res created by SHELXL-2014/7
TITL 210k_smz-f1_a.res in Pna2(1)
REM Old TITL 011_210K_SulfamerazineF1_ in Pna2(1)
REM SHELXT solution in Pna2(1)
REM R1 0.107,  Rweak 0.027,  Alpha 0.004,  Orientation as input
REM Flack x =  0.127 ( 0.067 ) from Parsons' quotients
REM Formula found by SHELXT:  C27 N3 O4 S2
CELL  0.68890  14.4763   8.1946  21.8522   90.000   90.000   90.000
ZERR    8.000   0.0002   0.0001   0.0004    0.000    0.000    0.000
REM SG 33 4 4 Pna21 PGmm2 Orthorhombic
LATT -1
REM SG  ASUN  1  .5 .5 1.
REM SG  ORGN  on 2(1)
SYMM -X,-Y,0.5+Z
SYMM 0.5+X,0.5-Y,Z
SYMM 0.5-X,0.5+Y,0.5+Z
SFAC C H N O S
UNIT 88.00 96.00 32.00 16.00 8.00
L.S. 10
SIZE    0.50  0.40  0.20
BOND $H
FMAP 2
PLAN 20
ACTA
CONF
EQIV $1 x, y-1, z
HTAB N5 O4_$1
EQIV $2 -x+3/2, y+1/2, z-1/2
HTAB N1 O4_$2
EQIV $3 x, y+1, z
HTAB N1 O1_$3
HTAB N2 N8
HTAB N6 N4
LIST 4
WGHT    0.054100    0.358700
FVAR       0.54465   0.35344
S1    5    0.645163    0.495119    0.343975    11.00000    0.02534    0.03067 =
         0.02807    0.00262   -0.00048   -0.00178
S2    5    0.577856    0.496857    0.652840    11.00000    0.02620    0.02880 =
         0.02828    0.00319   -0.00154   -0.00160
O1    4    0.688381    0.370420    0.308232    11.00000    0.04156    0.03000 =
         0.04061   -0.00556    0.00094   -0.00116
O2    4    0.547917    0.522538    0.337006    11.00000    0.02710    0.04545 =
         0.03518    0.00457   -0.00316   -0.00372
O3    4    0.675703    0.469814    0.659258    11.00000    0.02681    0.04355 =
         0.03445    0.00649   -0.00684   -0.00187
O4    4    0.535587    0.624147    0.687918    11.00000    0.04415    0.02946 =
         0.03727   -0.00306   -0.00501   -0.00203
N1    3    0.842810    1.117040    0.311976    11.00000    0.04069    0.02932 =
         0.05697   -0.00973    0.01646   -0.00405
N2    3    0.654378    0.447433    0.417021    11.00000    0.02459    0.04198 =
         0.03220    0.00501    0.00018    0.00249
N3    3    0.813740    0.408972    0.417179    11.00000    0.02593    0.03522 =
         0.03560    0.00135    0.00280    0.00406
N4    3    0.727943    0.429922    0.509567    11.00000    0.03003    0.07290 =
         0.02862    0.00432    0.00081    0.00951
N5    3    0.380411   -0.120165    0.695292    11.00000    0.04967    0.02902 =
         0.08332   -0.00511    0.01836   -0.00867
AFIX  93
H5A   2    0.323879   -0.119064    0.707382    11.00000   -1.30000
H5B   2    0.407942   -0.211589    0.688904    11.00000   -1.30000
AFIX   0
N6    3    0.567967    0.538810    0.579743    11.00000    0.02451    0.04870 =
         0.02837    0.00864    0.00595    0.00304
N7    3    0.409440    0.587120    0.580646    11.00000    0.02686    0.03861 =
         0.03876    0.00277    0.00517    0.00291
N8    3    0.495326    0.565800    0.487707    11.00000    0.03683    0.06988 =
         0.03757    0.00483   -0.00252    0.01261
C1    1    0.704042    0.677165    0.333569    11.00000    0.02220    0.02769 =
         0.02728    0.00143    0.00099    0.00063
C2    1    0.793909    0.679125    0.310642    11.00000    0.02522    0.02954 =
         0.03106   -0.00117   -0.00045    0.00339
AFIX  43
H2    2    0.823146    0.581696    0.300581    11.00000   -1.30000
AFIX   0
C3    1    0.839421    0.825295    0.302883    11.00000    0.02549    0.03320 =
         0.02806   -0.00160    0.00532    0.00236
AFIX  43
H3    2    0.898921    0.826206    0.286837    11.00000   -1.30000
AFIX   0
C4    1    0.796470    0.973485    0.319084    11.00000    0.02810    0.03263 =
         0.02487   -0.00207   -0.00095   -0.00095
C5    1    0.705751    0.969808    0.342405    11.00000    0.03071    0.02844 =
         0.03543   -0.00289    0.00828    0.00291
AFIX  43
H5    2    0.676016    1.066856    0.352342    11.00000   -1.30000
AFIX   0
C6    1    0.660924    0.823285    0.350550    11.00000    0.02320    0.03572 =
         0.03455    0.00075    0.00430    0.00190
AFIX  43
H6    2    0.601913    0.821319    0.367355    11.00000   -1.30000
AFIX   0
C7    1    0.736865    0.428448    0.449453    11.00000    0.02671    0.03296 =
         0.03403    0.00343   -0.00523    0.00123
C8    1    0.806615    0.406196    0.541091    11.00000    0.04520    0.11350 =
         0.03529   -0.00086   -0.01488    0.02271
AFIX  43
H8    2    0.804762    0.405675    0.583631    11.00000   -1.30000
AFIX   0
C9    1    0.889888    0.382642    0.511847    11.00000    0.03203    0.09550 =
         0.04466   -0.00570   -0.00728    0.01580
AFIX  43
H9    2    0.943512    0.363396    0.534145    11.00000   -1.30000
AFIX   0
C10   1    0.891933    0.388168    0.449568    11.00000    0.03213    0.04180 =
         0.04599   -0.00231   -0.00537    0.00908
C11   1    0.978027    0.369823    0.413365    11.00000    0.02967    0.06959 =
         0.05948   -0.00559    0.00624    0.00858
AFIX 137
H11A  2    0.978317    0.265116    0.393663    11.00000   -1.30000
H11B  2    1.030490    0.378260    0.440050    11.00000   -1.30000
H11C  2    0.980975    0.454223    0.382961    11.00000   -1.30000
AFIX   0
C12   1    0.518840    0.315930    0.665791    11.00000    0.02873    0.02806 =
         0.02861    0.00155   -0.00379   -0.00050
C13   1    0.562939    0.168598    0.656022    11.00000    0.02882    0.03485 =
         0.03932   -0.00180    0.01063    0.00410
AFIX  43
H13   2    0.624182    0.167975    0.643170    11.00000   -1.30000
AFIX   0
C14   1    0.517909    0.023427    0.664960    11.00000    0.03428    0.02929 =
         0.05638   -0.00411    0.00098    0.00374
AFIX  43
H14   2    0.547944   -0.074584    0.656931    11.00000   -1.30000
AFIX   0
C15   1    0.426307    0.022783    0.686268    11.00000    0.03369    0.03206 =
         0.03531   -0.00291    0.00089   -0.00093
C16   1    0.382306    0.172854    0.696500    11.00000    0.03020    0.03124 =
         0.03326   -0.00411    0.00313   -0.00181
AFIX  43
H16   2    0.321292    0.174116    0.709814    11.00000   -1.30000
AFIX   0
C17   1    0.427672    0.317914    0.687218    11.00000    0.02691    0.02850 =
         0.02122    0.00014    0.00297    0.00092
AFIX  43
H17   2    0.398148    0.416503    0.695081    11.00000   -1.30000
AFIX   0
C18   1    0.486502    0.566101    0.548620    11.00000    0.02857    0.03395 =
         0.03083    0.00168   -0.00211    0.00172
C19   1    0.417916    0.597083    0.456188    11.00000    0.03897    0.11290 =
         0.03630    0.00506   -0.00435    0.02542
AFIX  43
H19   2    0.420322    0.600651    0.413680    11.00000   -1.30000
AFIX   0
C20   1    0.334565    0.624178    0.485350    11.00000    0.03863    0.10121 =
         0.05771   -0.00295   -0.01070    0.02948
AFIX  43
H20   2    0.281527    0.647607    0.463001    11.00000   -1.30000
AFIX   0
C21   1    0.331935    0.615766    0.547541    11.00000    0.02610    0.04707 =
         0.04771   -0.00242   -0.00064    0.00572
C22   1    0.244779    0.636211    0.584419    11.00000    0.03320    0.07685 =
         0.07479   -0.00513    0.00980    0.01131
AFIX 137
H22A  2    0.244054    0.742680    0.602740    11.00000   -1.30000
H22B  2    0.242629    0.554648    0.615922    11.00000   -1.30000
H22C  2    0.192114    0.624334    0.558096    11.00000   -1.30000
AFIX   0
H1N1  2    0.899888    1.126446    0.287879    11.00000    0.06089
H2N1  2    0.810947    1.204915    0.317562    11.00000    0.03251
H1N2  2    0.624077    0.481694    0.434157    11.00000    0.03847
H1N6  2    0.618110    0.504056    0.558482    11.00000    0.04188
HKLF 4
REM  210k_smz-f1_a.res in Pna2(1)
REM R1 =  0.0505 for    5007 Fo > 4sig(Fo)  and  0.0676 for all    6415 data
REM    344 parameters refined using      1 restraints
END
WGHT      0.0605      0.4333
REM Highest difference peak  0.256,  deepest hole -0.340,  1-sigma level  0.055
Q1    1   0.5463  0.3901  0.6549  11.00000  0.05    0.26
Q2    1   0.6692  0.6005  0.3462  11.00000  0.05    0.22
Q3    1   0.7388  0.4998  0.5091  11.00000  0.05    0.22
Q4    1   0.8229  0.8980  0.3229  11.00000  0.05    0.21
Q5    1   0.6296  0.8203  0.3528  11.00000  0.05    0.21
Q6    1   0.4099  0.5414  0.6291  11.00000  0.05    0.21
Q7    1   0.4526  0.3384  0.6556  11.00000  0.05    0.20
Q8    1   0.5582  0.2720  0.6737  11.00000  0.05    0.20
Q9    1   0.3945  0.0854  0.6871  11.00000  0.05    0.20
Q10   1   0.4420  0.3657  0.5143  11.00000  0.05    0.20
Q11   1   0.8219  0.7429  0.3255  11.00000  0.05    0.20
Q12   1   0.9501  0.4424  0.5296  11.00000  0.05    0.20
Q13   1   0.7618  0.9569  0.3365  11.00000  0.05    0.20
Q14   1   0.2674  0.5535  0.4686  11.00000  0.05    0.20
Q15   1   0.3232  0.4165  0.5153  11.00000  0.05    0.19
Q16   1   0.1965  0.5233  0.6748  11.00000  0.05    0.19
Q17   1   0.8310  0.4336  0.2230  11.00000  0.05    0.19
Q18   1   0.7245  0.2988  0.6690  11.00000  0.05    0.19
Q19   1   0.4663  0.0252  0.6778  11.00000  0.05    0.19
Q20   1   0.6711  0.7136  0.3689  11.00000  0.05    0.18
;
_shelx_res_checksum              10022
_shelx_hkl_file
;
   0   0   4 4815.88   25.95
   0   0   5    0.40    0.35
   0   0   7    0.47    0.64
   0   0   9    0.07    0.46
   0   0  10  429.30   12.32
   0   0  11    0.82    0.75
   0   0  12 4789.22   45.62
   0   0  13    1.33    1.63
   0   0  14   66.47    5.76
   0   0  15    0.00    0.90
   0   0  16  469.20   16.59
   0   0  17    1.08    0.80
   0   0  18   70.83    7.11
   0   0  19    1.87    1.82
   0  -1  -5 3246.80   32.85
   0  -1  -4    0.36    0.75
   0   1  -2   -0.08    0.36
   0  -1  -2   -0.55    0.49
   0   1  -1  515.59    9.51
   0  -1   0    0.32    0.49
   0   1   0    0.39    0.33
   0   1   1  541.64   10.43
   0  -1   1  513.93    8.70
   0   1   2    0.12    0.39
   0  -1   2    0.19    0.20
   0  -1   6    0.04    0.23
   0  -1   7 1850.03   17.03
   0  -1   8   -0.07    0.35
   0   1   8    0.34    0.75
   0  -1   9 2085.56   20.83
   0   1   9 1976.30   30.60
   0  -1  10   -0.05    0.44
   0   1  10   -0.16    1.28
   0  -1  11   56.76    3.86
   0   1  11   54.81    5.45
   0   1  12    0.31    0.90
   0  -1  12    0.00    0.47
   0   1  13  162.93   10.02
   0  -1  13  178.49    7.83
   0   1  14    1.31    1.59
   0  -1  14   -0.81    0.91
   0   1  15   96.27    8.21
   0  -1  15   94.35    6.21
   0   1  15   99.83    7.15
   0   1  16    0.53    1.57
   0   1  16    0.16    1.02
   0  -1  16   -0.78    0.71
   0  -1  17   16.95    2.55
   0   1  17   27.69    4.66
   0   1  17   22.53    3.81
   0   1  18   -0.01    1.96
   0   1  18    0.13    1.39
   0   1  19   31.33    5.72
   0   1  20    1.23    2.40
   0  -2  -7    1.75    1.57
   0  -2  -6 1915.58   32.07
   0  -2  -5   -0.75    0.57
   0  -2  -4 1917.22   29.89
   0  -2  -3    0.28    0.78
   0   2  -3   -0.01    0.75
   0   2  -2  739.02   16.20
   0  -2  -2  707.36   17.04
   0  -2  -1    1.82    1.09
   0   2  -1    0.63    1.00
   0   2   1   -0.75    0.96
   0  -2   1    0.05    0.46
   0  -2   2  755.13   15.08
   0   2   2  709.60   17.05
   0  -2   3    0.46    0.58
   0   2   3    0.32    0.92
   0   2   4 1833.87   28.55
   0  -2   4 1937.55   22.24
   0   2   5   -0.18    0.96
   0  -2   5   -0.22    0.52
   0   2   6 1997.28   31.10
   0  -2   6 2010.29   21.18
   0   2   7    0.79    1.05
   0  -2   7   -0.40    0.34
   0  -2   8  183.86    6.20
   0   2   8  194.96   10.00
   0   2   9   -1.21    1.32
   0  -2   9    0.70    0.49
   0   2  10 2509.53   37.70
   0  -2  10 2528.49   23.63
   0   2  11    0.79    0.87
   0   2  11    1.01    1.80
   0  -2  11    1.60    0.92
   0   2  12 2184.75   36.84
   0   2  12 2193.66   39.88
   0  -2  12 2117.88   22.59
   0  -2  13    0.02    0.73
   0   2  13    0.28    1.15
   0   2  13    0.01    1.34
   0   2  14  334.80   16.71
   0   2  14  372.56   16.07
   0  -2  14  343.39    9.55
   0   2  15    0.27    1.51
   0  -2  15    2.15    1.19
   0   2  15    0.01    0.98
   0   2  16 1065.09   30.64
   0   2  16 1104.63   28.62
   0   2  17    0.25    1.12
   0   2  17   -1.78    1.80
   0   2  18  108.35    9.36
   0   2  18  122.30   11.21
   0   2  19   -2.12    1.69
   0   2  19   -0.23    1.99
   0   2  20  194.92   14.61
   0   2  21   -1.95    1.85
   0   2  22  142.87   13.24
   0  -3  -9 3388.29   51.89
   0  -3  -8   -0.56    1.01
   0  -3  -7   26.84    4.72
   0  -3  -6   -0.01    0.95
   0  -3  -5  669.94   21.08
   0   3  -4    7.26    1.88
   0  -3  -4   -0.23    0.78
   0  -3  -3  935.99   23.86
   0   3  -3  964.96   22.93
   0  -3  -2    2.05    0.86
   0   3  -2    1.79    1.08
   0   3  -1 1835.47   31.83
   0  -3  -1 1964.31   32.89
   0   3   0    0.28    0.90
   0  -3   0    1.30    1.19
   0  -3   1 1919.22   31.12
   0   3   1 1866.17   32.62
   0   3   2    0.56    1.22
   0  -3   2   -0.22    0.58
   0  -3   3  927.11   20.73
   0   3   3  941.05   23.88
   0  -3   4   -0.38    0.74
   0   3   4    1.06    0.96
   0  -3   5  671.78   16.69
   0   3   5  644.77   20.41
   0  -3   6    0.32    0.77
   0   3   6   -0.88    1.20
   0  -3   7   30.95    3.35
   0   3   7   19.59    3.61
   0   3   8    0.30    1.31
   0  -3   8   -0.15    0.52
   0  -3   9 3364.17   33.55
   0   3   9 3298.53   48.64
   0  -3  10   -0.30    0.70
   0   3  10    1.47    1.25
   0   3  11  139.57   10.58
   0  -3  11  172.70    7.36
   0   3  12   -1.42    1.35
   0  -3  12    1.00    0.71
   0   3  13  172.42   12.56
   0  -3  13  153.96    6.90
   0   3  13  173.76   12.03
   0   3  14    1.34    2.02
   0  -3  14    0.46    0.73
   0   3  14   -0.55    2.11
   0   3  15  112.60   10.99
   0   3  15  124.52   10.50
   0   3  16    2.51    2.46
   0   3  16   -0.01    1.44
   0   3  17   60.27    7.68
   0   3  17   60.05    8.27
   0   3  18   -0.55    2.41
   0   3  18    0.60    3.18
   0   3  19  185.85   13.97
   0   3  19  157.64   13.48
   0   3  20    0.12    2.28
   0   3  21  128.22   13.01
   0   3  22   -1.64    3.41
   0   3  23    1.68    1.86
   0  -4 -10 2597.54   50.54
   0  -4  -9    0.83    2.21
   0  -4  -8  640.08   24.28
   0  -4  -7    0.28    1.45
   0  -4  -6 1311.72   33.25
   0  -4  -5   -0.01    1.03
   0   4  -5    0.52    1.44
   0  -4  -4 2358.59   43.81
   0   4  -4 2371.06   41.08
   0  -4  -3   -0.88    1.96
   0   4  -3   -0.52    1.45
   0   4  -2  729.09   22.98
   0  -4  -2  828.52   24.64
   0  -4  -1    0.23    1.23
   0   4  -1    3.42    2.56
   0  -4   0  379.61   16.19
   0   4   0  360.15   16.32
   0   4   1   -0.95    1.45
   0  -4   1    0.44    1.72
   0  -4   2  756.32   22.14
   0   4   2  680.46   22.85
   0  -4   3    0.11    1.14
   0   4   3    0.43    1.33
   0   4   4 2391.94   43.40
   0  -4   4 2468.82   39.22
   0   4   5    1.32    0.96
   0  -4   5   -0.79    1.55
   0   4   6 1369.07   33.63
   0  -4   6 1246.96   27.21
   0  -4   7   -0.74    1.10
   0   4   7   -0.54    1.06
   0   4   8  676.23   24.23
   0  -4   8  713.15   19.51
   0   4   9    3.27    2.66
   0  -4   9   -0.63    0.69
   0   4  10 2596.95   48.63
   0  -4  10 2587.15   35.85
   0  -4  11    1.77    1.44
   0   4  11    4.31    2.83
   0   4  12  925.92   29.94
   0  -4  12  949.26   20.57
   0  -4  13    0.01    0.90
   0   4  13   -1.89    2.29
   0   4  14  197.23   13.98
   0   4  14  180.60   14.29
   0   4  15    1.87    2.49
   0   4  15    0.16    1.88
   0   4  16 1046.82   34.21
   0   4  16  989.14   34.55
   0   4  17   -2.73    3.33
   0   4  17    0.74    1.72
   0   4  18  281.26   18.91
   0   4  18  312.70   18.98
   0   4  19    0.99    3.10
   0   4  19    1.35    1.75
   0   4  20   46.29    8.08
   0   4  20   50.90    8.68
   0   4  21   -1.10    2.58
   0   4  22  394.66   24.09
   0   4  23   -0.18    1.98
   0   4  24   -0.76    3.77
   0  -5 -10   -1.98    2.17
   0  -5  -9    0.55    2.52
   0  -5  -8    0.04    1.64
   0  -5  -7  161.83   13.08
   0  -5  -6    0.05    1.81
   0   5  -5  169.57   12.42
   0  -5  -5  153.82   12.09
   0  -5  -4   -1.98    2.02
   0   5  -4    3.34    2.30
   0   5  -3  223.87   14.30
   0  -5  -3  234.13   14.75
   0  -5  -2    1.78    1.56
   0   5  -2   -0.11    2.32
   0  -5  -1   51.94    6.62
   0   5  -1   57.58    7.34
   0   5   0    0.23    1.56
   0  -5   0   -1.41    1.63
   0  -5   1   55.02    6.68
   0   5   1   56.54    7.22
   0  -5   2    0.10    1.51
   0   5   2   -0.30    1.60
   0   5   3  227.32   14.69
   0  -5   3  161.18   11.41
   0  -5   4   -1.09    0.88
   0   5   4    0.02    1.33
   0  -5   5  161.34   11.24
   0   5   5  182.95   13.23
   0   5   6    2.68    3.12
   0  -5   6    2.12    1.46
   0   5   7  169.06   13.03
   0  -5   7  151.83   10.55
   0   5   8   -1.24    1.65
   0  -5   8   -0.06    1.03
   0  -5   9    2.47    1.20
   0   5   9   18.34    4.88
   0   5  10   -1.43    2.31
   0  -5  10    0.88    1.54
   0  -5  11   31.79    5.14
   0   5  11   34.28    6.66
   0  -5  12   -0.01    0.94
   0   5  12    2.08    1.80
   0   5  13   66.85    8.47
   0   5  14    1.23    1.97
   0   5  15   30.70    6.50
   0   5  15   19.63    4.63
   0   5  16   -1.41    2.56
   0   5  16    2.74    3.85
   0   5  17    6.77    1.99
   0   5  17    8.98    4.76
   0   5  18   -0.07    2.43
   0   5  18   -2.29    3.51
   0   5  19   11.14    3.10
   0   5  19   10.29    3.57
   0   5  20   -0.91    1.76
   0   5  20   -2.25    2.76
   0   5  21    2.53    3.23
   0   5  22    3.19    3.35
   0   5  23   19.47    6.51
   0   5  24   -3.26    2.78
   0   5  25    3.81    5.43
   0  -6 -10  445.80   23.73
   0  -6  -9    0.36    2.52
   0  -6  -8   54.83    7.96
   0  -6  -7   -2.25    3.07
   0  -6  -6 2662.19   54.75
   0   6  -5   -0.65    1.49
   0  -6  -5    1.13    1.94
   0  -6  -4 1099.67   35.07
   0   6  -4 1058.93   33.61
   0  -6  -3    1.33    1.97
   0   6  -3   -1.85    2.35
   0  -6  -2 1923.31   45.79
   0   6  -2 2031.33   46.99
   0   6  -1    4.31    2.97
   0  -6  -1    1.79    3.64
   0  -6   0 1423.47   38.52
   0   6   0 1402.80   39.36
   0   6   1   -1.27    1.41
   0  -6   1    2.80    3.40
   0  -6   2 1959.40   44.22
   0   6   2 1908.97   46.24
   0   6   3    2.03    2.26
   0  -6   3   -0.91    1.08
   0  -6   4 1059.76   32.20
   0   6   4 1089.18   34.79
   0  -6   5   -2.03    2.41
   0   6   5    4.66    2.62
   0  -6   6 2617.61   49.37
   0   6   6 2619.86   55.40
   0  -6   7    0.43    1.59
   0   6   7    5.09    4.04
   0  -6   8   55.08    7.26
   0   6   8   46.43    8.04
   0  -6   9   -0.88    1.36
   0   6   9    0.79    2.52
   0   6  10  471.43   24.22
   0  -6  10  424.24   19.48
   0   6  11    1.18    2.69
   0  -6  11    1.06    1.57
   0   6  12  408.37   22.68
   0   6  13    2.95    2.12
   0   6  14   13.12    5.34
   0   6  15   -2.43    3.07
   0   6  15    2.67    3.42
   0   6  16  265.04   19.53
   0   6  16  269.27   19.83
   0   6  17   -0.04    2.39
   0   6  17   -2.37    2.32
   0   6  18    0.67    2.45
   0   6  18    2.38    2.13
   0   6  19    4.28    3.76
   0   6  19    4.21    3.85
   0   6  20  114.67   13.67
   0   6  20  113.28   13.76
   0   6  21    2.59    4.61
   0   6  21   -1.13    2.76
   0   6  22  262.53   20.98
   0   6  23    0.06    2.79
   0   6  24   55.90   10.66
   0   6  25   -0.35    3.39
   0   6  26  119.46   15.69
   0  -7  -9  183.98   16.21
   0  -7  -8    1.25    1.90
   0  -7  -7  872.90   34.17
   0  -7  -6    3.75    4.04
   0  -7  -5  539.55   26.46
   0   7  -4    1.36    1.59
   0  -7  -4    0.73    2.60
   0   7  -3   57.69    8.22
   0  -7  -3   58.17    8.97
   0   7  -2   -3.20    2.69
   0  -7  -2    0.03    2.36
   0   7  -1 1785.60   47.04
   0  -7  -1 1707.30   45.65
   0  -7   0    1.89    3.43
   0   7   0    0.34    2.55
   0  -7   1 1780.70   45.99
   0   7   1 1664.93   46.76
   0  -7   2   -2.34    2.47
   0   7   2    3.62    4.43
   0  -7   3   61.57    8.04
   0   7   3   66.85    9.72
   0   7   4    1.78    2.24
   0  -7   4   -0.67    1.48
   0   7   5  521.80   25.70
   0  -7   5  534.23   24.63
   0   7   6    0.44    2.84
   0  -7   6    3.53    3.28
   0  -7   7  963.00   33.20
   0   7   7  950.32   35.26
   0   7   8    1.29    1.84
   0  -7   8    0.79    1.74
   0   7   9  218.88   17.29
   0  -7   9  224.30   15.65
   0   7  10   -0.72    2.59
   0  -7  10    2.25    2.41
   0   7  11   35.78    7.76
   0   7  12    1.31    3.15
   0   7  13   49.00    8.21
   0   7  14    0.63    1.98
   0   7  15   38.32    7.67
   0   7  15   57.56    9.51
   0   7  16   -3.88    2.53
   0   7  16   -0.85    2.98
   0   7  17    7.66    3.75
   0   7  17    1.09    2.28
   0   7  18    3.90    4.52
   0   7  18    0.38    2.62
   0   7  19   25.79    7.40
   0   7  19   38.80    8.29
   0   7  20    2.93    4.58
   0   7  20    3.54    4.82
   0   7  21   19.65    5.80
   0   7  21   12.13    4.33
   0   7  22    3.60    4.76
   0   7  23    7.81    4.65
   0   7  24    1.09    3.39
   0   7  25   25.53    7.95
   0  -8  -8    3.39    3.52
   0  -8  -7   -0.26    3.29
   0  -8  -6  220.30   18.10
   0  -8  -5    4.09    4.14
   0  -8  -4   85.84   11.03
   0  -8  -3    5.16    3.62
   0   8  -3   -2.13    2.06
   0  -8  -2   94.96   11.61
   0   8  -2   97.77   11.68
   0   8  -1    0.15    2.15
   0  -8  -1   -0.78    1.73
   0   8   0  179.71   15.65
   0  -8   0  166.60   14.98
   0   8   1    0.49    3.02
   0  -8   1    0.76    2.00
   0  -8   2  115.18   12.73
   0   8   2   85.60   10.98
   0  -8   3    0.28    2.17
   0   8   3   -1.41    2.98
   0  -8   4   87.32   10.73
   0   8   4  108.07   12.67
   0  -8   5   -1.55    2.33
   0   8   5    3.12    1.98
   0   8   6  186.26   16.86
   0  -8   6  190.10   15.72
   0  -8   7   -1.09    3.37
   0   8   7   -4.03    3.83
   0  -8   8   -0.46    2.10
   0   8   8    3.43    2.73
   0   8   9    4.18    4.41
   0  -8   9   -3.08    2.66
   0   8  10   85.90   11.64
   0   8  11   -2.77    3.94
   0   8  12   42.59    8.45
   0   8  13   -3.52    3.09
   0   8  14    7.43    4.87
   0   8  14   15.29    5.44
   0   8  15   -2.87    3.90
   0   8  15   -1.89    2.84
   0   8  16   73.31   11.40
   0   8  16   56.88    9.84
   0   8  17   -0.55    3.44
   0   8  17   -2.19    2.58
   0   8  18    4.33    4.62
   0   8  18    9.00    5.54
   0   8  19    2.24    3.14
   0   8  19    1.53    3.19
   0   8  20   52.38    9.76
   0   8  20   39.62    9.84
   0   8  21    1.20    1.93
   0   8  21   -8.70    7.24
   0   8  22   36.36    8.48
   0  -9  -5   -1.25    2.35
   0  -9  -4   -3.33    3.81
   0  -9  -3   42.86    8.00
   0  -9  -2   -1.98    3.96
   0   9  -1    9.68    4.95
   0  -9  -1   11.93    4.71
   0  -9   0    0.86    1.94
   0   9   0   -5.37    4.53
   0   9   1    8.09    3.56
   0  -9   1   10.39    3.60
   0  -9   2   -0.60    2.91
   0   9   2   -0.23    2.50
   0  -9   3   44.07    8.71
   0   9   3   40.43    8.28
   0  -9   4   -1.92    2.33
   0   9   4    4.36    3.97
   0  -9   5    9.99    4.63
   0   9   5    4.99    4.32
   0  -9   6   -0.62    3.37
   0   9   6   -3.08    4.03
   0  -9   7   26.21    7.08
   0   9   7    7.93    4.79
   0   9   8   -1.90    3.44
   0  -9   8    3.76    3.73
   0   9   9   35.84    8.24
   0   9  10   -2.82    3.96
   0   9  11   49.46    9.14
   0   9  12    1.23    3.39
   0   9  13    1.45    2.33
   0   9  13    3.66    3.43
   0   9  14   -3.72    3.91
   0   9  14    3.60    3.67
   0   9  15   14.52    7.63
   0   9  15    6.01    4.91
   0   9  16   -0.04    2.01
   0   9  16    0.68    4.24
   0   9  17   37.36    8.65
   0   9  17   31.09    7.97
   0   9  18   -1.24    3.97
   0   9  18    2.00    3.01
   0   9  19   -0.11    3.63
   0   9  19    4.14    3.38
   0 -10  -1    1.73    4.25
   0 -10   0  149.82   16.10
   0 -10   1   -2.38    3.12
   0 -10   2   35.61    6.98
   0  10   2   52.40    9.15
   0 -10   3   -0.83    3.11
   0  10   3    1.88    3.41
   0 -10   4   76.95   11.61
   0  10   4   67.45   10.88
   0 -10   5   -2.88    5.07
   0  10   5    0.37    4.00
   0 -10   6  125.58   15.07
   0  10   6   97.69   13.15
   0  10   7    4.93    5.39
   0  10   8   -5.19    4.72
   0  10   9   -2.29    2.71
   0  10  10   63.46    9.85
   0  10  11   -0.28    2.09
   0  10  11    0.78    2.48
   0  10  12   35.37    8.44
   0  10  12   26.94    7.26
   0  10  13    9.21    6.44
   0  10  13    1.63    2.63
   0  10  14   10.74    7.00
   0  10  14    6.83    5.05
   0  10  15   -3.07    4.24
   0  10  15   -3.69    4.52
   0  10  16   34.08    8.36
   0  10  16   31.24    7.04
   0  11   7    1.78    3.11
   0  11   8    0.81    3.36
   0  11   8    3.21    4.95
   0  11   9    7.55    4.49
   0  11   9    0.30    4.65
   0  11  10   -5.30    3.93
   0  11  10    2.59    2.52
   1   0  -6    0.11    0.51
   1   0  -5   -0.20    0.41
   1   0  -4    0.11    0.22
   1   0   1    0.04    0.25
   1   0   2    0.18    0.19
   1   0   3    0.11    0.41
   1   0   4   -0.14    0.25
   1   0   5   -0.16    0.34
   1   0   6    0.17    0.54
   1   0   7   -0.02    0.34
  -1   0   8    0.98    0.39
   1   0   8    0.10    0.55
   1   0   8   -0.09    0.29
  -1   0   9    0.48    0.49
   1   0   9   -0.30    0.39
   1   0   9   -0.21    0.62
   1   0  10    0.41    0.37
  -1   0  10    0.06    0.77
   1   0  10    0.21    0.97
   1   0  11   -0.25    0.40
  -1   0  11   -1.14    1.06
   1   0  11    0.73    1.25
   1   0  12    0.72    0.63
   1   0  12   -0.64    1.06
  -1   0  12    0.51    0.92
  -1   0  13   -0.18    0.71
   1   0  13    0.27    0.42
   1   0  13   -0.23    1.09
  -1   0  14   -0.26    1.35
   1   0  14    0.27    1.00
   1   0  14    0.41    0.49
   1   0  15    0.47    0.42
   1   0  15    0.08    0.76
  -1   0  15    0.28    0.99
   1   0  16   -0.40    0.64
   1   0  16   -0.86    1.03
  -1   0  16    1.66    1.57
   1   0  17    0.17    1.83
  -1   0  17   -0.88    1.47
   1   0  18   -0.43    1.64
  -1   0  18    0.82    1.08
   1   0  19    1.09    2.29
   1  -1  -9 1074.51   22.28
   1  -1  -8  733.38   17.68
   1  -1  -7 1049.95   20.38
   1  -1  -6 1764.91   25.64
   1  -1  -5  955.26   18.18
   1  -1  -4 2963.20   30.38
  -1   1  -4 3006.72   19.49
  -1   1  -3 2265.69   18.48
   1  -1  -3 2243.59   24.99
   1   1  -2   73.33    2.94
   1  -1  -2   79.47    4.46
   1  -1  -1 3340.45   28.28
   1   1  -1 3429.32   22.62
   1  -1   0 9360.93   45.06
   1   1   1 3455.48   27.62
   1   1   1 3477.42   27.50
   1   1   2   62.22    3.96
   1  -1   2   71.27    3.86
   1   1   2   73.33    4.07
   1   1   3 2327.22   23.54
   1   1   3 2321.02   26.42
   1   1   4 2944.73   31.20
   1  -1   4 2912.14   25.29
   1   1   4 2955.05   27.12
   1   1   5  970.81   15.95
   1  -1   5 1003.51   14.94
   1   1   5  966.55   18.68
   1  -1   6 1827.36   21.33
   1   1   6 1858.02   26.74
   1   1   7 1082.76   17.76
   1   1   7 1053.42   21.19
   1  -1   7 1048.43   16.85
   1  -1   8  729.14   14.53
   1   1   8  716.63   18.20
   1   1   9 1035.05   18.59
   1   1   9 1067.59   22.99
   1  -1   9 1055.11   18.20
   1  -1  10  846.98   17.08
   1   1  10  838.52   17.10
  -1  -1  10  782.60   10.71
   1   1  10  838.20   21.53
   1   1  11  486.05   17.09
   1  -1  11  532.96   14.10
  -1  -1  11  498.19    9.30
   1   1  11  486.25   13.45
   1   1  12 1402.98   29.27
   1  -1  12 1393.36   23.97
   1   1  12 1433.01   24.05
  -1   1  12 1408.16   27.66
  -1  -1  12 1378.74   17.00
  -1  -1  13  671.86   12.63
   1  -1  13  654.25   17.12
   1   1  13  704.00   21.52
  -1   1  13  642.88   19.79
   1   1  13  662.50   16.61
  -1  -1  14  126.58    5.81
   1   1  14  122.26    9.37
   1  -1  14  128.64    7.85
  -1   1  14  139.67    9.32
   1   1  14  138.84    7.74
  -1  -1  15   16.95    2.20
   1   1  15   23.42    3.38
   1   1  15   18.50    3.79
  -1   1  15   25.05    4.30
   1  -1  15   20.21    3.20
  -1  -1  16  278.45    9.50
   1   1  16  288.28   15.19
  -1   1  16  326.43   15.14
   1  -1  16  289.32   12.74
   1   1  16  289.30   11.77
  -1   1  17  172.65   11.33
   1  -1  17  146.48    9.34
   1   1  17  153.71    8.61
   1   1  17  171.15   12.03
  -1   1  18   43.45    5.97
   1  -1  18   43.96    5.39
   1   1  18   47.20    6.37
   1   1  19  210.39   14.29
  -1   1  19  221.59   13.97
   1   1  20  134.90   11.71
  -1   1  20  157.92   11.88
   1   1  21   14.11    3.55
   1  -2 -11    6.62    1.83
   1  -2 -10   63.08    6.35
   1  -2  -9  193.42   10.90
   1  -2  -8  147.27    9.56
   1  -2  -7  207.02   11.06
   1  -2  -6  261.05   11.82
  -1   2  -6  256.13    8.77
   1  -2  -5   46.22    4.90
  -1   2  -5   35.39    3.34
   1  -2  -4  182.45    9.95
  -1   2  -4  187.75    7.73
  -1   2  -3 1506.14   22.45
   1  -2  -3 1563.80   26.55
  -1  -2  -2 4659.99   44.56
  -1   2  -2 4873.41   41.69
  -1   2  -1 4718.62   41.86
   1   2  -1 4817.49   42.91
   1  -2  -1 4802.00   44.04
  -1  -2  -1 4894.63   43.41
  -1   2   0 8229.32   55.95
  -1  -2   0 8138.70   53.15
   1   2   0 8239.86   56.86
   1  -2   0 8084.53   55.61
  -1  -2   1 4940.10   38.94
   1  -2   1 4960.86   42.26
   1   2   2 3130.89   36.35
   1  -2   2 4901.30   40.86
  -1  -2   3 1448.18   19.35
   1  -2   3 1462.36   22.42
   1   2   4  187.55    9.01
  -1  -2   4  206.45    6.67
   1  -2   4  204.77    8.12
   1   2   5   38.51    4.15
   1  -2   5   36.12    3.69
  -1  -2   5   37.63    2.68
  -1  -2   6  270.31    6.52
   1   2   6  255.89   11.04
   1  -2   6  254.50    9.00
   1   2   7  183.77   10.46
   1   2   7  197.16    9.86
   1  -2   8  130.49    6.55
   1   2   8  139.68    8.43
   1   2   8  138.08    9.07
   1   2   9  187.32    9.97
   1   2   9  186.38   10.93
   1  -2   9  211.54    8.45
   1  -2  10   58.11    4.40
   1   2  10   48.23    5.78
   1   2  10   52.97    5.42
   1   2  11    4.99    2.33
   1   2  11    2.65    1.46
   1  -2  11    4.65    1.37
   1   2  12   15.33    3.53
   1   2  12    9.45    2.25
   1  -2  12   11.39    1.90
   1  -2  13   32.04    3.65
   1   2  13   27.34    4.62
   1   2  13   33.01    4.57
   1   2  14  125.03   10.07
   1  -2  14  118.13    7.18
   1   2  14  130.31    9.13
  -1   2  14  107.90    9.32
  -1   2  15   22.92    4.90
   1   2  15   13.52    3.35
   1   2  15   18.91    3.83
   1  -2  15   11.70    2.50
   1   2  16   48.71    5.90
   1   2  16   57.12    7.29
  -1   2  16   55.41    7.01
  -1   2  17   49.94    7.30
   1   2  17   39.67    6.58
   1   2  17   40.17    5.49
  -1   2  18   14.42    4.14
  -1   2  18   19.39    4.69
   1   2  18   22.41    5.29
   1   2  18   22.77    4.35
  -1   2  19   39.53    6.25
  -1   2  19   35.29    5.69
   1   2  19   42.73    6.68
   1   2  20   71.10    9.20
  -1   2  20   82.89    9.44
  -1   2  21   14.49    4.74
   1   2  21   16.36    5.06
   1   2  22   29.78    6.49
   1  -3 -12  415.55   19.45
   1  -3 -11  324.07   16.69
   1  -3 -10 1528.22   35.27
   1  -3  -9  344.64   16.50
   1  -3  -8  233.04   13.43
  -1   3  -7  664.57   18.06
   1  -3  -7  610.60   21.18
  -1   3  -6   97.14    7.07
   1  -3  -6   93.25    8.23
   1  -3  -5  342.24   15.25
  -1   3  -5  308.66   12.61
  -1  -3  -5  339.65   15.13
  -1   3  -4 1092.61   23.80
  -1  -3  -4 1138.06   27.16
   1  -3  -3  254.02   12.61
  -1  -3  -3  271.14   12.88
  -1   3  -3  259.80   11.86
  -1   3  -2  259.17   11.82
   1  -3  -2  280.05   13.02
  -1  -3  -2  265.45   12.31
   1   3  -2  264.99   12.29
  -1  -3  -1 1002.75   23.24
  -1   3  -1 1008.37   23.93
   1   3  -1 1036.35   24.24
  -1   3   0 2201.71   35.58
  -1  -3   0 2230.21   33.67
   1  -3   0 2212.87   34.72
   1   3   0 2219.12   35.94
   1   3   1 1102.13   25.30
  -1   3   1 1100.08   25.72
  -1  -3   1 1113.27   23.33
   1  -3   1 1110.51   24.19
   1   3   2  272.26   12.85
  -1  -3   2  289.94   11.53
   1  -3   2  264.79   11.63
  -1   3   2  282.94   13.07
   1   3   3  252.45   12.42
  -1   3   3  251.94   12.43
  -1  -3   3  248.85   10.22
   1  -3   3  240.92   11.19
   1   3   4 1019.34   25.22
   1  -3   4 1024.10   22.42
  -1  -3   4 1173.16   21.47
  -1   3   4 1122.63   26.53
  -1   3   5  312.96   14.20
   1   3   5  343.01   14.82
   1  -3   5  356.74   13.12
  -1  -3   5  335.27   11.12
   1   3   6   84.99    7.45
  -1  -3   6   89.47    5.60
   1  -3   6   87.68    6.39
  -1   3   6   88.43    7.68
  -1  -3   7  707.28   14.70
   1  -3   7  671.64   17.33
  -1   3   7  668.44   21.17
   1   3   7  661.53   21.01
   1  -3   8  228.34   10.04
   1   3   8  241.05   12.99
  -1  -3   8  225.45    7.94
   1   3   9  395.47   16.65
   1   3   9  367.57   16.85
  -1  -3   9  392.68    9.92
  -1   3  10 1510.20   33.63
   1  -3  10 1587.47   26.07
  -1  -3  10 1501.37   18.03
   1   3  10 1504.76   35.33
   1   3  10 1493.17   33.13
   1   3  11  304.32   16.16
   1  -3  11  304.58   11.36
  -1   3  11  331.82   16.03
   1   3  11  312.43   15.32
  -1   3  12  456.33   19.18
   1  -3  12  412.52   13.38
   1   3  12  432.45   18.48
   1   3  12  447.62   20.41
  -1   3  13 1108.85   30.30
   1   3  13 1087.89   32.50
   1   3  13 1033.87   29.04
   1  -3  13 1040.02   21.26
   1   3  14  660.44   23.50
   1  -3  14  663.08   16.96
   1   3  14  671.14   25.78
  -1   3  14  675.03   24.38
   1   3  15  106.77   10.41
  -1   3  15   95.49    9.70
  -1   3  15   93.76    9.09
   1   3  15  107.35    9.38
   1   3  16  874.72   30.27
  -1   3  16  931.26   30.17
  -1   3  16  876.71   30.09
   1   3  16  912.80   28.51
   1   3  17  203.65   14.90
   1   3  17  213.32   14.09
  -1   3  17  239.31   16.04
  -1   3  18   68.51    8.93
   1   3  18   80.48    9.64
  -1   3  18   83.25    9.19
   1   3  18   77.75    8.71
   1   3  19  213.58   16.20
   1   3  19  189.23   13.72
  -1   3  19  209.09   15.61
  -1   3  19  205.10   15.11
   1   3  20  203.69   16.05
  -1   3  20  216.50   16.13
  -1   3  20  195.28   14.95
  -1   3  21   48.07    7.50
   1   3  21   50.88    8.17
   1   3  22  207.52   16.95
  -1   3  22  191.47   16.29
   1   3  23   95.45   11.96
   1  -4 -12  198.64   14.47
   1  -4 -11   83.39    9.36
   1  -4 -10  285.93   16.65
   1  -4  -9  472.97   21.08
   1  -4  -8  216.59   14.10
   1  -4  -7   11.73    3.46
  -1   4  -7   11.34    3.01
   1  -4  -6  122.23   10.23
  -1   4  -6  127.54    9.47
  -1  -4  -6  132.38   10.54
  -1   4  -5  127.81    9.46
  -1  -4  -5  149.33   11.11
   1  -4  -5  127.56   10.38
  -1   4  -4   91.98    8.07
   1  -4  -4   83.38    8.45
  -1  -4  -4   75.78    7.93
   1  -4  -3   91.27    8.26
  -1   4  -3  101.37    8.53
  -1  -4  -3   86.16    8.08
   1   4  -2  317.03   15.52
   1  -4  -2  305.44   15.20
  -1   4  -2  359.36   16.16
  -1  -4  -2  363.81   16.23
   1  -4  -1  700.04   22.68
  -1  -4  -1  661.07   21.40
  -1   4  -1  637.50   21.89
   1   4  -1  679.57   22.33
   1   4   0 1739.49   36.41
  -1  -4   0 1787.41   35.31
  -1   4   0 1718.57   35.71
   1  -4   0 1727.33   35.36
   1   4   1  731.40   23.96
  -1  -4   1  701.64   21.73
  -1   4   1  659.31   22.55
   1  -4   1  709.38   22.20
   1  -4   2  347.92   15.44
  -1  -4   2  311.39   14.07
   1   4   2  348.08   16.34
  -1   4   2  352.99   16.68
  -1   4   3  103.30    9.04
   1   4   3  120.57    9.56
   1  -4   3  108.76    8.50
  -1  -4   3  115.92    8.36
  -1   4   4   92.47    8.72
   1   4   4  100.41    8.95
  -1  -4   4   88.15    7.23
   1  -4   4   86.54    7.53
   1   4   5  142.55   10.81
  -1  -4   5  139.11    8.91
   1  -4   5  144.26    9.42
  -1   4   5  140.35   10.59
   1  -4   6  120.97    8.61
   1   4   6  127.93   10.28
  -1   4   6  108.49    9.71
  -1  -4   6  125.47    8.03
  -1   4   7   17.13    3.95
   1  -4   7    8.77    2.54
   1   4   7   16.84    4.38
  -1  -4   7   12.54    2.40
   1   4   8  216.58   13.72
   1  -4   8  209.39   11.19
  -1  -4   8  207.61   10.01
  -1   4   8  203.64   13.58
  -1  -4   9  479.19   14.54
  -1   4   9  439.25   20.28
   1   4   9  531.49   21.35
   1  -4   9  491.39   17.34
  -1  -4  10  280.41   10.73
  -1   4  10  278.14   16.36
   1   4  10  293.38   16.20
   1  -4  10  297.31   13.15
  -1   4  11   64.10    8.09
   1   4  11   60.96    7.90
   1   4  11   61.75    7.69
   1  -4  11   59.32    5.78
  -1   4  12  216.08   14.63
  -1  -4  12  179.97    7.68
   1  -4  12  194.86   10.63
   1   4  12  201.24   14.82
   1   4  12  204.27   14.04
   1  -4  13    8.17    2.18
  -1   4  13    0.70    1.68
   1   4  13    7.69    3.18
   1   4  13    9.71    4.18
   1   4  14    7.40    3.06
  -1   4  14   10.42    3.31
   1  -4  14    8.52    2.50
   1   4  14    7.23    2.94
   1   4  15   37.77    6.82
  -1   4  15   30.15    5.96
   1   4  16   17.75    4.93
   1   4  16   23.47    5.49
  -1   4  16   31.72    6.40
  -1   4  17   37.35    5.82
   1   4  17   31.20    5.98
   1   4  17   39.22    6.66
  -1   4  17   50.27    7.92
  -1   4  18   26.76    5.82
  -1   4  18   35.89    7.50
   1   4  18   31.57    6.06
   1   4  18   36.37    6.92
   1   4  19   13.76    5.24
  -1   4  19    9.57    4.71
   1   4  19   14.32    4.59
  -1   4  19   10.85    3.67
  -1   4  20   13.75    4.64
   1   4  20    3.94    3.80
  -1   4  20    7.00    3.44
  -1   4  21   70.71   10.25
   1   4  21   69.53   10.32
  -1   4  22   43.15    8.26
   1   4  22   35.42    7.99
   1   4  23   44.12    9.11
  -1   4  23   32.66    6.56
   1   4  24   18.65    5.29
   1  -5 -13  237.49   17.11
   1  -5 -12  231.15   16.71
   1  -5 -11   36.49    6.43
   1  -5 -10  542.50   24.40
   1  -5  -9  328.99   18.93
   1  -5  -8   54.45    7.79
  -1   5  -7  299.45   16.14
   1  -5  -7  316.48   18.33
  -1   5  -6  316.22   16.71
   1  -5  -6  281.36   16.95
  -1  -5  -6  311.88   17.76
  -1  -5  -5   77.26    8.71
  -1   5  -5   78.39    8.46
   1  -5  -5   76.31    8.99
  -1  -5  -4  377.98   18.88
  -1   5  -4  413.47   19.34
   1  -5  -4  406.82   20.04
  -1  -5  -3  574.04   22.81
   1   5  -3  556.58   22.29
   1  -5  -3  500.92   21.79
  -1   5  -3  543.64   22.07
  -1   5  -2   90.66    9.11
   1   5  -2   95.13    9.12
  -1  -5  -2   79.69    8.33
   1  -5  -1   52.32    7.17
  -1  -5  -1   46.33    6.35
  -1   5  -1   43.72    6.46
   1   5  -1   48.72    6.43
   1  -5   0  335.52   17.33
  -1  -5   0  325.66   16.71
  -1   5   0  332.45   17.47
   1   5   0  334.82   17.28
  -1   5   1   50.90    6.89
   1  -5   1   54.36    7.18
   1   5   1   57.88    7.24
  -1  -5   1   45.95    6.20
  -1  -5   2   94.68    8.62
   1   5   2  101.98    9.91
  -1   5   2   88.05    9.08
   1  -5   2   73.99    7.94
  -1  -5   3  529.32   20.57
   1   5   3  517.96   22.29
  -1   5   3  535.91   22.67
   1  -5   3  573.80   21.84
  -1   5   4  401.96   19.89
   1  -5   4  424.94   18.74
  -1  -5   4  395.29   17.41
   1   5   4  450.38   20.84
  -1  -5   5   89.65    8.06
   1   5   5   74.96    8.62
   1  -5   5   67.40    7.38
  -1   5   5   93.11    9.72
   1   5   6  331.55   18.12
   1  -5   6  314.51   15.87
  -1   5   6  275.96   16.63
  -1  -5   6  265.65   13.99
   1   5   7  327.13   18.13
   1  -5   7  296.75   15.27
  -1  -5   7  288.40   14.28
  -1  -5   8   60.47    6.53
  -1   5   8   48.23    7.56
   1  -5   8   50.50    6.15
   1   5   8   69.86    8.32
  -1   5   9  304.84   18.16
  -1  -5   9  314.34   14.53
   1  -5   9  335.54   16.04
   1   5   9  339.26   18.79
  -1   5  10  518.15   23.90
   1  -5  10  507.65   19.77
   1   5  10  528.41   23.87
  -1  -5  10  497.27   17.87
  -1   5  11   39.70    7.26
   1   5  11   40.93    6.82
  -1  -5  11   35.01    4.58
   1  -5  11   38.11    5.36
   1  -5  12  206.84   12.52
   1   5  12  212.25   15.64
  -1   5  12  202.79   15.34
  -1  -5  12  228.89   11.24
   1   5  12  239.65   16.78
  -1   5  13  278.79   18.42
   1   5  13  264.06   18.11
   1   5  13  292.04   18.07
   1  -5  13  246.78   13.24
   1   5  14   68.67    9.13
   1   5  14   86.76   10.72
  -1   5  14   85.93   10.38
   1   5  15  109.65   11.50
   1   5  15   83.41   10.90
  -1   5  15  105.99   11.64
  -1   5  16  340.59   20.97
   1   5  16  329.49   20.44
   1   5  16  336.20   21.40
   1   5  17   29.50    6.56
  -1   5  17   25.17    5.91
   1   5  17   33.87    6.42
  -1   5  17   41.01    7.67
   1   5  18   33.21    6.84
  -1   5  18   38.59    7.32
   1   5  18   43.41    7.58
  -1   5  18   27.19    6.43
  -1   5  19  106.12   13.21
   1   5  19   99.12   11.63
  -1   5  19   87.22   11.32
   1   5  19  105.80   12.66
   1   5  20   31.97    7.35
  -1   5  20   32.31    7.68
   1   5  20   40.74    7.44
  -1   5  20   49.77    9.35
  -1   5  21   20.22    5.93
  -1   5  21   27.65    6.79
   1   5  21   24.61    6.12
  -1   5  22  123.94   14.02
   1   5  22  131.68   15.00
  -1   5  23   23.88    7.21
   1   5  23   41.59    7.92
   1   5  24   -1.41    4.10
  -1   5  24   -2.43    2.52
   1   5  25   23.86    7.19
   1  -6 -13   29.21    6.58
   1  -6 -12   42.72    7.81
   1  -6 -11   25.61    6.06
   1  -6 -10   12.65    4.69
   1  -6  -9    7.69    2.73
   1  -6  -8    0.72    1.84
   1  -6  -7   77.44    9.78
  -1   6  -7   71.77    9.07
  -1   6  -6  145.73   12.50
   1  -6  -6  122.44   12.09
  -1  -6  -6  137.31   12.85
  -1   6  -5  143.85   12.57
  -1  -6  -5  146.14   12.80
   1  -6  -5  148.67   12.94
   1  -6  -4  143.21   12.91
  -1   6  -4  143.69   12.49
  -1  -6  -4  152.09   13.04
  -1   6  -3  134.10   12.25
   1  -6  -3  146.96   12.89
  -1  -6  -3  136.64   12.04
   1   6  -2  129.20   11.91
   1  -6  -2  127.47   11.52
  -1  -6  -2  117.71   11.19
  -1   6  -2  119.92   11.47
  -1  -6  -1   35.75    6.02
  -1   6  -1   37.94    6.36
   1   6  -1   39.36    6.34
   1  -6   0   38.76    6.55
   1   6   0   58.85    7.56
  -1   6   0   48.51    7.10
  -1  -6   0   53.63    7.37
   1   6   1   31.31    6.01
  -1  -6   1   35.90    6.18
   1  -6   1   31.09    6.00
  -1   6   1   34.03    5.96
   1   6   2  142.62   12.42
  -1  -6   2  130.06   11.30
  -1   6   2  107.90   11.09
   1  -6   2  124.02   11.37
   1  -6   3  120.31   11.13
  -1  -6   3  129.28   11.23
  -1   6   3  128.40   12.34
   1   6   3  110.53   10.99
   1  -6   4  138.81   11.95
  -1   6   4  151.85   13.20
   1   6   4  174.88   14.04
  -1  -6   4  147.49   11.45
  -1   6   5  132.22   12.45
   1   6   5  154.96   13.29
   1  -6   5  130.41   11.54
  -1  -6   5  141.35   11.35
   1   6   6  127.27   12.55
  -1  -6   6  120.09   10.40
  -1   6   6  117.56   12.11
   1  -6   6  124.75   11.07
  -1  -6   7   81.69    8.50
   1  -6   7   81.70    8.93
   1   6   7   71.26    9.13
  -1   6   7   90.06    9.91
   1  -6   8    1.39    1.76
   1   6   8    4.49    2.68
  -1   6   8    0.47    2.42
  -1  -6   8    2.64    1.67
   1   6   9   15.05    4.21
  -1   6   9   11.76    4.08
  -1  -6   9    4.60    1.95
   1  -6   9    8.83    2.66
  -1   6  10   22.08    5.37
   1   6  10   15.26    4.74
   1  -6  10   13.79    3.22
  -1  -6  10    9.59    2.76
  -1  -6  11   26.58    4.78
   1   6  11   15.86    4.72
   1  -6  11   21.42    4.98
  -1   6  11   14.91    4.47
   1   6  12   42.40    7.80
   1   6  12   39.96    7.68
   1  -6  12   42.46    6.39
  -1   6  12   40.07    7.03
   1   6  13   36.85    7.49
   1   6  13   18.56    5.31
  -1   6  13   31.04    6.62
   1   6  14   11.96    3.50
   1   6  14   19.55    5.53
  -1   6  14   19.17    6.13
   1   6  15   18.00    5.15
  -1   6  15   12.61    4.92
   1   6  15   13.96    4.29
   1   6  16    4.47    3.43
   1   6  16    9.91    4.85
  -1   6  16    6.83    2.99
  -1   6  17   10.12    4.62
   1   6  17    2.22    2.48
   1   6  17    8.12    3.16
  -1   6  17   11.52    4.85
   1   6  18    0.53    1.64
   1   6  18   -1.98    2.83
  -1   6  18    4.44    3.88
  -1   6  18    0.69    2.10
   1   6  19    7.34    2.64
  -1   6  19   10.93    5.25
   1   6  19    2.15    2.23
  -1   6  19   13.89    4.77
   1   6  20    2.82    4.36
  -1   6  20    2.04    2.28
   1   6  20    3.45    4.04
  -1   6  20   12.05    5.47
  -1   6  21    9.55    4.49
  -1   6  21   10.72    4.79
   1   6  21   10.62    3.49
  -1   6  22    1.28    2.93
   1   6  22   25.54    6.04
   1   6  23    7.74    5.73
  -1   6  23    4.11    3.38
  -1   6  24    3.54    3.40
   1   6  24    4.18    4.49
   1   6  25    3.84    3.89
  -1   6  25   -2.12    2.72
   1   6  26   -3.37    4.24
   1  -7 -12   46.31    8.31
   1  -7 -11    8.00    5.13
   1  -7 -10  188.32   16.22
   1  -7  -9   99.31   11.61
   1  -7  -8    2.28    2.98
   1  -7  -7  112.02   12.28
   1  -7  -6  267.78   18.71
  -1   7  -6  300.67   19.57
  -1  -7  -5   49.38    8.36
   1  -7  -5   65.36    9.49
  -1   7  -5   63.31    9.02
   1  -7  -4  141.81   13.33
  -1   7  -4  181.25   15.33
  -1  -7  -4  167.34   14.39
  -1  -7  -3  372.68   21.90
   1  -7  -3  398.06   22.38
  -1   7  -3  373.32   21.64
  -1  -7  -2  156.02   14.09
   1  -7  -2  175.60   14.67
  -1   7  -2  146.50   13.53
   1   7  -1    3.04    2.86
  -1  -7  -1    0.94    3.02
  -1   7  -1    6.00    4.43
   1  -7  -1    6.99    3.30
  -1  -7   0   69.68    9.25
  -1   7   0   79.01    9.69
   1  -7   0   80.55   10.38
   1   7   0   78.77    9.64
  -1  -7   1    8.48    2.89
   1  -7   1    7.88    3.27
  -1   7   1   11.44    4.79
   1   7   1    7.99    4.70
  -1   7   2  165.11   14.34
   1  -7   2  162.53   13.93
  -1  -7   2  175.29   14.47
   1   7   2  156.51   14.00
   1   7   3  380.62   22.43
   1  -7   3  383.78   21.69
  -1   7   3  369.55   21.52
  -1  -7   3  409.62   21.67
   1   7   4  161.21   14.45
  -1  -7   4  136.68   12.72
   1  -7   4  109.86   11.70
  -1   7   4  154.56   14.34
  -1   7   5   84.86   10.89
   1   7   5   74.42   10.18
   1  -7   5   66.52    8.71
  -1  -7   5   65.49    8.67
  -1   7   6  260.35   18.83
   1   7   6  305.47   20.48
   1  -7   6  250.69   17.35
  -1  -7   6  268.62   17.21
   1  -7   7  123.03   11.71
  -1   7   7  127.62   13.42
   1   7   7  117.42   13.07
  -1  -7   7  123.79   11.72
  -1  -7   8    4.92    2.64
   1   7   8    4.41    2.19
  -1   7   8    4.49    4.68
   1  -7   8    7.52    3.32
   1   7   9  109.80   12.13
   1  -7   9  113.25   11.18
  -1  -7   9  109.56   10.91
  -1   7   9  100.62   11.91
  -1   7  10  182.63   16.25
   1   7  10  171.21   15.24
   1  -7  10  152.23   13.42
  -1  -7  10  170.28   13.41
   1   7  11   12.13    5.86
  -1   7  11    6.01    4.22
   1  -7  11    5.94    3.01
   1   7  12   38.91    7.56
   1   7  12   32.89    7.40
  -1   7  12   30.68    6.55
  -1   7  13   37.56    7.38
   1   7  13   44.84    8.19
   1   7  13   37.81    7.47
  -1   7  14   21.00    6.16
   1   7  14   21.37    6.39
   1   7  14   23.97    6.29
  -1   7  15   14.76    4.69
   1   7  15   10.00    4.55
   1   7  15   11.64    5.17
   1   7  16   78.19   10.85
  -1   7  16   67.19   10.17
   1   7  16   65.59   10.67
  -1   7  17   32.05    8.07
  -1   7  17   37.32    7.69
   1   7  17   35.36    7.70
   1   7  17   39.06    8.71
   1   7  18   -2.30    2.49
  -1   7  18    1.03    1.86
  -1   7  18    4.89    2.51
   1   7  18    1.71    4.63
   1   7  19   42.87    8.65
  -1   7  19   28.72    7.69
   1   7  19   32.64    7.64
  -1   7  19   27.75    6.69
  -1   7  20   49.86    9.86
   1   7  20   28.19    6.64
  -1   7  20   40.80    8.85
   1   7  20   35.39    7.62
   1   7  21    6.72    3.29
  -1   7  21    5.21    4.03
  -1   7  21    5.83    4.95
   1   7  22   48.83    8.83
  -1   7  22   53.30    9.94
  -1   7  22   53.61   10.19
  -1   7  23   41.20    9.48
   1   7  23   40.41    9.19
  -1   7  24   22.62    7.60
   1   7  24    7.45    3.46
   1  -8 -11   29.92    7.46
   1  -8 -10    1.90    2.45
   1  -8  -9    1.34    2.63
   1  -8  -8    8.08    4.74
   1  -8  -7    3.43    3.20
   1  -8  -6   99.78   12.43
  -1   8  -5   33.88    7.07
   1  -8  -5   33.14    6.87
   1  -8  -4   24.71    6.40
  -1   8  -4   22.06    5.71
  -1  -8  -3   21.14    5.76
   1  -8  -3   25.48    6.78
  -1   8  -3   35.02    7.63
  -1  -8  -2  108.77   12.41
  -1   8  -2   97.00   11.87
   1  -8  -2   97.24   12.00
   1  -8  -1    6.62    4.23
  -1  -8  -1   11.48    4.59
  -1   8  -1    8.77    4.81
  -1  -8   0   31.14    7.34
   1   8   0   36.57    7.81
   1  -8   0   27.81    6.30
  -1   8   0   20.98    5.99
   1  -8   1   10.31    4.02
   1   8   1   14.34    5.23
  -1   8   1    5.46    4.56
  -1  -8   1   12.75    4.86
  -1   8   2  108.36   12.75
   1  -8   2   98.32   11.47
  -1  -8   2   95.19   11.17
   1   8   2   99.61   11.50
   1   8   3   21.79    5.93
   1  -8   3   24.09    5.80
  -1  -8   3   14.43    4.62
   1   8   4   25.13    6.10
  -1  -8   4   21.54    5.61
  -1   8   4   19.77    5.60
   1  -8   4   20.23    5.22
   1  -8   5   29.20    6.24
   1   8   5   33.70    7.23
  -1   8   5   25.92    6.32
  -1  -8   5   22.04    6.18
   1  -8   6  105.15   11.76
   1   8   6  115.58   13.45
  -1   8   6  137.99   13.77
  -1  -8   6  127.71   13.17
   1  -8   7    1.67    2.16
  -1  -8   7    2.46    2.13
  -1   8   7   -0.84    3.45
   1   8   7    3.95    2.42
  -1  -8   8    8.37    3.77
   1   8   8   11.57    5.51
   1  -8   8   11.91    4.09
  -1   8   8    8.90    5.56
   1  -8   9   11.00    4.76
  -1   8   9    3.02    2.42
   1   8   9    3.74    3.08
   1  -8  10   -0.59    3.01
  -1   8  10    4.82    4.31
   1   8  10    6.67    4.35
   1   8  11   25.73    6.26
  -1   8  11   12.10    5.18
   1   8  11   17.89    6.28
   1   8  12   -1.06    2.61
   1   8  12    1.31    2.33
   1   8  13    8.46    3.53
   1   8  13   11.34    5.07
  -1   8  13   12.86    5.84
  -1   8  14    6.04    4.59
   1   8  14    1.07    3.37
   1   8  14    7.10    4.81
   1   8  15   -0.17    2.74
  -1   8  15   -0.15    4.37
   1   8  15   -3.69    2.69
   1   8  16   -3.09    4.35
   1   8  16   -2.69    3.31
  -1   8  16   -2.94    2.50
  -1   8  17    2.22    2.45
   1   8  17    6.35    2.77
  -1   8  17    1.82    3.18
   1   8  17    4.94    1.99
  -1   8  18   -5.79    5.59
   1   8  18   -3.17    3.31
  -1   8  18    5.87    3.16
   1   8  18    3.34    3.56
   1   8  19   -0.64    3.05
   1   8  19    0.63    2.56
  -1   8  19   -2.72    3.08
  -1   8  19    2.08    2.02
   1   8  20   -1.60    3.25
   1   8  20    3.17    4.23
  -1   8  20    2.22    3.17
  -1   8  20   -0.74    3.34
   1   8  21   -1.48    3.64
  -1   8  21    1.77    3.98
   1   8  21    1.05    3.96
  -1   8  21   -1.14    4.92
   1   8  22    6.22    3.66
  -1   8  22    7.49    4.09
  -1   8  22    6.20    5.12
   1  -9  -9   25.95    7.03
   1  -9  -8    7.57    2.46
   1  -9  -7   71.36   11.06
   1  -9  -6  140.30   14.92
   1  -9  -5    7.98    4.82
   1  -9  -4   68.43   10.98
  -1   9  -4   93.34   12.32
  -1   9  -3   86.20   12.06
   1  -9  -3  134.31   14.64
  -1   9  -2   63.31   10.16
   1  -9  -2   54.44    9.17
  -1   9  -1    8.44    4.71
   1  -9  -1    6.15    3.83
   1  -9   0   92.93   11.97
  -1   9   0   67.57   10.48
  -1   9   1   13.19    5.10
   1  -9   1   19.96    5.33
   1  -9   2   55.66    9.66
  -1   9   2   51.05    9.24
  -1   9   3  107.96   13.23
   1  -9   3  105.58   13.13
   1   9   3  113.90   13.27
  -1   9   4   93.05   12.06
   1   9   4   95.80   11.99
   1  -9   4   67.10   10.25
   1  -9   5    7.29    4.04
  -1   9   5    0.56    2.25
  -1   9   6  143.47   15.28
   1   9   6  167.67   16.12
   1  -9   6  137.71   14.80
   1   9   7   58.02    9.44
  -1   9   7   79.67   12.13
   1  -9   7   75.96   11.09
  -1   9   8    8.24    4.89
   1   9   8    3.41    3.10
   1  -9   8    6.68    4.28
   1   9   9   30.56    7.20
  -1   9   9   32.81    8.06
   1   9  10   74.23   11.25
  -1   9  10   69.37   10.95
   1   9  10   98.61   13.21
   1   9  11   19.38    6.69
  -1   9  11   18.36    6.63
   1   9  11   17.42    5.81
   1   9  12   17.26    6.08
  -1   9  12   21.51    6.70
   1   9  12   24.32    5.78
   1   9  13   47.52    8.71
   1   9  13   64.46   10.99
  -1   9  13   48.56    9.81
   1   9  14   29.15    6.90
   1   9  14   25.94    7.68
  -1   9  14   26.08    7.29
   1   9  15   11.06    4.44
   1   9  15   28.66    7.96
  -1   9  15   29.60    7.05
  -1   9  16   60.09   11.26
   1   9  16   53.99    9.78
  -1   9  16   65.90   11.20
   1   9  16   49.25    9.65
  -1   9  17   38.11    8.55
   1   9  17   24.23    7.28
  -1   9  17   19.53    6.68
   1   9  17   23.81    5.94
  -1   9  18    3.20    5.24
   1   9  18   14.57    6.88
   1   9  18    6.87    3.14
  -1   9  18    7.20    3.91
  -1   9  19   23.35    7.16
   1   9  19   26.98    6.92
   1   9  19   28.42    8.00
  -1   9  19   47.16    9.90
   1 -10  -6   56.08    9.61
   1 -10  -5   -0.10    2.99
   1 -10  -4   43.64    8.84
   1 -10  -3   13.78    5.94
   1 -10  -2   16.61    6.06
  -1  10  -2    9.17    5.06
  -1  10  -1    8.41    4.96
   1 -10  -1    2.24    3.49
   1 -10   0   11.74    5.90
  -1  10   0   11.98    4.74
  -1  10   1   15.88    5.56
   1 -10   1    1.83    2.93
  -1  10   2    5.02    2.61
   1 -10   2   19.80    6.63
  -1  10   3    6.69    2.75
   1 -10   3   17.87    5.17
  -1  10   4   42.44    8.39
   1 -10   4   33.67    8.38
  -1  10   5   10.95    4.20
   1 -10   5    3.60    2.81
  -1  10   6   36.46    8.12
   1 -10   6   51.47    9.77
   1 -10   7   12.95    4.83
  -1  10   7   17.14    5.79
   1  10   7   13.52    4.93
   1  10   7    7.14    5.73
   1  10   8    0.12    3.87
   1  10   8   -2.35    3.03
  -1  10   8    4.54    4.04
   1  10   9   18.54    5.10
  -1  10   9   20.01    4.61
   1  10   9   22.99    5.82
   1  10  10   17.94    6.26
   1  10  10   33.13    7.73
  -1  10  10   16.47    3.93
   1  10  11   14.24    4.50
  -1  10  11   16.39    6.32
   1  10  11   14.97    5.64
  -1  10  12   18.89    5.31
   1  10  12   24.67    7.14
   1  10  12   24.95    7.35
   1  10  13   15.20    5.93
  -1  10  13    9.29    3.75
   1  10  13   23.57    7.63
   1  10  14   23.83    8.40
  -1  10  14   11.83    4.75
  -1  10  14   14.94    7.50
   1  10  14   13.55    5.59
   1  10  15    4.42    4.54
  -1  10  15   10.01    3.37
   1  10  15   14.30    5.82
  -1  10  15   10.97    6.95
  -1  10  16   12.92    5.78
  -1  10  16    3.14    2.49
   1  10  16    4.51    5.32
   1  10  16    3.81    2.81
   1 -11  -1    9.85    4.38
   1 -11   0   26.78    7.12
   1  11   1    9.54    5.48
   1 -11   1   13.73    6.19
   1  11   2   12.19    5.84
   1 -11   2   11.07    6.92
  -1  11   2   18.33    6.28
   1 -11   3   29.96    8.58
  -1  11   3   27.86    7.76
   1  11   3   13.06    4.82
  -1  11   4   30.00    7.75
   1  11   4   12.71    5.79
   1 -11   4   31.28    7.90
   1 -11   5    7.69    5.29
  -1  11   5    7.13    5.48
   1  11   5    2.29    4.41
   1  11   6   31.11    8.22
  -1  11   6   36.53    8.30
  -1  11   7   25.46    7.39
   1  11   7   32.79    7.72
   1  11   8    1.75    3.48
  -1  11   8   11.16    6.49
  -1  11   9   16.77    5.81
   1  11   9   24.03    6.81
   1  11  10   24.50    7.03
  -1  11  10   41.47    9.65
   2   0  -9 2455.92   26.22
   2   0  -8  613.40   12.44
   2   0  -7 9750.37   47.78
   2   0  -6  838.28   13.23
   2   0  -5 2826.10   23.28
   2   0  -1  561.79   10.33
   2   0   0    5.81    1.11
   2   0   1  547.45   11.41
   2   0   2 9999.00   51.49
   2   0   5 2721.76   30.56
   2   0   6  806.74   17.28
   2   0   7 9881.56   62.80
   2   0   8  617.26   16.50
   2   0   9 2347.57   33.77
   2   0  10 3311.08   41.21
  -2   0  11  398.88   11.18
   2   0  11  416.29   14.93
   2   0  12   87.33    7.23
  -2   0  12  100.53    5.95
  -2   0  13 5989.78   47.55
   2   0  13 5756.31   60.69
   2   0  14   56.90    6.06
  -2   0  14   49.20    4.43
   2   0  15  831.28   24.22
  -2   0  15  833.94   19.38
   2   0  16   31.36    4.96
  -2   0  16   32.68    3.94
   2   0  17  353.33   17.20
  -2   0  17  358.51   13.72
   2   0  18   23.26    4.77
   2   0  19  930.12   29.82
   2   0  20   46.45    6.59
   2  -1 -11   45.12    4.99
   2  -1 -10   48.15    4.91
   2  -1  -9  121.32    7.50
   2  -1  -8  217.18    9.70
   2  -1  -7  111.73    6.76
   2  -1  -6 1058.96   20.38
   2  -1  -5   25.44    3.12
   2  -1  -4  156.49    7.46
   2   1  -3 1323.19   14.11
   2  -1  -3 1359.20   20.88
   2   1  -2  189.78    5.78
   2  -1  -2  175.64    7.36
   2  -1  -1   41.30    3.49
   2   1  -1   42.15    3.04
   2   1   0    0.48    0.54
   2  -1   0    1.48    0.36
   2   1   1   38.01    3.27
   2  -1   1   39.04    3.41
   2  -1   2  180.53    7.32
   2   1   3 1326.36   21.35
   2  -1   3 1386.04   20.69
   2   1   4  153.94    7.64
   2  -1   4  165.84    7.20
   2   1   5   30.91    3.60
   2  -1   5   24.22    2.82
   2   1   6 1106.26   22.43
   2  -1   6 1057.47   19.26
   2   1   7  118.09    5.89
   2  -1   7  133.71    7.02
   2   1   7  122.20    7.65
   2  -1   8  201.74    8.84
   2   1   8  207.00    7.99
   2  -1   9  128.57    7.26
   2   1   9  113.64    5.96
   2   1   9  115.42    8.11
   2   1  10   48.50    4.08
   2   1  10   43.85    5.19
   2  -1  10   49.14    4.58
   2   1  11   43.36    5.15
   2   1  11   41.96    3.76
   2  -1  11   43.70    4.54
   2  -1  12  736.31   19.62
   2   1  12  765.43   16.43
   2   1  12  750.89   22.57
   2  -1  13   61.30    5.65
   2   1  13   66.61    4.94
   2   1  13   64.68    6.82
  -2  -1  14  152.16    5.14
  -2   1  14  184.97   10.56
   2   1  14  184.09   12.21
   2  -1  14  180.21   10.13
   2   1  14  185.94    8.35
   2   1  15   47.89    4.42
   2  -1  15   63.04    6.43
  -2   1  15   52.89    5.97
  -2  -1  15   49.80    3.14
   2   1  15   59.43    7.10
  -2   1  16   51.48    6.00
   2  -1  16   60.14    6.30
   2   1  16   41.36    5.95
   2  -1  17    8.13    2.45
  -2   1  17    9.72    2.93
   2   1  17    4.01    2.49
  -2   1  18   69.80    7.27
   2   1  18   59.71    7.68
   2  -1  18   52.55    6.54
   2   1  19    6.95    3.83
   2  -1  19    7.87    2.96
  -2   1  19    7.68    2.79
   2   1  20   51.79    7.40
   2   1  21   14.04    4.19
   2  -2 -13 1246.69   31.03
   2  -2 -12  271.52   14.29
   2  -2 -11    6.59    2.35
   2  -2 -10  165.66   10.74
   2  -2  -9  887.43   23.78
   2  -2  -8   55.52    5.95
  -2   2  -8   66.74    4.07
   2  -2  -7  751.33   21.06
  -2   2  -7  793.01   14.79
  -2   2  -6   52.32    3.87
   2  -2  -6   50.30    5.32
   2   2  -6   52.02    2.87
   2  -2  -5  113.16    7.77
   2   2  -5  105.16    4.53
  -2   2  -5  114.22    5.96
  -2   2  -4  260.72    9.33
   2   2  -4  273.32    7.92
   2  -2  -4  265.20   11.62
   2   2  -3 3835.46   32.23
   2  -2  -3 3783.09   43.10
   2   2  -2  448.41   11.74
   2  -2  -2  432.44   14.45
   2   2  -1 1290.88   20.93
   2  -2  -1 1303.14   24.19
   2  -2   0  152.33    8.23
   2   2   0  245.91    9.52
   2  -2   1 1260.37   23.20
   2   2   1 1284.28   23.02
   2  -2   2  477.64   14.12
   2   2   2  453.27   14.21
   2  -2   3 3707.35   39.52
   2   2   3 3690.05   41.95
   2   2   4  251.15   11.44
   2   2   4  265.16   10.88
   2  -2   4  247.73   10.08
   2  -2   5  113.54    6.94
   2   2   5  105.25    7.58
   2   2   5  107.04    7.05
   2  -2   6   54.17    4.83
   2   2   6   53.12    4.91
   2  -2   7  801.77   19.10
   2   2   7  766.70   19.38
   2   2   7  756.79   21.18
   2   2   8   63.38    5.87
   2  -2   8   72.33    5.61
   2   2   8   66.86    6.48
   2   2   9  848.12   21.02
   2  -2   9  913.67   20.22
   2   2   9  873.25   24.41
   2   2  10  170.42   10.96
   2   2  10  165.57    9.37
   2  -2  10  166.55    8.72
   2   2  11    1.74    1.11
   2  -2  11    3.08    1.65
   2   2  11    5.95    2.50
   2   2  12  272.71   12.50
   2   2  12  256.54   14.55
   2  -2  12  292.76   12.21
   2   2  13 1197.17   26.65
   2  -2  13 1201.14   25.66
   2   2  13 1130.63   30.83
   2  -2  14    9.11    2.31
   2   2  14    9.52    3.39
   2   2  14    7.26    2.03
   2  -2  15   75.22    6.65
   2   2  15   75.17    8.11
   2   2  15   69.54    6.79
   2  -2  16    8.20    2.58
   2   2  16    5.26    2.36
   2   2  16    8.80    3.33
  -2   2  16    8.07    2.87
   2   2  17  372.42   19.40
   2  -2  17  327.77   14.67
   2   2  17  312.11   14.65
  -2   2  17  366.89   18.35
   2   2  18   78.80    9.28
  -2   2  18   60.16    7.92
   2   2  19  302.31   18.83
  -2   2  19  317.34   18.17
   2   2  20   26.34    5.59
  -2   2  20   27.49    5.61
  -2   2  21    6.68    3.36
   2   2  21    9.79    3.28
   2   2  22    6.41    3.90
   2   2  23  289.92   19.99
   2  -3 -14   18.41    4.17
   2  -3 -13    7.66    3.31
   2  -3 -12   59.78    7.34
   2  -3 -11   58.39    7.06
   2  -3 -10   65.29    7.54
  -2   3  -9   80.17    6.06
   2  -3  -9   89.24    8.47
   2   3  -9   74.23    3.86
   2   3  -8    9.10    1.61
  -2   3  -8   16.30    3.09
   2  -3  -8    9.73    2.84
   2  -3  -7   59.43    6.52
  -2   3  -7   58.21    5.12
  -2   3  -6    2.13    1.00
   2  -3  -6    2.13    1.76
  -2   3  -5  292.80   12.26
   2  -3  -5  251.17   13.35
   2  -3  -4   26.83    4.22
  -2   3  -4   29.37    4.05
  -2   3  -3   32.01    4.24
   2  -3  -3   29.56    4.41
  -2   3  -2   71.27    6.43
   2  -3  -2   79.26    6.92
  -2   3  -1 1871.21   32.36
   2  -3  -1 1960.62   34.36
   2  -3   0  212.65   11.30
   2  -3   1 1713.30   31.41
   2  -3   2   75.27    6.32
   2   3   2   83.49    7.12
   2  -3   3   29.43    4.08
   2   3   3   27.61    4.26
   2   3   4   27.97    4.28
   2  -3   4   32.22    4.25
   2   3   4   31.34    4.31
   2   3   5  276.15   13.63
   2  -3   5  242.37   11.54
   2   3   5  271.59   13.08
   2  -3   6    1.18    0.68
   2   3   6    3.19    1.68
   2   3   6    1.19    0.94
   2  -3   7   49.76    5.13
   2   3   7   40.30    5.76
   2   3   8    7.14    2.52
   2   3   8    7.14    2.50
   2   3   9   72.28    7.16
   2  -3   9   72.94    6.31
   2   3   9   74.26    7.82
   2  -3  10   64.32    6.04
   2   3  10   66.00    7.02
   2   3  10   62.02    7.29
   2  -3  11   74.80    6.42
   2   3  11   70.51    7.36
   2   3  11   72.57    8.14
   2   3  12   57.32    6.55
   2   3  12   52.87    6.96
   2  -3  12   50.80    5.38
   2  -3  13    3.33    1.28
   2   3  13    4.45    1.71
   2   3  13    4.69    2.63
   2  -3  14   16.10    3.27
   2   3  14   13.07    3.67
   2   3  14   15.73    3.51
   2   3  15   18.07    4.24
   2  -3  15   11.69    2.75
   2   3  15   14.41    4.36
   2   3  16   12.35    3.53
   2   3  16   14.27    3.93
   2  -3  16    9.07    2.61
   2   3  17    0.69    1.47
   2   3  17    3.55    1.98
   2   3  18   14.63    4.20
  -2   3  18    4.59    2.52
  -2   3  18    4.60    2.53
   2   3  18   12.81    4.11
   2   3  19    2.33    1.40
  -2   3  19    0.72    1.92
  -2   3  19    0.38    2.74
  -2   3  20    9.05    3.24
   2   3  20    7.03    3.94
  -2   3  20   11.96    4.04
  -2   3  21   24.98    5.47
   2   3  21   31.76    6.43
   2   3  22    0.41    2.71
  -2   3  22    3.16    2.70
   2   3  23    8.10    4.53
   2   3  24    4.63    2.41
   2  -4 -15  105.66   11.05
   2  -4 -14  139.57   12.76
   2  -4 -13  827.25   30.01
   2  -4 -12  238.48   15.64
   2  -4 -11   93.38   10.13
   2   4 -10    9.04    1.83
   2  -4 -10    5.14    2.39
  -2   4  -9  819.26   23.19
   2  -4  -9  802.21   27.90
  -2   4  -8   95.10    8.10
   2  -4  -8   98.70    9.67
   2  -4  -7  204.95   13.50
  -2   4  -7  219.60   12.39
   2  -4  -6  140.17   11.01
  -2   4  -6  116.42    8.89
  -2   4  -5   69.26    7.03
   2  -4  -5   74.48    8.26
  -2   4  -4  241.56   13.17
   2  -4  -4  243.90   14.19
   2  -4  -3  584.41   21.97
  -2   4  -3  604.00   20.99
   2  -4  -2   49.15    6.34
  -2   4  -2   60.55    6.83
  -2   4  -1 2934.71   47.24
   2  -4  -1 3158.39   49.46
  -2   4   0  291.52   14.90
   2  -4   0  287.66   14.74
  -2   4   1 2998.99   48.11
   2  -4   1 3090.43   47.95
   2  -4   2   61.37    6.68
  -2  -4   2   58.97    6.22
  -2   4   2   48.50    6.61
   2   4   2   65.33    6.95
  -2   4   3  614.00   22.11
   2  -4   3  627.61   21.23
  -2  -4   3  660.68   19.82
   2   4   3  640.69   22.44
  -2   4   4  221.09   13.28
  -2  -4   4  241.39   11.85
   2   4   4  244.64   13.86
   2   4   5   60.74    7.45
  -2   4   5   64.77    7.33
   2  -4   5   60.17    6.42
   2   4   6  115.72    9.68
  -2   4   6  139.96   10.94
   2  -4   6  122.67    9.26
   2   4   7  196.01   13.13
   2  -4   7  206.10   11.94
   2   4   7  219.98   13.81
   2  -4   8  105.40    8.40
   2   4   8   94.09    9.04
   2   4   8   83.00    8.69
   2   4   9  824.39   27.11
   2   4   9  822.16   28.08
   2  -4  10    9.66    2.76
   2   4  10   13.98    3.47
   2   4  10    5.60    2.27
   2   4  11   76.32    9.18
   2   4  11   80.38    8.62
   2  -4  11   84.82    7.58
  -2   4  11   84.71    9.32
   2   4  12  218.91   15.30
   2   4  12  267.15   16.05
  -2   4  12  249.91   15.64
   2  -4  12  253.46   12.87
   2   4  13  766.08   28.95
   2   4  13  733.50   27.07
  -2   4  13  713.72   27.11
   2  -4  13  739.16   22.28
   2  -4  14  115.83    9.00
   2   4  14  131.72   11.66
   2   4  14  132.70   12.15
  -2   4  14  130.36   11.91
  -2   4  15   77.51    8.85
   2   4  15   84.80    9.26
   2   4  15   77.55    9.32
   2  -4  15   86.76    7.80
   2   4  16   10.23    2.94
   2   4  16    2.73    1.51
  -2   4  16    8.64    4.35
   2   4  17  309.88   19.57
   2   4  17  257.98   16.73
  -2   4  17  263.50   17.98
   2   4  18   86.96   10.92
  -2   4  18   89.66   11.31
   2   4  18   81.60    9.69
  -2   4  19  312.55   20.64
   2   4  19  323.31   20.89
  -2   4  19  331.39   21.12
   2   4  19  333.28   19.62
   2   4  20   15.61    5.69
  -2   4  20    9.46    4.16
  -2   4  20    6.98    3.49
  -2   4  21   -0.43    3.32
   2   4  21    3.08    3.57
  -2   4  21   -1.90    2.32
   2   4  22    6.05    3.52
  -2   4  22    6.22    3.59
  -2   4  23  104.88   13.09
   2   4  23  109.36   13.24
   2   4  24    3.06    2.44
   2   4  25  175.80   17.66
   2  -5 -15    3.34    3.28
   2  -5 -14   13.66    4.98
   2  -5 -13  143.07   13.09
   2  -5 -12   70.55    9.16
   2  -5 -11    4.25    2.86
   2  -5 -10   36.95    6.51
  -2   5  -9   31.12    5.08
   2  -5  -9   33.30    6.22
  -2   5  -8    4.20    2.57
   2  -5  -8    6.95    3.01
   2  -5  -7   -0.84    1.75
  -2   5  -7    0.91    1.21
  -2   5  -6   10.61    3.65
   2  -5  -6   19.17    4.69
   2  -5  -5   36.21    6.02
  -2   5  -5   42.55    6.14
  -2   5  -4  153.12   11.66
   2  -5  -4  169.10   13.14
   2  -5  -3  147.42   11.99
  -2   5  -3  159.90   12.09
  -2   5  -2   22.61    4.86
   2  -5  -2   12.59    3.15
   2  -5  -1  626.42   24.49
  -2   5  -1  677.87   24.94
  -2   5   0   53.26    7.10
   2  -5   0   55.10    7.26
   2  -5   1  603.64   23.61
  -2  -5   1  682.11   23.65
  -2   5   1  672.57   25.41
   2   5   1  658.08   24.97
   2  -5   2   22.45    4.58
  -2  -5   2   23.79    4.49
   2   5   2   23.09    5.00
  -2   5   2   23.63    5.02
  -2  -5   3  152.45   10.89
   2   5   3  160.27   12.21
  -2   5   3  161.79   12.53
   2  -5   3  159.11   11.75
   2   5   4  127.05   11.13
  -2   5   4  146.81   12.15
   2  -5   4  159.72   11.69
  -2  -5   4  142.32   10.36
  -2   5   5   42.50    6.75
  -2  -5   5   34.71    5.01
   2  -5   5   37.15    5.69
   2   5   5   40.48    6.41
   2  -5   6   12.73    3.01
   2   5   6   14.40    4.17
  -2   5   6   14.68    4.81
  -2  -5   6   21.35    3.95
  -2   5   7   -0.62    1.45
   2  -5   7   -0.35    1.39
   2   5   7    1.65    1.26
   2  -5   8    6.66    3.04
  -2   5   8    3.33    1.76
   2   5   8    6.75    2.75
   2   5   8    1.79    1.59
  -2   5   9   33.74    7.01
   2   5   9   23.07    5.10
   2   5   9   42.49    7.15
   2  -5   9   25.79    4.97
   2   5  10   25.88    5.38
   2  -5  10   35.10    5.50
   2   5  10   28.44    5.80
   2   5  11    5.38    3.38
   2   5  11    3.72    2.83
   2  -5  11    1.49    1.70
  -2   5  11    7.13    4.01
   2   5  12   65.36    9.13
  -2   5  12   73.95    9.26
   2   5  12   71.52    9.31
   2  -5  12   73.47    7.83
   2   5  13  156.68   13.90
   2  -5  13  141.87   10.73
  -2   5  13  156.86   14.01
   2   5  13  158.36   14.34
   2  -5  14   19.71    4.48
   2   5  14    8.23    2.13
  -2   5  14   12.97    4.35
   2   5  14   24.83    6.47
   2   5  15    2.53    2.47
  -2   5  15   -1.25    2.52
   2   5  16   19.42    4.37
  -2   5  16   19.65    5.31
   2   5  16   13.86    4.39
  -2   5  17    1.76    2.33
   2   5  17    6.42    3.74
   2   5  17    2.08    2.57
   2   5  18    3.83    3.47
   2   5  18   -0.35    1.72
  -2   5  18    1.24    3.31
   2   5  19   23.38    6.56
  -2   5  19   26.55    6.77
  -2   5  19   30.41    6.84
   2   5  19   36.36    7.49
  -2   5  20    4.69    2.60
   2   5  20    3.63    4.18
  -2   5  20    3.38    2.52
   2   5  21    1.03    2.28
  -2   5  21   -2.47    3.11
  -2   5  21    1.59    2.78
  -2   5  22   32.00    6.84
   2   5  22   15.84    5.37
  -2   5  23   12.02    5.00
   2   5  23   13.07    4.53
  -2   5  24    2.28    3.13
   2   5  24    5.49    4.03
   2   5  25   23.86    7.78
   2   5  26    5.64    3.99
   2  -6 -15  220.20   17.74
   2  -6 -14   58.10    9.25
   2  -6 -13  874.59   35.19
   2  -6 -12   23.41    5.73
   2  -6 -11  118.90   12.42
   2  -6 -10   49.62    7.59
  -2   6  -9  674.98   26.91
   2  -6  -9  642.77   28.56
  -2   6  -8  367.20   19.75
   2  -6  -8  371.48   21.54
   2  -6  -7  593.31   27.10
  -2   6  -7  590.64   25.36
   2  -6  -6   14.74    4.13
  -2   6  -6   21.17    5.34
  -2   6  -5   67.52    8.68
   2  -6  -5   60.59    8.26
  -2   6  -4  716.27   27.39
   2  -6  -4  741.44   29.12
  -2   6  -3  526.80   24.06
   2  -6  -3  518.14   24.44
  -2   6  -2  264.72   17.00
   2  -6  -2  275.90   17.47
   2  -6  -1  560.98   24.88
  -2   6  -1  583.29   25.17
  -2   6   0   60.62    8.30
   2  -6   0   47.74    7.39
   2  -6   1  565.72   24.65
   2   6   1  552.80   24.51
  -2   6   1  586.20   25.69
  -2  -6   2  253.87   15.71
  -2   6   2  254.32   16.98
   2  -6   2  276.04   17.24
   2   6   2  262.49   16.97
   2  -6   3  499.76   23.12
  -2   6   3  491.86   23.62
  -2  -6   3  498.88   21.92
   2   6   3  537.28   24.31
   2  -6   4  768.38   28.47
   2   6   4  754.10   29.25
  -2  -6   4  731.66   26.29
  -2   6   4  751.97   29.72
   2  -6   5   57.29    7.92
  -2   6   5   73.80    9.69
  -2  -6   5   67.23    7.84
   2   6   5   63.78    8.50
   2   6   6    8.35    3.56
   2  -6   6   12.62    3.53
   2  -6   7  622.17   25.20
   2   6   7  622.81   26.94
  -2   6   7  598.90   27.21
   2   6   8  392.29   21.46
   2  -6   8  337.27   18.43
  -2   6   8  421.47   22.92
   2   6   8  384.60   21.36
   2  -6   9  691.53   26.85
   2   6   9  677.99   28.42
  -2   6   9  686.14   28.96
   2   6   9  672.66   28.79
   2   6  10   64.32    9.10
  -2   6  10   54.62    8.49
   2   6  10   50.67    7.66
   2  -6  10   63.08    7.90
   2   6  11  119.48   12.54
   2   6  11  118.29   12.44
  -2   6  11  126.16   12.73
   2  -6  11  137.25   11.69
  -2   6  12   28.21    6.79
   2   6  12   24.91    5.77
   2   6  12   14.60    4.43
   2  -6  12   16.55    4.14
   2   6  13  872.06   34.32
   2   6  13  863.96   33.45
  -2   6  13  863.66   34.31
   2   6  14   67.36   10.30
  -2   6  14   85.40   11.63
   2   6  14   74.30   10.60
  -2   6  15  186.93   16.49
   2   6  15  217.91   17.14
   2   6  15  186.11   16.53
   2   6  16   16.56    5.29
   2   6  16   22.72    5.50
  -2   6  16    7.80    3.61
  -2   6  17   91.06   11.90
   2   6  17  121.99   13.60
   2   6  17  110.98   12.47
  -2   6  18    8.18    4.19
   2   6  18    5.19    4.30
   2   6  18   13.36    4.65
  -2   6  19  253.30   20.30
   2   6  19  254.93   19.45
   2   6  19  259.62   20.29
  -2   6  19  261.34   21.05
  -2   6  20   19.47    6.72
   2   6  20   17.92    4.93
   2   6  20   17.11    5.47
  -2   6  20   14.63    5.50
   2   6  21   12.89    5.47
  -2   6  21   20.18    4.97
  -2   6  21   13.25    5.14
   2   6  22   30.12    6.92
  -2   6  22   33.22    8.01
  -2   6  22   41.77    8.18
   2   6  23   41.96    9.19
  -2   6  23   31.45    8.69
   2   6  24   26.16    8.00
  -2   6  24   28.03    7.42
  -2   6  25   55.98   11.11
   2   6  25   65.51   10.95
   2   6  26    6.00    4.81
   2  -7 -14  127.27   13.98
   2  -7 -13   32.01    7.55
   2  -7 -12  110.58   12.95
   2  -7 -11   98.63   11.91
   2  -7 -10   80.26   11.06
   2  -7  -9   89.71   11.53
   2  -7  -8  211.43   17.30
  -2   7  -8  225.72   16.93
   2  -7  -7    0.80    2.96
  -2   7  -7   -2.91    1.69
   2  -7  -6  255.26   18.75
  -2   7  -6  242.11   17.60
  -2   7  -5  206.85   16.13
   2  -7  -5  204.07   16.44
  -2   7  -4    7.03    3.56
   2  -7  -4    8.05    4.36
  -2   7  -3  479.98   24.65
   2  -7  -3  466.03   24.20
   2  -7  -2   47.76    7.82
  -2   7  -2   40.98    7.66
  -2   7  -1   49.85    7.76
   2  -7  -1   27.47    5.69
  -2   7   0    4.34    3.43
   2  -7   0    3.81    2.67
  -2   7   1   37.52    6.80
   2  -7   1   28.04    5.84
   2  -7   2   45.72    7.44
  -2   7   2   30.95    6.83
   2  -7   3  407.01   22.70
   2   7   3  418.40   23.35
  -2   7   3  454.19   23.88
   2   7   4    4.58    1.90
  -2   7   4   13.71    5.79
   2  -7   4   15.95    5.54
   2  -7   5  192.37   15.50
  -2   7   5  219.42   17.16
   2   7   5  189.69   15.68
  -2   7   6  222.75   17.04
   2  -7   6  227.79   16.85
   2   7   6  228.47   17.29
   2  -7   7    0.56    2.30
   2   7   7   -2.67    2.20
  -2   7   7    1.89    2.33
   2   7   8  233.15   17.71
  -2   7   8  216.18   17.57
   2   7   8  200.91   16.48
   2  -7   8  211.34   16.07
   2   7   9   87.73   10.74
   2   7   9   78.11   10.56
  -2   7   9   84.52   11.29
   2  -7   9   90.23   10.11
   2   7  10   93.56   10.99
   2   7  10   58.75    9.02
  -2   7  10   80.08   10.97
   2  -7  10   85.38   10.41
   2   7  11  100.94   12.17
   2  -7  11   87.53   10.57
   2   7  11   93.37   11.73
  -2   7  11   83.78   11.77
   2   7  12  110.53   12.82
   2   7  12  108.49   12.60
  -2   7  12   94.74   12.02
   2   7  13   26.42    6.50
   2   7  13   30.65    6.95
  -2   7  13   23.34    6.20
   2   7  14  117.18   13.28
   2   7  14  126.50   13.78
  -2   7  14  112.55   13.19
   2   7  15    5.59    2.99
   2   7  15    0.14    2.76
  -2   7  15   -0.77    2.35
   2   7  16   20.60    5.30
  -2   7  16   14.38    4.90
   2   7  16   20.56    6.26
  -2   7  17    2.17    2.49
   2   7  17    0.18    3.42
   2   7  17   10.00    4.51
  -2   7  18   26.07    6.58
   2   7  18   30.70    6.52
   2   7  19   13.86    6.20
  -2   7  19    5.40    2.50
  -2   7  19    6.01    4.02
   2   7  19    7.00    4.63
  -2   7  20   43.36    9.17
   2   7  20   65.03   10.71
  -2   7  20   69.17   11.54
   2   7  20   72.87   11.04
  -2   7  21    9.30    5.46
  -2   7  21   14.51    6.25
   2   7  21    6.01    4.42
  -2   7  22   -3.05    4.52
   2   7  22    0.52    3.13
  -2   7  22    5.93    5.30
  -2   7  23    4.23    4.27
   2   7  23    4.33    3.00
  -2   7  24   -0.52    3.43
   2   7  24   -1.28    3.29
   2  -8 -13   50.82    9.17
   2  -8 -12    5.99    4.01
   2  -8 -11    3.60    3.29
   2  -8 -10   15.38    4.85
   2  -8  -9   81.47   11.10
   2  -8  -8   10.50    2.07
  -2   8  -7   95.08   11.79
   2  -8  -7   89.77   11.75
   2  -8  -6   27.54    6.57
  -2   8  -6   27.55    7.20
   2  -8  -5   35.43    7.58
  -2   8  -5   31.56    7.00
   2  -8  -4  104.00   11.96
  -2   8  -4   91.29   11.64
  -2   8  -3  304.34   20.97
   2  -8  -3  315.98   21.41
   2  -8  -2    5.46    3.21
  -2   8  -2    3.35    2.52
  -2   8  -1   11.91    3.87
   2  -8  -1    7.18    3.27
  -2   8   0   20.27    4.95
   2  -8   0   24.61    6.40
  -2   8   1    9.23    3.59
   2  -8   1   19.96    5.64
  -2   8   2   11.62    4.67
   2  -8   2   13.49    3.74
  -2   8   3  284.72   20.10
   2  -8   3  199.46   16.95
   2  -8   4   82.92   10.95
  -2   8   4  100.39   12.38
   2   8   5   41.69    8.52
   2  -8   5   29.49    6.26
  -2   8   5   37.58    7.66
  -2   8   6   20.07    5.68
   2   8   6   33.22    7.91
   2  -8   6   22.89    6.29
   2   8   7  100.47   12.13
  -2   8   7   84.12   11.75
   2   8   7   99.48   12.23
   2  -8   7   87.11   10.65
   2  -8   8    4.09    2.16
   2   8   8   10.48    6.20
  -2   8   8   10.21    3.55
   2   8   8    6.51    3.35
   2   8   9   80.90   10.95
  -2   8   9   55.52    9.54
   2  -8   9   65.87    9.17
   2   8   9   58.89    9.40
  -2   8  10   16.74    5.30
   2   8  10   15.65    5.03
   2  -8  10   10.79    5.44
   2   8  10    9.91    4.49
   2   8  11    3.14    2.13
   2   8  11    3.86    3.47
  -2   8  11    4.36    1.83
   2   8  12    9.02    4.61
  -2   8  12    3.89    2.07
   2   8  12    2.67    4.34
   2   8  13   37.15    7.76
  -2   8  13   55.43    9.65
   2   8  13   36.39    8.09
   2   8  14   12.55    4.43
  -2   8  14    7.55    5.42
   2   8  14    8.23    4.04
   2   8  15    7.55    3.78
   2   8  15    1.39    1.95
  -2   8  15    2.23    4.47
   2   8  16   27.40    7.36
   2   8  16   26.49    7.19
  -2   8  16   36.12    7.96
   2   8  17   28.74    7.82
  -2   8  17   40.29    8.04
   2   8  17   27.44    7.00
  -2   8  18    2.98    3.21
   2   8  18   -0.78    3.27
   2   8  18    1.67    3.89
   2   8  19   21.67    6.55
  -2   8  19   11.61    5.06
  -2   8  20    8.25    5.80
  -2   8  20    5.96    3.93
   2   8  20    8.94    4.51
  -2   8  21   10.41    6.31
  -2   8  21    4.83    3.08
   2   8  21    2.66    2.81
   2   8  22   13.54    6.23
  -2   8  22   13.25    5.79
  -2   8  22   30.68    7.41
   2  -9 -12    2.67    3.42
   2  -9 -11    3.23    3.35
   2  -9 -10   22.04    6.07
   2  -9  -9    2.27    3.08
   2  -9  -8    0.25    2.04
   2  -9  -7    5.03    4.35
   2  -9  -6   28.12    7.39
  -2   9  -6   29.51    6.92
  -2   9  -5   20.57    6.12
   2  -9  -5   13.48    4.72
  -2   9  -4   22.71    5.97
   2  -9  -4   13.31    5.20
  -2   9  -3   40.41    8.56
   2  -9  -3   37.17    7.97
  -2   9  -2   16.42    5.69
   2  -9  -2   18.85    5.43
  -2   9  -1   11.62    3.91
   2  -9  -1    6.93    3.93
  -2   9   0    8.84    3.20
   2  -9   0    9.11    3.83
  -2   9   1    9.75    4.94
   2  -9   1   19.67    6.50
   2  -9   2   17.93    5.75
  -2   9   2   14.19    5.24
   2  -9   3   47.33    8.87
  -2   9   3   44.00    8.63
  -2   9   4   20.08    5.47
   2  -9   4   18.58    4.91
   2   9   4   16.34    5.16
   2  -9   5   20.76    6.15
  -2   9   5   25.08    6.94
   2   9   5   20.76    6.30
   2  -9   6   25.92    6.90
   2   9   6   29.34    6.09
  -2   9   6   21.93    6.31
  -2   9   7   -0.90    4.15
   2  -9   7    5.56    3.45
   2   9   7   -1.44    2.89
  -2   9   8    2.78    3.10
   2   9   8    8.11    4.20
   2  -9   8    3.02    5.23
   2   9   9    3.64    2.55
  -2   9   9    4.10    2.93
   2  -9   9   -0.78    3.96
  -2   9  10   22.11    7.37
   2   9  10   22.06    6.47
   2   9  11    0.34    3.96
   2   9  11    3.66    3.76
  -2   9  11    5.00    3.58
  -2   9  12    7.96    3.93
   2   9  12    5.13    3.21
   2   9  12    0.38    2.41
   2   9  13   -0.93    2.09
  -2   9  13   11.82    5.26
  -2   9  14   12.58    6.25
   2   9  14    4.88    2.38
   2   9  15    3.44    2.40
  -2   9  15    2.18    4.61
  -2   9  16    5.16    4.92
   2   9  16    7.13    5.33
   2   9  17   -3.77    4.69
  -2   9  17    0.56    2.96
  -2   9  18    3.70    1.95
   2   9  18   -0.20    2.67
  -2   9  19    8.20    6.66
   2   9  19    3.58    4.40
  -2   9  19    7.71    4.03
   2 -10 -10    3.69    3.20
   2 -10  -9   16.35    6.37
   2 -10  -8    9.62    3.73
   2 -10  -7  132.89   15.26
   2 -10  -6   21.11    6.18
   2 -10  -5   10.26    5.07
  -2  10  -4   21.16    7.57
   2 -10  -4   26.75    6.76
   2  10  -3   51.97    9.52
   2 -10  -3   73.27   11.55
  -2  10  -3   63.82   10.86
   2  10  -2   40.78    9.32
   2 -10  -2   36.84    7.71
  -2  10  -2   36.84    8.54
   2  10  -1    3.14    3.19
  -2  10  -1    6.73    4.10
   2 -10  -1    4.97    4.34
   2 -10   0    5.50    2.93
   2  10   0    5.80    3.91
  -2  10   0    6.66    1.76
   2  10   1    1.61    2.09
  -2  10   1    2.56    2.36
   2 -10   1   -0.14    3.52
   2 -10   2   31.09    7.81
  -2  10   2   25.04    6.73
   2  10   2   26.38    7.32
   2  10   3   60.95   10.48
   2 -10   3   83.82   12.00
  -2  10   3   66.29   11.37
   2 -10   4   25.87    8.16
  -2  10   4   27.54    7.81
   2  10   4   13.53    4.95
   2  10   5    7.69    4.05
  -2  10   5   -0.37    3.79
   2 -10   5    2.20    2.93
  -2  10   6   22.41    6.56
   2 -10   6   13.40    6.77
   2  10   6   14.98    4.05
  -2  10   7  142.41   15.89
   2  10   7  150.90   16.20
   2 -10   7  107.84   14.01
  -2  10   8   15.14    7.00
   2  10   8   24.90    6.97
  -2  10   9   12.82    4.02
   2  10   9   25.26    6.52
  -2  10  10   14.88    4.70
   2  10  10   11.17    2.92
  -2  10  11   23.46    7.41
   2  10  11   36.36    8.40
   2  10  12    1.75    3.01
  -2  10  12    7.55    4.90
  -2  10  13   51.49    9.78
   2  10  13   46.21    9.19
   2  10  14   10.43    4.51
  -2  10  14   11.05    4.83
   2  10  15    7.79    4.21
  -2  10  15    7.42    4.26
   2 -11  -6    9.21    3.91
   2 -11  -5    0.65    3.46
   2 -11  -4   -1.92    2.91
   2 -11  -3    4.43    3.10
   2  11  -2    1.31    3.93
   2 -11  -2    0.84    2.83
   2 -11  -1    1.09    3.02
   2  11  -1   12.47    6.30
  -2  11  -1    7.02    3.31
   2  11   0    0.95    4.10
  -2  11   0   -1.30    3.58
   2 -11   0    4.05    4.97
  -2  11   1    8.00    5.03
   2 -11   1    6.27    3.04
   2  11   1   10.15    5.27
   2 -11   2    1.84    3.50
  -2  11   2    7.09    5.07
   2  11   2    3.76    3.71
   2  11   3    3.48    4.27
  -2  11   3    6.14    4.72
   2 -11   3    3.32    3.24
   2  11   4    2.08    3.34
  -2  11   4    1.44    4.17
   2 -11   4    3.09    3.62
   2  11   5   -1.03    3.12
  -2  11   5   -1.79    2.43
   2 -11   5    0.15    3.69
  -2  11   6    4.84    4.36
   2  11   6    3.80    3.52
  -2  11   7   -1.80    2.43
   2  11   7    5.04    4.87
   2  11   8   10.14    5.61
  -2  11   8    5.51    3.22
   2  11   9    9.93    5.23
  -2  11   9    5.47    3.94
   2  11  10    6.51    4.70
  -2  11  10    3.83    5.06
   3   0 -12    1.13    1.03
   3   0 -11   -0.39    0.64
   3   0 -10    0.44    0.60
   3   0  -9   -0.45    0.69
   3   0  -8    0.43    0.39
   3   0  -7    0.36    0.68
   3   0  -6    0.15    0.62
   3   0  -5    0.77    0.81
   3   0  -4    0.13    0.67
   3   0  -3    0.18    0.60
   3   0  -2   -0.18    0.60
   3   0  -1   -0.47    0.78
   3   0   0   -0.01    0.83
   3   0   1    0.05    0.70
   3   0   2    0.01    0.71
   3   0   3    0.07    0.48
   3   0   4    0.26    0.79
   3   0   5    0.16    0.87
   3   0   6    0.99    1.11
   3   0   7   -0.21    0.76
   3   0   8    0.43    0.92
   3   0   9    0.61    1.03
   3   0  10    0.19    0.63
   3   0  11   -0.45    1.68
   3   0  12   -0.42    0.84
   3   0  13    0.36    1.80
  -3   0  14    0.19    1.04
   3   0  14   -0.47    0.97
  -3   0  15    0.52    0.78
   3   0  15   -0.94    1.94
  -3   0  16   -0.20    0.69
   3   0  16    1.02    1.34
  -3   0  17   -0.20    1.02
   3   0  17    0.19    1.11
   3   0  18   -0.32    1.05
   3   0  19   -1.27    2.04
   3   0  20    2.49    3.32
   3   0  21    0.63    1.64
   3  -1 -14  113.28    8.65
   3  -1 -13  602.12   19.47
   3  -1 -12  496.91   17.04
   3  -1 -11  112.66    7.89
   3  -1 -10  249.27   11.62
   3  -1  -9  858.61   20.94
   3  -1  -8  279.03   11.48
   3  -1  -7  476.41   14.68
   3   1  -6 1465.60   15.51
   3  -1  -6 1415.93   25.48
   3   1  -5   96.94    4.28
   3  -1  -5   90.75    6.25
   3  -1  -4  842.04   18.54
   3   1  -4  888.50   13.68
   3  -1  -3 4695.08   43.11
   3   1  -3 4622.68   33.85
   3  -1  -2 1648.43   25.65
   3   1  -2 1662.06   22.11
   3   1  -1  970.30   17.14
   3  -1  -1 1000.84   19.61
   3   1   0  943.81   17.88
   3  -1   0 1013.78   19.87
   3  -1   1  987.53   19.84
   3   1   1  952.41   18.88
   3  -1   2 1646.90   26.04
   3   1   3 4608.91   44.23
   3  -1   3 4685.66   43.82
   3   1   4  886.96   20.29
   3  -1   4  896.64   19.38
   3   1   5   95.34    7.04
   3  -1   5   98.78    6.59
   3  -1   6 1447.26   25.74
   3   1   6 1418.87   27.41
   3   1   7  533.44   17.30
   3  -1   7  465.13   14.98
   3  -1   8  275.48   11.71
   3   1   8  267.62   12.80
   3  -1   9  864.39   21.44
   3   1   9  875.09   23.58
   3   1  10  252.64   13.03
   3  -1  10  251.53   11.70
   3   1  11  117.94    9.05
   3  -1  11   99.59    7.76
   3  -1  12  460.55   16.80
   3   1  12  495.04   19.28
   3   1  13  580.54   21.64
   3  -1  13  615.03   20.08
   3   1  14  125.93   10.08
   3  -1  14  125.20    9.18
   3   1  15   44.09    6.58
   3  -1  15   39.43    5.33
  -3   1  16   93.77    8.26
   3   1  16   86.70    8.88
   3  -1  16   80.21    7.87
   3  -1  17  225.41   13.65
  -3   1  17  202.89   12.35
   3   1  17  221.37   14.75
  -3   1  18   22.27    4.50
   3   1  18   18.35    4.06
   3  -1  18   21.09    4.32
   3   1  19  160.29   13.24
  -3   1  19  171.11   11.95
   3  -1  19  152.89   11.92
   3   1  20   84.63   10.19
   3   1  21   13.61    4.61
   3   1  22   55.57    9.06
   3  -2 -15   59.00    7.40
   3  -2 -14    3.36    1.95
   3  -2 -13    2.79    1.42
   3  -2 -12   50.50    6.45
   3  -2 -11  309.56   15.05
   3  -2 -10  102.34    8.50
   3  -2  -9   19.05    3.85
  -3   2  -9   24.10    2.43
   3  -2  -8   89.10    7.64
  -3   2  -8   97.14    5.26
   3  -2  -7   49.90    5.66
  -3   2  -7   56.75    4.10
   3   2  -7   46.05    2.75
   3  -2  -6  241.77   12.00
   3   2  -6  246.21    7.25
   3   2  -5  343.42    9.22
   3  -2  -5  348.76   14.29
   3  -2  -4   63.51    6.00
   3   2  -3 1905.31   25.37
   3  -2  -3 1905.20   32.36
   3   2  -2  995.16   18.96
   3  -2  -2 1050.45   23.72
   3   2  -1  398.25   12.64
   3  -2  -1  375.39   14.05
   3  -2   0  371.44   13.93
   3   2   0  370.48   12.68
   3  -2   1  419.77   14.64
   3   2   1  412.54   13.88
   3   2   2 1019.23   22.47
   3  -2   2 1026.44   22.76
   3  -2   3 1863.95   30.55
   3   2   3 1901.84   31.82
   3   2   4   54.87    5.62
   3  -2   4   51.75    5.24
   3   2   5  338.49   14.20
   3  -2   5  337.44   13.13
   3   2   6  245.80   12.57
   3  -2   6  277.18   11.95
   3  -2   7   47.18    5.12
   3   2   7   49.15    5.72
   3  -2   8   94.06    7.31
   3   2   9   21.94    3.95
   3  -2   9   30.25    4.30
   3   2  10   85.39    7.97
   3  -2  10   87.83    7.18
   3   2  11  292.89   15.18
   3  -2  11  282.15   13.19
   3  -2  12   43.13    5.33
   3   2  12   41.12    5.89
   3  -2  13    0.71    1.56
   3   2  13    1.10    1.13
   3   2  14    9.04    2.57
   3  -2  14    2.05    1.44
   3   2  15   58.20    7.48
   3  -2  15   62.62    6.62
   3   2  16   26.54    5.02
   3  -2  16   23.08    3.99
   3  -2  17    3.51    2.35
   3   2  17    2.95    3.20
  -3   2  18    6.19    2.40
   3  -2  18    8.16    3.03
   3   2  18    4.85    2.37
   3   2  19   31.32    6.49
  -3   2  19   24.28    5.41
   3   2  20   10.27    3.43
  -3   2  20   11.45    4.30
   3   2  21   58.15    8.49
   3   2  22    3.24    2.71
   3   2  23   27.41    7.12
   3  -3 -16   86.61    9.53
   3  -3 -15  170.82   13.52
   3  -3 -14   23.29    4.38
   3  -3 -13  567.08   23.41
   3  -3 -12  902.47   29.14
   3  -3 -11   90.29    9.10
  -3   3 -10  298.09   11.31
   3  -3 -10  301.20   16.19
   3   3  -9 1347.09   16.89
   3  -3  -9 1400.42   34.80
   3  -3  -8   43.98    6.05
  -3   3  -8   46.56    4.69
   3   3  -7 1037.16   17.87
  -3   3  -7 1009.58   22.69
   3  -3  -7 1012.84   28.10
   3  -3  -6 1132.81   29.26
   3   3  -6 1167.78   20.52
  -3   3  -6 1183.00   24.66
   3   3  -5  133.37    7.38
   3  -3  -5  149.21   10.49
  -3   3  -5  152.36    8.99
   3   3  -4 2062.91   29.87
   3  -3  -4 2008.39   37.93
   3  -3  -3 4525.26   55.98
   3   3  -3 3960.09   43.13
   3   3  -2  717.66   19.00
   3  -3  -2  711.39   21.99
   3   3  -1 1013.53   23.44
   3  -3  -1 1042.60   26.61
   3   3   0  801.04   21.41
   3  -3   0  808.62   22.76
   3  -3   1 1134.01   27.03
   3   3   1 1052.70   25.15
   3  -3   2  772.07   22.03
   3   3   2  661.60   20.25
   3  -3   3 4010.09   50.04
   3   3   3 4032.28   51.25
   3   3   4 2033.86   38.01
   3  -3   4 1870.96   34.61
   3   3   5  151.58   10.37
   3  -3   6 1211.22   27.41
   3   3   6 1140.08   28.76
   3  -3   7 1071.81   26.11
   3   3   7 1016.56   27.96
   3   3   8   42.32    5.94
   3  -3   8   49.38    5.77
   3  -3   9 1397.09   30.71
   3   3   9 1469.33   35.29
   3   3   9 1378.12   31.32
   3   3  10  325.85   16.72
   3  -3  10  302.93   14.06
   3   3  10  325.14   15.36
   3   3  11   86.66    7.90
   3   3  11   94.57    9.32
   3  -3  11  101.22    8.20
   3   3  12  961.50   30.43
   3   3  12  927.23   26.41
   3  -3  12  993.10   25.93
   3   3  13  562.22   23.87
   3   3  13  549.09   20.71
   3  -3  13  593.31   20.31
   3   3  14   32.90    6.14
   3   3  14   45.26    6.14
   3  -3  15  144.80   10.32
   3   3  15  136.12   12.14
   3  -3  16   71.94    7.34
   3   3  16   88.27    9.52
   3   3  17   89.34   10.47
   3  -3  17   81.79    8.10
   3   3  18  123.54   12.33
  -3   3  19   86.50   10.04
   3   3  19   97.76   11.42
  -3   3  20   17.52    5.13
   3   3  20   12.53    3.63
   3   3  21    2.61    1.90
  -3   3  21    0.44    2.95
   3   3  22   19.95    5.75
   3   3  23  139.13   14.20
   3   3  24    7.57    4.87
   3  -4 -17   -2.23    3.30
   3  -4 -16   18.34    4.60
   3  -4 -15   29.71    6.51
   3  -4 -14   -1.99    2.28
   3  -4 -13   40.07    6.87
   3  -4 -12   10.92    3.49
   3  -4 -11   64.30    8.23
  -3   4 -11   77.44    7.12
   3  -4 -10  159.22   13.00
  -3   4 -10  148.11   10.06
   3   4 -10  148.80    7.20
   3   4  -9   80.43    5.71
   3  -4  -9   92.75    9.83
  -3   4  -9   90.17    7.81
  -3   4  -8   75.42    7.26
   3   4  -8   72.26    5.64
  -3   4  -7   72.22    7.12
   3   4  -7   60.35    5.46
   3  -4  -7   60.98    7.59
   3  -4  -6  106.02    9.93
  -3   4  -6   87.22    7.94
   3   4  -6  108.42    7.52
   3  -4  -5  441.32   19.98
  -3   4  -5  416.31   17.38
   3   4  -5  406.66   15.32
   3  -4  -4  279.72   15.44
  -3   4  -4  287.41   14.57
   3   4  -4  275.37   12.96
  -3   4  -3  179.05   11.50
   3   4  -3  180.88   10.68
   3  -4  -3  165.54   11.97
   3   4  -2  419.40   16.77
  -3   4  -2  449.98   18.29
  -3   4  -1  552.85   20.58
   3   4  -1  563.60   19.64
   3  -4  -1  607.15   22.03
   3   4   0  198.56   11.86
   3  -4   0  156.76   11.32
   3   4   1  522.58   19.66
   3  -4   1  599.85   22.11
   3   4   2  435.94   18.43
   3  -4   2  447.90   18.81
   3   4   3  175.78   11.94
   3  -4   3  164.32   11.26
   3  -4   4  265.57   14.23
   3   4   4  263.27   14.83
   3   4   5  389.25   18.35
   3  -4   5  382.20   16.92
   3  -4   6  100.71    8.71
   3   4   6   98.25    9.35
   3   4   7   81.38    8.44
   3  -4   7   64.21    7.03
   3   4   7   60.47    7.70
   3   4   8   86.30    8.82
   3   4   8   75.53    8.63
   3  -4   8   74.79    7.63
   3  -4   9   84.77    7.94
   3   4   9   71.60    8.03
   3   4   9   88.45    9.54
   3   4  10  141.79   12.15
   3   4  10  159.27   12.17
   3  -4  10  155.48   11.15
   3  -4  11   80.04    7.92
   3   4  11   84.34    9.28
   3   4  11  103.04    9.87
   3   4  12   17.65    4.68
   3   4  12   18.62    4.34
   3  -4  12   19.06    3.85
   3   4  13   32.75    6.14
   3   4  13   36.65    6.40
   3  -4  13   35.69    5.57
   3  -4  14    0.40    1.71
   3   4  14   -0.94    1.95
   3   4  14    0.57    2.15
   3  -4  15   41.18    5.75
   3   4  15   35.87    7.07
   3   4  15   29.29    5.59
   3   4  16   11.91    3.90
   3   4  16   11.54    4.15
   3   4  17    2.77    2.74
   3   4  18   13.44    4.24
  -3   4  18   20.19    5.17
   3   4  19   67.34    9.51
  -3   4  19   65.59    9.59
   3   4  20    6.22    3.18
  -3   4  20   11.57    5.24
  -3   4  20    2.63    2.36
  -3   4  21   34.23    6.89
   3   4  21   30.82    7.29
  -3   4  21   16.21    5.61
  -3   4  22    9.76    4.33
   3   4  22   14.10    6.47
  -3   4  23    8.78    5.20
   3   4  23   11.38    5.28
   3   4  24    8.00    4.32
   3   4  25   33.22    8.20
   3  -5 -17  110.36   12.52
   3  -5 -16   63.91    9.42
   3  -5 -15   86.61   10.84
   3  -5 -14  103.19   11.50
   3  -5 -13  366.17   21.71
   3  -5 -12  202.58   15.92
   3  -5 -11   65.65    8.68
  -3   5 -11   67.28    7.42
  -3   5 -10   64.98    7.42
   3  -5 -10   72.49    9.33
  -3   5  -9  317.39   16.76
   3   5  -9  302.88   13.55
   3  -5  -9  331.92   19.63
   3   5  -8   37.01    4.96
  -3   5  -8   29.96    5.21
   3  -5  -8   31.12    5.93
   3   5  -7  146.34    9.97
  -3   5  -7  145.53   11.37
   3  -5  -7  139.36   12.37
   3   5  -6  112.45    8.95
  -3   5  -6  105.19    9.74
   3  -5  -6  108.63   10.99
   3   5  -5   13.50    3.33
   3  -5  -5    6.61    2.99
  -3   5  -5    6.94    2.57
  -3   5  -4   70.72    8.10
   3   5  -4   94.71    8.55
   3  -5  -4   87.17    9.54
   3   5  -3  319.85   15.84
  -3   5  -3  285.17   16.39
   3  -5  -3  311.77   17.79
   3   5  -2   14.68    3.64
  -3   5  -2   18.92    4.43
   3  -5  -2   15.70    4.08
   3  -5  -1  372.27   18.95
  -3   5  -1  388.18   19.03
   3   5  -1  381.30   17.99
   3  -5   0  159.78   12.61
  -3   5   0  205.09   14.09
   3   5   0  186.25   12.77
   3   5   1  386.43   18.71
   3  -5   1  371.44   18.73
  -3   5   1  404.99   19.93
   3  -5   2   12.31    4.22
  -3   5   2   14.27    4.15
   3   5   2   10.36    2.83
   3   5   3  305.09   16.99
  -3   5   3  322.63   18.03
   3  -5   3  317.36   16.92
  -3   5   4   82.48    9.28
   3   5   4   91.14    9.54
   3  -5   4   95.91    9.35
  -3   5   5   12.95    3.63
   3  -5   5    4.44    2.47
   3   5   5   10.12    2.73
   3   5   6  102.35   10.20
   3   5   6  125.24   11.12
   3  -5   6  120.97   10.45
   3   5   7  161.27   12.90
   3   5   7  139.92   11.90
   3  -5   7  148.39   11.62
  -3   5   7  116.39   10.82
   3  -5   8   22.58    4.83
   3   5   8   41.95    6.89
   3   5   8   34.68    6.34
  -3   5   8   27.97    5.47
   3   5   9  318.24   19.21
   3  -5   9  326.61   17.15
  -3   5   9  352.46   19.79
   3   5   9  326.38   18.41
  -3   5  10   78.78    9.27
   3   5  10   82.32    9.27
   3   5  10   85.76   10.14
   3  -5  10   94.00    9.16
   3   5  11   68.36    8.68
  -3   5  11   73.53    8.89
   3   5  11   62.33    8.57
   3  -5  11   74.88    8.11
   3   5  12  201.09   15.15
  -3   5  12  177.72   14.28
   3   5  12  168.63   13.92
   3  -5  12  177.95   12.89
   3  -5  13  358.80   18.33
  -3   5  13  346.90   20.68
   3   5  13  354.68   20.26
   3   5  13  370.54   21.42
  -3   5  14  103.83   11.40
   3   5  14  110.83   11.92
   3   5  14  120.92   11.87
   3  -5  14  115.39   10.66
   3   5  15  111.93   11.87
  -3   5  15   87.16   10.82
   3   5  15   98.89   11.35
   3   5  16   69.95    9.67
   3   5  16   55.24    8.34
  -3   5  16   64.85   10.17
   3   5  17  101.63   11.31
  -3   5  17   91.40   11.02
  -3   5  18   37.70    8.53
   3   5  18   46.06    8.30
   3   5  19  103.74   12.05
  -3   5  19   91.17   12.73
   3   5  20   49.11    8.76
  -3   5  20   52.51    9.05
  -3   5  21    8.74    4.08
   3   5  21   16.17    5.66
  -3   5  21   10.36    5.37
   3   5  22   22.11    6.17
  -3   5  22   16.53    5.52
  -3   5  22   21.78    6.79
  -3   5  23   34.32    8.82
   3   5  23   23.26    6.39
   3   5  24   14.90    5.31
   3   5  25   39.79    9.53
   3   5  26   26.44    7.23
   3  -6 -17    4.19    2.12
   3  -6 -16   38.50    7.62
   3  -6 -15  119.94   13.25
   3  -6 -14   23.95    7.13
   3  -6 -13  248.52   18.13
   3  -6 -12   14.14    4.31
   3  -6 -11  120.37   12.96
  -3   6 -10   54.52    7.73
   3  -6 -10   58.74    9.23
  -3   6  -9   37.55    6.65
   3  -6  -9   55.13    8.64
   3   6  -8   56.89    7.15
  -3   6  -8   69.04    8.93
   3  -6  -8   42.50    7.26
   3   6  -7  141.72   11.02
  -3   6  -7  139.16   12.33
   3  -6  -7  141.83   13.18
   3   6  -6   21.71    4.44
  -3   6  -6   23.11    5.28
   3  -6  -6   26.43    5.92
   3  -6  -5  125.18   12.39
  -3   6  -5  110.51   10.83
   3   6  -5  122.67   10.54
  -3   6  -4   18.27    4.44
   3  -6  -4   16.03    5.22
   3   6  -4   24.93    4.56
  -3   6  -3  119.04   11.56
   3   6  -3  136.91   11.58
   3  -6  -3  139.53   12.67
  -3   6  -2  173.87   14.07
   3   6  -2  147.04   11.97
   3  -6  -2  154.33   13.59
  -3   6  -1  158.59   13.13
   3   6  -1  164.84   12.75
   3  -6  -1  191.30   14.56
  -3   6   0    0.91    2.49
   3   6   0   -1.37    1.71
   3  -6   0   -0.14    2.24
   3   6   1  132.06   11.73
   3  -6   1  121.70   11.47
  -3   6   1  151.56   13.21
   3  -6   2  145.78   12.44
  -3   6   2  152.63   13.12
   3   6   2  183.59   14.04
   3   6   3  151.80   12.60
   3  -6   3  113.61   11.08
  -3   6   3  149.56   13.26
   3   6   4   22.55    5.59
  -3   6   4   17.94    4.60
   3  -6   4   19.68    4.52
   3  -6   5  115.40   11.08
   3   6   5  102.61   10.87
  -3   6   5  105.38   11.34
   3   6   6   24.21    5.76
  -3   6   6   23.36    5.20
   3  -6   6   30.66    5.69
   3   6   7  151.17   13.17
  -3   6   7  153.87   14.09
   3  -6   7  140.44   12.35
   3   6   7  170.32   14.47
   3   6   8   44.00    6.87
  -3   6   8   55.50    8.23
   3  -6   8   48.41    7.16
   3   6   8   45.28    7.53
   3  -6   9   53.20    7.60
  -3   6   9   54.82    8.62
   3   6   9   34.56    6.47
   3   6   9   53.54    8.04
   3   6  10   59.48    8.81
  -3   6  10   40.12    7.82
   3  -6  10   45.19    6.90
   3   6  10   58.61    8.97
  -3   6  11  129.25   13.13
   3   6  11  118.29   12.91
   3   6  11  105.35   11.85
   3  -6  11  100.84   10.20
   3  -6  12   16.21    4.74
   3   6  12   14.18    4.36
   3   6  12   25.76    5.88
  -3   6  12   20.61    5.74
  -3   6  13  250.13   18.68
   3   6  13  248.38   18.58
   3   6  13  230.86   17.39
   3  -6  13  219.80   15.27
   3   6  14   25.37    6.46
   3   6  14   21.81    5.74
  -3   6  14   17.88    5.81
  -3   6  15  108.17   12.71
   3   6  15  113.11   12.18
   3   6  15   99.88   11.98
  -3   6  16   45.78    9.17
   3   6  16   52.94    9.08
   3   6  16   38.88    7.42
  -3   6  17   13.94    5.57
   3   6  17    7.18    4.02
  -3   6  18   43.10    8.20
   3   6  18   44.79    8.97
   3   6  19   83.09   11.47
  -3   6  19   60.72    9.99
  -3   6  20    7.46    3.45
   3   6  20    2.72    3.30
  -3   6  21   22.24    5.96
   3   6  21   17.08    5.64
  -3   6  21   21.65    7.07
  -3   6  22    0.54    2.81
   3   6  22    0.12    2.31
  -3   6  22    8.40    5.40
   3   6  23    2.94    2.06
  -3   6  23    3.91    3.70
   3   6  24   11.99    5.13
  -3   6  24    6.61    3.12
   3   6  25   11.01    5.00
   3   6  26   -0.25    3.83
   3  -7 -16   80.66   11.58
   3  -7 -15   26.41    7.04
   3  -7 -14   16.99    5.53
   3  -7 -13   93.59   12.55
   3  -7 -12   29.48    7.08
   3  -7 -11    1.17    1.52
  -3   7 -10   61.15    8.65
   3  -7 -10   67.99   10.03
  -3   7  -9  181.96   15.39
   3  -7  -9  147.77   14.46
   3  -7  -8   13.78    5.45
  -3   7  -8   21.77    5.44
   3  -7  -7   53.93    8.81
   3   7  -7   45.26    6.86
  -3   7  -7   65.83    9.11
  -3   7  -6   91.39   10.86
   3   7  -6   98.81   10.49
   3  -7  -6   86.30   10.55
   3  -7  -5   38.73    7.05
   3   7  -5   28.26    5.86
  -3   7  -5   45.31    8.07
   3  -7  -4  187.92   16.30
   3   7  -4  162.82   13.66
  -3   7  -4  182.87   15.20
  -3   7  -3  202.54   16.21
   3   7  -3  159.29   13.45
   3  -7  -3  181.04   15.29
   3  -7  -2  125.69   12.65
  -3   7  -2  124.77   12.88
   3   7  -2  103.73   10.82
   3   7  -1  386.90   20.90
  -3   7  -1  431.90   24.05
   3  -7  -1  379.97   22.36
  -3   7   0  278.55   18.95
   3   7   0  248.50   17.18
   3  -7   0  265.22   18.67
  -3   7   1  400.75   22.93
   3   7   1  376.13   21.65
   3  -7   1  389.29   22.42
   3   7   2  130.97   12.58
  -3   7   2   98.90   12.41
   3  -7   2  119.90   12.61
   3   7   3  217.83   16.26
  -3   7   3  169.98   14.53
   3  -7   3  220.30   16.80
   3   7   4  187.48   15.51
  -3   7   4  179.30   15.56
   3  -7   4  188.51   15.34
   3   7   5   29.51    6.42
   3  -7   5   35.54    6.94
   3   7   6  101.02   11.44
  -3   7   6   86.64   11.16
   3  -7   6  102.34   11.26
  -3   7   7   57.63    9.43
   3   7   7   56.75    8.99
   3  -7   7   49.79    7.82
   3   7   8   16.01    5.87
  -3   7   8   24.26    6.17
   3  -7   8   22.25    5.13
   3   7   9  178.10   15.74
  -3   7   9  212.55   17.60
   3  -7   9  168.61   14.39
   3  -7  10   48.73    7.87
  -3   7  10   56.42    8.98
   3   7  10   65.58    9.64
  -3   7  11   -0.07    3.17
   3  -7  11    8.40    3.65
   3   7  11    1.88    2.75
  -3   7  12   24.92    7.01
   3   7  12   37.64    7.28
   3  -7  12   24.81    5.65
   3   7  13  100.64   12.37
  -3   7  13   93.83   12.11
   3   7  14   22.66    6.14
  -3   7  14   32.27    6.78
   3   7  15   31.10    6.97
  -3   7  15   16.57    5.91
   3   7  16   76.17   11.02
  -3   7  16   83.76   12.07
   3   7  17   45.21    9.25
  -3   7  17   53.13   10.47
  -3   7  18   -2.93    4.23
   3   7  18    2.92    3.83
  -3   7  19   89.95   13.21
   3   7  19   58.49    9.65
   3   7  20   21.24    6.65
  -3   7  20   19.07    5.61
  -3   7  21   12.76    5.62
  -3   7  21   11.10    4.86
   3   7  21   13.59    6.35
   3   7  22   20.43    6.05
  -3   7  22   30.78    9.09
  -3   7  22   35.11    8.58
   3   7  23   18.82    8.05
  -3   7  23   22.81    6.68
   3   7  24   32.99    9.20
  -3   7  24   20.88    6.66
   3  -8 -15   30.86    7.34
   3  -8 -14   21.58    6.43
   3  -8 -13   97.97   12.42
   3  -8 -12   33.75    7.67
   3  -8 -11    1.56    2.56
   3  -8 -10   19.36    5.65
  -3   8  -9   37.95    7.90
   3  -8  -9   47.36    8.61
  -3   8  -8   23.33    7.03
   3  -8  -8   21.79    5.87
   3  -8  -7   22.65    6.60
  -3   8  -7   32.14    7.31
   3   8  -6    3.39    3.03
   3  -8  -6    7.58    2.73
   3   8  -5   12.55    3.86
  -3   8  -5    4.61    4.10
   3   8  -4   56.10    8.41
  -3   8  -4   56.65    9.40
   3  -8  -4   47.18    8.29
  -3   8  -3   37.28    7.69
   3  -8  -3   42.66    7.84
   3   8  -3   35.06    7.12
   3   8  -2    1.49    1.83
   3  -8  -2    4.41    3.08
  -3   8  -2    9.94    4.20
   3  -8  -1   50.68    8.30
   3   8  -1   45.86    8.10
  -3   8  -1   59.98    9.18
   3   8   0    4.43    2.67
  -3   8   0    6.56    3.53
   3  -8   0    4.44    2.82
  -3   8   1   50.40    8.48
   3  -8   1   66.13    9.70
   3   8   1   38.12    7.43
  -3   8   2    8.20    4.06
   3  -8   2    9.41    4.65
   3   8   2    3.38    2.09
  -3   8   3   51.69    9.40
   3  -8   3   37.32    7.36
   3   8   3   38.81    7.57
   3   8   4   43.73    7.70
   3  -8   4   61.16    9.14
  -3   8   4   75.55   10.81
  -3   8   5   18.46    4.67
   3  -8   5   18.94    5.85
   3   8   5   16.70    5.09
  -3   8   6   13.35    5.15
   3   8   6    5.45    3.80
   3  -8   6    4.70    3.68
   3   8   7   23.42    6.08
  -3   8   7   35.81    7.19
   3  -8   7   33.04    8.14
   3   8   8   15.91    4.56
   3  -8   8   27.54    6.51
   3   8   9   57.41    9.87
  -3   8   9   66.69   10.39
   3  -8   9   59.07    8.96
   3   8  10   16.07    5.32
   3  -8  10   15.08    5.89
  -3   8  10    8.56    2.43
  -3   8  11    1.62    2.53
   3   8  11    0.77    2.86
   3  -8  11    1.51    2.34
   3   8  12   25.84    6.54
  -3   8  12   19.88    6.26
  -3   8  13   87.49   12.30
   3   8  13   62.63   10.20
   3   8  14   17.94    6.22
  -3   8  14    7.49    4.68
   3   8  15   28.81    7.40
  -3   8  15   28.24    6.71
   3   8  16    9.25    4.31
  -3   8  16   11.90    5.27
  -3   8  17   18.01    5.88
   3   8  17    8.24    4.53
   3   8  18    4.99    4.18
  -3   8  18    1.13    3.55
  -3   8  19   11.02    6.13
   3   8  19   12.56    6.63
   3   8  20    5.38    3.81
  -3   8  20    9.24    5.09
  -3   8  20   -3.54    2.35
  -3   8  21    4.15    2.80
   3   8  21    7.06    4.99
  -3   8  21    1.43    4.10
  -3   8  22    1.44    4.92
   3   8  22   -0.85    4.96
  -3   8  22    9.40    7.16
   3  -9 -14   12.34    4.21
   3  -9 -13   30.35    7.63
   3  -9 -12   -0.07    2.21
   3  -9 -11   17.95    6.31
   3  -9 -10   18.40    5.85
   3  -9  -9  119.44   13.70
  -3   9  -8   41.27    7.87
   3  -9  -8   49.77    9.63
   3  -9  -7  102.18   13.51
  -3   9  -7   85.80   12.38
  -3   9  -6   88.06   12.13
   3  -9  -6   88.38   12.17
   3  -9  -5   77.18   11.05
  -3   9  -5   85.98   11.79
   3   9  -4  128.77   14.31
  -3   9  -4  114.67   13.93
   3   9  -3  155.75   15.19
   3  -9  -3  152.68   15.69
  -3   9  -3  175.80   16.81
  -3   9  -2   24.78    6.20
   3   9  -2   36.62    7.65
   3  -9  -2   29.05    7.56
  -3   9  -1  128.98   14.49
   3   9  -1  118.33   13.37
   3  -9  -1  103.22   12.97
   3  -9   0   55.37    9.52
   3   9   0   50.99    8.91
  -3   9   0   70.47   10.69
   3  -9   1  102.01   12.88
   3   9   1   93.80   12.45
  -3   9   1  108.78   13.25
   3  -9   2   36.51    8.16
  -3   9   2   41.92    8.21
   3   9   2   37.73    8.03
   3   9   3  182.76   17.05
   3  -9   3  154.38   16.06
  -3   9   3  157.21   15.89
   3   9   4  137.11   14.58
  -3   9   4  137.28   15.00
   3  -9   4  141.98   14.72
   3  -9   5   84.69   11.66
   3   9   5   81.69   11.60
  -3   9   5   93.94   12.36
  -3   9   6   87.36   11.69
   3   9   6   92.39   12.41
   3  -9   6   80.43   11.48
   3  -9   7   86.24   12.22
  -3   9   7   91.63   12.67
   3   9   7   82.74   11.33
  -3   9   8   56.33    9.73
   3  -9   8   43.19    8.77
   3   9   8   24.73    6.60
   3   9   9  109.70   13.62
  -3   9   9  139.22   15.56
   3  -9   9  106.62   13.95
  -3   9  10   35.51    8.00
   3   9  10   37.76    8.86
  -3   9  11   14.74    5.18
   3   9  11   14.58    5.87
   3   9  12    2.49    3.16
  -3   9  12   10.37    5.35
  -3   9  13   34.36    8.48
   3   9  13   25.29    7.08
   3   9  14   19.46    5.50
  -3   9  14   15.49    5.28
   3   9  15   21.08    6.14
  -3   9  15   18.56    7.37
   3   9  16    4.86    2.86
  -3   9  16   14.54    5.65
   3   9  17    5.99    4.51
  -3   9  17   10.51    5.25
  -3   9  18    3.85    3.31
   3   9  18   12.05    5.82
  -3   9  19   40.48    9.19
   3   9  19   31.40    8.01
  -3   9  19   33.33    7.98
   3 -10 -12    5.61    5.66
   3 -10 -11   48.86   10.24
   3 -10 -10   14.43    6.40
   3 -10  -9   25.68    7.06
   3 -10  -8   32.10    7.38
   3 -10  -7    1.11    2.53
  -3  10  -6    2.78    2.39
   3 -10  -6   11.23    5.15
   3 -10  -5   53.43    9.89
  -3  10  -5   44.94    9.24
  -3  10  -4   44.05    8.84
   3 -10  -4   65.82   10.98
   3  10  -3  194.82   18.12
  -3  10  -3  176.11   17.54
   3 -10  -3  178.12   17.74
   3  10  -2   24.04    7.27
   3 -10  -2   26.60    7.07
  -3  10  -2   26.07    7.10
  -3  10  -1   18.31    7.01
   3  10  -1   13.39    6.17
   3 -10  -1    9.54    3.88
   3  10   0   16.30    4.90
   3 -10   0   16.67    6.31
  -3  10   0   33.26    8.67
  -3  10   1    6.83    4.59
   3 -10   1    4.07    3.11
   3  10   2   29.74    7.52
  -3  10   2   29.46    7.04
   3 -10   2   20.29    6.01
   3  10   3  163.46   16.50
   3 -10   3  168.25   16.96
  -3  10   3  194.55   18.72
   3  10   4   62.99   10.18
   3 -10   4   58.43    9.89
  -3  10   4   65.83   10.99
   3 -10   5   43.88    8.98
  -3  10   5   46.12    8.69
   3  10   5   60.21   10.02
  -3  10   6    9.23    5.42
   3  10   6   -0.90    4.14
   3 -10   6   12.53    5.54
   3  10   7    7.36    4.68
  -3  10   7   -3.93    2.66
   3 -10   7    3.06    4.27
   3 -10   8   31.81    7.60
   3  10   8   39.07    9.20
  -3  10   8   24.14    6.64
  -3  10   9   23.55    5.85
   3  10   9   17.10    5.53
  -3  10  10   13.49    4.08
   3  10  10   16.53    5.38
  -3  10  11   58.26    8.84
   3  10  11   45.92    9.29
  -3  10  12    4.14    4.10
   3  10  12    6.53    4.09
  -3  10  13   -5.98    4.42
   3  10  13    2.19    2.28
   3  10  14    3.76    3.91
  -3  10  14   13.90    4.26
   3  10  15    3.61    3.41
  -3  10  15   -1.92    3.26
   3 -11  -9   13.92    6.37
   3 -11  -8   55.60   10.44
   3 -11  -7   49.73    9.31
   3 -11  -6    7.16    3.13
   3 -11  -5    4.88    3.61
   3 -11  -4   16.86    4.82
  -3  11  -4   20.01    5.31
   3 -11  -3    6.72    4.43
  -3  11  -3   11.54    5.38
   3 -11  -2    6.74    3.55
  -3  11  -2   -0.06    3.31
   3  11  -1    4.64    5.14
  -3  11  -1    5.32    4.79
   3 -11  -1    4.51    3.50
   3 -11   0   -1.07    3.66
  -3  11   0    1.34    3.40
   3  11   0    0.53    3.55
   3 -11   1    3.22    3.73
  -3  11   1    1.99    2.86
   3  11   1    6.15    4.43
   3  11   2    7.19    5.06
   3 -11   2    4.14    3.67
  -3  11   2   17.61    6.49
   3 -11   3    8.35    4.60
  -3  11   3   13.71    4.31
   3  11   3    4.86    3.81
  -3  11   4   14.75    6.16
   3  11   4    6.43    4.09
  -3  11   5   11.49    5.80
   3 -11   5   13.59    4.81
   3  11   5   11.32    5.49
  -3  11   6   25.67    8.09
   3 -11   6   13.93    5.92
   3  11   6   13.05    4.36
   3  11   7   40.72    8.46
  -3  11   7   49.42    9.45
  -3  11   8   60.73   10.80
   3  11   8   37.85    8.75
   3  11   9   23.09    6.68
  -3  11   9   28.75    8.98
   4   0 -14  263.56   10.92
   4   0 -13  164.72    8.71
   4   0 -12  161.80    8.36
   4   0 -11 1547.27   25.10
   4   0 -10  113.12    6.76
   4   0  -9 1416.33   23.78
   4   0  -8  398.45   12.19
   4   0  -7   52.27    4.46
   4   0  -6  180.44    8.32
   4   0  -5  402.07   12.41
   4   0  -4  183.57    8.23
   4   0  -3 1832.36   26.41
   4   0  -2 1253.65   22.19
   4   0  -1  681.16   16.46
   4   0   0  876.01   19.09
   4   0   1  691.32   17.22
   4   0   2 1188.99   23.10
   4   0   3 1857.71   30.19
   4   0   4  185.22    9.82
   4   0   5  430.20   15.46
   4   0   6  236.06   11.74
   4   0   7   57.46    5.97
   4   0   8  380.61   15.46
   4   0   9 1478.58   31.24
   4   0  10  107.12    8.67
   4   0  11 1482.08   33.16
   4   0  12  165.74   11.48
   4   0  13  169.70   11.72
   4   0  14  256.36   14.78
   4   0  15  351.81   18.00
  -4   0  16  184.72    9.50
   4   0  16  200.39   13.71
   4   0  17  907.91   30.09
   4   0  18  222.22   15.30
   4   0  19  215.13   15.24
   4   0  20  151.24   13.25
   4   0  21  130.92   12.51
   4  -1 -16  374.09   16.52
   4  -1 -15   12.29    3.42
   4  -1 -14   48.00    5.92
   4  -1 -13   68.55    7.00
   4   1 -12   65.56    3.56
   4  -1 -12   92.38    7.57
   4  -1 -11  139.16    9.20
   4   1 -11  130.61    5.12
   4   1 -10  798.79   13.04
   4  -1 -10  792.21   21.80
   4  -1  -9    9.10    2.36
   4   1  -9   10.08    1.49
   4  -1  -8  242.08   11.37
   4   1  -8  247.96    7.84
   4  -1  -7   73.63    6.26
   4  -1  -6  129.64    8.17
   4   1  -6  157.63    6.64
   4  -1  -5  138.42    8.31
   4   1  -5  130.67    6.20
   4  -1  -4  455.46   14.94
   4   1  -4  513.52   12.87
   4  -1  -3   56.23    5.26
   4   1  -3   61.03    4.59
   4   1  -2  102.31    6.23
   4  -1  -2   93.37    6.83
   4   1  -1   24.50    3.21
   4  -1  -1   28.01    3.62
   4  -1   0  302.51   11.88
   4   1   0  302.84   11.42
   4  -1   1   22.49    3.50
   4   1   1   26.50    3.59
   4   1   2   99.37    6.96
   4  -1   2   92.42    6.81
   4  -1   3   52.84    5.15
   4   1   3   52.14    5.09
   4  -1   4  504.09   16.02
   4   1   4  502.42   16.44
   4   1   5  131.93    8.79
   4  -1   5  127.33    8.25
   4  -1   6  161.78    9.52
   4   1   6  159.36    9.76
   4   1   7   71.60    6.79
   4  -1   7   70.38    6.39
   4   1   8  258.73   13.15
   4  -1   8  263.52   12.65
   4  -1   9    6.53    1.80
   4   1   9   11.74    3.20
   4   1  10  871.58   25.53
   4  -1  10  815.73   23.08
   4   1  11  121.95    9.83
   4  -1  11  124.72    9.18
   4  -1  12   87.03    8.16
   4   1  12   86.37    8.63
   4  -1  13   58.25    6.87
   4   1  13   59.59    7.37
   4   1  14   53.57    6.90
   4  -1  14   53.06    6.65
   4   1  15   17.05    3.91
   4  -1  15   13.01    3.22
   4   1  16  367.75   19.00
   4  -1  16  345.00   17.58
   4   1  17   27.52    5.23
   4  -1  17   31.52    5.02
   4   1  18   96.49   10.24
   4  -1  18   84.12    9.23
  -4   1  18   73.30    7.53
   4   1  19   68.82    8.92
   4  -1  19   42.32    6.46
   4  -1  20    3.04    2.49
   4   1  20    8.02    4.16
   4   1  21   14.42    5.11
   4   1  22    9.88    3.65
   4  -2 -17   18.20    4.27
   4  -2 -16  280.01   16.16
   4  -2 -15  193.25   13.34
   4  -2 -14   64.02    7.61
   4  -2 -13  159.09   11.48
   4  -2 -12  297.13   15.70
  -4   2 -11   51.56    3.36
   4  -2 -11   63.75    7.14
   4  -2 -10  308.62   15.35
  -4   2 -10  319.97    9.09
   4  -2  -9  118.49    9.29
   4   2  -9   88.57    3.79
   4   2  -8   23.34    2.22
   4  -2  -8   23.05    3.91
   4   2  -7    5.89    1.15
   4  -2  -7    7.13    2.47
   4  -2  -6   11.83    2.91
   4   2  -6    7.74    1.53
   4   2  -5   50.33    4.10
   4  -2  -5   50.67    5.66
   4  -2  -4  973.01   24.90
   4   2  -4 1060.06   19.56
   4  -2  -3  324.00   14.15
   4   2  -3  341.61   11.62
   4   2  -2  145.71    8.03
   4  -2  -2  126.60    8.80
   4  -2  -1   76.32    6.89
   4   2  -1  100.13    6.83
   4  -2   0  120.57    8.48
   4   2   0  105.06    7.20
   4  -2   1   72.78    6.54
   4   2   1   81.86    6.63
   4   2   2  144.32    9.15
   4   2   3  332.45   14.03
   4  -2   3  327.70   14.17
   4  -2   4 1010.98   24.79
   4   2   4 1081.43   25.70
   4  -2   5   34.44    4.79
   4   2   6    4.01    2.51
   4  -2   6    5.18    2.04
   4   2   7    4.32    2.09
   4  -2   7    9.49    2.48
   4  -2   8   24.80    4.29
   4   2   8   23.10    4.32
   4  -2   9  112.69    8.75
   4   2   9  118.15   10.15
   4  -2  10  308.26   14.73
   4   2  10  316.46   16.26
   4  -2  11   76.24    7.48
   4   2  11   63.50    7.51
   4  -2  12  287.83   14.52
   4   2  12  270.60   15.94
   4  -2  13  140.41   10.54
   4   2  13  158.21   12.66
   4  -2  14   55.67    6.71
   4   2  14   59.18    7.70
   4  -2  15  193.58   12.53
   4   2  15  184.59   13.95
   4  -2  16  339.56   16.95
   4   2  16  294.81   17.94
   4   2  17   14.78    4.38
   4  -2  17   13.57    3.33
   4   2  18   15.09    4.70
   4  -2  18   12.78    3.79
   4  -2  19  153.47   12.54
   4   2  19  175.34   14.65
  -4   2  20   10.87    3.61
   4   2  20   13.43    4.50
   4   2  21   94.37   11.53
   4   2  22   65.58    9.75
   4   2  23    4.42    3.65
   4   2  24    1.39    2.57
   4  -3 -18   12.78    3.66
   4  -3 -17   42.63    7.07
   4  -3 -16   18.37    4.64
   4  -3 -15   60.43    8.15
   4  -3 -14    2.62    1.53
   4  -3 -13   41.12    6.66
  -4   3 -12   53.32    4.88
   4  -3 -12   51.81    7.27
   4  -3 -11   12.93    3.82
  -4   3 -11   11.22    2.18
  -4   3 -10   26.91    3.59
   4  -3 -10   18.38    3.82
  -4   3  -9   67.04    5.74
   4   3  -9   55.85    3.78
   4  -3  -9   54.33    7.03
  -4   3  -8    7.44    2.40
   4   3  -8    7.93    1.69
   4  -3  -8    5.03    2.00
  -4   3  -7   52.27    5.10
   4  -3  -7   62.20    7.18
   4   3  -7   61.58    4.75
   4  -3  -6  454.35   19.32
   4   3  -6  510.54   14.66
   4   3  -5   72.83    5.65
   4  -3  -5   71.28    7.62
   4   3  -4   24.73    3.45
   4  -3  -4   20.68    3.71
   4   3  -3   78.49    6.27
   4  -3  -3   87.07    8.08
   4   3  -2   80.11    6.60
   4  -3  -2   85.19    7.79
   4   3  -1  157.91    9.56
   4  -3  -1  171.42   11.39
   4   3   0  451.96   16.81
   4  -3   0  549.47   19.61
   4  -3   1  175.56   11.00
   4   3   1  142.41    9.73
   4  -3   2   66.87    6.81
   4   3   2   69.70    6.89
   4  -3   3   76.57    7.40
   4   3   3   77.10    7.42
   4  -3   4   22.03    3.88
   4   3   4   17.06    3.83
   4  -3   5   84.16    7.85
   4   3   5   68.93    7.31
   4  -3   6  541.66   19.70
   4   3   6  513.97   20.15
   4  -3   7   62.99    6.64
   4   3   7   58.66    7.08
   4   3   8    1.87    1.34
   4  -3   8    4.41    2.05
   4   3   9   42.74    6.48
   4  -3   9   46.94    6.19
   4  -3  10   23.61    4.62
   4   3  10   16.27    4.02
   4   3  11   10.82    3.01
   4  -3  11   13.19    3.16
   4  -3  12   56.42    6.69
   4   3  12   56.75    7.44
   4   3  13   34.46    5.89
   4  -3  13   32.86    5.36
   4   3  14    1.07    1.80
   4  -3  14    0.88    0.99
   4  -3  15   60.89    7.39
   4   3  15   60.73    8.37
   4  -3  16   15.87    4.31
   4   3  16   19.46    4.75
   4  -3  17   39.31    6.44
   4   3  17   38.48    6.73
   4   3  18   15.66    4.99
   4   3  19    6.43    4.10
   4   3  20    1.06    2.15
   4   3  21    1.14    2.15
  -4   3  21    1.19    3.03
   4   3  22    5.78    4.22
   4   3  23    6.93    4.37
   4   3  24    9.98    5.28
   4   3  25   -0.41    2.40
   4  -4 -18   13.27    4.61
   4  -4 -17   12.23    4.60
   4  -4 -16  191.30   15.51
   4  -4 -15  792.50   31.44
   4  -4 -14  119.66   12.21
   4  -4 -13   51.44    8.22
   4  -4 -12  210.56   15.45
  -4   4 -11  183.85   11.10
   4  -4 -11  197.23   15.01
  -4   4 -10  212.74   12.07
   4  -4 -10  210.68   15.13
  -4   4  -9  123.17    9.36
   4  -4  -9  147.50   12.12
   4   4  -9  130.39    7.43
  -4   4  -8   23.89    4.18
   4   4  -8   25.16    3.72
   4  -4  -8   26.79    5.00
   4   4  -7  253.52   11.70
   4  -4  -7  226.72   15.30
  -4   4  -7  213.99   12.47
   4   4  -6   24.61    3.92
  -4   4  -6   22.48    4.64
   4  -4  -6   32.21    5.50
   4  -4  -5  141.77   11.49
   4   4  -5  116.84    8.46
  -4   4  -5  138.78   10.00
  -4   4  -4  428.26   18.07
   4   4  -4  423.17   16.35
   4  -4  -4  438.27   20.18
   4  -4  -3  174.60   12.73
   4   4  -3  170.37   10.75
   4   4  -2    9.82    2.30
   4  -4  -2   10.36    2.75
   4  -4  -1   16.88    3.95
   4   4  -1    7.80    2.43
   4  -4   0   16.42    3.70
   4   4   0   19.16    3.93
   4  -4   1    8.83    3.01
   4   4   1    4.88    2.46
   4  -4   2   10.76    3.14
   4   4   2   13.08    3.39
   4  -4   3  143.90   10.94
   4   4   3  160.94   11.32
   4  -4   4  450.75   19.45
   4   4   4  417.25   18.86
   4  -4   5  136.06   10.64
   4   4   5  121.80   10.35
   4  -4   6   24.13    4.55
   4   4   6   34.08    5.64
   4  -4   7  226.22   13.78
   4   4   7  231.76   15.06
   4  -4   8   24.45    4.49
   4   4   8   21.66    4.80
   4  -4   9  155.58   11.47
   4   4   9  138.63   11.85
   4  -4  10  194.96   13.39
   4   4  10  206.04   14.82
   4   4  11  215.06   15.21
   4  -4  11  234.35   14.64
   4  -4  12  209.05   13.79
   4   4  12  231.69   16.05
   4  -4  13   66.76    8.05
   4   4  13   71.22    9.38
   4   4  14  130.22   12.66
   4  -4  14  131.36   10.98
   4   4  15  768.97   30.79
   4  -4  15  787.93   27.42
   4   4  16  182.11   15.20
   4  -4  16  171.42   12.99
   4   4  17   10.57    3.97
   4   4  18   25.65    6.22
   4   4  19    8.63    4.75
   4   4  20   74.50   10.01
   4   4  21  108.30   13.15
   4   4  22   32.59    7.46
  -4   4  22   29.78    6.93
  -4   4  22   19.21    5.98
   4   4  23   20.25    5.52
   4   4  24   14.71    5.31
   4   4  25   42.72    9.15
   4   4  26   54.27   10.09
   4  -5 -18   33.81    6.75
   4  -5 -17  102.07   12.78
   4  -5 -16  136.86   13.88
   4  -5 -15  224.83   17.42
   4  -5 -14   16.51    5.32
   4  -5 -13  145.86   14.03
   4  -5 -12  173.94   14.93
  -4   5 -11    0.56    2.30
   4  -5 -11    4.37    3.32
  -4   5 -10   83.87    8.92
   4  -5 -10   83.62   10.30
   4   5  -9   42.57    5.79
  -4   5  -9   48.76    6.68
   4  -5  -9   40.57    6.92
  -4   5  -8   23.07    4.78
   4   5  -8   24.91    4.19
   4  -5  -8   32.12    6.50
   4  -5  -7   25.79    5.67
  -4   5  -7   29.92    5.18
   4   5  -7   28.32    4.43
   4  -5  -6   12.51    3.55
   4   5  -6    9.17    3.01
  -4   5  -6    9.86    3.70
   4  -5  -5   21.10    4.59
   4   5  -5   31.42    4.84
  -4   5  -5   37.36    6.05
   4   5  -4  124.97    9.80
  -4   5  -4  100.69    9.86
   4  -5  -4  127.61   11.78
   4   5  -3   25.09    4.23
  -4   5  -3   40.02    6.39
   4  -5  -3   29.81    6.16
   4   5  -2    1.73    1.32
  -4   5  -2    2.26    2.01
   4  -5  -2    4.00    2.47
  -4   5  -1   77.59    8.82
   4  -5  -1   78.30    8.94
   4   5  -1   90.94    8.90
  -4   5   0   39.56    6.13
   4  -5   0   24.65    4.73
   4   5   0   42.40    6.31
   4  -5   1   68.89    8.01
   4   5   1   76.65    8.38
   4  -5   2    3.40    2.29
   4   5   2    9.25    2.92
   4   5   3   31.81    5.43
   4  -5   3   40.37    6.37
   4  -5   4  123.58   10.74
   4   5   4  133.82   11.67
   4   5   5   33.16    6.24
   4  -5   5   26.57    5.21
   4  -5   6   15.32    3.75
   4   5   6   10.10    2.96
   4  -5   7   26.11    4.81
   4   5   7   48.56    7.29
   4  -5   8   27.98    4.98
   4   5   8   28.36    5.59
   4   5   9   43.96    6.94
   4  -5   9   44.89    6.75
   4  -5  10   89.02    9.45
   4   5  10   86.16   10.12
   4  -5  11    6.58    2.67
   4   5  11    4.68    3.12
   4  -5  12  148.00   12.48
   4   5  12  164.60   14.22
   4   5  13  128.82   12.98
   4  -5  13  115.83   10.96
   4  -5  14   21.65    5.49
   4   5  14   16.90    4.72
   4   5  15  188.04   15.87
   4  -5  15  208.83   14.76
   4   5  16  118.36   12.85
   4   5  17   93.39   11.63
  -4   5  17  108.11   12.09
   4   5  18   41.62    7.97
  -4   5  18   24.36    5.70
   4   5  19    5.74    3.60
  -4   5  19    3.39    3.04
   4   5  20   17.48    5.62
  -4   5  20   15.88    5.59
  -4   5  21    3.42    4.46
   4   5  21   -1.87    3.04
  -4   5  22    2.04    2.29
  -4   5  22   13.84    5.38
   4   5  22   17.46    6.33
  -4   5  23    1.02    2.22
   4   5  23    2.01    4.62
   4   5  24   26.70    8.12
   4   5  25    5.69    4.11
   4   5  26   -2.83    3.40
   4  -6 -18    7.94    3.42
   4  -6 -17  118.74   13.41
   4  -6 -16   30.93    7.38
   4  -6 -15  538.27   28.28
   4  -6 -14  139.67   14.69
   4  -6 -13   37.98    7.59
   4  -6 -12   40.76    8.39
   4  -6 -11  483.95   25.60
  -4   6 -11  470.24   22.71
   4  -6 -10  121.53   13.13
  -4   6 -10   91.32   10.28
   4  -6  -9  198.48   16.15
  -4   6  -9  192.24   14.70
   4   6  -8   51.23    7.01
  -4   6  -8   62.41    7.91
   4  -6  -8   55.54    8.31
   4   6  -7   25.30    4.78
  -4   6  -7   16.07    4.84
   4  -6  -7   21.51    5.71
  -4   6  -6  230.50   16.23
   4   6  -6  214.57   13.86
   4  -6  -6  253.57   17.77
  -4   6  -5  348.09   19.85
   4  -6  -5  311.90   19.65
   4   6  -4   10.43    3.37
  -4   6  -4    7.11    4.25
   4  -6  -4   14.01    4.45
   4  -6  -3  129.36   12.39
  -4   6  -3  149.94   12.93
   4   6  -3  138.26   11.69
   4  -6  -2   32.85    6.54
   4   6  -2   19.18    4.61
  -4   6  -2   25.95    5.07
  -4   6  -1  167.24   14.53
   4  -6  -1  152.79   13.49
   4   6  -1  161.99   13.20
  -4   6   0  239.00   16.55
   4  -6   0  246.21   16.85
   4   6   0  244.12   16.32
   4  -6   1  184.42   14.61
  -4   6   1  178.75   14.55
   4   6   1  160.77   13.05
  -4   6   2   21.71    5.62
   4  -6   2   24.45    5.24
   4   6   2   29.68    5.60
  -4   6   3  158.42   13.69
   4  -6   3  133.65   12.42
   4   6   3  153.44   13.13
   4  -6   4    9.21    4.61
  -4   6   4    5.06    1.56
   4   6   4    3.30    2.86
  -4   6   5  278.01   18.43
   4   6   5  284.96   18.60
   4  -6   5  301.95   18.16
   4  -6   6  233.62   16.04
  -4   6   6  222.48   16.47
   4   6   6  229.22   16.63
  -4   6   7   27.74    6.27
   4   6   7   15.94    4.81
   4  -6   7   19.19    5.05
   4   6   8   57.36    8.53
   4  -6   8   54.99    7.90
  -4   6   8   53.61    8.45
  -4   6   9  210.78   16.55
   4   6   9  188.72   15.50
   4  -6   9  214.21   15.82
   4  -6  10  124.92   12.06
  -4   6  10  108.19   12.41
   4   6  10  102.34   11.42
  -4   6  11  495.61   25.91
   4   6  11  454.51   24.55
   4  -6  11  536.67   25.14
   4   6  12   42.01    7.36
  -4   6  12   27.74    6.13
   4  -6  12   42.10    7.56
   4   6  13   47.98    8.38
   4  -6  13   33.38    6.14
  -4   6  14  126.26   13.78
   4   6  14  136.30   13.72
   4  -6  14  146.88   13.26
  -4   6  15  559.04   29.11
   4   6  15  578.05   28.89
   4   6  16   28.34    7.00
  -4   6  16   27.97    7.92
   4   6  17  120.86   13.70
  -4   6  17  117.26   13.55
   4   6  18   12.45    6.04
  -4   6  18   10.69    4.27
   4   6  19   19.72    7.02
  -4   6  19    9.29    4.31
  -4   6  20  180.06   17.83
   4   6  20  205.67   18.53
   4   6  21   73.34   10.78
  -4   6  21   84.63   12.28
  -4   6  22   29.78    8.63
  -4   6  22   30.02    7.61
   4   6  22   27.28    6.88
  -4   6  23   46.66   10.59
  -4   6  23   32.64    6.85
   4   6  23   43.79   10.14
  -4   6  24   23.22    8.05
   4   6  24   42.24    9.06
   4   6  25    8.46    5.39
   4   6  26   19.64    7.11
   4  -7 -18   64.98   11.12
   4  -7 -17   20.97    6.03
   4  -7 -16   18.40    6.82
   4  -7 -15   19.17    6.34
   4  -7 -14   23.89    6.19
   4  -7 -13   73.64   11.02
   4  -7 -12   17.03    5.95
   4  -7 -11   51.64    8.70
  -4   7 -10   89.51   11.03
   4  -7 -10  103.33   12.12
   4  -7  -9    8.03    4.13
  -4   7  -9   12.09    3.62
  -4   7  -8  121.52   12.82
   4  -7  -8  114.42   12.77
   4  -7  -7    4.67    4.21
  -4   7  -7    5.89    1.93
   4   7  -7   14.30    5.86
   4   7  -6   25.44    6.19
  -4   7  -6   18.70    4.92
   4  -7  -6   26.44    6.46
  -4   7  -5   38.05    7.14
   4  -7  -5   20.83    5.99
   4   7  -5   39.02    7.34
   4   7  -4    9.80    3.73
  -4   7  -4    9.76    2.75
   4  -7  -4   11.82    4.48
   4   7  -3   17.30    5.31
   4  -7  -3   16.91    5.37
   4   7  -2    5.98    3.41
   4  -7  -2    3.46    2.11
   4   7  -1   11.57    3.63
  -4   7  -1   20.38    5.42
   4  -7  -1    8.21    3.68
   4   7   0   41.28    7.40
   4  -7   0   54.27    8.95
  -4   7   0   57.23    9.29
   4   7   1   13.80    4.52
  -4   7   1   14.16    4.04
   4  -7   1   14.03    4.99
   4   7   2   13.99    4.85
  -4   7   2   16.60    5.49
   4  -7   2    9.27    3.31
  -4   7   3   20.67    5.87
   4   7   3   16.93    4.31
   4  -7   3   19.48    5.94
   4  -7   4   10.41    4.62
  -4   7   4    9.78    4.26
   4   7   4    6.11    3.52
  -4   7   5   44.09    8.10
   4   7   5   37.08    7.50
   4  -7   5   47.66    7.78
  -4   7   6   18.30    5.50
   4   7   6   30.74    6.40
   4  -7   6   32.80    6.41
   4  -7   7    6.11    3.34
   4   7   7    6.19    3.79
  -4   7   7    1.84    2.79
   4  -7   8  111.64   12.38
  -4   7   8  111.36   12.63
   4   7   8   86.35   10.85
   4   7   9    8.97    3.87
   4  -7   9   12.35    4.02
  -4   7   9   12.48    4.95
   4   7  10   98.11   11.93
  -4   7  10  136.53   14.25
   4  -7  10  107.15   11.92
   4  -7  11   58.68    8.62
   4   7  11   53.41    8.66
  -4   7  11   64.11   10.21
   4  -7  12   16.82    5.47
   4   7  12   28.34    6.58
  -4   7  12   18.75    5.72
  -4   7  13   67.81   10.63
   4   7  13   86.53   11.42
   4   7  14   14.41    5.25
  -4   7  14   11.54    5.00
   4   7  15   21.86    7.00
  -4   7  15   24.95    6.37
  -4   7  16   25.83    6.83
   4   7  16   23.01    6.56
  -4   7  17   19.43    5.16
   4   7  17   26.29    6.79
  -4   7  18   63.47   11.00
   4   7  18   59.03   10.13
   4   7  19   40.82    8.71
  -4   7  19   67.09   10.56
   4   7  20   10.41    5.62
  -4   7  20   26.48    8.34
   4   7  21    0.35    3.20
  -4   7  21    2.81    2.97
   4   7  22   10.92    4.95
  -4   7  22    2.14    3.82
  -4   7  22   10.29    6.22
  -4   7  23    9.10    5.91
   4   7  23    8.22    5.06
  -4   7  23    5.03    5.16
  -4   7  24   -2.92    4.97
   4   7  24   -3.01    4.50
   4  -8 -17   -2.62    3.73
   4  -8 -16   28.71    7.37
   4  -8 -15    6.08    4.63
   4  -8 -14    2.21    2.60
   4  -8 -13   31.23    7.42
   4  -8 -12   11.58    5.09
   4  -8 -11   14.80    5.74
   4  -8 -10  188.33   17.54
  -4   8 -10  213.19   17.84
  -4   8  -9   23.32    6.40
   4  -8  -9   35.90    7.55
   4  -8  -8   15.85    5.42
  -4   8  -8   12.30    5.76
  -4   8  -7   86.06   11.75
   4  -8  -7  104.83   13.02
  -4   8  -6  165.34   15.69
   4  -8  -6  153.94   15.74
  -4   8  -5   55.66    9.18
   4  -8  -5   49.49    8.72
   4   8  -5   42.71    7.82
  -4   8  -4   16.12    5.48
   4  -8  -4   21.12    5.81
   4   8  -4   24.16    7.18
   4  -8  -3    7.62    3.50
   4   8  -3   13.17    4.28
  -4   8  -3   20.85    5.65
  -4   8  -2    9.03    5.60
   4  -8  -2    9.99    4.57
   4   8  -2   14.65    4.96
  -4   8  -1  173.08   16.07
   4  -8  -1  151.20   15.05
   4   8  -1  160.01   15.11
  -4   8   0  198.71   16.93
   4  -8   0  209.42   17.76
   4   8   0  192.00   16.41
  -4   8   1  140.03   14.49
   4  -8   1  106.85   12.49
   4  -8   2    8.71    3.71
  -4   8   2   16.44    5.46
   4   8   2    6.78    3.90
   4   8   3   19.04    5.80
  -4   8   3   25.98    6.70
   4  -8   3   10.01    3.84
  -4   8   4   19.20    5.73
   4   8   4   14.74    4.49
   4  -8   4   23.65    5.86
   4   8   5   49.40    8.27
  -4   8   5   51.56    8.79
   4  -8   5   36.33    7.51
  -4   8   6  197.10   17.46
   4  -8   6  139.04   14.64
   4   8   6  176.55   16.13
  -4   8   7  106.00   12.84
   4  -8   7   78.43   11.23
   4   8   7  115.30   12.95
   4   8   8   14.73    5.42
  -4   8   8   14.20    6.07
   4  -8   8   12.73    5.67
  -4   8   9   39.80    7.92
   4   8   9   19.49    5.24
   4  -8   9   36.82    8.28
   4   8  10  163.47   15.95
  -4   8  10  176.92   17.24
   4  -8  10  178.41   17.17
   4   8  11   14.51    4.93
   4  -8  11    6.02    3.26
  -4   8  11   17.07    5.22
  -4   8  12    7.13    4.34
   4   8  12    3.91    3.65
   4   8  13   16.92    4.37
  -4   8  13   28.39    7.49
  -4   8  14   -0.40    3.14
   4   8  14    5.07    2.98
  -4   8  15   10.99    5.87
   4   8  15    4.56    2.58
  -4   8  16   23.69    5.95
   4   8  16   34.19    7.44
  -4   8  17   -0.88    3.76
   4   8  17    0.15    2.74
   4   8  18   58.46   10.14
  -4   8  18   42.06    8.54
  -4   8  19   47.93    9.34
   4   8  19   47.94    9.55
   4   8  20   43.50    8.79
  -4   8  20   38.04    9.42
   4   8  21   29.12    8.02
  -4   8  21   31.63    8.36
   4  -9 -16    7.14    4.53
   4  -9 -15    8.54    5.28
   4  -9 -14    4.91    2.55
   4  -9 -13   19.81    6.06
   4  -9 -12   36.42    8.12
   4  -9 -11    6.15    3.14
   4  -9 -10    2.40    3.51
  -4   9  -9   17.73    6.23
   4  -9  -9   14.83    6.36
   4  -9  -8   16.32    5.02
  -4   9  -8   26.68    6.87
   4  -9  -7   15.02    5.36
  -4   9  -7   16.98    6.32
   4  -9  -6    3.21    2.29
  -4   9  -6    3.32    3.57
  -4   9  -5    0.31    3.38
   4  -9  -5   -4.76    3.75
   4   9  -4   10.57    4.80
   4  -9  -4    9.11    4.25
   4  -9  -3   20.78    6.78
   4   9  -3   14.58    5.62
  -4   9  -2    4.03    2.81
   4   9  -2    4.41    3.16
   4  -9  -2   -0.15    2.41
  -4   9  -1   25.33    6.42
   4   9  -1   11.38    4.19
   4  -9  -1   23.92    7.17
   4   9   0   71.97   11.39
   4  -9   0   79.71   11.24
  -4   9   0  103.40   12.69
  -4   9   1   23.58    6.55
   4  -9   1   23.12    5.97
   4   9   1    7.02    4.53
  -4   9   2    7.53    6.08
   4   9   2   -2.65    3.24
   4  -9   2   10.37    5.07
   4   9   3    3.47    2.04
   4  -9   3   19.53    6.02
  -4   9   3   27.81    7.79
   4   9   4   17.65    5.84
   4  -9   4   19.36    4.98
  -4   9   4   12.32    3.95
   4  -9   5   -1.03    2.65
   4   9   5    2.01    2.94
  -4   9   5    3.15    4.32
   4  -9   6    1.63    2.71
  -4   9   6    4.50    2.00
   4   9   6    6.99    3.00
   4   9   7   27.51    7.18
  -4   9   7   12.40    4.80
   4  -9   7   25.18    6.98
  -4   9   8   40.58    8.23
   4   9   8   24.26    6.77
   4  -9   8   20.87    6.81
   4   9   9   19.57    6.64
  -4   9   9   24.56    6.63
   4  -9   9   22.88    6.66
  -4   9  10    1.75    3.39
   4   9  10   -0.80    2.29
   4  -9  10   -2.43    2.87
   4   9  11    1.29    2.75
  -4   9  11    2.96    2.64
   4   9  12   45.75    8.55
  -4   9  12   39.84    8.88
   4   9  13   11.63    5.34
  -4   9  13   22.83    7.19
  -4   9  14   10.50    4.64
   4   9  14    1.19    2.09
  -4   9  15    7.73    5.56
   4   9  15    8.24    5.38
  -4   9  16   -1.07    3.40
   4   9  16    4.36    4.03
  -4   9  17    1.84    3.86
   4   9  17    6.80    3.26
   4   9  18    2.93    3.38
  -4   9  18   -0.69    3.56
   4   9  19   -1.47    2.31
  -4   9  19   10.41    4.55
   4 -10 -14    3.25    3.62
   4 -10 -13   15.57    6.03
   4 -10 -12    6.62    5.21
   4 -10 -11   22.96    7.13
   4 -10 -10   37.55    8.77
   4 -10  -9   80.27   12.35
  -4  10  -8   20.90    5.29
   4 -10  -8   22.31    4.84
  -4  10  -7   21.77    7.03
   4 -10  -7   35.07    7.91
  -4  10  -6   28.46    8.37
   4 -10  -6   27.46    6.99
  -4  10  -5   46.50    9.58
   4 -10  -5   57.79   10.56
  -4  10  -4   16.43    5.74
   4 -10  -4   31.83    8.10
   4  10  -3    6.86    3.52
  -4  10  -3   22.39    6.40
   4 -10  -3   13.51    6.44
   4  10  -2    7.07    3.19
  -4  10  -2    0.81    2.82
   4 -10  -2    8.56    5.11
   4 -10  -1   20.62    5.26
  -4  10  -1   26.33    7.07
   4  10  -1    8.05    4.18
  -4  10   0  101.00   13.05
   4 -10   0   71.80   12.36
   4  10   0   61.71   10.64
  -4  10   1   12.22    6.32
   4 -10   1   20.89    7.20
   4  10   1   17.77    5.26
  -4  10   2    9.67    4.50
   4  10   2   10.93    4.52
   4 -10   2    2.02    3.78
   4  10   3   15.78    4.76
  -4  10   3    9.52    4.67
   4 -10   3    1.13    4.42
   4  10   4   30.35    6.97
  -4  10   4   29.66    8.00
   4 -10   4   25.90    6.05
   4 -10   5   44.86   10.60
   4  10   5   44.92    9.16
  -4  10   5   63.70   10.23
   4  10   6   23.49    6.34
  -4  10   6   42.08    8.95
   4 -10   6   37.62    8.27
   4  10   7   25.89    6.97
  -4  10   7   22.90    7.41
   4 -10   7   17.63    4.71
   4  10   8   19.21    6.08
  -4  10   8   19.58    6.62
   4 -10   8   17.37    5.86
  -4  10   9   90.70   13.71
   4  10   9   58.58   10.19
  -4  10  10   44.48    9.14
   4  10  10   44.66    9.36
   4  10  11   28.86    7.52
  -4  10  11   25.69    6.76
   4  10  12   12.93    5.11
  -4  10  12    3.47    3.45
   4  10  13    8.17    4.54
  -4  10  13    9.97    5.73
  -4  10  14    5.44    5.15
   4  10  14    7.96    4.01
  -4  10  15   10.51    5.33
   4  10  15   14.41    6.05
   4 -11  -8   11.91    5.00
   4 -11  -7   39.57    9.33
  -4  11  -6   11.54    6.90
   4 -11  -6    7.57    5.96
  -4  11  -5   13.15    6.88
   4 -11  -5    0.80    2.81
  -4  11  -4    0.02    2.47
   4 -11  -4   -0.27    3.85
  -4  11  -3    2.55    4.00
   4 -11  -3   10.54    5.65
  -4  11  -2    2.51    2.55
   4 -11  -2    0.69    4.63
   4  11  -1   28.92    8.96
   4 -11  -1   18.77    6.70
  -4  11  -1   16.50    5.49
   4  11   0   19.69    6.09
  -4  11   0   12.34    5.52
   4 -11   0   23.84    7.46
  -4  11   1   31.02    8.50
   4 -11   1   16.37    6.24
   4  11   1   23.63    6.40
   4  11   2    1.61    4.40
  -4  11   2    1.98    3.06
   4 -11   2   -0.77    4.46
   4  11   3   -0.86    2.54
  -4  11   3    0.69    2.63
   4  11   4   -1.60    3.21
  -4  11   4    1.72    3.02
   4 -11   4    0.17    3.34
   4  11   5    3.95    5.13
   4 -11   5    5.25    5.10
  -4  11   5   -3.48    3.77
   4  11   6    3.69    3.61
  -4  11   6    4.54    4.07
   4 -11   6    0.07    4.04
   4  11   7   16.95    5.67
  -4  11   7   29.30    7.01
  -4  11   8   12.73    6.53
   4  11   8   10.45    4.77
   5   0 -14    1.83    1.65
   5   0 -13   -0.37    0.89
   5   0 -12   -1.02    0.95
   5   0 -11    0.39    0.84
   5   0 -10   -0.17    0.64
   5   0  -9    1.54    0.95
   5   0  -8   -0.91    1.11
   5   0  -7   -1.03    1.09
   5   0  -6    0.47    0.96
   5   0  -5    0.67    0.70
   5   0  -4    0.02    0.85
   5   0  -3   -0.62    0.60
   5   0  -2   -0.42    1.05
   5   0  -1   -0.40    0.89
   5   0   0    0.06    0.54
   5   0   1    0.33    0.79
   5   0   2    0.37    1.26
   5   0   3    0.77    1.64
   5   0   4    0.00    0.91
   5   0   5    0.83    1.31
   5   0   6   -0.17    0.64
   5   0   7    0.14    1.01
   5   0   8    0.57    0.75
   5   0   9   -0.25    0.88
   5   0  10    0.29    1.49
   5   0  11    0.04    0.82
   5   0  12   -0.42    1.17
   5   0  13    0.01    1.43
   5   0  14   -0.76    1.52
   5   0  15    1.16    1.30
   5   0  16    0.73    2.36
   5   0  17   -0.16    1.20
   5   0  18   -0.30    1.28
   5   0  19   -0.96    2.23
   5   0  20    1.76    2.86
   5   0  21    0.25    2.06
   5   0  22   -2.06    3.34
   5  -1 -16  693.02   23.40
   5  -1 -15  367.81   16.54
   5  -1 -14  257.67   13.71
   5   1 -12  171.60    7.16
   5  -1 -12  182.51   11.25
   5  -1 -11  247.43   13.06
   5   1 -11  245.75    8.83
   5   1 -10  628.82   14.46
   5  -1 -10  639.30   20.60
   5   1  -9   31.53    3.27
   5  -1  -9   32.70    4.64
   5  -1  -8   42.63    5.31
   5   1  -8   37.84    3.74
   5  -1  -7   10.36    2.50
   5   1  -7   19.52    2.80
   5  -1  -6 1458.47   29.35
   5   1  -6 1379.00   23.70
   5  -1  -5  410.12   15.68
   5   1  -5  427.66   13.15
   5  -1  -4 2341.48   37.16
   5   1  -4 2336.56   31.54
   5   1  -3  282.11   11.32
   5   1  -2   33.68    3.90
   5  -1  -2   42.29    5.02
   5  -1  -1   67.89    6.19
   5   1  -1   61.07    5.65
   5   1   0   49.37    5.06
   5  -1   0   62.28    6.04
   5   1   1   60.98    5.91
   5  -1   1   61.57    6.02
   5   1   2   39.83    4.85
   5  -1   2   35.96    4.89
   5   1   3  310.17   13.76
   5  -1   3  310.42   13.80
   5   1   4 2292.94   38.34
   5  -1   4 2304.26   37.65
   5   1   5  476.78   17.80
   5  -1   5  413.89   16.27
   5   1   6 1448.81   31.75
   5  -1   6 1376.24   30.15
   5  -1   7   12.42    3.42
   5   1   7   13.53    3.31
   5   1   8   29.37    4.63
   5  -1   8   34.24    4.89
   5  -1   9   31.57    4.88
   5   1   9   36.42    5.34
   5   1  10  651.97   23.35
   5  -1  10  640.61   21.84
   5  -1  11  259.58   14.37
   5   1  11  293.77   15.94
   5   1  12  162.57   12.03
   5  -1  12  163.45   11.46
   5   1  13  116.37   10.47
   5  -1  13  105.98    9.69
   5   1  14  252.80   16.00
   5  -1  14  244.75   14.68
   5   1  15  397.12   20.32
   5  -1  15  359.27   18.31
   5   1  16  725.87   28.10
   5  -1  16  631.10   24.74
   5   1  17   64.10    8.45
   5  -1  17   73.08    9.00
   5   1  18   52.70    8.41
   5  -1  18   57.45    7.52
   5   1  19   48.93    8.33
   5  -1  19   42.56    7.09
   5  -1  20    0.60    1.85
   5   1  20    0.71    3.37
   5   1  21   62.31    9.06
   5   1  22   35.09    7.24
   5   1  23   15.54    5.68
   5  -2 -18    2.31    3.81
   5  -2 -17   57.83    7.59
   5  -2 -16  114.08   10.55
   5  -2 -15  863.43   29.06
   5  -2 -14  144.62   11.61
   5  -2 -13  432.32   19.65
   5  -2 -12   16.16    3.64
   5  -2 -11  112.05    9.79
  -5   2 -11   86.79    5.11
   5  -2 -10    2.39    1.97
   5   2 -10    2.14    0.71
   5  -2  -9   11.74    2.92
   5   2  -9   13.02    2.01
   5   2  -8  114.35    6.11
   5  -2  -8  119.22    9.67
   5   2  -7  730.96   16.13
   5  -2  -7  704.08   23.26
   5  -2  -6  425.39   17.62
   5   2  -6  471.98   13.64
   5  -2  -5  116.66    9.24
   5   2  -5  127.87    7.49
   5  -2  -4   78.96    7.43
   5   2  -4   71.07    5.76
   5  -2  -3  360.95   15.79
   5   2  -3  375.80   13.65
   5  -2  -2  160.34   10.45
   5   2  -2  184.86    9.78
   5  -2  -1   77.63    7.21
   5   2  -1   77.21    6.63
   5  -2   0  504.37   18.51
   5   2   0  489.84   16.69
   5  -2   1   73.24    6.93
   5   2   1   70.90    6.41
   5  -2   2  163.53   10.63
   5   2   2  164.04   10.31
   5  -2   3  359.36   15.97
   5  -2   4   76.66    7.29
   5   2   4   72.22    7.07
   5  -2   5  106.26    8.63
   5   2   5  116.59    9.04
   5   2   6  407.77   17.62
   5  -2   6  414.97   17.38
   5  -2   7  707.77   23.03
   5   2   7  701.03   23.89
   5  -2   8  103.72    9.07
   5   2   8  120.49    9.96
   5   2   9   12.48    3.03
   5  -2   9   14.74    3.30
   5   2  10    1.37    1.54
   5  -2  10    3.01    1.99
   5  -2  11  101.33    8.96
   5   2  11  115.36   10.36
   5   2  12   18.23    4.04
   5  -2  12   18.96    4.04
   5  -2  13  466.31   20.15
   5   2  13  434.37   20.94
   5   2  14  149.49   12.63
   5  -2  14  140.64   11.09
   5   2  15  811.13   30.04
   5  -2  15  858.67   28.82
   5  -2  16   90.95    9.65
   5   2  16  113.71   11.39
   5   2  17   69.01    8.95
   5  -2  17   51.86    7.30
   5   2  18   49.85    7.68
   5  -2  18   52.96    7.29
   5   2  19  185.86   15.42
   5  -2  19  178.64   14.44
   5   2  20   19.18    5.32
   5   2  21    1.73    1.63
   5   2  22   24.56    6.55
   5   2  23   60.75    9.91
   5   2  24   17.22    6.75
   5  -3 -19  154.57   14.32
   5  -3 -18   39.34    7.08
   5  -3 -17   24.30    5.60
   5  -3 -16  192.99   15.31
   5  -3 -15  639.39   27.12
   5  -3 -14  122.09   11.57
   5  -3 -13   18.51    4.96
   5  -3 -12   83.49    9.61
  -5   3 -11  136.63    8.22
   5  -3 -11  130.42   11.33
  -5   3 -10  277.19   11.89
   5   3 -10  260.01    8.56
   5  -3 -10  281.93   16.36
   5   3  -9   81.43    5.24
   5  -3  -9   64.61    7.90
   5  -3  -8   19.66    4.32
   5   3  -8   18.81    3.04
   5   3  -7  156.20    8.34
   5  -3  -7  167.36   12.47
   5   3  -6  721.78   18.54
   5  -3  -6  730.36   25.41
   5   3  -5  632.22   18.09
   5  -3  -5  616.89   22.94
   5   3  -4  300.55   12.97
   5  -3  -4  290.67   15.40
   5  -3  -3  216.55   13.32
   5   3  -3  190.33   10.63
   5  -3  -2  507.64   20.12
   5   3  -2  480.72   17.20
   5  -3  -1 1682.42   36.38
   5   3  -1 1580.11   32.98
   5  -3   0 1328.37   32.90
   5   3   0 1225.71   29.24
   5  -3   1 1702.37   36.64
   5   3   1 1548.29   33.99
   5  -3   2  463.02   19.16
   5   3   2  476.98   18.87
   5  -3   3  205.75   12.85
   5   3   3  189.90   12.19
   5   3   4  332.19   16.08
   5  -3   4  291.93   15.21
   5   3   5  609.54   22.43
   5  -3   5  599.51   22.01
   5  -3   6  658.28   22.87
   5   3   6  742.81   25.05
   5  -3   7  178.19   11.91
   5   3   7  158.94   12.07
   5   3   8   29.48    5.29
   5  -3   8   33.71    5.03
   5  -3   9   46.85    6.45
   5   3   9   62.92    7.93
   5  -3  10  281.29   15.59
   5   3  10  313.36   17.51
   5  -3  11  152.37   11.72
   5   3  11  157.46   12.72
   5   3  12   70.49    8.76
   5  -3  12   67.86    7.98
   5  -3  13   24.78    4.98
   5   3  13   34.31    6.28
   5   3  14  112.70   11.48
   5  -3  14  130.20   11.08
   5  -3  15  677.25   25.62
   5   3  15  663.26   28.30
   5  -3  16  197.23   14.09
   5   3  16  206.68   16.00
   5  -3  17   36.04    6.41
   5   3  17   28.21    6.42
   5   3  18   35.44    7.24
   5  -3  18   25.45    5.81
   5   3  19  169.50   15.49
   5   3  20   91.50   11.34
   5   3  21  216.84   17.92
   5   3  22  174.80   16.64
   5   3  23    6.40    2.48
   5   3  24   14.27    6.38
   5   3  25  162.83   16.65
   5  -4 -20   81.40   10.71
   5  -4 -19   11.48    4.56
   5  -4 -18   16.47    5.49
   5  -4 -17  302.02   20.29
   5  -4 -16  126.48   12.95
   5  -4 -15   52.35    8.08
   5  -4 -14   22.70    5.75
   5  -4 -13  132.90   12.71
   5  -4 -12  195.28   15.16
   5  -4 -11   46.73    7.28
  -5   4 -11   44.05    5.48
   5  -4 -10   26.39    5.90
  -5   4 -10   18.10    3.98
   5   4  -9  163.68    8.89
  -5   4  -9  148.46   10.40
   5  -4  -9  142.39   12.44
   5  -4  -8   34.01    5.90
  -5   4  -8   35.19    5.43
   5   4  -8   30.29    4.11
  -5   4  -7   93.83    8.25
   5   4  -7   89.20    7.28
   5  -4  -7  108.26   10.52
   5   4  -6  255.98   12.90
   5  -4  -6  278.81   16.85
   5  -4  -5   89.24    9.73
   5   4  -5   70.89    6.71
   5  -4  -4  137.22   11.66
   5   4  -4  147.27   10.05
   5  -4  -3   10.97    3.65
   5   4  -3    5.77    2.17
   5   4  -2   33.78    4.98
   5  -4  -2   31.86    5.47
   5  -4  -1    5.59    2.99
   5   4  -1    4.80    2.10
   5  -4   0  128.34   10.78
   5   4   0  110.62    9.38
   5   4   1    6.85    2.65
   5  -4   1    1.85    0.91
   5  -4   2   41.31    6.16
   5   4   2   28.84    5.09
   5  -4   3    3.90    2.90
   5   4   3    9.86    3.16
   5  -4   4  117.20   10.28
   5   4   4  123.90   10.60
   5  -4   5   66.55    7.92
   5   4   5   89.40    9.49
   5  -4   6  285.49   16.17
   5   4   6  276.09   16.51
   5  -4   7   84.78    9.05
   5   4   7   93.67    9.44
   5  -4   8   34.54    5.81
   5   4   8   27.10    5.31
   5   4   9  154.54   12.90
   5  -4   9  154.84   12.20
   5   4  10   18.42    4.51
   5  -4  10   25.40    4.80
   5   4  11   48.52    7.75
   5  -4  11   61.90    7.77
   5  -4  12  211.46   14.43
   5   4  13  117.37   11.48
   5  -4  13  165.20   12.96
   5   4  14   28.08    5.86
   5  -4  14   32.07    5.73
   5  -4  15   56.83    7.99
   5   4  15   57.30    8.64
   5  -4  16  117.67   11.39
   5   4  16  132.07   13.08
   5   4  17  322.14   20.75
   5  -4  17  325.97   18.91
   5   4  18   27.21    5.89
   5   4  19    7.01    4.21
   5   4  20   77.13   10.77
   5   4  21   30.56    6.83
   5   4  22    8.25    3.87
   5   4  23   40.64    8.84
   5   4  24   75.15   11.83
   5   4  25   21.53    7.96
   5   4  26   -1.78    5.30
   5  -5 -20  134.31   14.94
   5  -5 -19    7.32    4.08
   5  -5 -18   10.62    4.36
   5  -5 -17   77.26   10.56
   5  -5 -16   -1.56    1.89
   5  -5 -15  170.20   15.82
   5  -5 -14   65.95    9.36
   5  -5 -13    5.20    4.08
   5  -5 -12   19.94    5.76
  -5   5 -11  207.13   13.70
   5  -5 -11  185.70   16.00
   5  -5 -10   66.51    9.66
  -5   5 -10   59.70    7.65
  -5   5  -9  138.16   11.39
   5  -5  -9  122.00   12.43
  -5   5  -8   33.01    5.49
   5  -5  -8   30.17    6.33
   5   5  -8   31.32    4.43
   5   5  -7   26.04    4.72
  -5   5  -7   30.13    5.57
   5  -5  -7   32.38    6.32
   5   5  -6  427.15   18.29
  -5   5  -6  416.70   20.26
   5  -5  -6  398.53   21.50
  -5   5  -5  201.93   13.98
   5  -5  -5  186.75   14.50
   5  -5  -4   16.85    4.40
  -5   5  -4   23.56    4.74
   5   5  -4   12.25    3.15
   5   5  -3   55.42    6.97
  -5   5  -3   55.45    7.33
   5  -5  -3   34.77    6.78
   5   5  -2   47.55    6.52
   5  -5  -2   30.46    5.66
   5   5  -1   55.54    7.12
   5  -5  -1   96.56   10.07
   5   5   0  227.26   14.47
   5  -5   0  241.40   16.29
   5   5   1   77.23    8.32
   5  -5   1   68.70    8.57
   5   5   2   35.45    6.22
   5  -5   2   41.66    6.73
   5   5   3   49.10    6.98
   5  -5   3   52.76    7.28
   5  -5   4   15.19    3.94
   5   5   4   14.47    3.81
   5   5   5  214.96   15.13
   5  -5   5  206.77   14.69
   5  -5   6  440.42   21.72
   5   5   6  449.45   21.77
   5  -5   7   37.87    6.53
   5   5   7   33.97    6.40
   5   5   8   32.61    6.23
   5  -5   8   22.34    4.82
   5  -5   9  137.20   11.93
   5   5   9  129.24   12.71
   5  -5  10   59.36    8.02
   5   5  10   68.95    9.25
   5  -5  11  228.76   15.69
   5   5  11  234.69   17.26
   5  -5  12   21.44    5.51
   5   5  12   33.73    6.41
   5  -5  13    3.91    2.49
   5   5  13    1.98    3.68
   5  -5  14   63.68    8.74
   5   5  14   70.64    9.68
   5   5  15  172.53   15.65
   5  -5  15  192.85   15.17
   5   5  16    4.66    2.12
   5   5  17   70.22   10.43
   5   5  18   21.24    5.57
   5   5  19    8.42    2.90
  -5   5  20  142.25   15.39
   5   5  21   53.82    9.74
  -5   5  21   50.89    9.42
   5   5  22   13.59    5.54
  -5   5  22    9.56    3.58
   5   5  23   14.94    4.72
  -5   5  23   13.92    6.58
   5   5  24   67.49   10.48
   5   5  25    8.15    4.88
   5   5  26   13.20    5.51
   5   5  27   11.25    4.71
   5  -6 -20    3.02    3.29
   5  -6 -19    3.29    3.41
   5  -6 -18    4.85    2.44
   5  -6 -17   24.83    6.78
   5  -6 -16   45.80    8.29
   5  -6 -15   70.83   10.16
   5  -6 -14   12.27    4.02
   5  -6 -13   11.76    4.42
   5  -6 -12   84.72   10.99
   5  -6 -11   23.00    5.85
  -5   6 -10   10.29    3.90
   5  -6 -10    6.34    4.19
  -5   6  -9   44.20    7.10
   5  -6  -9   40.62    7.86
  -5   6  -8   42.86    7.46
   5  -6  -8   39.83    7.52
   5   6  -7  118.87   10.52
  -5   6  -7  120.52   11.72
   5  -6  -7  126.50   12.67
   5   6  -6    6.92    3.22
  -5   6  -6    8.73    3.71
   5  -6  -6   11.34    3.78
  -5   6  -5   12.79    3.30
   5   6  -5   17.57    3.96
   5  -6  -5   17.38    4.93
   5   6  -4  149.66   12.11
   5  -6  -4  134.51   13.25
  -5   6  -4  170.65   14.03
   5  -6  -3   41.27    7.87
  -5   6  -3   41.58    7.10
   5   6  -3   32.16    5.83
  -5   6  -2   90.08   10.37
   5   6  -2   94.77   10.12
  -5   6  -1   89.32   10.31
   5   6  -1   98.21   10.32
   5  -6  -1  101.41   11.17
  -5   6   0   78.50    9.91
   5   6   0   84.62    9.49
   5  -6   0   83.11    9.91
  -5   6   1   95.79   10.77
   5   6   1   82.31    9.55
   5  -6   1   95.37   10.85
  -5   6   2   70.73    9.36
   5   6   2   70.22    8.78
   5  -6   2   70.64    9.20
  -5   6   3   33.57    6.33
   5   6   3   38.23    6.81
   5  -6   3   36.88    6.51
  -5   6   4  142.07   12.77
   5   6   4  157.63   13.36
   5   6   5   10.65    3.67
   5  -6   5   13.03    3.35
   5  -6   6    4.92    2.78
   5   6   6    3.83    3.36
   5   6   7  119.49   12.05
   5  -6   7  138.33   13.01
   5   6   8   39.98    7.39
   5  -6   8   41.96    6.80
   5  -6   9   38.40    6.75
   5   6   9   43.17    7.73
   5  -6  10   12.32    4.01
   5   6  10    9.05    4.13
   5  -6  11   17.38    4.91
   5   6  11   18.34    5.26
   5   6  12   75.21   10.25
   5  -6  12  131.60   13.26
  -5   6  13   18.93    5.60
   5   6  13   28.68    6.55
   5  -6  13   15.51    5.72
   5  -6  14   12.72    4.44
   5   6  14   13.41    4.51
  -5   6  14   18.62    5.36
   5   6  15   38.40    7.76
  -5   6  15   39.84    7.76
   5   6  16   49.09    8.98
  -5   6  16   48.40    8.82
  -5   6  17   20.52    6.42
   5   6  17    5.01    3.62
   5   6  18   -0.24    2.86
  -5   6  18    9.28    4.76
   5   6  19    0.01    1.77
  -5   6  19   -0.62    2.86
  -5   6  20    1.82    5.11
   5   6  20    0.27    2.75
  -5   6  21   13.00    6.59
   5   6  21    0.91    2.54
  -5   6  22    4.81    4.05
   5   6  22   13.71    5.84
  -5   6  23    5.81    4.20
   5   6  23    1.67    3.18
   5   6  24    4.08    2.35
   5   6  25    5.09    5.32
   5  -7 -19   53.80   10.47
   5  -7 -18   44.60    9.59
   5  -7 -17   54.79    9.88
   5  -7 -16   58.32    9.92
   5  -7 -15    7.74    4.99
   5  -7 -14   24.64    6.79
   5  -7 -13   37.96    8.02
   5  -7 -12   34.14    7.04
   5  -7 -11  136.51   14.54
   5  -7 -10  186.43   16.75
  -5   7 -10  179.20   15.61
  -5   7  -9  106.65   12.12
   5  -7  -9  107.35   13.52
  -5   7  -8  109.60   12.03
   5  -7  -8  121.42   13.48
  -5   7  -7  118.86   12.61
   5  -7  -7  161.79   15.24
   5  -7  -6   76.05   10.61
   5   7  -6   75.08    9.29
  -5   7  -6   61.06    8.36
  -5   7  -5  148.57   14.24
   5  -7  -5  126.85   13.18
   5   7  -4   35.66    6.67
  -5   7  -4   36.02    6.99
   5  -7  -4   40.35    7.72
   5   7  -3    8.04    3.83
  -5   7  -3    9.23    3.60
   5  -7  -3    7.73    3.82
  -5   7  -2   37.39    7.16
   5   7  -2   46.60    7.38
   5  -7  -2   41.13    7.57
   5   7  -1   98.02   10.90
   5  -7  -1   94.12   11.63
  -5   7  -1  131.07   13.20
   5   7   0   16.07    4.60
  -5   7   0   24.02    5.75
   5  -7   0   20.35    5.76
   5  -7   1  117.68   12.39
   5   7   1  104.79   11.36
  -5   7   1  105.09   11.76
   5  -7   2   34.81    6.95
  -5   7   2   38.94    7.73
   5   7   2   51.92    8.02
   5  -7   3    0.66    2.04
   5   7   3    4.72    1.65
   5  -7   4   45.21    7.65
  -5   7   4   45.40    8.26
   5   7   4   40.41    7.10
  -5   7   5  137.49   13.97
   5   7   5  118.42   12.81
   5  -7   5  125.35   12.54
  -5   7   6   49.15    8.81
   5  -7   6   64.51    9.26
   5   7   6   63.60    9.06
  -5   7   7  159.10   15.24
   5   7   7  131.74   13.44
   5  -7   7  135.91   13.40
  -5   7   8  135.21   14.11
   5   7   8  131.63   13.36
   5  -7   8  107.82   12.23
   5   7   9  114.47   12.80
  -5   7   9  123.85   13.40
   5  -7   9  130.05   13.07
   5  -7  10  194.90   16.51
   5   7  10  187.34   16.58
  -5   7  10  192.50   16.69
   5   7  11  105.65   12.66
   5  -7  11  133.86   13.55
  -5   7  11  123.18   13.80
   5  -7  12   39.35    7.69
  -5   7  12   36.35    7.95
   5   7  12   39.94    8.08
   5  -7  13   25.21    5.69
   5   7  13   41.05    8.38
  -5   7  13   41.53    9.25
   5   7  14   38.18    8.04
  -5   7  14   30.82    7.81
  -5   7  15   13.96    4.48
   5   7  15    7.88    3.77
  -5   7  16   88.89   12.43
   5   7  17   63.27   11.17
  -5   7  17   66.43   10.31
   5   7  18   49.60    9.67
  -5   7  18   73.11   11.36
   5   7  19   34.41    8.55
  -5   7  19   75.73   12.49
   5   7  20   21.64    6.06
  -5   7  20   23.40    7.34
  -5   7  21   58.35   10.85
   5   7  21   72.80   11.50
  -5   7  22   27.83    8.86
   5   7  22   21.41    6.38
  -5   7  23   -1.22    2.90
  -5   7  23   -1.15    4.25
   5   7  23    2.98    2.45
   5  -8 -19   -4.68    4.32
   5  -8 -18    3.70    2.30
   5  -8 -17   16.19    6.93
   5  -8 -16   11.83    5.45
   5  -8 -15   42.38    8.75
   5  -8 -14    0.70    2.81
   5  -8 -13    6.30    4.20
   5  -8 -12   22.89    6.39
   5  -8 -11   11.44    6.13
   5  -8 -10   10.74    4.19
  -5   8  -9    1.13    3.84
   5  -8  -9   -1.40    2.29
   5  -8  -8   27.73    6.94
  -5   8  -8   22.71    5.95
   5  -8  -7   39.21    7.92
  -5   8  -7   35.40    7.88
  -5   8  -6   47.65    8.15
   5  -8  -6   58.47   10.20
  -5   8  -5    4.61    3.97
   5  -8  -5    1.46    4.25
   5   8  -5    1.45    2.70
  -5   8  -4   17.83    4.92
   5  -8  -4   24.66    6.80
   5   8  -4   22.04    5.88
  -5   8  -3    8.16    3.50
   5   8  -3    9.91    4.44
   5  -8  -3   11.50    5.83
   5   8  -2   26.18    6.78
  -5   8  -2   17.13    5.70
   5  -8  -2   29.97    7.07
   5   8  -1    4.48    3.99
  -5   8  -1    2.55    3.03
   5  -8  -1    7.78    4.84
  -5   8   0  135.07   14.31
   5  -8   0  105.61   12.68
   5   8   0   98.38   11.68
   5   8   1   -1.79    2.87
  -5   8   1    1.94    1.80
   5  -8   1    0.92    3.09
   5   8   2   13.29    4.83
  -5   8   2   26.70    7.10
   5  -8   2   21.37    6.73
   5   8   3    6.91    3.24
  -5   8   3   13.97    5.34
   5  -8   3   18.01    5.76
   5   8   4   28.51    6.47
  -5   8   4   24.10    5.81
   5  -8   4   25.15    5.79
   5   8   5    2.09    2.88
  -5   8   5   -1.29    2.32
   5  -8   5   -0.57    2.23
   5   8   6   52.12    8.97
  -5   8   6   47.23    8.28
   5  -8   6   49.57    9.07
   5   8   7   24.18    6.25
  -5   8   7   23.10    5.46
   5  -8   7   33.07    7.19
   5   8   8   20.22    5.69
  -5   8   8   35.97    7.71
   5  -8   8   18.67    5.33
  -5   8   9    4.76    4.41
   5   8   9    5.20    3.65
   5  -8   9    1.53    2.00
  -5   8  10   14.92    5.20
   5   8  10   15.20    5.83
   5  -8  10   11.23    3.63
   5   8  11    1.61    2.79
  -5   8  11    1.41    3.01
   5  -8  11    4.98    4.00
   5   8  12   14.74    4.64
  -5   8  12   32.37    7.09
  -5   8  13    4.33    3.55
   5   8  13    0.68    1.81
   5   8  14    6.03    4.84
  -5   8  14   10.01    4.64
   5   8  15   48.31    9.72
  -5   8  15   34.71    8.30
   5   8  16    5.98    3.53
  -5   8  16    6.80    4.90
   5   8  17    6.99    4.23
  -5   8  17   11.23    5.05
   5   8  18    2.59    2.02
  -5   8  18    6.29    5.50
   5   8  19    2.30    2.21
  -5   8  19    1.46    4.81
   5   8  20   -1.51    3.02
  -5   8  20   -6.09    3.79
   5   8  21    0.67    4.05
  -5   8  21    1.46    3.27
   5  -9 -17   32.82    8.85
   5  -9 -16   64.17   11.24
   5  -9 -15   18.44    5.92
   5  -9 -14   10.35    4.89
   5  -9 -13   17.68    5.52
   5  -9 -12   55.57   10.23
   5  -9 -11   77.61   11.35
   5  -9 -10   94.37   12.83
  -5   9  -9    5.79    5.61
   5  -9  -9   49.06    9.94
  -5   9  -8   33.26    8.03
   5  -9  -8   34.43    7.61
  -5   9  -7  102.68   13.69
   5  -9  -7   85.31   12.14
  -5   9  -6   29.33    7.67
   5  -9  -6   21.38    7.02
  -5   9  -5  117.79   14.10
   5  -9  -5  128.49   14.28
  -5   9  -4   51.89    9.75
   5  -9  -4   61.56   10.38
   5   9  -3    0.94    2.44
  -5   9  -3    4.67    2.01
   5  -9  -3    4.16    4.12
   5   9  -2   21.38    6.06
  -5   9  -2   26.53    7.17
   5  -9  -2   29.94    7.52
   5   9  -1  145.00   14.81
  -5   9  -1  176.71   17.16
   5  -9  -1  181.28   17.37
   5   9   0   46.84    8.64
  -5   9   0   49.72    9.43
   5  -9   0   51.99    9.58
  -5   9   1  135.92   14.60
   5   9   1  145.58   15.22
   5  -9   1  177.50   17.42
   5   9   2   22.38    6.19
  -5   9   2   24.17    7.12
   5  -9   2   21.26    6.58
   5   9   3    2.61    3.08
   5  -9   3    0.03    3.20
  -5   9   3    4.71    4.40
  -5   9   4   54.38   10.21
   5   9   4   49.23    8.84
   5  -9   4   64.62   10.98
  -5   9   5  110.88   14.56
   5   9   5  119.31   13.89
   5  -9   5  139.51   15.03
   5   9   6   27.57    7.36
  -5   9   6   28.55    7.19
   5  -9   6   30.09    7.48
  -5   9   7  120.40   14.12
   5   9   7  100.33   12.70
   5  -9   7   94.38   13.16
  -5   9   8   34.87    7.68
   5  -9   8   35.59    8.21
   5   9   8   37.60    8.12
  -5   9   9   54.65   10.61
   5  -9   9   52.55    9.32
   5   9   9   40.43    8.29
  -5   9  10   54.10   10.28
   5   9  10   52.49    9.39
   5  -9  10   72.95   11.35
   5   9  11   56.14    9.68
  -5   9  11   75.71   11.58
  -5   9  12   50.90   11.11
   5   9  12   39.50    8.42
  -5   9  13   13.25    4.91
   5   9  13    7.98    4.37
  -5   9  14   14.67    5.42
   5   9  14    2.55    2.24
   5   9  15   23.71    6.25
  -5   9  15   19.55    6.60
   5   9  16   66.24   10.70
  -5   9  16   54.32   10.49
  -5   9  17   26.32    7.84
   5   9  17   31.39    8.25
   5   9  18   30.24    8.31
  -5   9  18   10.10    5.35
   5 -10 -14    0.81    3.18
   5 -10 -13    2.66    4.10
   5 -10 -12   17.01    6.65
   5 -10 -11    4.37    3.37
   5 -10 -10   17.89    5.62
   5 -10  -9   -4.26    5.23
   5 -10  -8   -0.32    2.24
   5 -10  -7   12.26    5.05
  -5  10  -7    7.49    5.21
  -5  10  -6    1.02    3.20
   5 -10  -6   -0.24    3.55
  -5  10  -5   14.58    6.60
   5 -10  -5   18.68    6.87
  -5  10  -4   -3.22    3.69
   5 -10  -4    1.89    3.80
  -5  10  -3    3.63    4.52
   5 -10  -3    8.64    4.82
  -5  10  -2   11.57    5.39
   5 -10  -2   17.21    6.51
   5  10  -2   12.23    3.29
  -5  10  -1   13.58    4.75
   5 -10  -1   17.51    5.33
   5  10  -1   22.37    6.33
   5  10   0    3.36    3.09
  -5  10   0    0.62    3.42
   5 -10   0    0.60    2.54
   5  10   1   33.02    7.58
   5 -10   1   20.19    6.24
  -5  10   1   21.06    5.39
   5 -10   2   19.40    5.66
  -5  10   2   28.13    6.77
   5  10   3    2.78    2.93
  -5  10   3    4.83    3.74
   5 -10   3    2.53    4.23
   5  10   4    1.02    2.30
  -5  10   4    3.24    3.29
   5 -10   4    1.30    2.50
   5  10   5   12.54    4.58
  -5  10   5   11.58    6.96
   5 -10   5   12.33    4.67
  -5  10   6   -4.80    4.49
   5 -10   6    1.03    4.01
   5  10   6    3.92    4.38
   5 -10   7    1.75    3.84
   5  10   7    6.74    3.07
  -5  10   7    6.15    4.42
  -5  10   8    6.09    3.62
   5 -10   8    7.20    4.67
   5  10   8    0.91    2.33
  -5  10   9   -3.64    5.55
   5  10   9    5.89    4.30
  -5  10  10    9.93    3.43
   5  10  10   21.51    6.41
  -5  10  11   -0.51    3.57
   5  10  11   -1.31    2.98
  -5  10  12    2.79    3.59
   5  10  12    3.55    3.57
   5  10  13   -1.12    2.68
  -5  10  13    1.75    2.99
  -5  10  14    9.72    5.03
   5  10  14    1.14    3.52
   5 -11  -7    1.92    2.59
  -5  11  -7    5.64    6.96
  -5  11  -6   11.11    5.48
   5 -11  -6    5.99    5.59
  -5  11  -5   23.45    7.57
   5 -11  -5   21.66    5.58
  -5  11  -4    4.51    3.25
   5 -11  -4   -1.54    3.88
  -5  11  -3   -3.16    3.92
   5 -11  -3   -0.15    4.05
  -5  11  -2    3.84    5.28
   5 -11  -2    8.94    4.78
  -5  11  -1    3.12    4.01
   5 -11  -1    4.66    3.97
   5 -11   0   29.29    7.95
  -5  11   0   21.66    6.92
   5  11   0   19.44    6.36
  -5  11   1    1.90    2.97
   5 -11   1   -3.39    4.35
   5  11   1   -1.01    3.30
  -5  11   2    6.69    5.10
   5 -11   2    7.27    4.82
   5  11   2    2.41    3.51
   5  11   3    2.04    3.57
  -5  11   3    6.13    5.56
   5 -11   3    1.24    2.75
   5 -11   4   -0.67    3.59
  -5  11   4    5.81    2.85
   5  11   4    9.60    5.03
  -5  11   5   31.78    8.28
   5 -11   5   45.15    9.83
   5  11   5   16.00    6.09
  -5  11   6   11.18    3.10
   5  11   6    4.16    3.25
   5 -11   6    5.20    3.37
   5 -11   7    4.65    5.00
  -5  11   7    5.90    4.93
   5  11   7    3.97    3.29
   6   0 -14  985.01   24.89
   6   0 -13  263.10   12.48
   6   0 -12  176.67   10.20
   6   0 -11  173.38   10.24
   6   0 -10  856.08   22.10
   6   0  -9  560.95   18.10
   6   0  -8  211.33   10.99
   6   0  -7  162.11    9.67
   6   0  -6  792.46   21.51
   6   0  -5 2228.52   35.96
   6   0  -4 1310.96   27.88
   6   0  -3 1223.08   26.99
   6   0  -2 5682.85   58.39
   6   0  -1 2198.79   36.61
   6   0   0  716.76   21.36
   6   0   1 2115.32   37.06
   6   0   2 6013.11   61.97
   6   0   3 1163.22   27.96
   6   0   4 1306.55   30.08
   6   0   5 2245.95   40.45
   6   0   6  800.36   24.34
   6   0   7  149.88   11.01
   6   0   8  193.50   12.53
   6   0   9  606.09   22.71
   6   0  10  761.90   25.83
   6   0  11  169.50   12.49
   6   0  12  183.42   13.28
   6   0  13  253.70   15.69
   6   0  14 1124.78   34.32
   6   0  15  517.45   23.53
   6   0  16 1963.62   47.65
   6   0  17  209.12   15.42
   6   0  18   22.89    6.10
   6   0  19   51.00    8.42
   6   0  20    3.83    2.76
   6   0  21   55.40    8.46
   6   0  22  181.02   16.10
   6  -1 -16    3.04    2.83
   6  -1 -15  147.82   10.73
   6  -1 -14  398.63   17.93
   6  -1 -13   31.56    4.94
   6  -1 -12  103.33    9.39
   6   1 -12   98.44    6.43
   6   1 -11  102.20    6.63
   6  -1 -11  104.53    8.84
   6  -1 -10    6.07    1.98
   6   1 -10    6.21    1.59
   6   1  -9   63.78    5.55
   6  -1  -9   66.07    6.76
   6  -1  -8   48.33    5.89
   6   1  -8   48.03    4.75
   6  -1  -7  398.14   16.79
   6   1  -7  401.05   14.06
   6  -1  -6  618.87   20.71
   6   1  -6  622.22   17.84
   6  -1  -5  775.47   22.99
   6   1  -5  780.71   20.09
   6  -1  -4  177.61   10.97
   6   1  -4  171.53    9.58
   6  -1  -3  119.57    8.95
   6   1  -3  109.52    7.72
   6  -1  -2    4.77    1.38
   6   1  -2    3.29    1.21
   6   1  -1   20.16    3.38
   6  -1  -1   20.92    3.83
   6   1   0    2.24    1.01
   6  -1   0    3.43    1.35
   6   1   1   22.16    3.95
   6  -1   1   15.55    3.45
   6   1   2    3.35    2.05
   6  -1   2    2.59    1.67
   6   1   3  119.20    9.22
   6  -1   3  111.15    8.94
   6   1   4  167.84   10.99
   6  -1   4  182.22   11.54
   6   1   5  782.61   24.81
   6  -1   5  806.84   24.14
   6   1   6  617.67   22.38
   6  -1   6  575.47   20.88
   6   1   7  444.13   19.00
   6  -1   7  394.06   17.53
   6   1   8   46.44    6.37
   6  -1   8   55.83    6.80
   6   1   9   63.81    7.39
   6  -1   9   65.28    7.52
   6  -1  10    6.57    2.35
   6   1  10    9.41    3.14
   6   1  11  114.90   10.37
   6  -1  11  126.77   10.51
   6   1  12  101.87    9.94
   6  -1  12   94.44    9.20
   6   1  13   43.80    6.79
   6  -1  13   45.89    6.82
   6   1  14  373.31   20.08
   6  -1  14  373.86   19.23
   6   1  15  156.34   13.52
   6  -1  15  157.18   12.78
   6   1  16   38.87    7.51
   6  -1  16   34.17    6.30
   6   1  17   25.65    5.94
   6  -1  17   28.06    5.82
   6  -1  18   19.95    5.16
   6   1  18   12.02    4.11
   6   1  19   53.27    8.77
   6  -1  19   50.77    8.07
   6   1  20  136.04   14.07
   6  -1  20  143.57   14.24
   6   1  21   34.93    7.44
   6  -1  21   51.26    7.89
   6   1  22   18.75    5.61
   6   1  23   42.81    8.14
   6  -2 -17    1.19    2.26
   6  -2 -16  257.78   16.57
   6  -2 -15  192.85   14.08
   6  -2 -14  647.86   25.41
   6  -2 -13   58.76    7.51
   6  -2 -12  102.21    9.58
   6   2 -11   62.59    4.70
   6  -2 -11   98.80    9.15
   6   2 -10   70.52    5.33
   6  -2 -10   66.26    7.67
   6  -2  -9    6.89    2.74
   6   2  -9    6.64    1.81
   6  -2  -8   18.69    4.12
   6   2  -8   20.15    3.04
   6  -2  -7   16.74    3.87
   6   2  -7   16.78    2.83
   6  -2  -6  243.77   14.11
   6   2  -6  289.55   12.07
   6  -2  -5   93.56    8.70
   6   2  -5  103.36    7.47
   6  -2  -4    8.11    2.49
   6   2  -4    6.31    1.68
   6  -2  -3   49.45    6.52
   6   2  -3   64.45    6.13
   6  -2  -2  496.49   19.81
   6   2  -2  465.01   17.89
   6   2  -1   89.80    7.64
   6  -2  -1   82.09    8.11
   6  -2   0    1.40    1.08
   6   2   0    0.65    1.21
   6  -2   1  100.89    8.68
   6   2   1   69.03    7.01
   6  -2   2  458.71   18.98
   6   2   2  466.36   18.08
   6   2   3   57.03    6.68
   6   2   4    6.37    2.72
   6  -2   4    4.44    2.24
   6  -2   5   80.40    8.22
   6   2   5   86.74    8.53
   6  -2   6  286.06   15.25
   6   2   6  256.58   14.81
   6  -2   7   21.82    4.40
   6   2   7   14.58    3.92
   6  -2   8   21.81    4.55
   6   2   8   27.58    4.98
   6   2   9    5.13    2.99
   6  -2   9    9.61    2.95
   6   2  10   77.82    8.73
   6  -2  10   68.86    7.79
   6  -2  11   81.77    8.80
   6   2  11   97.02    9.94
   6   2  12   92.75   10.17
   6  -2  12  104.30    9.87
   6   2  13   40.23    6.31
   6  -2  13   39.59    6.07
   6   2  14  643.72   27.32
   6  -2  14  614.61   25.10
   6   2  15  199.34   15.21
   6  -2  15  184.36   14.04
   6   2  16  258.72   17.84
   6  -2  16  267.30   17.39
   6   2  17    3.36    1.52
   6  -2  17   -0.10    1.34
   6  -2  18   39.31    6.67
   6   2  18   28.10    5.95
   6  -2  19    4.07    2.28
   6   2  19    4.08    1.92
   6   2  20   42.15    8.34
   6  -2  20   36.48    6.60
   6   2  21    5.90    4.01
   6   2  22   13.90    4.81
   6   2  23    0.75    2.22
   6   2  24   73.06   11.54
   6  -3 -18   79.67   10.56
   6  -3 -17  190.42   15.03
   6  -3 -16   62.63    8.80
   6  -3 -15   47.66    7.52
   6  -3 -14  279.20   18.06
   6  -3 -13   56.13    7.89
   6  -3 -12  100.39   10.50
  -6   3 -11  182.64    9.97
   6  -3 -11  190.43   14.04
   6   3 -10   30.28    3.85
   6  -3 -10   38.45    6.05
   6   3  -9   66.16    5.69
   6  -3  -9   79.51    8.77
   6  -3  -8   82.93    9.18
   6   3  -8   99.63    7.03
   6   3  -7  420.02   15.29
   6  -3  -7  408.98   19.88
   6   3  -6  406.72   15.80
   6  -3  -6  384.42   18.89
   6   3  -5  541.30   18.16
   6  -3  -5  506.89   21.58
   6  -3  -4  347.63   17.64
   6   3  -4  344.84   15.20
   6  -3  -3  810.10   27.12
   6   3  -3  873.49   24.18
   6  -3  -2  132.46   11.02
   6   3  -2  129.58    9.50
   6  -3  -1  110.97    9.73
   6   3  -1   98.60    8.44
   6  -3   0   69.27    8.00
   6  -3   1   94.79    8.89
   6   3   1   98.44    8.65
   6  -3   2  107.27    9.72
   6   3   2   93.91    8.77
   6  -3   3  864.89   27.66
   6   3   3  854.58   26.58
   6  -3   4  364.24   17.82
   6   3   4  363.08   17.83
   6  -3   5  532.10   21.64
   6   3   5  537.67   22.10
   6  -3   6  459.32   20.26
   6   3   6  376.12   18.71
   6  -3   7  389.77   18.96
   6   3   7  426.22   20.14
   6  -3   8   83.17    9.00
   6   3   8   95.78    9.80
   6  -3   9   74.17    8.34
   6   3   9   73.87    8.57
   6  -3  10   23.46    4.71
   6   3  10   24.84    5.05
   6  -3  11  185.06   13.57
   6   3  11  188.87   14.74
   6  -3  12  100.93   10.18
   6   3  12   98.36   10.47
   6  -3  13   65.20    8.20
   6   3  13   87.36    9.85
   6  -3  14  196.40   14.37
   6   3  14  249.11   17.43
   6  -3  15   41.63    6.95
   6   3  15   45.47    7.59
   6   3  16   65.92    9.81
   6  -3  16   71.09    8.86
   6  -3  17  177.00   14.06
   6   3  17  190.79   16.18
   6   3  18   89.87   11.05
   6  -3  18   78.58    9.79
   6   3  19  145.78   14.77
   6   3  20   47.95    9.15
   6   3  21   10.41    4.08
   6   3  22    2.94    3.65
   6   3  23   10.18    4.65
   6   3  24    6.17    3.73
   6   3  25   60.28   10.99
   6  -4 -20   11.55    4.65
   6  -4 -19   -3.53    3.76
   6  -4 -18  227.48   18.47
   6  -4 -17   89.55   11.29
   6  -4 -16   60.77    9.26
   6  -4 -15   54.93    8.64
   6  -4 -14    9.64    3.85
   6  -4 -13  120.27   12.38
   6  -4 -12  471.78   24.10
   6  -4 -11  159.53   13.84
  -6   4 -11  184.03   12.07
   6  -4 -10   54.64    8.28
  -6   4 -10   39.97    6.02
   6   4  -9  146.52    9.28
  -6   4  -9  151.58   10.80
   6  -4  -9  127.18   12.08
   6   4  -8  555.15   18.90
   6  -4  -8  589.35   25.40
   6   4  -7   47.36    5.43
   6  -4  -7   35.12    6.41
   6   4  -6   93.58    7.97
   6  -4  -6   92.94   10.31
   6  -4  -5  603.16   25.12
   6   4  -5  674.54   22.11
   6  -4  -4    4.12    2.92
   6   4  -4    2.32    1.32
   6   4  -3  245.81   14.07
   6  -4  -3  223.37   15.12
   6   4  -2  127.52   10.19
   6  -4  -2  118.44   11.17
   6  -4  -1   92.63    9.63
   6   4  -1  113.08    9.50
   6  -4   0  158.28   12.66
   6   4   0  173.26   12.27
   6  -4   1   84.55    9.25
   6   4   1   99.26    9.53
   6  -4   2  139.21   11.55
   6   4   2  147.34   11.52
   6  -4   3  257.55   16.15
   6   4   4    0.38    1.68
   6  -4   4    1.28    1.00
   6   4   5  604.11   24.05
   6  -4   5  551.67   23.78
   6   4   6   91.31    9.60
   6  -4   6   80.01    8.93
   6  -4   7   38.30    6.14
   6  -4   8  584.16   24.68
   6   4   8  550.34   24.46
   6  -4   9  144.89   12.19
   6   4   9  150.65   13.13
   6  -4  10   39.33    6.47
   6   4  10   52.06    7.97
   6   4  11  167.70   14.06
   6  -4  11  183.56   14.04
   6  -4  12  461.85   22.84
   6   4  12  449.95   23.44
   6  -4  13  104.29   10.85
   6   4  13  103.36   11.82
   6  -4  14    6.52    2.13
   6   4  14   11.82    3.49
   6  -4  15   59.26    8.30
   6   4  15   58.41    8.83
   6  -4  16   46.01    7.71
   6   4  16   59.63    9.56
   6  -4  17   83.66   10.48
   6   4  17   76.42   10.72
   6   4  18  268.24   20.09
   6   4  19    0.55    2.10
   6   4  20   26.06    7.04
   6   4  21   55.48    9.39
   6   4  22   30.56    7.20
   6   4  23   41.46    8.47
   6   4  24   59.94   10.23
   6   4  25    4.06    3.62
   6   4  26    9.41    3.61
   6  -5 -20    1.29    1.94
   6  -5 -19   -0.01    2.91
   6  -5 -18   16.48    6.15
   6  -5 -17   43.43    8.50
   6  -5 -16   16.85    5.36
   6  -5 -15   18.66    5.46
   6  -5 -14   10.14    4.58
   6  -5 -13   77.96   10.60
   6  -5 -12    9.43    4.01
   6  -5 -11    1.48    2.77
   6  -5 -10   24.27    6.34
  -6   5 -10   13.39    3.67
  -6   5  -9   41.06    6.44
   6  -5  -9   25.46    6.16
  -6   5  -8   25.29    5.29
   6   5  -8   28.50    5.08
   6  -5  -8   28.00    5.87
   6  -5  -7   29.32    6.14
  -6   5  -7   29.70    5.44
   6   5  -7   23.88    4.58
   6  -5  -6    8.45    3.25
  -6   5  -6   15.04    4.36
   6   5  -6   12.03    3.43
   6   5  -5   54.61    6.78
   6  -5  -5   46.81    7.60
   6  -5  -4   96.62   10.65
   6   5  -4  110.83    9.91
   6   5  -3   97.96    9.64
   6  -5  -3   89.26   10.20
   6   5  -2   86.56    9.01
   6  -5  -2   86.79   10.03
   6   5  -1   27.33    5.32
   6  -5  -1   38.00    6.73
   6   5   0   19.37    4.55
   6  -5   0   26.83    6.18
   6   5   1   34.93    6.10
   6  -5   1   31.74    6.82
   6  -5   2   88.96   10.01
   6  -5   3   96.66   10.51
   6   5   3   94.03   10.06
   6  -5   4  113.95   11.17
   6   5   4  123.51   11.60
   6  -5   5   39.76    6.36
   6   5   5   42.41    7.10
   6  -5   6    3.99    2.09
   6   5   6    9.51    4.15
   6  -5   7   15.52    4.46
   6   5   7   25.96    5.66
   6  -5   8   31.67    6.36
   6   5   8   24.78    5.98
   6   5   9   41.34    7.28
   6  -5   9   31.00    5.54
   6   5  10   12.05    4.21
   6  -5  10   11.43    2.70
   6   5  11    5.93    3.87
   6  -5  11    0.39    2.01
   6   5  12   12.31    4.16
   6  -5  12    5.73    2.45
   6   5  13   98.65   11.35
   6  -5  14   14.12    5.88
   6   5  14   36.67    6.99
   6  -5  15   16.11    6.16
   6   5  15   20.49    6.17
   6  -5  16   10.63    6.34
   6   5  16   15.22    5.62
   6   5  17   45.99    8.83
   6   5  18   17.04    6.23
   6   5  19    4.03    3.20
   6   5  20    8.72    4.41
   6   5  21    9.72    3.52
   6   5  22   25.76    6.78
   6   5  23    2.33    3.93
  -6   5  23    0.30    2.62
   6   5  24   -0.31    3.10
   6   5  25   34.64    8.37
   6   5  26   15.05    5.44
   6  -6 -21   55.48   10.66
   6  -6 -20    6.81    4.36
   6  -6 -19   15.38    6.03
   6  -6 -18  242.11   20.29
   6  -6 -17   27.88    7.19
   6  -6 -16    1.50    2.38
   6  -6 -15   16.62    5.52
   6  -6 -14    5.96    3.77
   6  -6 -13   11.69    4.69
   6  -6 -12  156.05   15.26
   6  -6 -11   46.03    8.04
  -6   6 -10    5.98    3.59
   6  -6 -10    5.08    3.75
  -6   6  -9   36.73    7.10
   6  -6  -9   50.60    8.62
  -6   6  -8  412.24   22.39
   6  -6  -8  478.95   25.81
  -6   6  -7  116.89   12.00
   6  -6  -7  105.68   12.20
   6   6  -7   91.23    9.71
   6   6  -6    1.42    1.64
  -6   6  -6    1.31    2.02
   6  -6  -6    2.41    3.51
  -6   6  -5   66.35    8.90
   6  -6  -5   55.00    8.64
   6   6  -5   71.28    8.79
   6   6  -4  211.86   14.79
  -6   6  -4  223.97   16.23
   6  -6  -4  203.94   16.08
   6  -6  -3    3.95    3.88
   6   6  -3    4.74    2.98
  -6   6  -3    5.45    4.33
  -6   6  -2  397.45   21.40
   6  -6  -2  422.24   23.31
   6   6  -1  101.60   10.59
  -6   6  -1   85.27   10.05
   6  -6  -1   83.07   10.72
   6  -6   0    7.03    3.62
   6   6   0   10.88    3.83
   6   6   1   78.50    9.57
   6  -6   1   94.99   10.98
   6   6   2  363.56   20.73
   6  -6   2  393.19   22.36
   6   6   3    3.65    3.29
   6  -6   3   11.64    3.99
   6   6   4  214.05   16.08
   6  -6   4  211.12   16.45
   6   6   5   66.16    9.23
   6  -6   5   72.02    9.48
   6  -6   6    3.61    3.18
   6   6   6    0.72    1.92
   6   6   7   97.63   11.31
   6  -6   7   89.96   11.06
   6   6   8  486.98   25.39
   6  -6   8  452.04   24.01
   6   6   9   51.92    8.47
   6  -6   9   36.84    7.16
   6  -6  10    5.61    3.20
   6   6  10    4.01    2.28
   6   6  11   27.85    7.25
   6  -6  11   48.41    8.12
   6   6  12  186.73   16.07
   6  -6  12  136.04   13.52
   6  -6  13   25.87    6.43
   6   6  13   20.52    5.80
   6   6  14    0.94    1.57
   6  -6  14    4.56    3.92
   6   6  15   24.07    6.15
   6  -6  15    9.95    4.87
   6   6  16   -4.36    2.96
   6   6  17   31.56    7.44
  -6   6  18  225.12   18.88
   6   6  18  238.88   19.73
  -6   6  19   19.95    5.53
   6   6  19   15.69    5.72
  -6   6  20   -1.98    4.53
   6   6  20    5.11    2.72
   6   6  21   54.22   10.13
  -6   6  21   58.28    9.86
  -6   6  22  119.31   15.27
   6   6  22  117.38   15.06
   6   6  23    6.45    4.73
  -6   6  23    6.88    5.82
   6   6  24   71.66   12.04
   6   6  25   29.83    7.62
   6  -7 -21   47.04   10.20
   6  -7 -20   36.66    8.19
   6  -7 -19   19.25    6.50
   6  -7 -18   73.80   11.94
   6  -7 -17    3.12    2.20
   6  -7 -16   31.06    8.21
   6  -7 -15   24.32    7.55
   6  -7 -14    4.13    3.49
   6  -7 -13   54.83    9.68
   6  -7 -12   18.76    5.71
   6  -7 -11   27.06    6.36
   6  -7 -10   74.81   10.82
  -6   7  -9   13.34    5.13
   6  -7  -9    6.81    2.59
   6  -7  -8  100.96   12.43
  -6   7  -8  115.27   12.16
  -6   7  -7   26.22    6.41
   6  -7  -7   37.52    7.42
   6   7  -6   15.68    5.44
   6  -7  -6    8.32    3.05
  -6   7  -6   12.51    4.03
   6   7  -5   35.31    6.36
  -6   7  -5   27.71    6.13
   6  -7  -5   27.36    6.61
   6   7  -4  133.74   12.56
  -6   7  -4  141.75   13.93
   6  -7  -4  115.76   13.14
   6   7  -3   53.42    7.87
   6  -7  -3   50.33    8.81
  -6   7  -3   50.38    8.62
   6  -7  -2  152.29   15.13
   6   7  -2  181.42   15.12
  -6   7  -2  177.05   15.56
   6  -7  -1   22.92    6.38
   6   7  -1   19.07    5.27
  -6   7  -1   21.40    5.65
   6  -7   0    2.96    2.02
  -6   7   0    6.11    3.98
   6   7   0   -1.10    2.33
   6  -7   1   27.11    6.08
  -6   7   1   23.26    6.18
   6   7   1   21.86    5.40
   6   7   2  153.40   14.31
  -6   7   2  153.34   14.75
   6  -7   2  159.98   14.65
  -6   7   3   44.56    8.50
   6   7   3   33.91    6.45
   6  -7   3   56.87    9.09
   6   7   4  114.83   12.52
  -6   7   4  135.18   13.72
   6  -7   4  135.70   13.78
   6  -7   5   24.93    6.56
  -6   7   5   25.44    6.40
   6   7   5   31.20    6.49
   6  -7   6   13.12    4.01
  -6   7   6    7.43    3.01
   6   7   6   13.23    5.37
  -6   7   7   31.17    6.94
   6  -7   7   22.12    5.66
   6   7   7   23.78    5.52
   6   7   8   75.83   10.70
  -6   7   8  112.75   12.71
   6  -7   8  101.83   12.30
   6  -7   9    5.88    2.01
  -6   7   9    8.31    4.31
   6   7   9    7.01    3.82
   6   7  10   70.62   10.30
   6  -7  10   67.89    9.71
  -6   7  10   67.70   10.20
  -6   7  11   13.42    5.48
   6  -7  11   24.66    6.31
   6   7  11   16.64    5.16
   6  -7  12    9.41    3.83
   6   7  12   12.30    4.07
  -6   7  12   15.99    4.86
   6  -7  13   40.74    8.72
   6   7  13   47.30    9.59
  -6   7  13   62.79    9.43
   6   7  14   19.91    6.33
  -6   7  14   11.31    5.29
  -6   7  15   24.19    7.49
   6   7  15   27.47    7.04
   6   7  16   18.03    5.28
  -6   7  16   26.91    7.31
   6   7  17    3.79    2.48
  -6   7  17   13.70    5.70
  -6   7  18   74.85   11.51
   6   7  18   54.89    9.39
  -6   7  19   23.93    7.23
   6   7  19   30.97    8.18
  -6   7  20   28.63    7.96
   6   7  20   20.30    6.54
  -6   7  21   43.37    8.71
   6   7  21   41.76    8.96
  -6   7  22    0.95    3.96
   6   7  22   13.91    6.68
  -6   7  23   11.88    4.83
   6   7  23   10.73    5.41
   6  -8 -20   18.73    6.28
   6  -8 -19   36.25    8.56
   6  -8 -18   61.42   11.09
   6  -8 -17   24.74    7.32
   6  -8 -16   31.22    8.07
   6  -8 -15   35.06    8.56
   6  -8 -14   33.86    7.64
   6  -8 -13   65.19   11.04
   6  -8 -12   73.52   11.32
   6  -8 -11   31.30    7.69
   6  -8 -10   16.87    5.98
   6  -8  -9   30.40    6.76
  -6   8  -9   34.86    9.42
  -6   8  -8  143.61   14.84
   6  -8  -8  131.94   14.88
  -6   8  -7   64.89   10.12
   6  -8  -7   69.89   11.21
  -6   8  -6   11.36    4.31
   6  -8  -6   12.06    4.71
  -6   8  -5   56.32    9.78
   6  -8  -5   46.55    8.40
   6   8  -4   81.11   10.70
  -6   8  -4   62.00   10.04
   6  -8  -4   70.91   10.85
   6   8  -3    2.37    2.31
   6  -8  -3    1.09    3.19
  -6   8  -3    2.23    3.77
  -6   8  -2   94.82   12.32
   6   8  -2   93.13   11.92
   6  -8  -2   96.20   12.60
  -6   8  -1   31.62    6.73
   6   8  -1   23.30    6.42
   6  -8  -1   22.90    6.10
  -6   8   0   -0.79    2.59
   6   8   0    0.67    2.33
   6  -8   0    0.19    2.31
   6   8   1   18.72    4.87
   6  -8   1   22.14    5.96
   6   8   2   98.00   11.92
   6  -8   2   81.35   11.26
   6   8   3    3.40    4.07
  -6   8   3    0.27    2.84
   6  -8   3    2.64    2.96
   6   8   4   73.87   10.67
  -6   8   4   77.66   11.15
   6  -8   4   79.53   10.82
   6   8   5   62.13    9.82
  -6   8   5   61.11    9.81
   6  -8   5   54.15    8.92
   6  -8   6   28.01    6.82
  -6   8   6   14.26    4.94
   6   8   6   27.00    6.83
   6   8   7   67.17   10.19
   6  -8   7   48.96    9.18
  -6   8   7   62.31    9.78
   6   8   8  119.43   13.50
  -6   8   8  149.93   15.72
   6  -8   8  144.50   15.36
   6  -8   9    8.18    3.67
  -6   8   9   20.39    5.62
   6   8   9   22.22    6.47
   6  -8  10   17.35    5.62
  -6   8  10   29.19    7.37
   6   8  10   20.86    6.78
   6  -8  11   37.21    7.79
   6   8  11   43.45    8.39
  -6   8  11   39.52    8.74
   6   8  12   64.78   10.63
  -6   8  12   84.93   12.09
   6  -8  12   63.21   10.23
   6   8  13   58.65    9.85
  -6   8  13   80.81   11.35
  -6   8  14   47.23   10.25
   6   8  14   38.05    8.86
   6   8  15   29.29    6.71
  -6   8  15   37.15    8.79
   6   8  16   37.92    8.01
  -6   8  16   35.90    7.78
   6   8  17   21.10    6.37
  -6   8  17   18.48    6.04
   6   8  18   58.66   10.77
  -6   8  18   58.14   10.40
  -6   8  19   19.34    7.78
   6   8  19   27.64    7.68
  -6   8  20   16.14    7.38
   6   8  20   14.13    5.99
   6  -9 -17    8.98    5.50
   6  -9 -16    0.18    2.14
   6  -9 -15   -0.41    2.82
   6  -9 -14   14.22    5.61
   6  -9 -13   -3.53    3.60
   6  -9 -12   32.45    7.78
   6  -9 -11   -0.03    2.15
   6  -9 -10    4.49    3.15
   6  -9  -9   13.43    5.09
  -6   9  -8    8.56    4.29
   6  -9  -8   20.02    6.58
  -6   9  -7   10.30    4.40
   6  -9  -7    6.09    3.22
  -6   9  -6    1.70    3.75
   6  -9  -6   21.08    6.73
   6  -9  -5   10.29    4.38
  -6   9  -5   19.91    5.79
  -6   9  -4    5.59    5.15
   6  -9  -4    5.45    3.58
  -6   9  -3   10.28    4.11
   6   9  -3   11.29    6.41
   6  -9  -3    2.96    2.02
  -6   9  -2   -1.44    2.00
   6   9  -2    3.21    2.91
   6  -9  -2    0.31    2.11
  -6   9  -1   23.82    6.57
   6   9  -1   15.58    5.48
   6  -9  -1   25.31    7.17
  -6   9   0   20.15    6.21
   6   9   0   18.47    6.50
   6  -9   0   18.18    5.90
  -6   9   1   22.44    6.03
   6  -9   1   12.92    5.15
   6   9   2    1.93    2.67
  -6   9   2   -2.10    3.50
   6  -9   2    4.78    2.43
  -6   9   3    7.50    3.58
   6   9   3   12.51    5.62
   6  -9   3   14.10    5.24
  -6   9   4    4.06    4.01
   6   9   4    4.66    3.44
   6  -9   4    0.33    1.95
  -6   9   5   14.45    5.56
   6   9   5   11.29    5.29
   6  -9   5   21.04    6.40
  -6   9   6   22.72    6.32
   6   9   6   38.40    7.90
   6  -9   6   28.39    6.89
  -6   9   7   16.23    5.91
   6   9   7    9.83    4.17
   6  -9   7   12.70    6.08
   6  -9   8   18.13    6.79
  -6   9   8   15.08    6.81
   6   9   8   16.62    5.99
   6   9   9    4.77    3.89
  -6   9   9   10.56    5.82
   6  -9   9    5.52    3.79
   6   9  10    5.60    4.09
  -6   9  10    6.99    4.43
   6  -9  10    5.32    3.10
  -6   9  11    1.77    2.91
   6   9  11   -1.33    2.58
   6   9  12   23.94    5.88
  -6   9  12   28.89    7.58
   6   9  13    0.89    3.10
  -6   9  13    0.46    4.63
   6   9  14    7.17    3.22
  -6   9  14   20.57    6.23
   6   9  15   -0.46    1.90
  -6   9  15    3.16    5.40
   6   9  16    2.20    4.25
  -6   9  16   -4.76    3.32
   6   9  17    0.20    2.85
  -6   9  17    3.17    5.53
   6 -10 -13    1.92    3.79
   6 -10 -12   27.89    8.52
   6 -10 -11   19.08    6.57
   6 -10 -10    8.88    5.36
   6 -10  -9    4.98    4.22
   6 -10  -8   42.92    8.99
  -6  10  -7    2.40    4.41
   6 -10  -7    1.39    2.93
  -6  10  -6   17.02    6.87
   6 -10  -6   18.91    6.99
   6 -10  -5   36.16    8.48
  -6  10  -5   30.99    8.40
  -6  10  -4   35.37    9.47
   6 -10  -4   26.99    7.04
  -6  10  -3    9.18    4.71
   6 -10  -3   10.23    5.40
  -6  10  -2   34.79    8.18
   6 -10  -2   54.29    9.29
  -6  10  -1    9.31    4.45
   6  10  -1   13.63    6.09
   6 -10  -1   19.95    6.96
  -6  10   0    6.93    3.47
   6  10   0    7.76    4.36
   6 -10   0    3.48    3.07
  -6  10   1   16.51    6.61
   6  10   1   14.00    5.37
   6 -10   1   27.01    8.14
   6  10   2   56.13   10.24
  -6  10   2   50.57    9.25
   6 -10   2   46.77   10.10
  -6  10   3    3.13    4.95
   6  10   3   -1.58    3.04
  -6  10   4   32.82    8.22
   6  10   4   45.25    8.99
   6 -10   4   40.07    7.98
   6  10   5    5.50    3.04
  -6  10   5   27.45    7.18
   6 -10   5   22.00    7.12
   6  10   6   14.42    5.15
   6 -10   6   10.34    3.83
  -6  10   6   10.38    4.43
  -6  10   7   10.21    4.95
   6  10   7   14.00    5.46
   6 -10   7   18.20    6.14
  -6  10   8   45.66    8.72
   6  10   8   47.63    9.62
   6 -10   8   61.99   11.06
  -6  10   9    9.49    6.34
   6  10   9    2.40    2.63
   6 -10   9    8.40    5.76
  -6  10  10   10.65    6.30
   6  10  10    4.95    3.37
  -6  10  11   11.37    5.25
   6  10  11    4.44    4.14
   6  10  12   24.33    7.96
  -6  10  12   22.32    7.04
  -6  10  13   14.64    5.61
   6  10  13    3.43    4.18
  -6  11  -5    8.51    6.06
   6 -11  -5   14.43    6.13
  -6  11  -4    7.62    5.37
   6 -11  -4    0.90    3.49
   6 -11  -3    6.75    4.73
  -6  11  -3    5.82    3.90
  -6  11  -2   10.49    6.16
   6 -11  -2   -3.10    4.78
  -6  11  -1   17.71    6.95
   6 -11  -1   14.39    6.49
  -6  11   0    6.09    4.59
   6 -11   0   10.20    3.36
  -6  11   1    8.83    4.71
   6  11   1   11.32    4.28
   6 -11   1   16.13    6.11
   6  11   2    3.07    4.28
  -6  11   2    0.42    3.98
   6 -11   2    3.78    3.79
  -6  11   3   10.96    2.20
   6  11   3    3.22    2.75
   6 -11   3    3.97    4.05
  -6  11   4   -4.65    3.71
   6  11   4   -0.51    2.32
   6 -11   4    1.66    3.83
  -6  11   5    1.76    4.72
   6  11   5   10.78    5.15
   6 -11   5    6.15    4.75
   7   0 -14   -0.07    1.79
   7   0 -13    0.46    1.32
   7   0 -12    1.33    1.77
   7   0 -11   -0.01    0.97
   7   0 -10    0.81    0.88
   7   0  -9    0.99    1.35
   7   0  -8   -0.09    1.13
   7   0  -7    1.89    1.70
   7   0  -6    1.46    1.25
   7   0  -5    0.02    0.92
   7   0  -4   -0.23    0.79
   7   0  -3   -0.01    1.56
   7   0  -2    0.90    0.88
   7   0  -1    0.70    1.59
   7   0   0    0.10    1.07
   7   0   1    0.85    1.53
   7   0   2   -1.11    1.91
   7   0   3    0.26    1.32
   7   0   4    1.46    2.53
   7   0   5    0.44    0.97
   7   0   6    0.46    1.59
   7   0   7    0.34    0.85
   7   0   8   -0.66    1.62
   7   0   9    0.06    1.10
   7   0  10    0.31    2.78
   7   0  11    0.61    1.99
   7   0  12    1.52    2.57
   7   0  13    0.78    1.48
   7   0  14    2.18    3.37
   7   0  15    0.95    3.25
   7   0  16    0.47    2.67
   7   0  17   -0.01    2.18
   7   0  18   -0.06    1.89
   7   0  19    2.01    2.59
   7   0  20    0.10    3.25
   7   0  21    0.43    2.38
   7   0  22   -1.55    1.81
   7   0  23    1.10    3.72
   7  -1 -15  139.25   11.25
   7  -1 -14  989.26   29.82
   7  -1 -13   74.35    8.33
   7   1 -12  151.89    9.15
   7  -1 -12  171.04   12.00
   7  -1 -11  223.31   13.67
   7   1 -10   92.64    7.29
   7  -1 -10   81.65    8.21
   7  -1  -9   22.21    4.30
   7   1  -9   24.21    3.59
   7  -1  -8  188.87   12.26
   7   1  -8  177.60   10.38
   7  -1  -7  196.73   12.47
   7   1  -7  208.23   11.28
   7  -1  -6  411.16   18.08
   7   1  -6  433.24   16.54
   7   1  -5  534.90   18.25
   7  -1  -5  528.39   20.15
   7  -1  -4  361.80   16.74
   7   1  -4  377.93   15.44
   7  -1  -3  623.28   22.06
   7   1  -3  643.31   20.67
   7  -1  -2 1335.95   32.12
   7   1  -2 1186.19   28.43
   7   1  -1   43.28    5.25
   7  -1  -1   49.84    6.32
   7   1   0    1.25    1.48
   7  -1   0    0.42    1.25
   7  -1   1   29.93    4.99
   7   1   1   35.91    5.29
   7   1   2 1296.40   32.01
   7  -1   2 1249.99   31.90
   7   1   3  678.52   23.50
   7  -1   3  693.08   23.77
   7   1   4  373.94   17.57
   7  -1   4  350.40   16.78
   7   1   5  496.17   20.61
   7  -1   5  480.39   19.96
   7   1   6  403.64   18.93
   7  -1   6  426.92   19.10
   7   1   7  206.77   13.43
   7  -1   7  173.58   12.42
   7   1   8  174.72   12.69
   7  -1   8  146.84   11.64
   7  -1   9   19.91    4.57
   7   1   9   18.42    4.44
   7   1  10  103.85   10.30
   7  -1  10  103.78   10.02
   7   1  11  235.68   15.39
   7  -1  11  184.04   13.43
   7   1  12  180.67   14.05
   7  -1  12  146.17   12.23
   7   1  13   65.60    8.86
   7  -1  13   84.51    9.46
   7   1  14 1116.28   36.68
   7  -1  14 1159.47   35.55
   7   1  15  146.37   13.31
   7  -1  15  130.37   12.05
   7   1  16  722.94   29.90
   7  -1  16  652.93   28.00
   7   1  17   77.94   10.20
   7  -1  17   76.67    9.69
   7   1  18   95.10   11.45
   7  -1  18   79.05   10.24
   7   1  19   80.83   10.97
   7  -1  19   80.55   10.61
   7   1  20  124.43   13.69
   7  -1  20   88.94   11.03
   7   1  21   51.99    9.05
   7  -1  21   53.33    9.02
   7   1  22   78.73   11.26
   7   1  23   17.85    6.69
   7   1  24  233.85   19.72
   7  -2 -17   -0.40    2.14
   7  -2 -16  596.59   25.69
   7  -2 -15  130.27   11.85
   7  -2 -14  153.86   12.90
   7  -2 -13  113.41   10.60
   7  -2 -12  238.55   15.46
   7  -2 -11   22.15    4.58
   7   2 -11   21.19    3.71
   7   2 -10   86.30    6.67
   7  -2 -10   81.06    8.68
   7   2  -9  242.41   11.59
   7  -2  -9  211.18   14.11
   7  -2  -8  515.46   22.16
   7   2  -8  527.74   17.21
   7   2  -7   16.63    3.15
   7  -2  -7   21.98    4.57
   7  -2  -6   50.34    6.18
   7   2  -6   54.30    5.46
   7  -2  -5  284.85   15.97
   7   2  -5  293.89   13.51
   7  -2  -4   48.73    6.73
   7   2  -4   49.57    5.77
   7   2  -3  308.62   14.69
   7  -2  -3  341.72   17.22
   7   2  -2  124.38    9.51
   7  -2  -2  130.22   10.64
   7  -2  -1    3.30    1.67
   7   2  -1    1.65    1.01
   7  -2   0    2.00    0.91
   7   2   0    2.89    1.58
   7  -2   1    0.86    0.90
   7   2   1    1.65    1.76
   7   2   2  140.60   10.95
   7  -2   2  157.85   11.81
   7   2   3  326.39   16.58
   7  -2   3  323.29   16.65
   7   2   4   52.13    6.80
   7  -2   4   57.70    7.22
   7   2   5  315.84   16.90
   7  -2   5  308.64   16.68
   7   2   6   54.92    7.10
   7  -2   6   70.59    8.05
   7  -2   7   14.73    3.78
   7   2   7   16.82    3.98
   7   2   8  500.02   22.20
   7  -2   8  512.97   22.23
   7   2   9  215.21   14.57
   7  -2   9  240.32   15.27
   7   2  10   90.44    9.49
   7  -2  10   92.58    9.59
   7  -2  11   22.22    4.91
   7   2  11   22.46    5.33
   7  -2  12  245.45   16.25
   7   2  12  242.57   16.60
   7   2  13  103.17   11.11
   7  -2  13   96.29   10.04
   7   2  14  164.84   14.04
   7  -2  14  160.27   13.24
   7   2  15  148.57   13.60
   7  -2  15  147.65   13.06
   7   2  16  562.25   27.01
   7  -2  16  515.71   24.67
   7   2  17   52.15    8.45
   7  -2  17   41.20    6.82
   7   2  18  103.61   11.68
   7  -2  18  102.72   11.54
   7   2  19    2.29    3.01
   7  -2  19   -1.76    3.04
   7  -2  20   17.43    5.23
   7   2  20   25.89    5.97
   7   2  21   50.67    9.03
   7   2  22   19.45    5.60
   7   2  23   29.87    7.55
   7   2  24   12.75    5.10
   7   2  25   23.49    6.82
   7  -3 -18  607.21   28.76
   7  -3 -17   34.58    6.82
   7  -3 -16    9.70    3.40
   7  -3 -15   21.11    5.22
   7  -3 -14 1168.15   37.69
   7  -3 -13    3.82    2.80
   7  -3 -12 1448.54   40.02
   7  -3 -11  123.24   11.79
   7  -3 -10   52.78    7.41
   7   3 -10   -3.29    1.30
   7   3  -9   35.48    4.58
   7  -3  -9   33.29    6.18
   7   3  -8 1277.93   27.27
   7  -3  -8 1250.69   36.42
   7  -3  -7   19.87    4.29
   7   3  -7   30.52    4.57
   7  -3  -6  793.67   28.24
   7   3  -6  778.82   23.59
   7  -3  -5   69.54    8.49
   7   3  -5   77.41    7.40
   7  -3  -4    9.04    3.17
   7   3  -4    6.56    2.89
   7  -3  -3   30.20    5.48
   7   3  -3   37.41    5.54
   7  -3  -2 1208.64   34.61
   7   3  -2 1276.87   31.83
   7   3  -1   22.61    4.25
   7  -3  -1   16.76    4.36
   7   3   0    1.29    1.60
   7  -3   0   -0.25    2.10
   7  -3   1   22.20    4.45
   7   3   1   25.47    5.00
   7  -3   2 1184.89   33.98
   7   3   2 1275.47   33.59
   7   3   3   22.67    4.68
   7  -3   3   34.51    5.67
   7   3   4    3.59    2.89
   7  -3   4    2.01    0.92
   7  -3   5   60.06    7.72
   7   3   5   70.93    8.32
   7  -3   6  784.94   28.05
   7   3   6  751.60   27.59
   7  -3   7   25.05    4.93
   7   3   7   26.11    5.54
   7   3   8 1295.26   37.08
   7  -3   8 1282.64   36.06
   7  -3   9   35.60    6.07
   7   3   9   27.65    6.07
   7  -3  10   47.69    6.96
   7   3  10   44.21    7.17
   7  -3  11  112.74   11.06
   7   3  11  108.82   11.37
   7  -3  12 1390.14   38.84
   7   3  12 1425.29   41.32
   7   3  13    6.60    3.29
   7  -3  13    2.75    2.48
   7  -3  14 1398.80   40.25
   7   3  14 1370.02   41.62
   7   3  15   28.88    6.42
   7  -3  15   27.24    5.31
   7   3  16   12.91    5.04
   7  -3  16   18.07    5.02
   7   3  17   34.07    7.20
   7  -3  17   31.89    6.13
   7  -3  18  650.73   29.24
   7   3  18  654.65   30.59
   7   3  19   29.80    6.68
   7  -3  19   29.81    6.91
   7   3  20  311.98   21.77
   7   3  21    5.56    4.46
   7   3  22    4.24    3.24
   7   3  23   11.81    5.33
   7   3  24  160.25   16.44
   7   3  25    9.89    5.68
   7   3  26   44.62   10.54
   7  -4 -19  227.34   19.05
   7  -4 -18  102.26   12.78
   7  -4 -17   27.77    6.89
   7  -4 -16   20.51    5.87
   7  -4 -15   61.36    9.86
   7  -4 -14  151.17   14.71
   7  -4 -13  124.31   12.71
   7  -4 -12   33.75    6.62
   7  -4 -11  268.89   18.02
   7  -4 -10   37.15    6.86
   7  -4  -9    4.02    3.07
   7   4  -8   93.07    7.78
   7  -4  -8   62.90    9.05
   7   4  -7  688.55   22.80
   7  -4  -7  614.30   26.96
   7   4  -6   72.98    7.58
   7  -4  -6   79.97    9.62
   7   4  -5    8.65    2.67
   7  -4  -5   10.37    3.46
   7   4  -4   13.47    3.71
   7  -4  -4   12.40    4.38
   7  -4  -3   93.46   10.05
   7   4  -3  112.99    9.93
   7  -4  -2    7.10    2.50
   7   4  -2   12.77    3.43
   7  -4  -1   12.30    4.24
   7   4  -1    8.28    2.82
   7  -4   0   -0.34    1.27
   7   4   0    0.90    1.46
   7  -4   1    7.09    2.87
   7   4   1    9.05    3.01
   7  -4   2   14.28    4.18
   7   4   2    8.04    3.10
   7  -4   3  105.03   10.88
   7   4   3   96.77   10.09
   7  -4   4   14.11    3.99
   7   4   4   10.49    3.62
   7  -4   5    9.41    3.82
   7   4   5    6.73    2.89
   7  -4   6   58.38    7.88
   7   4   6   74.86    8.94
   7  -4   7  629.83   26.92
   7  -4   8   76.65    9.70
   7   4   8   71.11    9.12
   7  -4   9    2.75    2.16
   7   4   9    7.69    3.41
   7  -4  10   30.77    5.86
   7   4  10   35.70    6.83
   7  -4  11  251.07   16.94
   7   4  11  268.52   18.27
   7  -4  12   28.34    6.40
   7   4  12   28.68    6.01
   7  -4  13  123.73   12.47
   7   4  13  119.70   12.57
   7  -4  14  132.92   12.84
   7   4  14  163.62   14.51
   7  -4  15   51.31    7.96
   7   4  15   59.01    9.09
   7   4  16   16.05    5.14
   7  -4  16   19.58    5.68
   7   4  17   20.95    6.40
   7  -4  17    9.55    3.98
   7  -4  18  110.91   12.26
   7   4  18   76.15   10.83
   7   4  19  295.84   21.22
   7   4  20    1.31    2.10
   7   4  21   10.11    4.12
   7   4  22   36.04    7.76
   7   4  23    1.20    3.34
   7   4  24    4.55    2.35
   7   4  25    4.67    5.22
   7   4  26    5.88    2.74
   7   4  27   11.99    5.31
   7  -5 -20    9.02    3.78
   7  -5 -19   58.96    9.81
   7  -5 -18  301.27   22.07
   7  -5 -17   80.48   11.65
   7  -5 -16    5.64    3.62
   7  -5 -15   16.80    5.06
   7  -5 -14   15.94    5.58
   7  -5 -13    1.62    2.33
   7  -5 -12  280.74   20.10
   7  -5 -11   50.35    8.24
  -7   5 -10    9.67    3.64
   7  -5 -10   15.09    5.07
   7  -5  -9   11.52    4.30
  -7   5  -9   22.51    4.77
  -7   5  -8  329.33   18.40
   7  -5  -8  310.63   20.08
   7   5  -7   85.04    8.77
   7  -5  -7   62.42    8.98
   7  -5  -6   21.58    5.62
   7   5  -6   14.14    3.27
   7   5  -5   42.18    6.22
   7  -5  -5   48.69    8.13
   7   5  -4   52.99    7.18
   7  -5  -4   68.13    9.55
   7   5  -3   67.43    8.22
   7  -5  -3   83.85   10.06
   7   5  -2  313.03   17.61
   7  -5  -2  340.64   20.32
   7  -5  -1   11.44    4.24
   7   5  -1   11.91    3.64
   7  -5   0   -1.43    2.35
   7   5   0    1.55    1.59
   7  -5   1   17.44    5.22
   7   5   1   21.85    5.19
   7  -5   2  330.52   19.85
   7   5   2  371.56   20.04
   7  -5   3   73.58    9.30
   7   5   3   64.65    8.46
   7  -5   4   56.15    8.43
   7   5   4   55.22    8.34
   7  -5   5   41.85    7.36
   7   5   5   42.78    7.10
   7  -5   6   21.40    5.44
   7   5   6   17.03    4.68
   7  -5   7   77.74    9.78
   7  -5   8  310.12   19.62
   7   5   8  350.81   20.59
   7  -5   9   21.38    5.07
   7   5   9   16.18    4.72
   7  -5  10   20.24    4.77
   7   5  10   14.11    4.25
   7  -5  11   55.98    8.49
   7   5  11   49.28    8.35
   7  -5  13    2.30    3.40
   7   5  13   -0.21    1.95
   7  -5  14   15.69    5.73
   7   5  14   16.48    5.02
   7  -5  15   12.97    5.39
   7   5  15    4.84    2.95
   7  -5  16    3.78    2.96
   7   5  16   -1.97    2.91
   7   5  17   78.09   11.10
   7   5  18  314.66   22.56
   7   5  19   61.02   10.05
   7   5  20   12.23    4.46
   7   5  21   17.97    6.15
   7   5  22   84.89   12.09
   7   5  23    5.18    4.76
   7   5  24   98.41   14.14
   7   5  25    1.27    3.01
   7   5  26   -2.23    4.40
   7  -6 -21   13.15    4.74
   7  -6 -20   -0.09    2.44
   7  -6 -19    1.86    2.74
   7  -6 -18    2.08    3.11
   7  -6 -17   -1.93    4.08
   7  -6 -16   -2.22    2.20
   7  -6 -15   14.35    4.21
   7  -6 -14   18.64    5.88
   7  -6 -13   50.89    9.39
   7  -6 -12   18.31    5.21
   7  -6 -11   22.54    5.86
  -7   6 -10   -5.13    2.54
   7  -6 -10   11.81    4.24
  -7   6  -9    3.01    2.53
   7  -6  -9    2.54    3.92
  -7   6  -8    3.36    1.63
   7  -6  -8    3.21    2.21
  -7   6  -7   13.29    4.50
   7  -6  -7    8.11    3.55
   7  -6  -6    1.61    1.33
  -7   6  -6    1.47    1.80
   7   6  -5   45.69    7.08
   7  -6  -5   45.28    8.20
  -7   6  -5   46.70    7.92
   7  -6  -4   18.42    5.99
  -7   6  -4   20.00    5.43
   7   6  -4   12.84    3.91
   7  -6  -3    2.27    1.95
   7   6  -3    6.37    3.54
   7  -6  -2   19.96    5.64
   7   6  -2   32.78    6.00
   7  -6  -1   22.75    5.40
   7   6  -1   16.25    4.92
   7   6   0   -1.10    2.02
   7  -6   0    3.19    2.59
   7   6   1   15.59    4.47
   7  -6   1   25.39    5.83
   7   6   2   19.69    5.05
   7  -6   2   24.37    5.10
   7   6   3    4.38    2.37
   7  -6   3    4.26    2.19
   7   6   4   19.85    4.90
   7  -6   4   16.30    4.44
   7   6   5   51.07    8.14
   7  -6   5   48.20    8.04
   7   6   6    6.11    3.72
   7  -6   6    2.65    2.57
   7   6   7    4.63    2.92
   7  -6   7    7.97    3.64
   7   6   8   -1.72    2.81
   7  -6   8    2.75    3.59
   7   6   9    2.94    1.78
   7  -6   9    6.27    3.34
   7   6  10   14.31    4.48
   7  -6  10   10.37    4.50
   7  -6  11   19.22    6.13
   7   6  11   33.22    7.39
   7  -6  12   23.58    6.25
   7   6  12   12.30    5.33
   7  -6  13   42.83    7.49
   7   6  13   53.94    9.07
   7  -6  14   23.10    5.82
   7   6  14   17.09    4.32
   7  -6  15    5.19    4.41
   7   6  15   12.76    4.43
   7   6  16    1.62    2.96
   7   6  17    7.20    4.52
   7   6  18    0.87    3.00
   7   6  19    1.60    3.88
   7   6  20    1.74    4.61
   7   6  21   20.27    6.34
  -7   6  21   11.99    6.24
   7   6  22    0.75    2.42
  -7   6  22   11.03    6.05
   7   6  23    2.52    3.83
  -7   6  23   12.70    5.84
   7   6  24   -1.54    2.91
  -7   6  24    0.61    3.85
   7  -7 -22   40.93   10.26
   7  -7 -21    0.43    3.89
   7  -7 -20   34.70    9.16
   7  -7 -19    3.56    3.22
   7  -7 -18  148.00   17.25
   7  -7 -17   30.45    7.07
   7  -7 -16    8.35    3.55
   7  -7 -15    0.88    2.84
   7  -7 -14   54.10    9.99
   7  -7 -13   10.67    4.83
   7  -7 -12  202.13   18.62
   7  -7 -11    5.73    2.53
   7  -7 -10    1.55    3.67
  -7   7  -9    9.53    3.63
   7  -7  -9   10.63    4.89
  -7   7  -8  342.76   22.46
   7  -7  -8  334.35   23.43
  -7   7  -7   15.03    4.84
   7  -7  -7   10.97    4.89
  -7   7  -6   33.07    7.36
   7  -7  -6   57.50    9.16
  -7   7  -5   16.51    4.44
   7   7  -5   21.29    5.78
   7  -7  -5   20.52    6.00
  -7   7  -4  120.94   13.13
   7  -7  -4  117.28   13.07
   7   7  -4  125.25   12.78
   7  -7  -3    2.11    4.38
  -7   7  -3    2.46    4.00
   7   7  -3    0.21    1.43
   7   7  -2  173.75   15.28
  -7   7  -2  183.89   15.70
   7  -7  -2  183.99   16.34
   7  -7  -1   26.11    6.41
  -7   7  -1   19.88    4.75
   7   7  -1   17.46    5.34
   7  -7   0    2.58    3.24
   7   7   0    4.00    2.49
  -7   7   0    8.52    5.25
   7  -7   1   25.05    6.27
   7   7   1   22.32    5.45
  -7   7   1   11.35    4.40
   7   7   2  157.58   14.89
  -7   7   2  180.10   15.76
   7  -7   2  143.92   14.44
  -7   7   3    1.32    2.52
   7  -7   3    2.82    3.12
   7   7   3    1.31    3.35
   7   7   4  145.55   14.49
  -7   7   4  127.41   13.58
   7  -7   4  130.96   14.41
   7  -7   5   27.82    6.56
   7   7   5   28.82    6.71
   7   7   6   57.96    9.16
   7  -7   6   40.94    8.05
   7  -7   7    8.46    4.31
   7   7   7   11.98    4.86
   7  -7   8  339.06   22.27
   7   7   8  310.47   21.36
   7  -7   9    4.35    3.39
   7   7   9    5.81    4.89
   7  -7  10    1.46    2.45
   7   7  10    1.61    2.07
   7  -7  11   10.81    4.34
   7   7  11   14.66    4.78
   7   7  12  200.84   17.86
   7  -7  12  155.11   15.81
   7   7  13   10.53    4.44
   7  -7  13   17.40    6.25
   7  -7  14   46.07    9.28
  -7   7  14   63.70   10.79
   7   7  14   48.02    8.60
  -7   7  15   10.29    4.82
   7   7  15   -1.45    4.02
  -7   7  16    3.38    3.56
   7   7  16    0.80    1.88
  -7   7  17   16.05    5.23
   7   7  17   26.70    7.15
  -7   7  18  209.36   19.33
   7   7  18  182.14   17.68
  -7   7  19   12.22    6.33
   7   7  19   -2.08    2.33
   7   7  20   51.81   10.33
  -7   7  20   45.01    9.45
   7   7  21   10.81    5.39
  -7   7  21   16.07    8.00
  -7   7  22   29.13    8.32
   7   7  22   31.33    8.84
   7  -8 -20    0.10    3.33
   7  -8 -19    2.84    3.30
   7  -8 -18    0.88    3.06
   7  -8 -17    1.50    1.81
   7  -8 -16   -0.24    2.88
   7  -8 -15   13.22    6.40
   7  -8 -14   26.81    7.66
   7  -8 -13    8.13    4.61
   7  -8 -12    0.95    1.75
   7  -8 -11    3.80    2.24
   7  -8 -10   -0.31    2.08
   7  -8  -9   13.80    5.50
  -7   8  -8    5.41    4.38
   7  -8  -8    6.76    3.66
   7  -8  -7    3.79    2.17
  -7   8  -7    3.77    3.68
  -7   8  -6   22.61    5.97
   7  -8  -6   16.82    5.18
  -7   8  -5    7.88    4.44
   7  -8  -5    7.36    4.90
   7   8  -4   11.05    5.73
   7  -8  -4    9.38    4.44
  -7   8  -4    6.43    3.72
   7   8  -3   -1.29    2.02
  -7   8  -3   -2.65    2.63
   7  -8  -3    2.71    2.23
   7   8  -2    1.71    2.56
  -7   8  -2    9.74    3.30
   7  -8  -2    8.78    3.92
   7   8  -1    3.98    2.87
  -7   8  -1    3.33    5.17
   7  -8  -1    1.43    2.57
   7   8   0    2.17    3.22
  -7   8   0    5.99    3.04
   7  -8   0   -1.33    2.31
   7  -8   1    6.75    4.15
   7   8   1    4.21    3.03
  -7   8   1    7.68    4.44
   7  -8   2    0.67    2.04
   7   8   2    6.22    3.30
  -7   8   2    2.36    2.68
   7  -8   3    1.03    2.27
   7   8   3    2.84    3.29
  -7   8   3    5.80    4.12
   7  -8   4    4.22    3.39
   7   8   4    4.88    4.06
  -7   8   4    8.54    4.50
   7  -8   5    8.51    5.35
   7   8   5    9.04    3.91
  -7   8   5   11.06    5.34
   7  -8   6   20.83    6.83
   7   8   6   21.56    6.41
  -7   8   6   11.34    5.05
   7  -8   7    1.23    4.24
   7   8   7    2.47    2.34
  -7   8   7    8.04    4.33
   7  -8   8    1.20    3.46
   7   8   8    4.51    3.90
  -7   8   8    2.26    2.01
   7  -8   9   10.99    4.52
   7   8   9   12.05    4.80
  -7   8   9    4.51    3.02
  -7   8  10   -0.21    3.58
   7  -8  10    1.62    3.32
   7   8  10   -1.13    1.88
   7   8  11   10.11    4.02
   7  -8  11    6.45    4.64
  -7   8  11    5.73    4.23
   7  -8  12   -1.44    3.64
   7   8  12    2.59    2.35
  -7   8  12    0.62    2.57
   7   8  13    8.58    3.58
  -7   8  13   12.28    4.78
   7   8  14   13.51    5.45
  -7   8  14   27.61    7.71
  -7   8  15    6.67    3.99
   7   8  15    9.59    4.56
  -7   8  16    9.74    4.87
   7   8  16    0.97    2.49
  -7   8  17    5.02    3.56
   7   8  17    7.92    4.07
  -7   8  18    0.93    3.38
   7   8  18   -0.05    3.60
  -7   8  19    2.30    3.39
   7   8  19    1.04    3.12
  -7   8  20   -6.27    4.19
   7   8  20    3.21    4.00
   7  -9 -16    1.81    4.62
   7  -9 -15   19.84    6.83
   7  -9 -14  107.07   15.01
   7  -9 -13    4.58    4.41
   7  -9 -12  141.21   16.11
   7  -9 -11   -0.17    2.72
   7  -9 -10   10.16    4.15
   7  -9  -9    9.08    3.54
   7  -9  -8  248.17   21.04
  -7   9  -7    1.73    3.47
   7  -9  -7   10.70    5.37
  -7   9  -6   52.55    9.78
   7  -9  -6   70.14   11.48
  -7   9  -5   17.25    5.84
   7  -9  -5    5.53    4.46
  -7   9  -4   62.67    9.98
   7  -9  -4   82.12   11.44
  -7   9  -3    4.64    4.22
   7  -9  -3    0.22    2.34
   7   9  -2  137.27   15.37
  -7   9  -2   98.70   13.21
   7  -9  -2  121.06   14.61
   7   9  -1    3.85    4.17
  -7   9  -1    6.88    3.09
   7  -9  -1    4.78    4.22
   7   9   0   -1.99    3.16
  -7   9   0    5.23    2.36
   7  -9   0   -1.84    4.87
   7   9   1    5.43    3.95
  -7   9   1    2.95    2.53
   7  -9   1    3.76    2.16
   7   9   2  148.14   15.72
  -7   9   2  140.93   15.77
   7  -9   2  141.43   15.83
   7   9   3   -0.48    2.03
  -7   9   3    6.60    3.72
   7  -9   3    0.99    2.60
   7   9   4   79.24   11.94
  -7   9   4   92.27   12.92
   7  -9   4   98.99   13.22
   7   9   5    4.19    3.91
  -7   9   5    7.41    3.94
   7  -9   5    7.64    3.35
   7   9   6   64.49   11.03
  -7   9   6   46.76    9.58
   7  -9   6   57.32    9.68
   7   9   7    0.24    3.37
  -7   9   7    7.62    5.48
   7  -9   7    3.15    2.35
   7   9   8  252.38   20.90
  -7   9   8  274.55   21.76
   7  -9   8  228.22   20.40
   7   9   9    9.56    4.45
  -7   9   9   14.25    4.81
   7  -9   9   12.47    4.65
   7   9  10    9.71    3.95
  -7   9  10   12.86    6.29
   7  -9  10   13.47    5.24
   7   9  11    9.29    3.94
  -7   9  11    6.65    2.53
   7  -9  11   14.15    5.90
   7   9  12  143.43   16.20
  -7   9  12  134.42   15.96
   7   9  13    7.55    4.01
  -7   9  13    3.37    2.91
  -7   9  14   90.93   13.44
   7   9  15    9.12    2.85
  -7   9  15    7.30    4.10
  -7   9  16   -0.03    3.80
   7   9  16    5.66    3.67
   7 -10 -12    5.85    4.51
   7 -10 -11   33.46    7.85
   7 -10 -10   -2.64    3.13
   7 -10  -9   -0.08    2.09
   7 -10  -8   -0.19    2.09
  -7  10  -7    1.90    2.37
   7 -10  -7   44.00    9.39
  -7  10  -6    6.50    4.77
   7 -10  -6    5.16    3.86
  -7  10  -5   54.75    9.93
   7 -10  -5   35.81    8.47
  -7  10  -4    6.33    5.14
   7 -10  -4    3.45    3.83
  -7  10  -3    3.64    4.49
   7 -10  -3   -0.12    2.28
  -7  10  -2    3.98    4.33
   7 -10  -2   -0.92    2.84
  -7  10  -1    6.75    3.83
   7 -10  -1    1.63    5.02
  -7  10   0   -3.97    4.34
   7  10   0    0.03    3.78
   7 -10   0    3.53    5.30
   7  10   1    3.98    2.22
  -7  10   1   10.72    5.66
   7 -10   1    4.31    3.63
  -7  10   2   -3.32    2.98
   7  10   2    2.01    3.30
   7 -10   2    1.76    4.65
  -7  10   3   -1.08    4.01
   7  10   3   -3.76    3.36
   7 -10   3    3.58    3.61
   7  10   4   -4.06    3.56
   7 -10   4   -1.02    2.60
   7  10   5   19.57    6.14
  -7  10   5   26.70    8.30
   7  10   6   -1.88    3.68
  -7  10   6   -0.46    3.14
   7 -10   6    4.74    5.17
   7  10   7   37.94    8.40
  -7  10   7   42.54    8.69
   7 -10   7   46.38   10.47
   7  10   8    4.95    4.45
  -7  10   8   -2.78    3.78
   7 -10   8    5.60    4.36
  -7  10   9   -3.14    3.75
   7  10   9    1.51    3.48
   7 -10   9   -0.02    3.41
   7  10  10   -0.84    4.20
  -7  10  10   -1.98    5.39
   7  10  11   19.88    7.21
  -7  10  11   18.48    7.18
   7  10  12    1.74    2.82
  -7  10  12    3.04    4.45
  -7  11  -1   -6.60    5.59
   7 -11  -1   -2.92    3.72
  -7  11   0    4.66    4.81
   7 -11   0   -2.60    4.28
   7  11   1    4.44    5.74
  -7  11   1    2.35    2.48
   7 -11   1   -2.60    2.56
   8   0 -13  103.35    9.43
   8   0 -12  704.04   23.95
   8   0 -11  650.26   22.95
   8   0 -10   95.23    8.81
   8   0  -9 1415.74   33.98
   8   0  -8 1000.17   28.69
   8   0  -7   13.18    3.33
   8   0  -6  478.23   19.36
   8   0  -5   64.65    7.08
   8   0  -4  890.58   27.00
   8   0  -3 1790.63   38.14
   8   0  -2  860.21   26.36
   8   0  -1  116.74    9.75
   8   0   0 1354.74   33.24
   8   0   1  131.13   10.54
   8   0   2  838.23   26.90
   8   0   3 1937.16   40.92
   8   0   4  901.85   28.33
   8   0   5   51.99    7.05
   8   0   6  496.02   21.74
   8   0   7    6.74    2.67
   8   0   8 1008.74   31.39
   8   0   9 1371.06   37.38
   8   0  10  103.07   10.73
   8   0  11  624.51   25.88
   8   0  12  767.01   29.39
   8   0  13  113.16   11.28
   8   0  14  150.15   13.54
   8   0  15  274.22   18.43
   8   0  16   33.30    6.45
   8   0  17  332.24   20.87
   8   0  18  224.47   17.62
   8   0  19   77.62   10.69
   8   0  20   21.86    6.12
   8   0  21   87.43   12.09
   8   0  22   13.30    4.85
   8   0  23    3.60    3.03
   8  -1 -15   19.02    5.45
   8  -1 -14    9.50    2.98
   8  -1 -13    0.73    2.17
   8  -1 -12    3.84    2.53
   8   1 -12    8.51    3.64
   8   1 -11   51.17    6.27
   8  -1 -11   45.81    6.84
   8  -1 -10   32.26    5.37
   8   1 -10   37.49    5.24
   8  -1  -9   29.79    5.17
   8   1  -9   18.23    3.85
   8  -1  -8   44.02    6.32
   8   1  -8   47.08    5.80
   8  -1  -7   69.82    8.12
   8   1  -7   64.22    6.87
   8  -1  -6   16.91    4.42
   8   1  -6   11.23    2.88
   8  -1  -5   14.52    3.60
   8   1  -5   11.87    2.90
   8  -1  -4   23.01    4.60
   8   1  -4   15.19    3.27
   8  -1  -3   54.85    6.74
   8   1  -3   64.20    6.97
   8  -1  -2   98.94    9.18
   8   1  -2  111.37    9.37
   8  -1  -1  108.80    9.63
   8   1  -1  109.14    9.39
   8   1   0    1.40    1.16
   8  -1   0    3.87    2.49
   8  -1   1  117.15   10.34
   8   1   1   84.46    8.44
   8  -1   2  108.12    9.92
   8   1   2  111.80    9.61
   8  -1   3   59.15    7.24
   8   1   3   57.99    7.19
   8   1   4   17.06    4.04
   8  -1   4   23.34    4.69
   8   1   5    9.07    3.30
   8  -1   5   11.93    3.41
   8   1   6    5.12    2.81
   8  -1   6   20.07    4.05
   8   1   7   60.53    7.91
   8  -1   7   74.95    8.63
   8   1   8   44.80    6.69
   8  -1   8   43.26    6.74
   8   1   9   19.68    4.60
   8  -1   9   26.72    5.16
   8   1  10   33.08    5.95
   8  -1  10   31.87    5.81
   8   1  11   60.03    8.56
   8  -1  11   60.83    8.03
   8  -1  12    3.84    2.35
   8   1  12    6.08    2.70
   8  -1  13    7.85    3.60
   8   1  13    5.37    3.33
   8  -1  14    7.84    3.70
   8   1  14    1.46    3.33
   8  -1  15   19.77    5.33
   8   1  15   20.41    5.55
   8  -1  16   30.24    6.78
   8   1  16   37.67    7.38
   8   1  17   70.00    9.77
   8  -1  17   71.86    9.46
   8  -1  18   36.29    7.42
   8   1  18   39.55    7.61
   8  -1  19   13.49    4.45
   8   1  19   26.64    6.41
   8  -1  20    3.18    3.41
   8   1  20    3.93    3.13
   8  -1  21    3.61    2.04
   8   1  21   -0.85    3.27
   8  -1  22   10.98    3.84
   8   1  22   14.64    4.51
   8   1  23    4.49    3.43
   8   1  24   18.41    5.15
   8  -2 -16   73.68    9.72
   8  -2 -15  217.60   15.85
   8  -2 -14   89.53   10.20
   8  -2 -13   23.17    5.15
   8  -2 -12  201.07   14.90
   8  -2 -11  309.23   18.45
   8   2 -10   34.35    4.70
   8  -2 -10   35.05    5.92
   8  -2  -9  142.98   12.09
   8   2  -9  146.24   10.06
   8  -2  -8  227.55   14.97
   8   2  -8  216.15   12.26
   8  -2  -7  143.39   12.13
   8   2  -7  143.29   10.29
   8   2  -6   17.57    3.32
   8  -2  -6   17.41    3.98
   8  -2  -5  283.17   16.78
   8   2  -5  303.41   14.92
   8  -2  -4  362.73   18.99
   8   2  -4  376.01   17.02
   8  -2  -3  305.86   17.19
   8   2  -3  348.93   16.54
   8  -2  -2  590.13   23.84
   8   2  -2  626.63   22.66
   8   2  -1  577.32   21.97
   8  -2  -1  538.64   22.87
   8   2   0  190.56   12.72
   8  -2   0  201.40   14.08
   8   2   1  529.32   21.67
   8  -2   1  549.88   23.11
   8   2   2  576.79   23.41
   8  -2   2  580.82   23.81
   8   2   3  309.00   17.09
   8  -2   3  307.94   17.24
   8   2   4  327.38   17.84
   8  -2   4  330.75   18.11
   8  -2   5  249.62   15.73
   8  -2   6   15.07    3.83
   8   2   6   11.38    3.63
   8   2   7  165.98   12.89
   8  -2   7  164.57   13.05
   8   2   8  219.28   15.42
   8  -2   8  206.50   14.92
   8   2   9  153.63   13.10
   8  -2   9  146.88   12.64
   8   2  10   58.64    8.05
   8  -2  10   38.12    6.47
   8   2  11  305.75   19.03
   8  -2  11  309.04   18.83
   8   2  12  203.79   15.81
   8  -2  12  179.78   14.46
   8   2  13   36.14    6.79
   8  -2  13   27.39    5.45
   8   2  14   92.24   11.01
   8  -2  14   94.46   10.68
   8   2  15  227.66   17.84
   8  -2  15  208.54   16.17
   8   2  16   88.91   11.29
   8  -2  16   96.99   11.07
   8   2  17   84.33   11.19
   8  -2  17   70.61   10.09
   8   2  18  104.03   13.14
   8  -2  18   86.93   10.79
   8   2  19   23.54    6.50
   8  -2  19   23.28    6.55
   8   2  20   27.47    6.31
   8  -2  20   14.38    5.22
   8   2  21  106.23   12.74
   8  -2  21  115.42   13.59
   8   2  22   41.22    9.44
   8   2  23   17.87    5.96
   8   2  24   84.21   12.56
   8   2  25   23.68    6.65
   8  -3 -17  169.22   15.61
   8  -3 -16  127.47   13.58
   8  -3 -15   89.87   11.10
   8  -3 -14   54.99    8.15
   8  -3 -13   52.18    8.03
   8  -3 -12    2.30    2.17
   8  -3 -11   44.25    7.37
   8  -3 -10   62.53    8.39
   8  -3  -9   64.58    8.93
   8   3  -9   58.13    6.45
   8   3  -8   61.42    6.61
   8  -3  -8   70.04    8.82
   8  -3  -7   80.59    9.65
   8   3  -7  109.66    8.91
   8  -3  -6   40.22    6.68
   8   3  -6   43.59    5.66
   8  -3  -5   11.15    3.44
   8   3  -5   13.15    3.54
   8  -3  -4    1.10    2.14
   8   3  -4    0.30    1.22
   8  -3  -3   52.50    7.58
   8   3  -3   43.42    6.02
   8  -3  -2   74.19    8.99
   8   3  -2   52.71    6.77
   8  -3  -1   26.45    5.62
   8   3  -1   22.11    4.39
   8  -3   0    5.32    2.77
   8   3   0    7.90    2.59
   8  -3   1   22.10    4.47
   8   3   1   15.65    3.88
   8  -3   2   57.93    7.91
   8   3   2   52.37    7.01
   8  -3   3   42.57    6.76
   8   3   3   53.67    7.43
   8   3   4    1.31    1.48
   8  -3   4    1.66    1.73
   8   3   5   12.66    3.82
   8  -3   5   10.18    3.35
   8  -3   6   37.13    6.33
   8   3   6   32.19    6.01
   8  -3   7  121.95   11.40
   8   3   7  104.95   10.79
   8  -3   8   63.86    8.40
   8   3   8   64.14    8.65
   8  -3   9   61.45    8.01
   8   3   9   63.33    8.43
   8  -3  10   65.29    8.85
   8   3  10   59.33    8.07
   8  -3  11   69.43    9.38
   8   3  11   37.94    6.99
   8   3  12    6.47    3.22
   8  -3  12    2.54    1.81
   8  -3  13   54.26    8.21
   8   3  13   63.29    9.30
   8  -3  14   55.56    8.79
   8   3  14   65.68    9.34
   8  -3  15   89.54   10.95
   8   3  15   70.77   10.05
   8   3  16  146.62   14.10
   8  -3  16  139.08   13.57
   8   3  17  164.01   15.97
   8  -3  17  149.02   14.13
   8  -3  18   13.69    4.98
   8   3  18   21.92    6.14
   8  -3  19   11.76    4.53
   8   3  19   15.71    5.29
   8   3  20    0.93    3.17
   8   3  21    3.54    3.01
   8   3  22    3.59    3.76
   8   3  23    2.37    2.11
   8   3  24    3.67    4.01
   8   3  25    4.89    3.59
   8   3  26    1.56    5.42
   8  -4 -18   42.65    8.16
   8  -4 -17   13.31    5.34
   8  -4 -16  135.20   14.19
   8  -4 -15  224.48   18.07
   8  -4 -14   56.53    9.27
   8  -4 -13   72.47    9.70
   8  -4 -12   45.92    8.04
   8  -4 -11  149.84   14.16
   8  -4 -10   43.05    7.41
   8  -4  -9   40.16    6.93
   8  -4  -8   10.36    3.94
   8   4  -8   13.49    3.01
   8   4  -7  134.11   10.68
   8  -4  -7  121.85   12.46
   8  -4  -6   16.12    5.04
   8   4  -6   24.96    5.10
   8   4  -5  412.46   19.40
   8  -4  -5  453.18   23.30
   8  -4  -4  238.05   16.71
   8   4  -4  260.52   15.59
   8  -4  -3   61.31    8.47
   8   4  -3   61.32    7.67
   8  -4  -2  409.35   21.84
   8   4  -2  402.59   19.74
   8  -4  -1  707.10   28.70
   8   4  -1  686.76   25.93
   8  -4   0   78.69    9.41
   8   4   0   78.69    8.98
   8  -4   1  701.87   28.55
   8   4   1  695.74   26.64
   8  -4   2  422.74   22.09
   8   4   2  406.22   20.86
   8  -4   3   65.22    8.81
   8   4   3   60.48    8.13
   8  -4   4  241.20   17.00
   8   4   4  273.31   17.52
   8  -4   5  462.83   23.33
   8   4   5  413.18   21.50
   8  -4   6   36.54    6.93
   8   4   6   26.11    5.77
   8  -4   7  105.27   11.43
   8   4   7  165.36   13.97
   8   4   8   17.73    5.39
   8  -4   8   16.78    4.89
   8  -4   9   35.58    6.76
   8   4   9   38.95    6.84
   8  -4  10   32.53    6.09
   8   4  10   50.15    7.82
   8  -4  11  120.94   12.43
   8   4  11  149.60   14.22
   8  -4  12   47.92    8.02
   8   4  12   49.53    8.13
   8  -4  13   61.79    9.27
   8   4  13   66.67    9.79
   8  -4  14   61.75    9.49
   8   4  14   64.36    9.45
   8  -4  15  230.35   18.15
   8   4  15  201.91   17.33
   8  -4  16  145.37   14.68
   8   4  16  147.56   14.89
   8   4  17    9.88    4.46
   8  -4  17    8.03    3.46
   8   4  18   39.97    8.13
   8  -4  18   39.17    7.54
   8   4  19   26.49    6.87
   8   4  20    3.73    2.56
   8   4  21   65.15   10.26
   8   4  22   35.68    7.95
   8   4  23    6.05    3.03
   8   4  24   71.31   11.96
   8   4  25   44.61    8.85
   8   4  26   -1.05    3.39
   8  -5 -20   -5.40    1.71
   8  -5 -19   10.58    3.86
   8  -5 -18   13.91    5.87
   8  -5 -17   18.77    6.74
   8  -5 -16   59.13   10.25
   8  -5 -15   62.74   10.33
   8  -5 -14   38.58    7.71
   8  -5 -13   27.26    7.38
   8  -5 -12   14.30    4.80
   8  -5 -11   21.71    5.80
   8  -5 -10    2.28    2.92
  -8   5 -10   -2.25    1.65
   8  -5  -9    7.88    3.41
   8  -5  -8   23.45    5.64
   8   5  -7   93.21    9.50
   8  -5  -7   82.86   10.69
   8  -5  -6   27.79    6.20
   8   5  -6   32.59    5.57
   8   5  -5   22.61    4.78
   8  -5  -5   19.19    5.57
   8   5  -4   76.13    8.96
   8  -5  -4   75.86   10.11
   8   5  -3   93.06   10.01
   8  -5  -3   62.94    9.17
   8   5  -2   40.77    6.53
   8  -5  -2   33.04    6.99
   8  -5  -1   27.08    5.76
   8   5  -1   15.19    4.63
   8  -5   0   36.59    7.15
   8   5   0   29.63    5.82
   8  -5   1   22.76    4.97
   8   5   1   20.77    5.38
   8  -5   2   37.03    6.91
   8   5   2   22.38    5.59
   8  -5   3   66.83    9.79
   8   5   3   78.87    9.65
   8  -5   4   87.19   10.29
   8   5   4   88.75   10.51
   8  -5   5   24.66    5.93
   8   5   5   22.93    5.65
   8  -5   6   24.32    6.25
   8   5   6   32.31    6.95
   8  -5   7   85.17   10.91
   8   5   7   82.60   10.24
   8  -5   8   22.05    5.64
   8   5   8   23.73    5.36
   8  -5   9   12.40    4.69
   8   5   9    9.35    3.92
   8  -5  10   -0.71    2.66
   8   5  10   -0.53    2.45
   8  -5  11   17.62    5.56
   8   5  11   16.24    5.14
   8  -5  12   34.12    7.54
   8   5  12   37.14    6.82
   8  -5  13   30.57    7.35
   8   5  13   18.16    5.15
   8  -5  14   27.74    6.83
   8   5  14   38.48    7.59
   8  -5  15   45.55    8.13
   8   5  15   39.98    7.59
   8  -5  16   59.12    9.36
   8   5  16   60.15    9.40
   8   5  17   19.51    5.89
   8  -5  17   25.10    7.13
   8   5  18   12.76    4.69
   8   5  19   -0.62    3.29
   8   5  20    0.74    2.06
   8   5  21    7.26    5.65
   8   5  22   -0.60    3.03
   8   5  23    3.58    4.52
   8   5  24   -0.30    3.30
   8   5  25    0.75    2.80
   8  -6 -21   -9.16    4.14
   8  -6 -20    5.25    4.73
   8  -6 -19   25.48    8.47
   8  -6 -18   44.29    8.70
   8  -6 -17   41.21    8.98
   8  -6 -16   22.15    6.90
   8  -6 -15  115.65   14.06
   8  -6 -14   83.34   11.72
   8  -6 -13    1.04    3.20
   8  -6 -12   90.15   12.34
   8  -6 -11  162.88   16.12
   8  -6 -10   29.46    6.44
  -8   6  -9  105.44   11.62
   8  -6  -9  119.29   13.35
  -8   6  -8   54.23    8.01
   8  -6  -8   71.60   10.20
   8  -6  -7   30.32    6.56
  -8   6  -7   43.73    7.69
  -8   6  -6  246.47   17.60
   8   6  -6  218.78   15.95
   8  -6  -6  217.82   18.32
   8   6  -5  283.36   18.09
   8  -6  -5  256.64   19.25
   8  -6  -4   23.96    5.68
   8   6  -4   26.74    5.69
   8   6  -3   65.14    9.02
   8  -6  -3   69.14   10.24
   8   6  -2  105.29   11.24
   8  -6  -2   60.28    9.64
   8   6  -1  128.01   12.68
   8  -6  -1  111.49   12.73
   8   6   0  114.57   12.32
   8  -6   0  121.09   12.87
   8   6   1  110.13   11.67
   8  -6   1  126.69   13.02
   8   6   2   86.94   10.68
   8  -6   2   86.66   10.55
   8   6   3   54.76    8.97
   8  -6   3   64.51    9.66
   8  -6   4   32.86    6.93
   8   6   4   33.85    7.00
   8  -6   5  245.85   18.58
   8   6   5  268.88   18.68
   8  -6   6  241.44   18.46
   8   6   6  203.05   16.21
   8  -6   7   33.75    7.59
   8   6   7   28.67    6.47
   8  -6   8   50.28    8.25
   8  -6   9   94.16   11.75
   8   6   9  106.61   12.57
   8  -6  10   17.39    5.17
   8   6  10   25.78    6.18
   8  -6  11  194.43   16.74
   8   6  11  212.03   17.40
   8  -6  12   91.78   11.66
   8   6  12  105.51   12.63
   8  -6  13    0.14    1.87
   8   6  13    7.79    3.66
   8   6  14   74.85   10.91
   8   6  15  136.63   14.76
   8  -6  16   19.08    5.92
   8   6  16   20.70    5.80
   8   6  17   36.08    7.80
   8   6  18   70.94   10.93
   8   6  19   16.33    3.92
   8   6  20   15.67    6.95
   8   6  21   37.88    9.13
   8   6  22   15.52    5.12
  -8   6  23    9.49    5.08
   8   6  23    5.96    5.10
   8  -7 -21   18.21    6.74
   8  -7 -20   10.43    4.94
   8  -7 -19   10.50    5.53
   8  -7 -18    8.28    5.62
   8  -7 -17    6.40    5.28
   8  -7 -16    4.38    1.92
   8  -7 -15   -0.16    2.58
   8  -7 -14    6.34    2.21
   8  -7 -13    8.64    4.33
   8  -7 -12   43.07    8.90
   8  -7 -11   74.57   11.34
   8  -7 -10   31.54    7.21
   8  -7  -9    3.47    3.62
  -8   7  -8   49.55    8.30
   8  -7  -8   58.93   10.18
  -8   7  -7   41.91    8.26
   8  -7  -7   55.18    9.75
  -8   7  -6   10.57    3.32
   8  -7  -6   20.55    6.57
  -8   7  -5  108.09   12.58
   8   7  -5  105.08   12.28
   8  -7  -5   89.66   12.06
  -8   7  -4   33.52    7.26
   8   7  -4   55.13    8.51
   8  -7  -4   50.34    9.16
  -8   7  -3   56.35    8.72
   8   7  -3   61.24    9.23
   8  -7  -3   59.84    9.29
   8  -7  -2   39.57    7.93
  -8   7  -2   26.91    7.36
   8   7  -2   34.38    7.62
  -8   7  -1   77.40   10.51
   8  -7  -1   91.72   12.08
   8  -7   0   98.70   11.75
   8   7   0  102.68   12.03
   8  -7   1   86.83   11.63
   8   7   1   88.33   10.95
   8  -7   2   40.17    7.90
   8   7   2   63.25    9.52
   8  -7   3   69.53   10.68
   8   7   3   67.93   10.12
   8  -7   4   48.88    8.76
   8   7   4   45.71    8.41
   8  -7   5   88.01   12.07
   8   7   5  104.63   12.30
   8  -7   6   22.03    6.33
   8   7   6   26.78    6.29
   8  -7   7   53.21    9.11
   8   7   7   62.31    9.80
   8   7   8   59.78    9.51
   8  -7   8   60.42   10.22
   8  -7   9    1.05    2.21
   8   7   9    4.49    1.62
   8  -7  10   25.68    6.39
   8   7  10   23.44    6.39
   8  -7  11   32.33    7.49
   8   7  11   49.49    8.76
   8  -7  12   30.86    7.57
   8   7  12   41.49    8.12
   8  -7  13   14.19    4.88
   8   7  13   11.16    5.12
   8  -7  14    9.75    4.90
   8   7  14   -1.73    2.94
   8   7  15   -0.58    3.25
   8   7  16    3.59    3.60
   8   7  17    1.25    2.60
  -8   7  18   10.33    4.01
   8   7  18    9.12    4.47
   8   7  19    1.42    3.11
  -8   7  19    5.63    4.37
   8   7  20    0.54    2.28
  -8   7  20    1.59    4.54
   8   7  21   12.22    6.46
  -8   7  21    1.32    4.52
   8  -8 -19    2.23    3.67
   8  -8 -18   39.46   10.09
   8  -8 -17   76.78   12.74
   8  -8 -16    4.87    3.39
   8  -8 -15   38.41    9.32
   8  -8 -14   25.63    7.26
   8  -8 -13    0.93    2.02
   8  -8 -12   65.79   10.91
   8  -8 -11  111.98   14.05
   8  -8 -10    8.18    5.28
   8  -8  -8   71.49   11.17
  -8   8  -7   28.99    7.28
   8  -8  -7   33.80    8.54
  -8   8  -6   17.85    6.14
   8  -8  -6   23.08    5.81
  -8   8  -5   77.19   11.31
   8  -8  -5  113.07   13.71
  -8   8  -4   20.62    6.84
   8  -8  -4    9.45    4.35
  -8   8  -3    9.51    3.67
   8   8  -3    6.11    4.12
   8  -8  -3   12.88    5.27
  -8   8  -2   46.69    8.45
   8   8  -2   56.36    9.91
   8  -8  -2   40.48    8.20
   8  -8  -1   32.30    8.67
  -8   8  -1   53.63    9.75
   8   8  -1   51.08    9.09
   8  -8   0   10.55    4.91
  -8   8   0    0.35    2.62
   8   8   0    8.74    5.13
   8  -8   1   34.27    7.47
  -8   8   1   37.62    8.60
   8   8   1   25.83    6.19
  -8   8   2   47.69    9.27
   8  -8   2   53.43    9.36
   8   8   2   53.54    9.74
   8  -8   3    5.60    3.69
  -8   8   3    4.65    3.96
   8   8   3    8.90    4.00
   8   8   4   26.36    6.39
   8  -8   4   22.34    6.58
  -8   8   4   18.22    6.06
   8   8   5   95.42   12.12
  -8   8   5   94.02   12.58
   8  -8   5   81.53   11.93
   8   8   6   14.14    3.54
   8  -8   6   23.64    7.30
  -8   8   6   20.78    6.51
   8  -8   7   16.16    5.27
  -8   8   7   24.19    6.47
   8   8   7   20.69    6.65
  -8   8   8   85.90   12.09
   8  -8   8   90.88   12.41
   8   8   8   75.58   11.93
   8  -8   9   58.74    9.49
  -8   8   9   59.49   10.42
   8   8   9   61.00   10.11
   8  -8  10    9.61    5.15
  -8   8  10   10.89    6.01
   8   8  10   10.78    4.50
  -8   8  11  137.75   15.44
   8  -8  11  102.79   13.84
   8   8  11  122.81   14.43
   8  -8  12   56.06   10.06
  -8   8  12   58.49   10.87
   8   8  12   75.21   11.57
   8  -8  13    1.93    3.37
  -8   8  13    5.67    4.43
   8   8  13    1.58    2.94
   8   8  14   25.32    6.18
  -8   8  14   19.68    6.92
  -8   8  15   35.25    8.70
   8   8  15   32.39    8.07
  -8   8  16   -0.08    4.00
   8   8  16    1.07    2.38
  -8   8  17   65.34   11.74
   8   8  17   76.38   12.07
   8   8  18   44.60    9.39
  -8   8  18   36.99    8.99
   8   8  19   10.38    5.31
  -8   8  19    9.10    5.74
   8  -9 -15   16.10    6.85
   8  -9 -14   10.65    3.78
   8  -9 -13   12.49    6.07
   8  -9 -12    0.27    3.60
   8  -9 -11    7.83    3.13
   8  -9 -10   12.64    5.38
   8  -9  -9    3.49    3.08
   8  -9  -8   11.86    5.59
  -8   9  -7   10.32    6.57
   8  -9  -7   -4.18    4.77
  -8   9  -6   -1.25    3.90
   8  -9  -6    2.20    4.42
  -8   9  -5   17.04    5.95
   8  -9  -5   21.64    6.94
  -8   9  -4    0.54    3.32
   8  -9  -4   -1.91    2.73
  -8   9  -3    5.39    3.57
   8  -9  -3    8.15    5.29
  -8   9  -2   13.61    4.80
   8   9  -2   21.36    7.49
   8  -9  -2   12.64    5.90
  -8   9  -1   11.72    5.28
   8   9  -1   13.00    5.28
   8  -9  -1    7.81    4.73
  -8   9   0    2.01    3.84
   8   9   0    2.21    4.08
   8  -9   0    7.71    4.59
  -8   9   1   14.05    6.90
   8   9   1    4.71    2.60
   8  -9   1    7.66    5.07
   8   9   2   -1.81    3.18
  -8   9   2   17.36    7.27
   8  -9   2    8.53    4.22
   8   9   3    6.60    3.75
  -8   9   3   19.54    5.88
   8  -9   3   10.39    4.41
   8   9   4    7.72    4.21
  -8   9   4    9.16    4.39
   8  -9   4    8.72    4.88
  -8   9   5    5.77    4.52
   8  -9   5   13.00    6.00
   8  -9   6   -1.05    3.88
   8   9   6    1.92    2.25
  -8   9   6   -1.65    2.09
   8  -9   7    0.09    2.93
   8   9   7   -0.99    2.34
  -8   9   7    0.84    2.84
   8  -9   8    8.36    5.03
   8   9   8   13.06    4.64
  -8   9   8   12.77    6.29
   8  -9   9    7.99    5.73
  -8   9   9    2.19    3.59
   8   9   9    3.53    3.86
   8  -9  10   13.12    5.05
  -8   9  10    9.23    4.32
   8   9  10   13.68    5.47
   8  -9  11   16.73    5.74
  -8   9  11   15.32    6.61
   8   9  11   12.23    5.38
  -8   9  12   15.12    6.04
   8   9  12    9.88    4.43
  -8   9  13   22.09    7.27
   8   9  13   22.79    7.55
  -8   9  14   21.81    7.43
   8   9  14    6.62    1.97
  -8   9  15   12.84    3.79
   8   9  15   19.89    5.84
   8 -10 -10   -1.17    2.83
   8 -10  -9   39.24    9.17
   8 -10  -8   31.79    8.39
   8 -10  -7    2.29    3.03
  -8  10  -6   -4.74    2.97
   8 -10  -6    0.95    4.04
  -8  10  -5   48.09    9.80
   8 -10  -5   42.72    9.22
  -8  10  -4   17.77    5.69
   8 -10  -4   14.88    5.52
  -8  10  -3    1.12    2.24
   8 -10  -3    3.44    3.88
  -8  10  -2   13.81    5.61
   8 -10  -2    2.22    4.16
  -8  10  -1   30.94    8.10
   8 -10  -1   24.23    7.41
  -8  10   0   -1.77    2.74
   8 -10   0    6.17    3.79
   8  10   0    1.36    4.31
  -8  10   1   22.55    5.47
   8 -10   1   28.49    7.85
   8  10   1   13.43    6.35
  -8  10   2   24.77    6.62
   8 -10   2   28.81    6.98
   8  10   2    8.12    3.22
   8  10   3    1.83    3.32
  -8  10   3    3.86    3.43
   8 -10   3   -2.27    2.93
   8  10   4   10.82    4.86
  -8  10   4    7.96    2.53
   8  10   5   35.82    7.53
  -8  10   5   50.56   10.16
   8 -10   5   47.41   10.59
   8  10   6    1.10    2.49
  -8  10   6   -1.25    2.59
   8 -10   6    1.40    3.09
   8  10   7    9.10    4.90
  -8  10   7   14.11    6.44
   8 -10   7    8.90    5.21
   8  10   8   29.92    8.49
  -8  10   8   24.92    7.43
   8 -10   8   43.03   10.22
  -8  10   9   48.70   10.72
   8 -10   9   39.02    8.56
   8  10   9   44.99    9.73
  -8  10  10   -3.11    4.92
   8 -10  10    3.45    5.00
   8  10  10    0.13    2.98
   9   0 -13    1.70    3.13
   9   0 -12    1.97    1.36
   9   0 -11    0.29    1.51
   9   0 -10   -0.15    1.03
   9   0  -9    0.03    1.13
   9   0  -8   -0.70    1.20
   9   0  -7    0.72    1.09
   9   0  -6   -0.05    2.00
   9   0  -5   -0.34    1.27
   9   0  -4    0.75    1.37
   9   0  -3    0.49    1.69
   9   0  -2   -0.23    1.49
   9   0  -1   -0.18    1.12
   9   0   0   -0.31    1.14
   9   0   1   -0.28    1.36
   9   0   2   -0.57    0.93
   9   0   3    0.75    1.16
   9   0   4    0.06    1.19
   9   0   5   -0.61    1.81
   9   0   6    1.78    2.72
   9   0   7    0.31    2.53
   9   0   8   -0.19    2.58
   9   0   9    0.81    2.98
   9   0  10    1.30    2.33
   9   0  11   -0.68    2.49
   9   0  12    0.79    2.60
   9   0  13   -1.40    2.45
   9   0  14    1.27    1.89
   9   0  15    0.52    2.19
   9   0  16   -1.38    1.57
   9   0  17   -1.78    1.56
   9   0  18    0.16    3.20
   9   0  19    1.39    2.06
   9   0  20    1.88    2.98
   9   0  21    1.19    2.98
   9   0  22    0.74    2.87
   9   0  23    1.59    2.71
   9  -1 -14    3.46    3.15
   9  -1 -13   -0.21    1.76
   9  -1 -12   93.58    9.68
   9  -1 -11 1069.63   33.03
   9   1 -11  991.09   29.29
   9  -1 -10   45.69    7.03
   9   1 -10   39.28    5.74
   9  -1  -9  645.48   25.27
   9   1  -9  653.07   23.57
   9  -1  -8  194.86   14.12
   9   1  -8  212.04   13.28
   9  -1  -7  261.38   16.17
   9   1  -7  228.31   13.91
   9  -1  -6  201.16   14.08
   9   1  -6  220.04   13.75
   9  -1  -5  568.60   23.65
   9   1  -5  593.38   22.84
   9  -1  -4  334.46   18.09
   9   1  -4  341.91   17.06
   9  -1  -3  536.94   22.71
   9   1  -3  546.60   21.92
   9  -1  -2  270.75   16.28
   9   1  -2  281.39   15.86
   9  -1  -1  865.95   29.04
   9   1  -1  896.69   28.42
   9  -1   0 1162.17   34.08
   9   1   0 1160.36   32.68
   9  -1   1  832.55   28.98
   9   1   1  844.55   28.16
   9  -1   2  266.06   16.33
   9   1   2  275.73   16.24
   9  -1   3  569.28   23.87
   9   1   3  555.56   23.31
   9  -1   4  330.98   18.46
   9   1   4  371.46   19.20
   9  -1   5  561.39   23.97
   9   1   5  596.62   24.95
   9  -1   6  203.81   14.80
   9   1   6  228.59   15.42
   9  -1   7  240.31   16.10
   9   1   7  235.95   16.21
   9   1   8  198.88   14.97
   9  -1   8  178.66   14.00
   9   1   9  634.24   26.94
   9  -1   9  678.80   27.49
   9   1  10   42.90    7.86
   9  -1  10   39.08    6.67
   9   1  11 1115.38   37.17
   9  -1  11 1037.51   34.79
   9   1  12  124.99   12.71
   9  -1  12  105.97   11.53
   9  -1  13    2.47    1.38
   9   1  13    1.52    2.23
   9  -1  14    3.92    3.67
   9   1  14    4.21    2.84
   9   1  15  299.81   20.63
   9  -1  15  337.89   21.09
   9   1  16   71.26   10.18
   9  -1  16   72.64   10.15
   9   1  17  624.12   29.94
   9  -1  17  577.13   28.72
   9  -1  18    8.75    3.67
   9   1  18    7.49    3.14
   9  -1  19   52.39    8.74
   9   1  19   54.15    9.14
   9  -1  20   26.13    6.08
   9   1  20   44.22    8.65
   9  -1  21  164.58   16.18
   9   1  21  124.07   14.69
   9   1  22   60.22    9.88
   9  -1  22   51.24    9.53
   9   1  23   37.17    8.57
   9   1  24    0.86    3.09
   9   1  25   25.52    8.19
   9  -2 -16    1.01    3.52
   9  -2 -15    2.53    3.17
   9  -2 -14   11.99    3.74
   9  -2 -13    4.10    2.69
   9  -2 -12   32.44    6.63
   9  -2 -11   12.46    3.65
   9  -2 -10    1.22    1.89
   9   2 -10    1.30    1.08
   9  -2  -9   -0.82    2.65
   9   2  -9    3.76    2.22
   9  -2  -8   54.43    7.74
   9   2  -8   39.62    5.68
   9  -2  -7   32.68    5.86
   9   2  -7   35.53    5.53
   9   2  -6   10.51    3.11
   9  -2  -6    4.43    2.87
   9   2  -5    4.78    2.37
   9  -2  -5   10.02    3.14
   9   2  -4    7.78    2.85
   9  -2  -4   11.55    3.67
   9   2  -3   20.19    4.29
   9  -2  -3    9.95    2.81
   9   2  -2   20.56    4.47
   9  -2  -2   15.60    4.33
   9  -2  -1   72.12    8.84
   9   2  -1   81.00    8.60
   9   2   0   30.13    5.43
   9  -2   0   29.49    5.90
   9   2   1   75.70    8.60
   9  -2   1   72.25    8.80
   9   2   2   13.47    3.07
   9  -2   2   19.54    5.16
   9   2   3   17.06    4.43
   9  -2   3   18.25    4.31
   9   2   4   13.16    4.60
   9  -2   4   11.18    4.04
   9   2   5    2.55    1.50
   9  -2   5    0.40    2.17
   9   2   6    9.30    3.30
   9  -2   6   12.07    3.27
   9   2   7   35.33    6.83
   9  -2   7   30.18    6.16
   9   2   8   62.23    8.24
   9  -2   8   68.50    8.80
   9   2   9    0.98    2.36
   9  -2   9    5.37    3.95
   9   2  10    5.52    3.00
   9  -2  10    3.71    3.57
   9   2  11   20.05    4.77
   9  -2  11    8.15    3.73
   9   2  12   31.47    6.97
   9  -2  12   25.12    5.95
   9   2  13    7.75    3.19
   9  -2  13    5.00    1.97
   9   2  14   11.51    3.86
   9  -2  14   11.97    3.68
   9   2  15    0.34    1.58
   9  -2  15    1.83    2.56
   9   2  16   18.88    5.85
   9  -2  16    6.86    3.72
   9   2  17    5.38    1.99
   9  -2  17    1.71    1.68
   9   2  18   16.08    5.22
   9  -2  18   16.43    4.86
   9   2  19   -0.72    2.60
   9  -2  19   -2.59    2.28
   9   2  20    0.89    3.16
   9  -2  20   -0.81    2.20
   9   2  21    5.77    4.74
   9  -2  21    5.72    4.74
   9   2  22   11.28    3.81
   9   2  23   -1.52    2.99
   9   2  24    6.19    4.48
   9   2  25    6.00    5.09
   9   2  26    6.58    3.28
   9  -3 -17   64.69   10.52
   9  -3 -16  582.54   28.74
   9  -3 -15   80.08   10.63
   9  -3 -14  102.30   11.94
   9  -3 -13  125.84   12.69
   9  -3 -12  508.82   25.45
   9  -3 -11  715.65   30.73
   9  -3 -10  810.15   32.31
   9  -3  -9    2.87    1.50
   9   3  -9    5.66    2.53
   9  -3  -8  169.03   14.25
   9   3  -8  144.27   10.88
   9  -3  -7 1734.46   45.44
   9   3  -7 1532.63   35.99
   9  -3  -6   72.87    9.34
   9   3  -6   68.39    7.51
   9  -3  -5 2081.86   48.82
   9   3  -5 1996.67   42.71
   9   3  -4  817.46   27.51
   9  -3  -4  840.49   31.23
   9  -3  -3    0.94    2.30
   9   3  -3   -0.49    1.32
   9   3  -2   34.59    5.93
   9  -3  -2   33.13    6.51
   9   3  -1 3050.80   54.89
   9  -3  -1 2949.22   58.00
   9  -3   0    0.34    1.73
   9   3   0    3.93    2.57
   9   3   1 2921.01   55.26
   9  -3   1 3178.08   60.53
   9   3   2   43.61    7.26
   9  -3   2   45.46    7.55
   9  -3   3    0.01    2.50
   9   3   3    0.98    1.70
   9  -3   4  819.95   30.81
   9   3   4  826.15   30.39
   9   3   5 2097.94   48.77
   9  -3   5 1966.59   48.16
   9   3   6   75.55    9.77
   9  -3   6   76.76    9.77
   9   3   7 1614.57   44.08
   9  -3   7 1536.23   42.72
   9   3   8  143.30   13.32
   9  -3   8  131.08   12.42
   9  -3   9    4.83    2.35
   9   3   9    1.96    1.74
   9   3  10  770.46   31.20
   9  -3  10  903.00   33.29
   9   3  11  750.54   31.24
   9  -3  11  679.58   29.44
   9   3  12  546.30   27.25
   9  -3  12  479.65   24.80
   9   3  13  104.47   11.95
   9  -3  13  110.81   12.05
   9   3  14  105.18   12.27
   9  -3  14  124.74   13.08
   9   3  15   73.69   10.78
   9  -3  15   89.69   11.43
   9   3  16  604.43   30.06
   9  -3  16  603.21   29.13
   9   3  17   87.16   12.10
   9  -3  17   79.09   10.43
   9   3  18  161.49   15.75
   9  -3  18  114.72   13.12
   9  -3  19   31.05    7.65
   9   3  19   32.49    7.87
   9  -3  20    0.29    2.57
   9   3  20    2.32    2.95
   9   3  21  166.59   17.74
   9   3  22  125.07   15.67
   9   3  23   17.85    5.84
   9   3  24   48.82   10.45
   9   3  25  113.24   16.41
   9   3  26   13.45    6.02
   9  -4 -18    3.20    3.83
   9  -4 -17  206.95   18.51
   9  -4 -16    4.18    3.64
   9  -4 -15   18.43    5.00
   9  -4 -14   24.48    6.81
   9  -4 -13    2.19    2.54
   9  -4 -12   60.67    9.56
   9  -4 -11  267.65   19.16
   9  -4 -10    5.99    3.07
   9  -4  -9  174.83   15.42
   9   4  -8  150.32   11.99
   9  -4  -8  134.71   13.50
   9  -4  -7   -2.16    1.74
   9   4  -7   -0.31    1.15
   9   4  -6  233.87   15.24
   9  -4  -6  215.66   16.78
   9  -4  -5  110.94   12.02
   9   4  -5   93.88    9.60
   9  -4  -4   70.50    9.56
   9   4  -4   64.34    8.06
   9   4  -3   33.57    6.17
   9  -4  -3   26.07    5.99
   9  -4  -2  169.79   14.43
   9   4  -2  148.50   12.68
   9  -4  -1    1.44    2.46
   9   4  -1    0.51    1.26
   9  -4   0  503.32   24.95
   9   4   0  533.63   24.38
   9  -4   1   -0.09    2.94
   9   4   1    5.29    2.62
   9  -4   2  183.83   14.92
   9   4   2  176.94   13.78
   9   4   3   28.87    5.65
   9  -4   3   36.33    6.86
   9  -4   4   68.26    9.27
   9   4   4   64.14    8.63
   9  -4   5  112.97   11.95
   9   4   5  113.90   11.49
   9  -4   6  233.87   17.19
   9   4   6  243.74   17.33
   9   4   7   -0.74    1.94
   9  -4   7    1.95    3.52
   9  -4   8  152.50   13.89
   9   4   8  139.30   13.25
   9  -4   9  189.42   15.73
   9   4   9  195.07   15.89
   9   4  10    4.14    2.58
   9  -4  10   -1.70    2.49
   9  -4  11  297.96   19.90
   9   4  11  290.22   19.97
   9  -4  12   55.36    9.05
   9   4  12   67.11    9.67
   9   4  13   -0.33    2.50
   9  -4  13    5.38    3.14
   9   4  14   15.34    5.01
   9  -4  14   17.51    5.61
   9   4  15   14.27    5.23
   9  -4  15   20.10    6.08
   9   4  16   10.50    4.33
   9  -4  16    1.75    2.02
   9  -4  17  200.79   17.78
   9   4  17  203.21   17.65
   9  -4  18    6.10    3.99
   9   4  18    2.26    2.56
   9  -4  19    4.43    3.61
   9   4  19    5.26    3.66
   9   4  20    1.94    2.89
   9   4  21    4.81    2.57
   9   4  22   -0.50    3.36
   9   4  23   15.12    6.28
   9   4  24    2.45    4.47
   9   4  25    2.23    5.03
   9   4  26    7.97    4.80
   9  -5 -19   16.08    6.29
   9  -5 -18    0.94    2.15
   9  -5 -17   15.28    5.22
   9  -5 -16   20.21    5.42
   9  -5 -15  242.51   19.85
   9  -5 -14   21.26    6.06
   9  -5 -13    5.28    4.31
   9  -5 -12   39.16    7.75
   9  -5 -11  263.74   20.05
   9  -5 -10    7.21    3.93
   9  -5  -9   11.24    3.33
   9  -5  -8   -0.04    2.73
   9  -5  -7   72.62   10.47
   9  -5  -6   19.38    5.62
   9   5  -6   14.77    4.84
   9   5  -5  492.53   23.58
   9  -5  -5  583.28   28.44
   9   5  -4   49.30    7.73
   9  -5  -4   49.83    8.59
   9  -5  -3   13.35    4.81
   9   5  -3   15.90    4.26
   9   5  -2   14.60    3.48
   9  -5  -2   16.35    5.58
   9  -5  -1  564.99   27.47
   9   5  -1  490.42   23.92
   9  -5   0   35.57    7.29
   9   5   0   46.44    7.67
   9  -5   1  536.89   26.73
   9   5   1  465.89   23.70
   9   5   2   15.65    4.73
   9  -5   2   11.96    4.23
   9   5   3   15.14    4.33
   9  -5   3   14.68    5.18
   9  -5   4   48.02    8.16
   9   5   4   36.68    7.52
   9   5   5  534.09   26.45
   9  -5   5  486.02   25.90
   9  -5   6   28.55    6.79
   9   5   6   25.43    6.58
   9  -5   7   76.21   10.69
   9   5   7   75.39    9.69
   9   5   8   -1.70    2.83
   9  -5   8   -0.48    2.86
   9   5   9   13.00    4.92
   9  -5   9    7.70    4.14
   9   5  10   20.97    5.70
   9  -5  10   12.55    3.46
   9   5  11  326.83   21.45
   9  -5  11  295.85   20.59
   9  -5  12   32.79    7.06
   9   5  12   56.33    8.94
   9   5  13    7.19    3.81
   9  -5  13   21.47    6.16
   9   5  14   21.95    7.10
   9  -5  14   22.27    6.58
   9  -5  15  245.84   20.11
   9   5  15  263.66   20.30
   9   5  16   33.04    7.85
   9  -5  16   23.98    6.62
   9   5  17   19.71    5.81
   9  -5  17   10.00    5.78
   9   5  18   -0.71    2.33
   9   5  19   25.06    6.26
   9   5  20    9.18    4.08
   9   5  21   68.88   11.22
   9   5  22   23.96    6.88
   9   5  23   22.04    6.75
   9   5  24    1.16    4.64
   9  -6 -20   -3.23    3.25
   9  -6 -19   26.73    7.19
   9  -6 -18   12.57    5.69
   9  -6 -17    6.51    3.38
   9  -6 -16   31.60    8.05
   9  -6 -15   57.06   10.33
   9  -6 -14    3.78    3.15
   9  -6 -13   26.96    6.93
   9  -6 -12   15.90    6.33
   9  -6 -11    0.40    1.50
   9  -6 -10   38.54    8.28
   9  -6  -9   16.34    5.98
  -9   6  -9   -6.18    2.93
  -9   6  -8   67.09   10.01
   9  -6  -8   80.98   11.00
   9  -6  -7   53.92    8.76
   9  -6  -6   10.55    5.41
   9   6  -5    7.46    3.13
   9  -6  -5    6.66    3.65
   9  -6  -4   21.75    6.05
   9   6  -4   14.24    4.95
   9  -6  -3   19.08    4.82
   9   6  -3    8.81    3.81
   9  -6  -2    7.48    4.11
   9   6  -2    3.03    3.11
   9   6  -1   76.45    9.80
   9  -6  -1   87.38   11.60
   9   6   0   99.69   11.72
   9  -6   0  109.10   12.40
   9   6   1   58.97    8.65
   9  -6   1   76.97   10.73
   9  -6   2    6.20    3.90
   9   6   2    1.91    2.32
   9  -6   3   13.30    5.16
   9   6   3    7.04    3.24
   9  -6   4   11.59    4.28
   9   6   4    6.14    2.80
   9  -6   5   13.53    3.97
   9   6   5    8.16    4.21
   9  -6   6    0.22    3.45
   9   6   6    1.05    3.75
   9  -6   7   60.94    9.17
   9   6   7   66.84   10.02
   9  -6   8   47.41    8.76
   9   6   8   72.33   10.67
   9  -6   9    3.23    2.62
   9   6   9   14.57    5.52
   9  -6  10   32.94    7.51
   9   6  10   28.90    6.36
   9  -6  11    1.41    3.07
   9   6  11    0.58    1.51
   9  -6  12    7.60    5.45
   9   6  12    6.27    3.31
   9  -6  13   23.57    6.59
   9   6  13   26.37    6.41
   9  -6  14    8.61    3.73
   9   6  14    6.71    3.34
   9  -6  15   64.99   10.71
   9   6  15   64.91   10.49
   9  -6  16   16.55    5.23
   9   6  16   35.75    8.46
   9   6  17    2.87    3.15
   9   6  18   14.63    6.01
   9   6  19   28.02    7.53
   9   6  20    0.74    4.69
   9   6  21    6.11    2.23
   9   6  22    9.03    4.60
   9   6  23    7.16    5.27
   9  -7 -20   16.92    5.32
   9  -7 -19    3.30    5.30
   9  -7 -18   14.27    6.15
   9  -7 -17   37.15    9.31
   9  -7 -16    6.08    4.85
   9  -7 -15  216.53   19.91
   9  -7 -14    3.09    4.14
   9  -7 -13   13.25    6.35
   9  -7 -12    6.77    3.96
   9  -7 -11  206.37   19.24
   9  -7 -10   15.88    5.69
   9  -7  -9   55.32    9.10
  -9   7  -8   26.17    7.44
   9  -7  -8    4.85    4.07
   9  -7  -7    8.80    4.81
  -9   7  -7    8.41    3.10
  -9   7  -6   44.37    8.64
   9  -7  -6   59.17    9.74
  -9   7  -5  272.34   20.07
   9  -7  -5  268.98   20.76
   9  -7  -4    4.94    3.50
   9   7  -4   -1.96    2.16
  -9   7  -4    2.90    4.09
   9  -7  -3   25.45    5.78
   9   7  -3   31.23    7.44
  -9   7  -3   40.84    8.63
   9  -7  -2    6.87    3.53
   9   7  -2    6.44    3.85
   9   7  -1  151.78   14.80
   9  -7  -1  147.93   15.03
   9   7   0  293.30   20.64
   9  -7   0  272.75   20.91
   9   7   1  158.89   15.18
   9  -7   1  135.99   15.08
   9  -7   2    8.38    4.20
   9   7   2    7.15    3.74
   9  -7   3   36.35    8.07
   9   7   3   28.72    7.02
   9  -7   4    3.85    3.93
   9   7   4    4.62    3.69
   9  -7   5  226.73   19.07
   9   7   6   75.58   10.58
   9  -7   6   64.20   10.27
   9  -7   7    1.44    2.97
   9   7   7    3.96    2.55
   9  -7   8   21.44    6.16
   9   7   8    3.43    4.83
   9   7   9   49.42    8.90
   9  -7   9   55.78    9.96
   9   7  10   22.97    6.37
   9  -7  10   27.69    7.52
   9   7  11  246.71   20.02
   9  -7  11  219.35   19.34
   9  -7  12    5.96    4.32
   9   7  12    9.45    5.23
   9   7  13   19.71    6.09
   9  -7  13   15.27    5.73
   9  -7  14    2.70    3.45
   9   7  14    2.73    3.78
   9   7  15  242.38   20.67
   9  -7  15  173.27   18.40
   9   7  16    5.01    3.42
   9   7  17   51.90    9.69
   9   7  18   10.19    5.01
   9   7  19    5.85    4.95
   9   7  20   25.63    7.20
  -9   7  20   27.63    8.05
   9   7  21   27.85    7.94
  -9   7  21   45.54   10.35
   9  -8 -18    5.85    5.48
   9  -8 -17    6.22    5.48
   9  -8 -16    0.18    4.51
   9  -8 -15   11.66    5.06
   9  -8 -14    2.26    2.89
   9  -8 -13    6.03    3.65
   9  -8 -12    5.58    4.37
   9  -8 -11    9.38    4.86
   9  -8 -10   10.95    4.87
   9  -8  -9    5.76    3.21
   9  -8  -8   12.33    5.02
  -9   8  -7    2.17    3.30
   9  -8  -7   10.71    5.16
  -9   8  -6   50.12    9.00
   9  -8  -6   26.84    6.28
  -9   8  -5    0.69    2.61
   9  -8  -5    4.38    3.50
  -9   8  -4    7.53    4.70
   9  -8  -4    3.43    2.56
   9  -8  -3    4.85    3.14
  -9   8  -3   14.01    5.59
   9  -8  -2   21.10    5.16
   9   8  -2   23.29    6.34
  -9   8  -2   28.22    6.78
   9  -8  -1    2.45    2.98
   9   8  -1    4.12    3.90
  -9   8  -1    8.57    5.51
   9  -8   0    9.75    3.90
   9   8   0   15.84    5.00
  -9   8   0    9.98    2.99
   9  -8   1    5.37    3.11
  -9   8   1    7.28    4.59
   9   8   1    3.01    1.96
   9  -8   2   28.55    6.88
  -9   8   2   24.41    5.91
   9   8   2   27.95    6.98
   9  -8   3    6.44    4.42
  -9   8   3   12.14    4.30
   9   8   3    5.15    3.25
   9  -8   4    6.14    3.61
  -9   8   4    4.82    3.17
   9   8   4    5.98    3.71
   9  -8   5    6.23    4.64
  -9   8   5    1.45    2.27
   9   8   5    2.79    3.92
   9  -8   6   35.01    8.75
  -9   8   6   46.88    9.07
   9   8   6   39.49    7.89
   9  -8   7   20.47    6.95
  -9   8   7   21.80    6.59
   9   8   7    4.15    3.28
   9  -8   8   13.40    5.41
   9   8   8   16.47    5.58
  -9   8   8    4.29    3.61
   9  -8   9    7.45    4.69
  -9   8   9   -3.11    3.17
   9   8   9    6.64    3.53
   9  -8  10    6.91    5.25
  -9   8  10   12.78    4.68
   9   8  10    7.84    3.75
   9  -8  11    0.16    2.34
   9   8  11    1.79    3.94
   9  -8  12    3.91    2.48
  -9   8  12    1.24    2.90
   9   8  12    3.67    3.85
   9  -8  13   -1.07    3.52
   9   8  13   -0.30    2.18
  -9   8  13    3.66    4.46
   9   8  14    6.33    3.48
  -9   8  14    9.44    5.56
  -9   8  15    4.72    3.71
   9   8  15    0.11    2.63
   9   8  16   -7.29    4.30
  -9   8  16   -1.03    4.81
   9   8  17    0.93    2.56
  -9   8  17    1.01    2.53
   9   8  18    5.07    2.68
  -9   8  18   10.02    6.61
   9  -9 -14   -5.11    3.46
   9  -9 -13    4.17    4.07
   9  -9 -12    2.47    3.08
   9  -9 -11   68.89   11.73
   9  -9 -10  102.71   14.27
   9  -9  -9   63.70   11.01
   9  -9  -8    0.25    1.93
   9  -9  -7   52.82    9.51
  -9   9  -6   36.71    9.29
   9  -9  -6   46.74    9.08
  -9   9  -5  191.98   18.84
   9  -9  -5  209.16   19.84
  -9   9  -4   15.24    6.41
   9  -9  -4    4.76    3.80
  -9   9  -3    3.27    4.30
   9  -9  -3    3.66    4.98
  -9   9  -2   -3.48    2.95
   9  -9  -2   -2.83    4.66
  -9   9  -1   88.63   12.89
   9   9  -1   76.07   11.79
   9  -9  -1  100.97   14.11
  -9   9   0   66.56   10.97
   9  -9   0   68.32   11.01
   9   9   0   99.05   13.59
  -9   9   1   81.95   12.61
   9  -9   1  104.74   13.71
   9   9   1   97.56   13.30
  -9   9   2    1.82    3.54
   9   9   2   -0.01    2.86
   9  -9   2   -2.83    2.79
   9  -9   3    4.28    3.14
  -9   9   3    2.19    2.17
   9   9   3   -1.09    3.29
  -9   9   4   10.52    4.69
   9   9   4    3.79    4.07
   9  -9   5  191.42   18.69
   9   9   5  159.69   18.18
   9  -9   6   50.92   10.72
  -9   9   6   56.45   10.45
   9   9   6   37.72    9.21
   9  -9   7   41.12    9.33
  -9   9   7   39.47    9.07
   9   9   7   42.21    9.16
   9  -9   8    7.47    5.33
  -9   9   8    1.24    4.06
   9   9   8    8.80    5.31
  -9   9   9   59.00   10.65
   9  -9   9   68.91   11.42
   9   9   9   62.35   10.90
  -9   9  10  101.80   14.11
   9   9  10   65.85   11.22
   9  -9  10   74.22   12.36
   9  -9  11   68.60   11.53
  -9   9  11   72.49   12.56
   9   9  11   72.27   11.77
   9  -9  12    5.93    4.89
  -9   9  12    1.45    3.43
   9   9  12    6.63    3.31
  -9   9  13   15.54    6.08
   9   9  13    8.73    5.15
   9   9  14    4.81    3.30
  -9   9  14    3.29    4.00
   9 -10  -8   54.72   10.55
   9 -10  -7    7.57    2.54
   9 -10  -6   95.01   13.30
  -9  10  -5   27.26    9.07
   9 -10  -5   20.39    6.65
  -9  10  -4   -3.72    4.66
   9 -10  -4    2.69    4.19
  -9  10  -3    0.94    4.13
   9 -10  -3    4.66    4.58
  -9  10  -2   54.69   10.13
   9 -10  -2   54.06   10.72
  -9  10  -1   13.78    6.53
   9 -10  -1   13.69    6.02
  -9  10   0  133.54   16.66
   9 -10   0  152.70   17.41
  -9  10   1    9.24    3.85
   9  10   1   16.11    6.87
   9 -10   1   13.58    5.95
  -9  10   2   49.71   10.38
   9  10   2   46.22   10.08
  -9  10   3    3.11    3.76
   9  10   3   -0.03    2.66
   9 -10   3    6.58    4.76
  -9  10   4   -0.26    3.67
   9  10   4    5.44    3.71
  -9  10   5   22.85    6.71
   9  10   5   12.38    6.07
   9 -10   5   29.28    8.27
  -9  10   6  117.12   15.58
   9 -10   6  111.48   14.79
   9  10   6   85.79   13.90
  -9  10   7    9.31    4.45
   9  10   7   10.56    4.90
   9 -10   7   11.17    5.13
  -9  10   8   62.74   10.95
   9  10   8   67.06   11.26
   9 -10   8   74.12   12.26
  10   0 -12  314.56   18.39
  10   0 -11  303.28   18.06
  10   0 -10  106.24   10.70
  10   0  -9  259.92   16.37
  10   0  -8  228.50   15.22
  10   0  -7  139.03   12.17
  10   0  -6   69.16    8.44
  10   0  -5  286.78   17.02
  10   0  -4  348.67   18.81
  10   0  -3  278.68   16.99
  10   0  -2  238.44   15.68
  10   0  -1  131.80   11.86
  10   0   0    1.01    1.02
  10   0   1  157.37   13.02
  10   0   2  226.85   15.63
  10   0   3  232.48   16.02
  10   0   4  255.60   16.63
  10   0   5  238.32   16.40
  10   0   6   69.73    9.26
  10   0   7  135.93   12.44
  10   0   8  252.11   17.25
  10   0   9  253.52   17.15
  10   0  10  105.28   11.21
  10   0  11  322.06   19.97
  10   0  12  319.14   20.36
  10   0  13  209.19   16.60
  10   0  14  154.14   14.51
  10   0  15  319.43   21.19
  10   0  16   95.06   11.94
  10   0  17  319.34   21.51
  10   0  18  231.60   18.68
  10   0  19   65.00   10.22
  10   0  20   67.61   11.21
  10   0  21  156.91   16.17
  10   0  22   50.34    9.20
  10   0  23  107.43   13.96
  10   0  24   59.26   10.78
  10  -1 -14    9.97    6.33
  10  -1 -13   43.56    6.96
  10  -1 -12   31.10    6.19
  10  -1 -11    3.45    2.16
  10   1 -11    3.00    2.28
  10  -1 -10    6.03    3.04
  10   1 -10    9.51    3.79
  10  -1  -9   14.38    4.74
  10   1  -9    6.61    3.11
  10  -1  -8    3.29    2.03
  10   1  -8    2.02    1.84
  10  -1  -7   48.38    7.11
  10   1  -7   46.71    7.01
  10  -1  -6   31.13    6.39
  10   1  -6   29.18    5.48
  10  -1  -5    2.52    2.16
  10   1  -5    0.02    1.40
  10  -1  -4    4.92    3.20
  10   1  -4    2.35    1.49
  10  -1  -3    8.87    3.38
  10   1  -3    5.99    2.70
  10   1  -2   13.59    3.81
  10  -1  -2   11.44    3.90
  10  -1  -1   34.30    6.57
  10   1  -1   42.21    6.47
  10  -1   0   25.28    5.54
  10   1   0   26.92    5.43
  10  -1   1   29.80    5.57
  10   1   1   33.51    5.82
  10   1   2    8.69    3.74
  10  -1   2   11.38    3.12
  10   1   3    3.14    1.70
  10  -1   3    6.79    3.17
  10   1   4    1.65    1.06
  10  -1   4    4.89    1.53
  10   1   5    0.36    1.49
  10  -1   5    0.79    2.15
  10   1   6   24.36    5.57
  10  -1   6   26.83    5.84
  10  -1   7   39.25    7.07
  10   1   7   36.84    6.75
  10   1   8    2.23    2.31
  10  -1   8    2.21    1.72
  10   1   9   17.49    5.57
  10  -1   9   14.79    3.59
  10   1  10    7.18    3.10
  10  -1  10    5.67    2.62
  10  -1  11    0.09    1.68
  10   1  11    1.32    2.92
  10   1  12   32.46    6.84
  10  -1  12   36.25    6.94
  10   1  13   34.19    7.01
  10  -1  13   46.92    8.36
  10  -1  14    3.30    3.03
  10   1  14   -0.77    2.26
  10  -1  15   24.21    5.67
  10   1  15   10.37    4.31
  10  -1  16   14.33    5.16
  10   1  16   14.97    4.90
  10  -1  17    9.75    3.97
  10   1  17   11.22    5.27
  10  -1  18    2.75    1.82
  10   1  18   13.62    4.49
  10   1  19    5.47    3.69
  10  -1  19   10.56    4.89
  10   1  20   10.65    4.46
  10  -1  20   11.60    4.30
  10   1  21    7.79    4.52
  10  -1  21   16.11    6.45
  10   1  22    6.70    3.25
  10  -1  22    2.99    2.60
  10   1  23    5.47    2.87
  10  -1  23   -0.35    3.04
  10   1  24    3.96    4.36
  10   1  25    6.73    6.24
  10  -2 -15  171.12   15.38
  10  -2 -14  132.18   13.20
  10  -2 -13   77.37   10.69
  10  -2 -12  230.39   17.40
  10  -2 -11  476.79   24.39
  10  -2 -10  122.56   12.28
  10   2 -10  116.57   10.69
  10  -2  -9  219.83   16.43
  10   2  -9  230.62   14.89
  10  -2  -8  259.66   17.58
  10   2  -8  233.41   14.60
  10   2  -7   92.12    9.13
  10  -2  -7   84.41   10.13
  10  -2  -6   85.08    9.94
  10   2  -6   98.91    9.84
  10  -2  -5  267.09   17.69
  10   2  -5  315.80   17.80
  10  -2  -4  155.96   13.44
  10   2  -4  175.89   13.28
  10  -2  -3  252.69   17.30
  10   2  -3  272.90   16.46
  10  -2  -2  478.37   23.25
  10   2  -2  479.25   22.05
  10  -2  -1  376.69   20.74
  10   2  -1  336.98   18.52
  10  -2   0   56.53    8.09
  10   2   0   49.79    7.30
  10  -2   1  308.81   18.95
  10   2   1  378.98   20.14
  10  -2   2  470.52   23.19
  10   2   2  454.99   22.29
  10   2   3  267.69   17.40
  10  -2   3  246.00   16.89
  10   2   4  202.20   15.14
  10  -2   4  163.32   14.08
  10   2   5  311.70   19.25
  10  -2   5  291.62   18.80
  10   2   6   90.97   10.61
  10  -2   6   80.32    9.88
  10   2   7  103.43   11.10
  10  -2   7  111.32   11.76
  10   2   8  240.92   17.73
  10  -2   8  269.97   18.31
  10   2   9  197.44   15.93
  10  -2   9  193.55   15.89
  10   2  10  104.85   11.61
  10  -2  10   99.11   11.24
  10   2  11  468.57   25.06
  10  -2  11  451.41   24.80
  10   2  12  273.72   19.36
  10  -2  12  243.47   17.77
  10   2  13   68.47   10.24
  10  -2  13   85.01   10.97
  10   2  14  103.47   12.16
  10  -2  14  122.48   13.27
  10   2  15  188.71   17.18
  10  -2  15  151.27   14.83
  10   2  16   55.37    9.07
  10  -2  16   53.74    9.08
  10   2  17  145.26   15.00
  10  -2  17  171.70   16.35
  10   2  18  136.22   14.31
  10  -2  18  113.74   13.68
  10   2  19   48.00    9.02
  10  -2  19   63.54   10.67
  10   2  20   17.16    5.31
  10  -2  20   25.81    6.99
  10   2  21   66.49   11.08
  10  -2  21   71.24   11.36
  10   2  22   38.00    8.06
  10   2  23   17.12    6.19
  10   2  24   52.08   10.60
  10   2  25   33.42    8.50
  10   2  26   20.95    6.81
  10  -3 -16   12.12    3.94
  10  -3 -15    2.45    2.03
  10  -3 -14    2.27    2.26
  10  -3 -13   13.51    4.54
  10  -3 -12    8.63    4.31
  10  -3 -11    0.52    2.45
  10  -3 -10   23.98    6.00
  10  -3  -9   16.22    4.58
  10   3  -9   -3.47    1.85
  10   3  -8    0.38    2.11
  10  -3  -8   -0.07    1.41
  10  -3  -7   27.49    5.92
  10   3  -7   34.42    5.79
  10   3  -6   10.14    3.46
  10  -3  -6   19.68    5.63
  10   3  -5    1.93    1.11
  10  -3  -5    5.30    3.76
  10  -3  -4   35.01    7.24
  10   3  -4   24.02    4.80
  10  -3  -3    1.95    2.41
  10   3  -3    0.38    1.86
  10  -3  -2   10.52    3.82
  10   3  -2   11.21    4.28
  10  -3  -1   22.71    5.43
  10   3  -1   27.07    5.36
  10  -3   0    7.94    3.23
  10   3   0   16.11    4.55
  10  -3   1   16.09    4.86
  10   3   1   20.71    4.67
  10  -3   2    8.68    3.14
  10   3   2    8.76    3.47
  10  -3   3    3.83    3.89
  10   3   3    2.21    2.33
  10  -3   4   24.27    5.90
  10   3   4   17.89    5.43
  10  -3   5    2.82    3.12
  10   3   5    0.17    2.52
  10  -3   6   11.28    4.67
  10   3   6   16.14    4.91
  10   3   7   30.04    6.70
  10  -3   7   39.77    7.53
  10  -3   8    0.54    2.18
  10   3   8    3.35    2.82
  10  -3   9   11.91    4.18
  10   3   9    5.12    3.14
  10  -3  10   29.73    6.56
  10   3  10   28.70    6.49
  10  -3  11    1.46    2.31
  10   3  11    0.66    3.09
  10  -3  12   11.40    5.12
  10   3  12    7.32    3.78
  10  -3  13   21.52    4.17
  10   3  13   16.77    4.05
  10  -3  14    1.67    2.26
  10   3  14    3.18    2.30
  10  -3  15    2.81    3.36
  10   3  15    3.37    1.88
  10  -3  16   14.30    4.50
  10   3  16   10.10    3.72
  10  -3  17    0.24    2.14
  10   3  17    2.12    3.92
  10  -3  18    1.74    2.99
  10   3  18    3.07    2.05
  10  -3  19   -2.60    4.67
  10   3  19   -0.14    2.63
  10   3  20    2.64    3.10
  10  -3  20   -2.73    5.10
  10   3  21   -2.41    4.19
  10   3  22    1.85    3.44
  10   3  23    4.81    2.60
  10   3  24    5.11    4.31
  10   3  25   -1.87    4.46
  10   3  26    4.21    4.74
  10  -4 -17   76.03   11.21
  10  -4 -16   51.79    9.12
  10  -4 -15  113.70   13.14
  10  -4 -14  105.82   12.85
  10  -4 -13   76.07   10.86
  10  -4 -12  135.62   14.10
  10  -4 -11  326.88   21.62
  10  -4 -10  102.09   11.97
  10  -4  -9   95.80   11.46
  10  -4  -8  132.73   14.00
  10  -4  -7   36.31    6.98
  10   4  -7   38.24    6.10
  10  -4  -6   33.06    7.00
  10   4  -6   49.43    7.11
  10  -4  -5  196.26   16.26
  10   4  -5  188.61   14.45
  10  -4  -4   80.45   10.56
  10   4  -4   73.59    9.34
  10  -4  -3   78.23   10.20
  10   4  -3   94.66   10.28
  10  -4  -2  299.22   19.80
  10   4  -2  278.74   17.66
  10  -4  -1  319.21   20.27
  10  -4   0  148.34   14.07
  10   4   0  146.52   13.45
  10  -4   1  294.34   19.77
  10   4   1  298.98   19.11
  10  -4   2  316.93   20.46
  10   4   2  276.42   18.43
  10  -4   3   79.10   10.45
  10   4   3   92.15   10.69
  10  -4   4   62.35    9.06
  10   4   4   90.09   11.07
  10  -4   5  198.90   16.15
  10   4   5  201.52   16.19
  10  -4   6   44.50    7.92
  10   4   6   43.91    7.71
  10   4   7   44.96    7.72
  10  -4   7   32.27    6.82
  10  -4   8  145.01   14.36
  10   4   8  117.93   12.92
  10  -4   9   82.80   10.77
  10   4   9   89.50   11.36
  10  -4  10   89.03   11.31
  10   4  10  105.37   12.31
  10  -4  11  305.82   21.32
  10   4  11  314.36   21.14
  10  -4  12  121.53   13.49
  10   4  12  169.02   15.79
  10  -4  13   63.54   10.11
  10   4  13   71.66    9.90
  10  -4  14   90.45   11.96
  10   4  14  105.93   12.73
  10  -4  15  101.38   12.70
  10   4  15  141.47   14.78
  10   4  16   61.16   10.08
  10  -4  16   39.66    8.32
  10  -4  17   82.25   11.79
  10   4  17   96.32   12.63
  10  -4  18  101.95   13.36
  10   4  18  116.70   14.09
  10   4  19   49.01    9.70
  10  -4  19   44.50    9.39
  10   4  20   20.84    5.44
  10   4  21   38.04    7.43
  10   4  22   18.79    5.29
  10   4  23    5.21    5.26
  10   4  24   47.67    9.52
  10   4  25   34.07    8.35
  10  -5 -18   -0.90    3.45
  10  -5 -17   -1.03    2.51
  10  -5 -16   10.03    4.13
  10  -5 -15   28.39    7.76
  10  -5 -14    2.16    2.18
  10  -5 -13    0.23    2.45
  10  -5 -12    0.04    2.55
  10  -5 -11    8.60    4.72
  10  -5 -10   26.18    7.07
  10  -5  -9    5.24    2.10
  10  -5  -8   34.65    7.17
  10  -5  -7   29.64    6.33
  10  -5  -6    9.68    4.98
  10   5  -6    4.71    3.32
  10  -5  -5   10.33    4.15
  10   5  -5   10.64    4.16
  10   5  -4   55.92    8.51
  10  -5  -4   61.01    9.07
  10  -5  -3   19.78    5.84
  10   5  -3   30.18    5.99
  10  -5  -2   60.24    9.63
  10   5  -2   68.90    8.77
  10  -5  -1  146.03   14.66
  10   5  -1  145.90   13.77
  10  -5   0  136.72   14.32
  10   5   0  133.01   13.23
  10  -5   1  149.56   14.54
  10   5   1  168.10   14.66
  10  -5   2   65.35    9.92
  10   5   2   70.56    9.25
  10   5   3   21.83    5.86
  10  -5   3   13.36    4.93
  10  -5   4   49.01    8.75
  10   5   4   42.89    7.49
  10   5   5   10.93    4.15
  10  -5   5    1.48    1.97
  10   5   6    7.39    3.33
  10  -5   6    0.90    1.75
  10   5   7   14.86    4.82
  10  -5   7   14.28    5.01
  10   5   8   18.82    5.36
  10  -5   8   38.21    7.94
  10   5   9    6.23    2.84
  10  -5   9   12.68    3.69
  10   5  10   14.17    5.13
  10  -5  10   21.12    5.75
  10   5  11    8.46    3.65
  10  -5  11    7.74    4.55
  10   5  12   -0.99    2.33
  10  -5  12    3.32    3.40
  10   5  13    2.18    3.59
  10  -5  13    5.53    4.54
  10   5  14    4.92    5.06
  10  -5  14   -0.38    2.61
  10   5  15   32.60    7.47
  10  -5  15   21.18    6.58
  10   5  16    9.40    4.30
  10  -5  16   13.35    5.79
  10   5  17    2.01    2.18
  10  -5  17    7.31    4.15
  10  -5  18    2.47    5.38
  10   5  18    4.22    3.23
  10   5  19    5.91    2.68
  10   5  20   -0.78    2.06
  10   5  21   14.51    6.38
  10   5  22    1.91    3.91
  10   5  23   -3.19    4.98
  10  -6 -19   18.28    6.41
  10  -6 -18   25.44    7.38
  10  -6 -17   60.18   10.91
  10  -6 -16   69.52   11.43
  10  -6 -15  146.17   16.72
  10  -6 -14   79.67   11.53
  10  -6 -13   82.30   12.27
  10  -6 -12   55.10   10.18
  10  -6 -11   51.33    9.33
  10  -6 -10   59.05    9.78
  10  -6  -9   74.80   11.00
  10  -6  -8   86.78   11.74
  10  -6  -7   30.92    7.72
  10  -6  -6   49.28    8.97
  10   6  -5  141.08   13.52
  10  -6  -5  140.85   14.74
  10   6  -4   62.87    8.92
  10  -6  -4   81.33   11.10
  10  -6  -3    8.22    4.11
  10   6  -3    3.74    3.20
  10   6  -2   50.91    8.32
  10  -6  -2   56.74    9.54
  10   6  -1  135.82   13.79
  10  -6  -1   78.99   11.24
  10   6   0  105.26   12.39
  10  -6   0  129.98   13.92
  10   6   1  124.72   13.14
  10  -6   1  120.74   13.41
  10  -6   2   62.76    9.72
  10   6   2   53.40    9.08
  10  -6   3    1.76    2.71
  10   6   3   10.66    4.66
  10  -6   4   81.47   10.92
  10   6   4   71.62   10.10
  10  -6   5  133.00   13.96
  10   6   5  121.44   13.51
  10  -6   6   32.11    6.88
  10   6   6   47.28    8.44
  10  -6   7   18.81    5.69
  10   6   7   27.74    6.97
  10  -6   8   73.70   10.94
  10   6   8   96.89   12.40
  10  -6   9   89.56   11.80
  10   6   9  111.42   13.14
  10   6  10   38.08    7.74
  10  -6  10   46.06    8.84
  10  -6  11   51.47    9.03
  10   6  11   57.56    9.66
  10  -6  12   43.74    8.81
  10   6  12   48.27    8.93
  10  -6  13   59.39   10.66
  10   6  13   78.66   11.04
  10  -6  14   96.28   12.88
  10   6  14   85.02   11.69
  10  -6  15  133.98   15.31
  10   6  15  143.32   15.81
  10  -6  16   49.01    9.44
  10   6  16   59.22   10.42
  10   6  17   56.52    9.30
  10   6  18   51.23    9.62
  10   6  19   33.64    8.48
  10   6  20   44.80    8.85
  10   6  21   74.60   12.33
  10   6  22   29.12    7.54
  10  -7 -19    4.81    4.61
  10  -7 -18   -3.77    3.50
  10  -7 -17    8.25    3.19
  10  -7 -16   21.62    6.43
  10  -7 -15   11.27    4.33
  10  -7 -14   14.31    4.72
  10  -7 -13    6.89    3.45
  10  -7 -12    3.75    2.77
  10  -7 -11   28.01    7.55
  10  -7 -10   44.64    9.32
  10  -7  -9   45.87    8.29
  10  -7  -8   30.85    7.08
  10  -7  -7   -2.80    2.87
 -10   7  -7   -0.55    4.51
  10  -7  -6   10.22    5.34
 -10   7  -6    0.74    3.78
  10  -7  -5    6.64    4.51
 -10   7  -5    4.55    2.63
  10   7  -4    1.59    2.53
  10  -7  -4    2.10    1.89
  10  -7  -3   15.40    5.66
  10   7  -3   18.78    5.57
  10  -7  -2   15.23    6.40
  10   7  -2   12.74    4.18
  10   7  -1   73.47   10.54
  10  -7  -1   55.36    9.31
  10  -7   0   34.80    7.63
  10   7   0   29.55    7.14
  10  -7   1   51.19    9.02
  10   7   1   54.70    9.50
  10  -7   2   23.62    6.96
  10   7   2   14.26    5.47
  10  -7   3   10.05    5.09
  10   7   3    5.91    3.85
  10  -7   4    3.49    4.39
  10   7   4    6.24    3.89
  10  -7   5    4.86    3.52
  10   7   5    4.58    3.44
  10  -7   6    0.94    3.16
  10   7   6   14.20    4.97
  10  -7   7    1.98    3.05
  10   7   7    3.33    3.98
  10  -7   8   18.26    6.52
  10   7   8   28.92    7.07
  10  -7   9   31.20    7.09
  10   7   9   39.09    8.20
  10  -7  10   32.88    7.68
  10   7  10   36.73    8.84
  10  -7  11   37.57    8.29
  10   7  11   44.50    8.10
  10  -7  12    8.71    5.01
  10   7  12    2.56    3.88
  10  -7  13   12.27    5.78
  10   7  13   12.38    5.45
  10  -7  14   27.85    7.70
  10   7  14   39.91    8.35
  10  -7  15    6.00    4.32
  10   7  15   20.64    6.74
  10   7  16   10.79    3.91
  10   7  17    3.17    2.76
  10   7  18    7.82    3.66
  10   7  19    4.09    2.72
  10  -8 -17    4.74    2.60
  10  -8 -16    4.80    3.61
  10  -8 -15   49.05   10.25
  10  -8 -14   51.99   10.55
  10  -8 -13   19.10    6.43
  10  -8 -12   36.01    8.67
  10  -8 -11   40.57    8.24
  10  -8 -10   16.27    6.13
  10  -8  -9   84.65   12.59
  10  -8  -8   80.85   11.93
 -10   8  -7    8.38    3.99
  10  -8  -7   17.27    6.41
 -10   8  -6   75.62   11.85
  10  -8  -6   66.38   10.88
 -10   8  -5  132.58   14.68
  10  -8  -5  151.26   16.27
 -10   8  -4   62.88   11.35
  10  -8  -4   73.42   12.00
  10  -8  -3    6.45    4.05
 -10   8  -3   22.19    6.93
  10  -8  -2   16.97    5.62
  10   8  -2   32.17    7.91
 -10   8  -2   20.62    6.59
  10  -8  -1   26.68    7.04
  10   8  -1   30.59    7.59
 -10   8  -1   29.12    6.72
  10  -8   0   40.92    9.01
 -10   8   0   37.82    8.21
  10   8   0   52.76    9.58
  10  -8   1   21.37    6.62
  10   8   1   33.29    7.72
 -10   8   1   38.23    8.52
  10  -8   2   22.44    7.48
 -10   8   2   18.22    5.99
  10   8   2   27.63    5.90
  10  -8   3   10.99    5.40
  10   8   3   12.57    6.17
  10   8   4   85.94   11.72
  10  -8   4   80.75   12.16
  10   8   5  130.10   14.77
  10  -8   5  145.50   15.44
  10   8   6   62.85   10.57
  10  -8   6   70.70   11.49
  10  -8   7   14.63    6.89
  10   8   7   13.43    5.56
  10   8   8   52.92    9.86
  10  -8   8   73.20   11.22
  10  -8   9   35.49    7.90
  10   8   9   53.97    9.86
  10  -8  10   14.74    6.19
  10   8  10    5.68    2.50
  10  -8  11   27.24    6.72
  10   8  11   20.63    6.02
  10  -8  12   29.54    8.06
  10   8  12   18.35    6.03
  10  -8  13   14.38    5.51
  10   8  13    6.33    4.49
  10   8  14   50.15   10.33
 -10   8  15   50.17    9.28
  10   8  15   66.50   11.56
  10   8  16    7.43    4.54
 -10   8  16    8.32    3.34
  10   8  17   -1.11    2.50
 -10   8  17   11.84    4.79
  10  -9 -13    1.79    2.40
  10  -9 -12    2.03    3.67
  10  -9 -11    8.33    4.26
  10  -9 -10    5.66    4.52
  10  -9  -9    0.40    2.18
  10  -9  -8   10.50    5.63
  10  -9  -7    5.30    3.94
 -10   9  -6   35.29    8.91
  10  -9  -6    7.13    3.92
 -10   9  -5    1.15    3.55
  10  -9  -5    1.82    1.87
 -10   9  -4    3.84    3.23
  10  -9  -4    4.94    4.41
 -10   9  -3   18.15    6.27
  10  -9  -3    7.91    3.84
 -10   9  -2   -0.05    2.55
  10  -9  -2    4.03    3.98
  10   9  -1   -1.01    1.76
 -10   9  -1   11.47    5.95
  10  -9  -1   11.77    4.69
  10  -9   0   16.67    5.90
  10   9   0   25.68    7.49
 -10   9   0   29.18    7.64
  10  -9   1    4.55    5.00
  10   9   1   14.08    5.11
 -10   9   1   21.65    6.76
  10  -9   2    9.95    5.77
  10   9   2    7.77    3.81
 -10   9   2    6.21    5.54
  10  -9   3   15.91    5.30
  10   9   3   17.77    5.94
 -10   9   3   14.07    6.27
  10  -9   4   -1.12    2.94
  10   9   4    7.92    3.81
 -10   9   4   11.95    5.81
  10  -9   5    2.05    3.92
  10   9   5    2.66    4.18
 -10   9   5    0.08    2.96
  10  -9   6    8.35    4.26
  10   9   6    6.99    4.58
 -10   9   6    4.26    5.15
  10  -9   7   11.87    6.26
  10   9   7    1.42    3.55
 -10   9   7    5.25    4.46
  10  -9   8   15.10    6.16
  10   9   8    7.09    5.14
 -10   9   8    3.69    3.64
  10  -9   9   -2.59    3.07
  10   9   9    0.89    2.85
 -10   9   9   -2.72    3.75
  10  -9  10    9.25    4.05
  10   9  10    9.42    4.94
 -10   9  10   14.42    7.36
  10  -9  11   20.59    7.35
  10   9  11   10.12    4.56
 -10   9  11   15.27    4.13
  10  -9  12    7.93    6.04
  10   9  12   -1.83    3.42
 -10   9  12    4.40    4.21
  10   9  13    1.36    2.70
 -10   9  13    7.97    5.30
 -10  10  -5   37.72   10.21
  10 -10  -5   29.06    9.33
 -10  10  -4   20.36    7.91
  10 -10  -4   21.14    6.87
 -10  10  -3    2.85    3.77
  10 -10  -3   -5.17    5.07
 -10  10  -2   12.39    3.69
  10 -10  -2   25.07    8.14
 -10  10  -1    4.63    4.34
  10 -10  -1    9.98    5.91
 -10  10   0    6.51    4.81
  10 -10   0   -3.32    5.12
  10  10   1   30.06   10.07
 -10  10   1    6.79    4.38
  10 -10   1   25.71    7.54
  10  10   2   19.35    6.95
 -10  10   2   29.41    8.57
  10 -10   2   20.53    6.51
  10  10   3   -3.60    3.41
 -10  10   3   -1.29    4.06
  10 -10   3    9.03    5.72
  10  10   4   11.78    6.04
 -10  10   4   26.58    7.61
  10 -10   4   27.48    8.06
  10  10   5    8.27    4.56
 -10  10   5   17.79    6.57
  10 -10   5   21.13    7.02
  11   0 -12   -0.21    2.12
  11   0 -11    0.37    1.91
  11   0 -10   -0.59    1.52
  11   0  -9    0.72    1.68
  11   0  -8    0.08    1.21
  11   0  -7    0.30    2.29
  11   0  -6   -0.82    2.18
  11   0  -5   -0.87    1.24
  11   0  -4    2.33    1.87
  11   0  -3   -0.57    1.83
  11   0  -2    0.28    1.74
  11   0  -1   -0.16    1.22
  11   0   0    0.71    2.32
  11   0   1    0.23    1.68
  11   0   2   -0.17    1.66
  11   0   3    0.13    1.28
  11   0   4    0.40    2.62
  11   0   5   -0.05    1.48
  11   0   6   -0.08    1.20
  11   0   7   -0.54    2.45
  11   0   8   -1.92    1.83
  11   0   9   -0.58    2.23
  11   0  10   -0.07    1.83
  11   0  11   -1.55    1.87
  11   0  12   -0.19    1.67
  11   0  13    1.00    1.96
  11   0  14   -0.10    3.17
  11   0  15   -2.09    1.71
  11   0  16   -2.69    3.85
  11   0  17    2.43    3.16
  11   0  18    0.60    2.91
  11   0  19    2.43    3.85
  11   0  20    0.24    1.86
  11   0  21    6.09    5.33
  11   0  22   -0.82    2.61
  11   0  23   -1.83    2.57
  11   0  24    0.43    3.53
  11  -1 -13  489.75   25.30
  11  -1 -12  585.12   27.17
  11  -1 -11   27.87    6.18
  11  -1 -10  247.06   17.41
  11   1 -10  283.08   17.60
  11  -1  -9  222.99   16.60
  11   1  -9  258.23   17.08
  11  -1  -8  233.21   17.18
  11   1  -8  253.31   16.76
  11  -1  -7  283.65   18.64
  11   1  -7  331.95   19.09
  11  -1  -6  179.50   15.03
  11   1  -6  194.61   14.62
  11  -1  -5   51.68    7.84
  11   1  -5   56.00    7.90
  11  -1  -4   44.22    7.53
  11   1  -4   46.54    7.22
  11  -1  -3  341.84   20.10
  11   1  -3  357.24   19.68
  11  -1  -2  923.67   32.73
  11   1  -2  981.01   32.83
  11  -1  -1   51.69    7.84
  11   1  -1   41.76    6.61
  11   1   0    4.55    2.62
  11  -1   0    1.06    1.82
  11  -1   1   46.38    7.03
  11   1   1   58.11    8.22
  11  -1   2 1005.99   34.71
  11   1   2  907.73   32.33
  11  -1   3  288.28   18.59
  11   1   3  310.90   18.92
  11  -1   4   49.85    7.67
  11   1   4   41.78    6.89
  11  -1   5   78.72    9.95
  11   1   5   44.42    7.61
  11  -1   6  168.67   14.55
  11   1   6  225.90   16.42
  11  -1   7  308.16   19.40
  11   1   7  279.75   18.57
  11  -1   8  268.11   18.22
  11   1   8  274.86   18.85
  11  -1   9  211.91   16.65
  11   1   9  269.65   19.12
  11  -1  10  280.34   19.09
  11   1  10  255.67   18.58
  11   1  11   28.23    6.36
  11  -1  11   26.51    5.90
  11  -1  12  548.26   27.10
  11   1  12  583.61   28.35
  11  -1  13  523.34   27.21
  11   1  13  495.22   26.69
  11  -1  14  285.03   20.38
  11   1  14  241.48   18.79
  11  -1  15   67.26   10.11
  11   1  15   72.56   10.34
  11   1  16   10.52    5.08
  11  -1  16    1.88    2.11
  11   1  17   26.38    6.29
  11  -1  17   27.54    6.46
  11  -1  18  330.94   22.95
  11   1  18  322.72   22.68
  11  -1  19   74.96   11.56
  11   1  19   63.16   10.36
  11   1  20   18.14    5.56
  11  -1  20   20.03    6.03
  11   1  21   26.14    6.73
  11  -1  21   23.21    5.76
  11   1  22    4.01    2.57
  11  -1  22    1.53    4.10
  11   1  23   16.04    7.20
  11  -1  23    6.75    3.06
  11   1  24  118.97   15.55
  11   1  25   28.63    8.47
  11  -2 -14   17.71    6.04
  11  -2 -13   25.02    6.58
  11  -2 -12    9.88    3.93
  11  -2 -11    3.03    3.14
  11  -2 -10    6.59    3.47
  11  -2  -9    3.37    1.36
  11   2  -9    1.41    1.77
  11  -2  -8   73.83   10.18
  11   2  -8   98.58   10.30
  11  -2  -7   21.60    5.33
  11   2  -7   20.34    4.93
  11  -2  -6    6.19    3.43
  11   2  -6    4.72    2.41
  11  -2  -5   43.74    7.37
  11   2  -5   43.19    6.89
  11   2  -4    2.76    2.83
  11  -2  -4    5.05    3.46
  11  -2  -3  506.94   25.24
  11   2  -3  422.54   21.71
  11   2  -2   16.24    3.96
  11  -2  -2   11.91    3.86
  11  -2  -1  348.88   20.86
  11   2  -1  338.41   19.57
  11   2   0   -0.23    1.95
  11  -2   0    1.93    2.56
  11  -2   1  290.15   18.96
  11   2   1  306.15   18.81
  11   2   2   20.29    5.44
  11  -2   2   14.48    4.69
  11  -2   3  479.26   24.33
  11   2   3  423.49   22.69
  11   2   4    7.53    3.12
  11  -2   4   10.52    3.62
  11  -2   5   44.80    7.31
  11   2   5   49.74    7.97
  11   2   6    3.87    1.59
  11  -2   6    6.28    3.65
  11   2   7   22.58    5.67
  11  -2   7   23.38    5.57
  11   2   8   88.79   10.91
  11  -2   8   72.99   10.21
  11   2   9    0.82    3.27
  11  -2   9    1.31    2.00
  11   2  10    4.36    3.49
  11  -2  10    7.06    3.33
  11   2  11    4.44    3.37
  11  -2  11    1.06    2.75
  11   2  12    8.36    3.90
  11  -2  12   11.41    4.03
  11   2  13   32.95    6.71
  11  -2  13   26.58    6.34
  11   2  14   23.06    6.64
  11  -2  14   16.43    6.04
  11   2  15    4.77    3.36
  11  -2  15    1.00    3.17
  11   2  16    4.56    3.99
  11  -2  16   12.40    5.09
  11   2  17   -0.85    1.70
  11  -2  17    1.94    2.20
  11   2  18    1.61    3.38
  11  -2  18    7.78    4.80
  11   2  19    4.36    2.92
  11  -2  19   -0.28    3.66
  11   2  20   10.93    3.18
  11  -2  20   11.60    6.09
  11   2  21    3.24    3.26
  11  -2  21    2.88    3.32
  11   2  22    5.95    4.37
  11  -2  22    2.62    2.83
  11   2  23   35.70    8.61
  11   2  24    1.00    3.90
  11   2  25   10.40    4.90
  11  -3 -16    9.66    6.89
  11  -3 -15   27.93    6.94
  11  -3 -14  117.21   13.24
  11  -3 -13  109.20   13.01
  11  -3 -12  121.38   13.25
  11  -3 -11  199.58   16.84
  11  -3 -10   36.58    7.25
  11  -3  -9  808.89   33.62
  11  -3  -8  325.18   21.10
  11   3  -8  292.58   17.61
  11  -3  -7   80.53   10.61
  11   3  -7   71.55    8.97
  11  -3  -6   98.94   11.63
  11   3  -6   68.98    8.80
  11  -3  -5  567.10   27.43
  11   3  -5  561.83   24.91
  11  -3  -4  353.25   21.63
  11   3  -4  327.34   19.28
  11  -3  -3 2016.32   51.44
  11   3  -3 1727.18   44.64
  11  -3  -2  413.02   23.49
  11   3  -2  423.98   22.79
  11  -3  -1 1683.50   47.61
  11   3  -1 1712.51   45.21
  11   3   0   96.82   10.98
  11  -3   0  109.31   12.07
  11   3   1 1703.06   46.00
  11  -3   1 1801.82   48.27
  11   3   2  437.22   23.18
  11  -3   2  436.33   23.99
  11   3   3 1820.95   47.94
  11  -3   3 1837.52   49.05
  11   3   4  289.17   19.32
  11  -3   4  292.83   19.79
  11   3   5  573.49   27.64
  11  -3   5  534.92   26.88
  11   3   6   78.23   10.26
  11  -3   6   74.80   10.85
  11   3   7   73.36    9.83
  11  -3   7   78.91   10.63
  11   3   8  322.20   21.18
  11  -3   8  323.27   21.02
  11   3   9  784.01   33.09
  11  -3   9  829.63   33.84
  11   3  10   50.54    8.25
  11  -3  10   42.52    7.71
  11   3  11  184.64   16.27
  11  -3  11  196.37   16.87
  11   3  12  134.81   13.92
  11  -3  12  133.96   13.77
  11   3  13  136.10   14.41
  11  -3  13  120.55   13.55
  11   3  14  122.63   14.05
  11  -3  14  124.58   13.68
  11   3  15   29.21    7.25
  11  -3  15   29.14    7.62
  11   3  16    1.73    2.24
  11  -3  16   -1.54    4.12
  11   3  17   53.05    9.61
  11  -3  17   74.14   11.72
  11   3  18  149.79   15.93
  11  -3  18  137.43   15.14
  11   3  19   34.51    7.87
  11  -3  19   34.85    8.80
  11   3  20   42.66    8.99
  11  -3  20   38.41    8.51
  11   3  21   24.69    5.82
  11  -3  21   12.18    4.23
  11   3  22    9.45    3.45
  11   3  23   80.54   12.70
  11   3  24   83.21   12.73
  11   3  25   93.42   13.98
  11  -4 -17    7.18    6.44
  11  -4 -16    1.97    2.67
  11  -4 -15   11.36    4.70
  11  -4 -14    3.77    3.55
  11  -4 -13   -1.26    3.21
  11  -4 -12   34.54    8.00
  11  -4 -11   10.18    3.60
  11  -4 -10   53.26    9.19
  11  -4  -9    5.32    3.38
  11  -4  -8  140.83   14.38
  11   4  -7   16.40    5.01
  11  -4  -7   19.95    5.92
  11  -4  -6    7.11    3.50
  11   4  -6    5.44    2.63
  11  -4  -5    3.69    3.06
  11   4  -5    4.29    2.81
  11  -4  -4  851.48   34.36
  11   4  -4  823.86   31.89
  11   4  -3  102.02   11.36
  11  -4  -3   80.79   10.45
  11   4  -2  212.41   16.42
  11  -4  -2  204.47   17.24
  11   4  -1  300.71   19.54
  11  -4  -1  301.37   20.64
  11  -4   0    3.69    2.70
  11   4   0    5.54    3.85
  11  -4   1  268.77   19.50
  11   4   1  272.46   18.88
  11  -4   2  177.07   15.48
  11   4   2  185.09   15.30
  11  -4   3   76.14   10.90
  11   4   3  101.76   11.39
  11  -4   4  827.87   33.97
  11  -4   5    7.70    4.30
  11   4   5    0.65    2.57
  11  -4   6    5.73    2.71
  11   4   6   12.45    5.42
  11  -4   7   24.03    5.55
  11   4   7   28.92    7.14
  11   4   8  143.98   14.13
  11  -4   8  124.20   13.72
  11  -4   9    8.18    4.68
  11   4   9    2.41    1.78
  11   4  10   44.79    8.42
  11  -4  10   44.90    8.34
  11  -4  11   11.64    3.71
  11   4  11   14.52    4.97
  11   4  12   40.87    8.39
  11  -4  12   39.49    7.74
  11  -4  13   -1.42    3.53
  11   4  13    0.04    1.94
  11  -4  14    1.89    2.00
  11   4  14    1.10    2.15
  11  -4  15   10.81    5.13
  11   4  15   11.14    5.21
  11  -4  16    2.76    2.84
  11   4  16    2.53    2.71
  11  -4  17    2.40    3.39
  11   4  17   -0.69    2.63
  11  -4  18    1.88    3.78
  11   4  18    4.27    4.08
  11  -4  19    1.79    3.88
  11   4  19    8.65    5.69
  11   4  20    4.01    2.48
  11   4  21   10.45    4.12
  11   4  22   40.85    9.25
  11   4  23   20.11    7.05
  11   4  24   13.86    6.24
  11  -5 -18   56.01   11.76
  11  -5 -17   12.83    5.56
  11  -5 -16    6.93    4.42
  11  -5 -15   31.87    7.60
  11  -5 -14  113.17   14.47
  11  -5 -13   82.18   11.89
  11  -5 -12   20.26    6.19
  11  -5 -11    3.26    3.57
  11  -5 -10    6.86    3.78
  11  -5  -9   89.21   12.00
  11  -5  -8  341.36   23.05
  11  -5  -7   56.70    9.31
  11  -5  -6   35.29    7.40
  11  -5  -5    6.48    3.58
  11   5  -5   15.90    4.56
  11  -5  -4  357.35   23.27
  11   5  -4  407.37   23.24
  11  -5  -3   69.24   10.04
  11   5  -3   63.05    9.26
  11  -5  -2  130.20   13.76
  11   5  -2  136.47   13.60
  11  -5  -1  188.42   16.66
  11   5  -1  187.06   16.16
  11  -5   0    3.72    1.91
  11   5   0    7.72    4.41
  11  -5   1  204.37   17.53
  11   5   1  186.65   16.15
  11  -5   2  137.67   14.31
  11   5   2  134.66   13.73
  11  -5   3   66.30    9.73
  11   5   3   52.55    8.60
  11  -5   4  337.23   22.91
  11   5   4  343.83   22.37
  11  -5   5   14.15    6.11
  11   5   5   14.47    4.76
  11  -5   6   43.27    8.22
  11   5   6   33.62    7.48
  11  -5   7   49.03    9.08
  11   5   7   47.15    8.29
  11  -5   8  333.91   22.82
  11   5   8  377.09   23.66
  11  -5   9   89.07   12.12
  11   5   9  105.43   12.54
  11  -5  10    5.09    1.86
  11   5  10    0.65    3.21
  11  -5  11   -1.37    3.09
  11   5  11    2.09    1.74
  11  -5  12    9.04    4.59
  11   5  12   26.77    6.63
  11  -5  13   65.15   10.52
  11   5  13   66.51   10.69
  11  -5  14   89.77   12.46
  11   5  14   90.89   12.20
  11   5  15   44.92    9.35
  11  -5  15   26.30    7.21
  11  -5  16    1.94    2.96
  11   5  16   10.90    4.43
  11  -5  17   13.62    6.29
  11   5  17   12.96    3.90
  11  -5  18   70.11   12.09
  11   5  18   48.70    9.58
  11   5  19   25.88    6.80
  11   5  20   55.84   10.66
  11   5  21    3.26    2.64
  11   5  22   39.40    8.97
  11  -6 -19   20.15    7.84
  11  -6 -18   -0.20    2.37
  11  -6 -17    2.26    3.29
  11  -6 -16    8.46    4.36
  11  -6 -15    9.30    4.64
  11  -6 -14   25.45    7.41
  11  -6 -13   23.38    7.05
  11  -6 -12   -1.45    3.08
  11  -6 -11    5.42    3.26
  11  -6 -10   56.10    9.88
  11  -6  -9    4.93    3.62
  11  -6  -8   45.74    9.27
  11  -6  -7    8.20    3.59
  11  -6  -6   43.45    8.29
  11  -6  -5    7.30    3.54
  11  -6  -4    8.92    3.46
  11   6  -4   -0.07    3.33
  11  -6  -3    5.36    4.07
  11   6  -3    1.92    1.70
  11   6  -2   93.78   11.91
  11  -6  -2   92.74   11.90
  11  -6  -1    6.85    3.15
  11   6  -1   13.75    4.16
  11  -6   0    0.33    2.75
  11   6   0    1.05    2.24
  11  -6   1    9.53    4.15
  11   6   1   18.00    4.96
  11  -6   2   88.72   11.91
  11   6   2  103.02   12.60
  11   6   3    1.32    2.68
  11  -6   3    3.00    2.65
  11   6   4    5.78    3.70
  11  -6   4    7.78    3.72
  11   6   5   13.51    4.47
  11  -6   5   10.97    5.23
  11  -6   6   50.21    9.30
  11   6   6   39.71    7.98
  11   6   7    2.94    2.10
  11  -6   7    3.74    5.01
  11  -6   8   36.93    7.84
  11   6   8   53.47    8.89
  11   6   9   10.53    5.41
  11  -6   9    7.18    4.66
  11  -6  10   67.58   10.92
  11   6  10   48.80    8.83
  11   6  11   -3.03    3.38
  11  -6  11    1.19    2.05
  11   6  12    4.41    2.84
  11  -6  12    0.23    3.49
  11   6  13   17.86    5.11
  11  -6  13   16.43    7.45
  11   6  14   15.31    5.11
  11  -6  14   32.28    7.96
  11   6  15   12.74    5.10
  11  -6  15    8.44    4.32
  11   6  16    9.55    5.08
  11  -6  16    6.84    4.67
  11   6  17    2.35    3.73
  11  -6  17    3.02    3.83
  11   6  18   -0.92    2.56
  11   6  19    8.15    4.38
  11   6  20   25.83    8.08
  11   6  21    6.09    4.11
  11  -7 -18   35.39    8.24
  11  -7 -17    2.37    3.18
  11  -7 -16   10.04    5.04
  11  -7 -15   19.94    6.76
  11  -7 -14   99.32   13.93
  11  -7 -13   79.22   12.15
  11  -7 -12   38.05    9.04
  11  -7 -11   12.88    4.98
  11  -7 -10   -2.50    4.44
  11  -7  -9   49.07    9.59
  11  -7  -8  129.06   15.29
  11  -7  -7  151.98   16.17
  11  -7  -6   52.62    9.74
  11  -7  -5    2.93    2.00
  11  -7  -4   74.30   11.33
  11   7  -3  147.57   15.38
  11  -7  -3  145.67   16.11
  11  -7  -2   41.52    8.89
  11   7  -2   30.56    7.05
  11   7  -1    7.03    3.35
  11  -7  -1    4.11    4.50
  11   7   0   -0.61    3.06
  11  -7   0   -1.05    3.16
  11   7   1    8.39    3.64
  11  -7   1    3.01    1.87
  11   7   2   43.58    8.34
  11  -7   2   30.32    7.33
  11   7   3  149.79   15.65
  11  -7   3  141.90   15.45
  11   7   4   60.43   10.16
  11  -7   4   69.21   11.24
  11  -7   5    1.35    3.32
  11   7   5    8.12    5.19
  11  -7   6   50.87    9.01
  11   7   6   43.16    8.38
  11  -7   7  127.77   14.82
  11   7   7  140.12   15.38
  11  -7   8  147.50   16.59
  11   7   8  152.44   15.90
  11   7   9   38.97    8.26
  11  -7   9   34.59    8.54
  11   7  10    6.41    2.77
  11  -7  10   11.71    6.00
  11   7  11    9.71    4.65
  11  -7  11   14.33    5.50
  11  -7  12   43.55    9.38
  11   7  12   46.60    9.12
  11  -7  13   80.77   13.12
  11   7  13   80.51   11.89
  11  -7  14  100.41   13.51
  11   7  14   86.37   12.54
  11   7  15   31.33    7.43
  11  -7  15   32.11    8.77
  11   7  16    2.44    4.04
  11   7  17    4.80    4.23
  11   7  18   43.61    9.53
  11  -8 -15   -0.47    2.72
  11  -8 -14    5.21    4.06
  11  -8 -13    5.87    4.74
  11  -8 -12   -1.11    2.79
  11  -8 -11    6.72    5.03
  11  -8 -10    5.59    3.95
  11  -8  -9    6.52    4.69
  11  -8  -8    1.82    2.78
  11  -8  -7    1.59    3.93
  11  -8  -6   -0.71    3.39
 -11   8  -6   12.08    6.19
  11  -8  -5    4.30    3.28
 -11   8  -5    1.95    2.37
  11  -8  -4    1.53    2.06
 -11   8  -4    5.36    3.03
  11  -8  -3    2.28    3.40
 -11   8  -3   -1.81    5.00
  11  -8  -2   -1.23    4.52
  11   8  -2   -7.09    3.53
 -11   8  -2   -1.21    2.58
  11   8  -1   45.50    9.06
 -11   8  -1   41.68    8.52
  11  -8  -1   54.98   10.23
  11  -8   0   13.40    4.63
  11   8   0    6.06    2.90
  11  -8   1   46.16    9.29
  11   8   1   53.74    9.39
  11  -8   2    7.99    4.98
  11   8   2   10.20    5.04
  11  -8   3    3.81    4.34
  11   8   3   -1.90    2.60
  11  -8   4    0.67    3.29
  11   8   4   -1.96    3.74
  11  -8   5    4.61    3.53
  11   8   5    7.44    4.26
  11  -8   6    9.35    5.79
  11   8   6   14.17    5.98
  11  -8   7   -1.91    3.59
  11   8   7   -6.22    4.96
  11  -8   8    8.47    5.68
  11   8   8    5.71    2.59
  11  -8   9    4.97    4.07
  11   8   9   11.53    4.56
  11  -8  10   -3.83    4.84
  11   8  10   -0.92    2.60
  11  -8  11   -0.12    4.00
  11   8  11   -1.50    3.34
  11  -8  12    5.34    4.93
  11   8  12    1.19    2.66
  11  -8  13    6.05    4.88
  11   8  13    4.06    2.61
  11  -8  14    1.86    3.36
  11   8  14   -0.03    2.52
  11   8  15    1.01    1.86
  11  -9 -11    1.43    2.29
  11  -9 -10   -0.61    4.19
  11  -9  -9   25.00    6.96
  11  -9  -8   24.06    7.68
  11  -9  -7   62.60   11.50
  11  -9  -6   14.85    5.61
 -11   9  -5   20.91    6.94
  11  -9  -5   26.22    8.31
 -11   9  -4    6.17    3.03
  11  -9  -4   14.77    5.14
 -11   9  -3  162.36   18.00
  11  -9  -3  235.18   21.37
 -11   9  -2   29.70    7.44
  11  -9  -2   42.87    8.61
  11  -9  -1   -1.58    3.97
 -11   9  -1    8.78    4.48
  11  -9   0    9.55    6.05
  11   9   0   12.49    5.55
 -11   9   0    4.33    4.53
  11  -9   1    9.17    4.80
  11   9   1    2.64    2.99
 -11   9   1    1.88    3.86
  11  -9   2   26.97    6.24
  11   9   2   29.06    7.41
 -11   9   2   21.53    5.50
 -11   9   3  173.38   18.22
  11   9   3  203.96   19.45
  11  -9   3  212.30   19.88
  11  -9   4   12.10    5.67
  11   9   4    9.22    5.27
 -11   9   4   12.18    5.63
  11  -9   5   31.95    9.50
  11   9   5   21.39    7.29
 -11   9   5   27.20    7.71
  11  -9   6   17.98    6.64
  11   9   6   19.22    6.47
 -11   9   6    7.39    4.73
 -11   9   7   66.63   10.75
  11   9   7   82.95   12.40
  11  -9   7   66.32   12.12
  11  -9   8   23.08    7.65
  11   9   8   23.26    7.98
 -11   9   8   36.54    7.09
  11  -9   9   28.40    7.71
  11   9   9   24.54    8.09
 -11   9   9   34.66    8.24
  11  -9  10    3.07    3.58
  11   9  10   -0.81    2.57
 -11   9  10   -2.54    4.38
  11  -9  11    4.18    4.08
  11   9  11    1.83    3.05
 -11   9  11    4.31    4.05
  12   0 -12   -5.51    2.62
  12   0 -11  223.19   17.02
  12   0 -10  370.07   22.22
  12   0  -9   54.05    8.70
  12   0  -8  218.65   16.53
  12   0  -7   25.86    5.61
  12   0  -6  165.10   14.29
  12   0  -5  283.93   18.90
  12   0  -4  136.80   13.00
  12   0  -3   46.86    7.61
  12   0  -2  559.61   26.33
  12   0  -1 1288.42   39.92
  12   0   0  538.79   26.06
  12   0   1 1161.20   38.56
  12   0   2  598.05   27.58
  12   0   3   42.69    7.50
  12   0   4  146.50   13.80
  12   0   5  283.84   19.24
  12   0   6  170.76   15.41
  12   0   7   19.09    5.63
  12   0   8  259.46   18.96
  12   0   9   48.64    8.48
  12   0  10  369.45   22.75
  12   0  11  257.83   19.56
  12   0  12  228.48   17.99
  12   0  13  623.90   30.91
  12   0  14  351.93   23.41
  12   0  15   21.88    6.23
  12   0  16  149.62   15.81
  12   0  17  223.37   19.06
  12   0  18   80.32   11.91
  12   0  19  107.46   13.82
  12   0  20   45.45    9.37
  12   0  21    5.52    4.37
  12   0  22    8.92    4.68
  12   0  23    7.88    5.69
  12   0  24   32.64    8.30
  12  -1 -13   17.54    7.37
  12  -1 -12    9.30    4.72
  12  -1 -11   52.80    8.84
  12  -1 -10   37.85    7.50
  12   1 -10   37.15    6.71
  12   1  -9   45.45    7.86
  12  -1  -9   32.48    6.83
  12  -1  -8   29.81    6.20
  12   1  -8   28.19    5.86
  12  -1  -7    2.95    1.67
  12   1  -7    3.99    2.50
  12  -1  -6   14.78    4.47
  12   1  -6   18.21    4.52
  12  -1  -5   42.73    7.76
  12   1  -5   27.10    5.96
  12  -1  -4   94.34   11.02
  12   1  -4   94.45   10.88
  12  -1  -3  225.57   17.13
  12   1  -3  211.88   15.88
  12  -1  -2  145.33   13.55
  12   1  -2  136.90   13.00
  12  -1  -1   68.43    9.93
  12   1  -1   50.45    8.09
  12   1   0   23.65    5.88
  12  -1   0   15.44    5.13
  12  -1   1   65.96    9.00
  12   1   1   58.63    8.84
  12  -1   2  116.73   12.43
  12   1   2  119.76   12.36
  12  -1   3  188.60   15.81
  12   1   3  213.36   16.71
  12  -1   4   85.77   10.83
  12   1   4   79.03    9.96
  12  -1   5   41.39    7.60
  12   1   5   58.52    8.71
  12   1   6   10.25    3.70
  12  -1   6   13.49    4.55
  12   1   7    4.92    4.61
  12  -1   7    5.10    3.60
  12   1   8   15.33    4.80
  12  -1   8   25.44    6.05
  12  -1   9   40.52    8.20
  12   1   9   39.24    7.80
  12   1  10   40.58    7.52
  12  -1  10   49.72    8.50
  12  -1  11   56.30    9.42
  12   1  11   51.34    8.73
  12   1  12   10.93    4.58
  12  -1  12   10.32    4.80
  12   1  13    9.19    5.08
  12  -1  13    9.43    4.25
  12   1  14   15.32    4.21
  12  -1  14   13.39    5.56
  12   1  15    3.55    3.44
  12  -1  15    6.79    3.43
  12   1  16   14.97    5.23
  12  -1  16   13.86    6.10
  12   1  17   20.48    6.84
  12  -1  17   30.62    8.23
  12   1  18   -0.72    2.65
  12  -1  18    1.39    2.69
  12   1  19    5.92    4.18
  12  -1  19    6.47    5.01
  12   1  20    2.29    2.44
  12  -1  20   13.13    4.66
  12   1  21    6.10    3.49
  12  -1  21    5.52    6.01
  12   1  22   16.45    6.84
  12  -1  22   11.51    5.67
  12   1  23   11.21    5.03
  12  -1  23    0.39    2.98
  12   1  24    2.15    5.05
  12   1  25    1.73    4.77
  12  -2 -14   90.52   11.92
  12  -2 -13  176.43   16.04
  12  -2 -12  156.80   15.29
  12  -2 -11   68.78    9.97
  12  -2 -10   88.64   11.30
  12  -2  -9  117.26   13.15
  12   2  -9  130.97   12.96
  12  -2  -8  238.39   18.48
  12   2  -8  242.16   17.39
  12  -2  -7   82.58   10.63
  12   2  -7   97.27   10.82
  12  -2  -6   62.74    9.27
  12   2  -6   67.72    9.03
  12  -2  -5  174.20   15.60
  12   2  -5  169.06   14.02
  12  -2  -4  310.83   20.47
  12   2  -4  316.33   19.56
  12  -2  -3   38.02    7.66
  12   2  -3   45.34    7.40
  12  -2  -2  421.23   23.85
  12   2  -2  421.73   23.01
  12  -2  -1  614.18   28.90
  12   2  -1  604.69   26.97
  12  -2   0  222.19   17.50
  12   2   0  224.03   16.71
  12  -2   1  618.95   28.71
  12   2   1  621.58   28.17
  12  -2   2  382.60   22.44
  12   2   2  418.47   23.17
  12  -2   3   45.64    7.87
  12   2   3   41.85    7.35
  12  -2   4  296.81   20.01
  12   2   4  300.40   19.88
  12  -2   5  157.97   15.10
  12   2   5  157.69   14.38
  12  -2   6   54.84    9.07
  12   2   6   61.13    9.22
  12  -2   7   82.33   11.31
  12   2   7   90.13   11.31
  12  -2   8  216.14   17.85
  12   2   8  274.42   19.47
  12  -2   9  128.23   13.32
  12   2   9  140.78   14.28
  12  -2  10   73.66   10.93
  12   2  10   72.17    9.90
  12  -2  11   63.77   10.57
  12   2  11   63.67   10.34
  12  -2  12  139.96   14.64
  12   2  12  131.25   13.86
  12  -2  13  186.28   16.87
  12   2  13  166.98   16.14
  12  -2  14  104.96   13.13
  12   2  14  116.77   13.99
  12   2  15   33.55    7.74
  12  -2  15   22.59    6.04
  12   2  16   27.11    7.24
  12  -2  16   34.89    7.61
  12  -2  17   78.31   12.48
  12   2  17   69.38   11.14
  12  -2  18  105.02   13.68
  12   2  18   77.83   11.84
  12   2  19   27.07    8.22
  12  -2  19   22.18    7.03
  12   2  20   15.75    5.32
  12  -2  20   30.03    7.28
  12   2  21   15.37    4.77
  12  -2  21   29.85    7.89
  12   2  22   27.48    7.11
  12  -2  22   11.17    5.15
  12   2  23   16.81    6.35
  12   2  24   46.77    9.05
  12  -3 -15    1.45    4.12
  12  -3 -14    8.34    5.30
  12  -3 -13    2.35    2.80
  12  -3 -12   99.49   12.70
  12  -3 -11   44.33    8.54
  12  -3 -10   79.31   11.21
  12  -3  -9   20.68    5.26
  12  -3  -8   36.95    7.63
  12  -3  -7    5.30    2.52
  12   3  -7    7.47    4.07
  12   3  -6    7.43    2.94
  12  -3  -6   10.42    4.91
  12  -3  -5   34.72    7.49
  12   3  -5   35.02    6.71
  12  -3  -4  203.82   17.11
  12   3  -4  199.76   15.60
  12  -3  -3  391.46   23.79
  12   3  -3  357.85   21.63
  12  -3  -2  206.39   17.11
  12   3  -2  190.48   15.66
  12  -3  -1   55.34    8.73
  12   3  -1   60.79    8.98
  12   3   0   31.98    6.50
  12  -3   0   27.72    6.44
  12  -3   1   52.76    8.59
  12   3   1   50.19    8.26
  12  -3   2  193.67   16.57
  12   3   2  207.03   16.72
  12   3   3  448.31   24.72
  12  -3   3  377.14   23.10
  12   3   4  195.51   16.49
  12  -3   4  186.60   16.32
  12  -3   5   46.88    8.24
  12   3   5   30.17    6.34
  12   3   6    6.34    3.10
  12  -3   6   10.13    4.78
  12   3   7   11.08    4.01
  12  -3   7   15.47    5.60
  12   3   8   32.32    7.08
  12  -3   8   33.01    6.73
  12   3   9   25.90    5.80
  12  -3   9   29.58    6.69
  12   3  10   63.51    9.65
  12  -3  10   64.78   10.00
  12   3  11   50.05    8.74
  12  -3  11   56.62    9.40
  12   3  12   87.48   11.76
  12  -3  12  114.16   13.31
  12   3  13    4.87    4.54
  12  -3  13    1.36    2.06
  12   3  14   13.65    5.80
  12  -3  14   15.56    6.22
  12   3  15   -1.11    2.33
  12  -3  15    2.47    1.86
  12   3  16    4.92    2.88
  12  -3  16    3.07    3.50
  12   3  17   11.35    4.85
  12  -3  17    5.42    2.86
  12   3  18   30.84    7.24
  12  -3  18   32.08    7.27
  12   3  19    0.46    2.55
  12  -3  19    2.55    2.36
  12   3  20   11.16    5.56
  12  -3  20   11.44    4.46
  12   3  21   10.23    6.02
  12  -3  21    9.87    5.07
  12   3  22   22.04    7.29
  12   3  23    9.65    2.44
  12   3  24    5.45    4.76
  12  -4 -16   13.48    5.58
  12  -4 -15   19.44    5.69
  12  -4 -14   45.94    8.73
  12  -4 -13   45.12    8.94
  12  -4 -12   -0.75    2.60
  12  -4 -11    4.50    2.07
  12  -4 -10   32.58    7.50
  12  -4  -9   87.17   11.82
  12  -4  -8  261.98   20.18
  12  -4  -7  264.51   20.08
  12  -4  -6   70.87   10.51
  12   4  -6   87.91   10.78
  12  -4  -5  177.80   16.24
  12   4  -5  212.67   16.54
  12  -4  -4  453.16   26.08
  12   4  -4  512.95   26.18
  12  -4  -3  296.08   21.27
  12   4  -3  305.34   20.24
  12  -4  -2  444.52   25.65
  12   4  -2  383.33   22.87
  12   4  -1  159.96   14.49
  12  -4  -1  162.98   15.55
  12  -4   0   24.35    7.03
  12   4   0   22.30    5.92
  12   4   1  168.65   15.28
  12  -4   1  154.13   15.23
  12   4   2  380.34   23.14
  12  -4   2  401.42   24.39
  12   4   3  278.19   19.74
  12  -4   3  296.74   21.23
  12   4   4  486.23   26.60
  12  -4   4  505.83   27.51
  12   4   5  210.61   17.39
  12  -4   5  178.65   16.41
  12   4   6   84.59   10.83
  12  -4   6   58.31    9.83
  12   4   7  274.77   20.28
  12  -4   7  275.90   20.75
  12   4   8  249.42   19.37
  12  -4   8  278.73   20.51
  12   4   9   87.71   11.90
  12  -4   9   98.25   12.17
  12   4  10   40.96    8.12
  12  -4  10   35.87    7.66
  12  -4  11    8.28    3.83
  12   4  11   12.19    4.33
  12  -4  12    2.35    2.46
  12   4  12    7.45    4.40
  12   4  13   54.18    9.63
  12  -4  13   28.31    6.46
  12  -4  14   44.00    8.92
  12   4  14   41.87    8.67
  12  -4  15   29.01    8.02
  12   4  15   18.88    5.29
  12  -4  16   14.58    6.27
  12   4  16   22.11    7.10
  12  -4  17   12.63    6.62
  12   4  17   16.46    5.42
  12  -4  18   24.06    6.62
  12   4  18   26.84    6.29
  12  -4  19    3.05    3.37
  12   4  19    5.41    3.79
  12  -4  20   13.24    5.67
  12   4  20   19.44    6.31
  12   4  21   18.31    6.49
  12   4  22   68.56   11.80
  12   4  23   52.22   10.42
  12  -5 -17   14.24    6.21
  12  -5 -16   -4.13    2.66
  12  -5 -15    1.75    2.97
  12  -5 -14    2.84    3.15
  12  -5 -13    6.09    4.16
  12  -5 -12   10.23    5.40
  12  -5 -11   14.93    5.27
  12  -5 -10   53.79    9.46
  12  -5  -9   13.46    5.45
  12  -5  -8    3.21    3.40
  12  -5  -7    9.92    4.88
  12  -5  -6    7.08    4.20
  12  -5  -5    3.07    1.52
  12   5  -5    0.07    1.78
  12  -5  -4    4.40    4.75
  12   5  -4    8.32    2.52
  12  -5  -3   22.82    6.61
  12   5  -3   21.97    6.05
  12  -5  -2   63.82   10.25
  12   5  -2   72.34   10.66
  12  -5  -1   41.34    8.20
  12   5  -1   56.48    9.30
  12  -5   0   11.36    4.52
  12   5   0   13.75    4.45
  12  -5   1   34.25    7.20
  12   5   1   36.82    7.26
  12  -5   2   67.88   10.43
  12  -5   3   29.48    7.40
  12   5   3   27.58    6.75
  12  -5   4    0.39    2.35
  12   5   4    6.51    3.59
  12  -5   5    0.75    2.92
  12   5   5   -0.43    1.91
  12  -5   6    1.60    2.10
  12   5   6    0.57    2.98
  12  -5   7    9.65    3.60
  12   5   7    9.69    4.06
  12  -5   8    9.62    5.08
  12   5   8    7.31    3.89
  12  -5   9   18.74    6.18
  12   5   9   17.84    5.70
  12   5  10   54.19    9.39
  12  -5  10   47.15    9.04
  12  -5  11    9.10    4.33
  12   5  11    9.89    4.24
  12  -5  12   14.82    5.60
  12   5  12   13.54    5.18
  12  -5  13   18.31    6.27
  12   5  13   27.73    7.21
  12  -5  14    4.34    4.91
  12   5  14    3.58    2.99
  12  -5  15    4.86    4.04
  12   5  15    3.86    2.81
  12  -5  16    0.65    3.85
  12   5  16    0.32    1.96
  12  -5  17   12.44    5.19
  12   5  17   10.17    5.35
  12  -5  18   10.41    5.24
  12   5  18   15.86    6.38
  12   5  19   10.56    3.75
  12   5  20    2.16    4.52
  12   5  21    2.17    4.33
  12  -6 -18    4.44    4.68
  12  -6 -17   23.63    8.36
  12  -6 -16   41.30    9.12
  12  -6 -15   19.24    7.19
  12  -6 -14   76.91   11.88
  12  -6 -13  106.38   14.11
  12  -6 -12    4.09    3.08
  12  -6 -11   53.69    9.65
  12  -6 -10   69.52   11.17
  12  -6  -9   23.01    6.82
  12  -6  -8  134.80   15.21
  12  -6  -7  174.15   17.47
  12  -6  -6   33.38    7.81
  12  -6  -5   53.27   10.13
  12   6  -4  127.66   14.74
  12  -6  -4  138.75   15.30
  12   6  -3  141.68   14.71
  12  -6  -3  177.07   17.03
  12   6  -2  170.05   16.17
  12  -6  -2  181.42   17.29
  12  -6  -1   32.26    6.85
  12   6  -1   51.43    8.96
  12  -6   0   -2.95    2.41
  12   6   0    3.62    3.87
  12  -6   1   40.99    8.55
  12   6   1   45.15    8.27
  12  -6   2  186.61   17.48
  12   6   2  148.01   15.14
  12  -6   3  186.85   17.45
  12   6   3  161.68   15.89
  12  -6   4  124.99   13.88
  12   6   4  120.25   13.68
  12  -6   5   47.96    8.87
  12   6   5   60.53    9.59
  12  -6   6   27.74    6.29
  12   6   6   29.41    6.15
  12  -6   7  230.67   19.83
  12   6   7  185.49   17.15
  12  -6   8  193.65   18.01
  12   6   8  181.72   17.53
  12  -6   9   35.26    8.00
  12   6   9   16.47    4.13
  12  -6  10   35.32   11.52
  12   6  10   58.70   10.00
  12  -6  11   62.40   10.95
  12   6  11   49.43    9.97
  12  -6  12    2.84    3.62
  12   6  12   14.55    5.61
  12  -6  13   75.39   11.85
  12   6  13   83.72   12.12
  12  -6  14   76.89   11.68
  12   6  14   81.42   11.85
  12  -6  15   12.25    6.19
  12   6  15    0.88    3.17
  12  -6  16   20.10    5.93
  12   6  16   28.92    8.10
  12  -6  17   39.85    9.20
  12   6  17   45.48   10.23
  12   6  18    4.91    3.77
  12   6  19   38.24    8.92
  12  -7 -17    5.60    4.72
  12  -7 -16   -1.10    3.42
  12  -7 -15   43.30    9.08
  12  -7 -14   10.37    4.54
  12  -7 -13   28.10    7.61
  12  -7 -12   20.27    6.08
  12  -7 -11   -1.67    3.47
  12  -7 -10   19.32    6.61
  12  -7  -9   87.50   12.49
  12  -7  -8   18.70    6.31
  12  -7  -7   29.32    6.98
  12  -7  -6   10.68    4.55
  12  -7  -5   -1.42    2.15
  12  -7  -4   58.48   10.55
  12  -7  -3   22.72    6.22
  12  -7  -2   35.89    7.99
  12   7  -2   21.20    6.09
  12   7  -1   40.25    8.79
  12  -7  -1   46.01    9.88
  12  -7   0   25.50    7.23
  12   7   0   15.70    4.65
  12  -7   1   41.17    8.34
  12   7   1   44.95    8.88
  12   7   2   31.10    6.88
  12  -7   2   44.98    9.57
  12  -7   3   10.96    5.18
  12   7   3   19.10    6.14
  12   7   4   51.12    9.27
  12  -7   4   56.78   10.26
  12   7   5    2.77    2.70
  12  -7   5    2.63    2.15
  12   7   6    6.25    3.00
  12  -7   6   12.13    4.69
  12   7   7   12.35    4.80
  12  -7   7   40.00    8.54
  12   7   8   12.63    4.95
  12  -7   8   18.00    6.78
  12  -7   9   63.88   11.03
  12   7   9   81.57   11.73
  12   7  10   26.85    7.23
  12  -7  10   26.51    7.33
  12   7  11   -3.22    3.64
  12  -7  11   -0.81    4.06
  12   7  12   24.52    6.91
  12  -7  12    4.95    3.85
  12   7  13   19.78    5.31
  12  -7  13   12.89    4.66
  12   7  14    6.71    3.90
  12  -7  14   10.12    4.14
  12   7  15   27.73    7.02
  12  -7  15   40.85    9.40
  12   7  16    2.86    2.65
  12   7  17    5.73    5.30
  12  -8 -13   25.29    7.33
  12  -8 -12   48.76   10.24
  12  -8 -11   12.23    5.14
  12  -8 -10   33.31    8.91
  12  -8  -9   25.78    7.47
  12  -8  -8   29.65    7.46
  12  -8  -7   65.30   11.58
  12  -8  -6   23.30    7.37
  12  -8  -5    5.61    4.41
 -12   8  -5    5.67    4.45
  12  -8  -4   12.99    5.89
 -12   8  -4    9.20    4.35
 -12   8  -3   53.18   10.50
  12  -8  -3   58.97   10.29
  12  -8  -2   37.85    8.70
  12  -8  -1    1.05    3.20
  12   8  -1   -0.11    3.54
  12  -8   0    6.53    5.14
  12   8   0    0.20    3.28
  12   8   1    2.41    4.28
  12  -8   1    0.49    2.78
  12   8   2   11.08    4.03
  12  -8   2   27.12    7.29
  12   8   3   51.25    9.63
  12  -8   3   62.90   10.89
  12   8   4    9.72    2.61
  12  -8   4    6.37    3.44
  12   8   5   11.36    3.37
  12  -8   5    6.25    2.80
  12   8   6   17.36    5.59
  12  -8   6    9.39    4.46
  12   8   7   56.59   10.29
  12  -8   7   58.87   11.32
  12   8   8   23.95    5.89
  12  -8   8   21.17    7.08
  12   8   9   27.45    7.35
  12  -8   9   36.52    7.99
  12   8  10   19.33    6.49
  12  -8  10    0.30    3.43
  12   8  11   11.41    4.60
  12  -8  11    8.80    4.70
  12  -8  12   30.62    8.23
  12   8  12   54.99   10.44
  12   8  13   41.07    8.89
  12  -8  13   40.77    9.49
  12  -9  -8    7.67    5.59
  12  -9  -7   -2.72    4.04
  12  -9  -6    7.34    4.23
  12  -9  -5    7.16    4.72
 -12   9  -4   -0.19    4.43
  12  -9  -4    1.45    2.22
  12  -9  -3   41.72    9.73
 -12   9  -3   27.54    8.32
  12  -9  -2   -0.13    3.01
 -12   9  -2    5.66    6.19
  12  -9  -1    1.94    4.40
 -12   9  -1   14.23    6.23
  12  -9   0    6.94    4.70
 -12   9   0    1.49    3.59
  12  -9   1    0.03    5.33
  12   9   1    8.81    4.37
 -12   9   1    9.24    3.51
  12  -9   2   -0.80    4.09
  12   9   2   -1.87    2.51
 -12   9   2   -0.19    2.64
  12  -9   3   41.29    9.90
  12   9   3   29.03    7.48
 -12   9   3   31.22    7.14
  12  -9   4    6.48    4.86
  12   9   4   -0.88    2.79
 -12   9   4    1.20    3.40
  12  -9   5   14.73    7.00
  12   9   5   12.43    5.26
 -12   9   5   10.52    4.87
  12  -9   6   -1.91    4.69
  12   9   6   11.22    5.60
 -12   9   6    6.99    4.77
  12  -9   7   -3.61    4.01
  12   9   7    5.24    4.32
 -12   9   7    3.87    4.78
  12  -9   8   -0.07    5.55
  12   9   8   10.65    6.26
 -12   9   8    4.88    4.13
  13   0 -11    0.04    2.26
  13   0 -10   -0.33    2.44
  13   0  -9    1.40    2.74
  13   0  -8   -2.07    1.43
  13   0  -7    0.31    1.69
  13   0  -6    0.22    1.96
  13   0  -5   -0.55    2.33
  13   0  -4   -1.54    1.40
  13   0  -3    0.34    1.82
  13   0  -2    0.40    1.90
  13   0  -1   -0.51    1.75
  13   0   0    0.01    1.65
  13   0   1   -0.97    1.26
  13   0   2   -0.54    2.44
  13   0   3   -0.51    2.84
  13   0   4    0.69    2.27
  13   0   5   -0.13    1.92
  13   0   6    1.43    3.17
  13   0   7   -0.94    1.72
  13   0   8   -1.60    3.27
  13   0   9    1.63    2.69
  13   0  10    2.56    1.95
  13   0  11   -1.06    3.60
  13   0  12    1.26    3.57
  13   0  13    1.08    3.25
  13   0  14    1.39    2.25
  13   0  15    0.69    2.84
  13   0  16   -1.02    3.02
  13   0  17   -0.70    2.91
  13   0  18    0.57    2.20
  13   0  19   -1.48    3.11
  13   0  20   -1.36    4.11
  13   0  21   -0.75    3.46
  13   0  22   -1.77    2.55
  13   0  23    1.19    2.58
  13   0  24   -1.75    3.57
  13  -1 -12   72.37   10.57
  13  -1 -11   10.86    4.85
  13  -1 -10  166.08   15.72
  13   1 -10  153.70   14.78
  13  -1  -9  161.91   15.65
  13   1  -9  163.72   14.86
  13  -1  -8   18.65    5.65
  13   1  -8   15.70    4.65
  13  -1  -7   44.75    8.17
  13   1  -7   49.98    8.45
  13  -1  -6   64.39    9.44
  13   1  -6   68.89    9.59
  13  -1  -5  413.72   24.09
  13   1  -5  374.52   22.63
  13  -1  -4   53.93    8.63
  13   1  -4   48.92    8.29
  13  -1  -3  120.58   13.19
  13   1  -3  103.50   11.88
  13  -1  -2  158.99   15.30
  13   1  -2  180.35   15.14
  13  -1  -1  128.24   13.05
  13   1  -1  110.41   12.18
  13  -1   0 1336.66   43.22
  13   1   0 1437.55   43.26
  13  -1   1  126.60   13.01
  13   1   1  132.66   12.89
  13  -1   2  197.32   16.57
  13   1   2  153.51   14.21
  13  -1   3  100.32   12.34
  13   1   3  113.53   12.38
  13  -1   4   54.51    8.90
  13   1   4   47.17    8.18
  13  -1   5  398.25   23.72
  13   1   5  362.97   22.34
  13  -1   6   68.56    9.83
  13   1   6   57.51    9.00
  13  -1   7   44.27    8.19
  13   1   7   55.97    8.79
  13   1   8   23.34    6.15
  13  -1   8   17.87    4.63
  13  -1   9  180.91   16.38
  13   1   9  170.83   15.82
  13  -1  10  144.73   14.77
  13   1  10  139.78   14.59
  13   1  11    9.97    4.65
  13  -1  11    3.95    2.89
  13  -1  12   72.80   10.61
  13   1  12   70.32   10.79
  13   1  13   25.58    6.34
  13  -1  13   10.58    3.97
  13  -1  14  105.82   13.20
  13   1  14  107.82   13.37
  13  -1  15   49.76    9.33
  13   1  15   71.43   10.90
  13  -1  16  145.35   15.97
  13   1  16  122.67   14.52
  13   1  17   29.97    7.30
  13  -1  17   30.56    7.54
  13   1  18    8.87    3.67
  13  -1  18    2.38    2.14
  13   1  19    3.95    3.97
  13  -1  19   -3.52    3.29
  13  -1  20  101.27   13.55
  13   1  20  132.94   15.53
  13  -1  21   77.71   12.38
  13   1  21  104.59   14.28
  13   1  22    9.04    3.86
  13  -1  22    6.23    3.69
  13   1  23    7.87    5.52
  13  -1  23    8.25    5.28
  13   1  24   10.10    4.48
  13  -2 -13    7.61    1.88
  13  -2 -12   56.24    9.48
  13  -2 -11  197.78   17.46
  13  -2 -10   12.59    5.43
  13  -2  -9   12.56    5.05
  13  -2  -8   78.71   10.90
  13   2  -8   58.74    8.53
  13  -2  -7   30.79    7.44
  13   2  -7   46.63    7.87
  13  -2  -6    5.43    3.06
  13   2  -6   10.48    3.80
  13  -2  -5    2.12    3.31
  13   2  -5   -1.34    1.35
  13  -2  -4   17.24    5.20
  13   2  -4   25.25    6.12
  13  -2  -3   96.34   11.99
  13   2  -3   88.45   10.93
  13  -2  -2   40.16    8.16
  13   2  -2   53.31    7.98
  13  -2  -1   64.13    9.90
  13   2  -1   55.19    8.18
  13  -2   0  635.21   30.52
  13   2   0  676.22   30.09
  13  -2   1   60.73    9.71
  13   2   1   47.25    7.82
  13  -2   2   37.35    7.49
  13   2   2   38.86    7.67
  13  -2   3   99.70   12.05
  13   2   3  101.82   12.01
  13   2   4   17.41    5.21
  13  -2   4   19.05    5.80
  13   2   5   -0.40    1.95
  13  -2   5    0.17    3.43
  13   2   6    6.86    3.14
  13  -2   6    5.09    3.50
  13  -2   7   39.09    7.82
  13   2   7   40.68    8.01
  13  -2   8   71.29   10.60
  13   2   8   68.48   10.06
  13   2   9   10.03    4.10
  13  -2   9   16.41    5.10
  13   2  10   19.60    5.60
  13  -2  10   15.11    5.56
  13  -2  11  192.09   17.52
  13   2  11  201.93   17.92
  13  -2  12   55.74    9.47
  13   2  12   55.03    9.37
  13   2  13   11.51    4.98
  13  -2  13    8.94    5.07
  13   2  14    3.18    2.94
  13  -2  14    4.11    2.63
  13   2  15    3.23    2.60
  13  -2  15    9.15    3.96
  13   2  16   -0.78    2.81
  13  -2  16   11.66    4.02
  13  -2  17   69.04   11.20
  13   2  17   53.56   10.37
  13   2  18    4.12    2.29
  13  -2  18    4.99    3.63
  13   2  19    1.70    2.93
  13  -2  19    0.96    2.92
  13   2  20    3.78    3.77
  13  -2  20   -0.54    2.99
  13   2  21   12.58    4.84
  13  -2  21   12.34    3.78
  13   2  22    9.22    3.68
  13  -2  22    0.07    5.70
  13   2  23   19.87    7.76
  13  -3 -15   -2.86    2.88
  13  -3 -14  120.69   14.45
  13  -3 -13   40.02    7.92
  13  -3 -12  189.31   17.99
  13  -3 -11   13.40    5.03
  13  -3 -10  400.55   25.54
  13  -3  -9   52.15    9.29
  13  -3  -8   53.75    9.45
  13  -3  -7   40.97    8.60
  13   3  -7   41.92    6.98
  13  -3  -6   61.45   10.07
  13   3  -6   85.41   10.80
  13   3  -5   10.90    3.67
  13  -3  -5   10.33    4.07
  13  -3  -4  306.05   21.61
  13   3  -4  278.30   19.39
  13  -3  -3   53.32    8.82
  13   3  -3   45.75    8.02
  13   3  -2    3.04    3.34
  13  -3  -2    3.79    2.94
  13   3  -1   20.20    5.84
  13  -3  -1   18.95    4.88
  13  -3   0  122.92   13.63
  13   3   0  111.59   12.46
  13   3   1   21.27    5.32
  13  -3   1   20.47    6.71
  13   3   2    5.51    2.30
  13  -3   2    3.84    3.53
  13  -3   3   32.69    6.89
  13   3   3   54.24    9.10
  13  -3   4  268.34   20.25
  13   3   4  311.92   21.09
  13   3   5   18.81    4.77
  13  -3   5    9.24    4.32
  13  -3   6   89.28   11.46
  13   3   6   82.24   11.13
  13   3   7   53.21    8.95
  13  -3   7   38.31    7.54
  13   3   8   54.58    9.31
  13  -3   8   46.75    8.58
  13   3   9   44.07    8.11
  13  -3   9   48.55    8.82
  13   3  10  348.60   23.35
  13  -3  10  355.01   23.46
  13   3  11   26.37    6.64
  13  -3  11   15.77    5.44
  13   3  12  186.30   17.23
  13  -3  12  215.87   18.49
  13   3  13   56.84    9.45
  13  -3  13   54.98    9.91
  13   3  14  161.26   16.47
  13  -3  14  136.24   15.58
  13   3  15   42.41    8.68
  13  -3  15   38.15    8.11
  13   3  16  260.65   21.13
  13  -3  16  257.91   20.96
  13   3  17   12.62    4.33
  13  -3  17   26.28    6.83
  13   3  18   23.28    6.90
  13  -3  18   17.92    6.46
  13   3  19    9.98    2.52
  13  -3  19    8.58    6.20
  13   3  20   33.86    8.09
  13  -3  20   31.71    8.07
  13   3  21   24.16    6.63
  13  -3  21   22.64    9.02
  13   3  22   59.53   11.31
  13  -4 -16    7.22    5.96
  13  -4 -15   16.76    4.90
  13  -4 -14   10.62    6.14
  13  -4 -13    0.66    3.23
  13  -4 -12   18.26    5.34
  13  -4 -11    3.64    3.04
  13  -4 -10    9.12    4.31
  13  -4  -9  211.67   18.54
  13  -4  -8    7.05    4.06
  13  -4  -7   13.69    4.25
  13  -4  -6  108.88   13.24
  13   4  -6  113.07   12.38
  13   4  -5    5.40    2.27
  13  -4  -5    8.71    4.15
  13   4  -4   32.24    6.54
  13  -4  -4   25.70    6.86
  13   4  -3    8.73    3.44
  13  -4  -3   13.13    5.17
  13  -4  -2  167.83   16.41
  13   4  -2  182.76   16.08
  13  -4  -1   97.02   12.56
  13   4  -1   91.11   11.90
  13  -4   0    3.12    3.13
  13   4   0    1.26    3.53
  13   4   1  111.25   12.54
  13  -4   1  114.92   13.58
  13   4   2  166.33   15.53
  13  -4   2  169.30   16.20
  13  -4   3   14.66    4.12
  13   4   3   11.69    4.37
  13  -4   4   42.06    8.70
  13   4   4   31.32    6.89
  13  -4   5    8.25    4.57
  13   4   5   -1.05    2.47
  13   4   6  145.47   14.86
  13  -4   6  124.70   14.08
  13  -4   7   14.31    6.34
  13   4   7   15.97    5.62
  13  -4   8    1.78    3.82
  13   4   8    4.98    4.64
  13   4   9  231.36   19.22
  13  -4   9  211.85   18.61
  13  -4  10    6.99    2.56
  13   4  10    6.10    3.66
  13  -4  11   -1.30    3.06
  13   4  11   -1.58    1.63
  13  -4  12   16.18    5.20
  13   4  12   11.89    5.46
  13  -4  13    0.04    2.34
  13   4  13   -1.43    3.43
  13  -4  14    1.56    3.16
  13   4  14   15.79    5.81
  13  -4  15   32.88    7.64
  13   4  15   16.58    5.19
  13  -4  16    3.51    3.04
  13   4  16    3.17    4.34
  13  -4  17   33.90    8.00
  13   4  17   23.31    6.90
  13  -4  18    2.96    3.03
  13   4  18   -3.44    4.36
  13  -4  19   22.19    6.83
  13   4  19   24.61    7.43
  13   4  20    4.39    5.62
  13  -4  20    2.69    4.31
  13   4  21   20.18    7.34
  13  -5 -17    7.69    4.03
  13  -5 -16   26.67    7.41
  13  -5 -15   12.77    5.78
  13  -5 -14   20.11    6.09
  13  -5 -13   10.74    4.57
  13  -5 -12   29.35    6.93
  13  -5 -11  103.90   13.59
  13  -5 -10   42.84    8.49
  13  -5  -9    3.71    1.88
  13  -5  -8   11.94    4.79
  13  -5  -7   59.79   10.59
  13  -5  -6  112.39   13.61
  13  -5  -5   30.18    7.43
  13  -5  -4  100.00   13.26
  13   5  -4  101.85   12.34
  13  -5  -3  104.23   12.96
  13   5  -3   78.32   10.29
  13   5  -2  254.62   19.79
  13  -5  -2  211.00   18.70
  13   5  -1  166.71   16.18
  13  -5  -1  182.34   17.34
  13  -5   0   17.31    5.41
  13   5   0   11.83    4.41
  13  -5   1  151.00   15.99
  13   5   1  183.28   16.73
  13  -5   2  219.52   19.17
  13   5   2  212.14   18.34
  13  -5   3   66.04   11.19
  13   5   3   84.47   11.22
  13  -5   4   92.87   12.80
  13   5   4   99.89   12.46
  13  -5   5   24.70    6.73
  13   5   5   36.07    7.75
  13  -5   6  115.63   13.73
  13   5   6   87.74   11.91
  13  -5   7   64.49   10.84
  13   5   7   56.00    9.53
  13  -5   8   12.51    5.86
  13   5   8   16.19    5.11
  13  -5   9    4.51    2.22
  13   5   9    7.69    4.71
  13   5  10   47.65    9.41
  13  -5  10   29.25    7.58
  13  -5  11  102.90   13.26
  13   5  11   57.37   10.41
  13  -5  12   35.63    8.63
  13   5  12   35.61    7.60
  13  -5  13    3.76    2.90
  13   5  13   10.26    4.02
  13  -5  14   29.31    7.70
  13   5  14   40.97    8.66
  13  -5  15    0.33    2.52
  13   5  15   26.74    7.78
  13  -5  16   23.31    7.13
  13   5  16   47.99    9.54
  13  -5  17   41.96    9.61
  13   5  17   26.98    6.26
  13  -5  18    5.19    3.14
  13   5  18   13.20    5.93
  13  -5  19    9.14    5.74
  13   5  19   14.96    6.76
  13   5  20   18.43    7.47
  13  -6 -17    0.38    2.44
  13  -6 -16    2.37    3.67
  13  -6 -15    4.73    4.64
  13  -6 -14    9.75    4.63
  13  -6 -13   13.43    6.42
  13  -6 -12    2.55    2.99
  13  -6 -11    5.60    4.70
  13  -6 -10    0.24    2.64
  13  -6  -9    3.26    3.81
  13  -6  -8    3.28    4.40
  13  -6  -7    3.57    3.91
  13  -6  -6   11.73    6.02
  13  -6  -5    1.96    1.76
  13  -6  -4    0.98    2.19
  13  -6  -3   15.04    5.54
  13   6  -3    8.48    3.51
  13  -6  -2   11.10    4.99
  13   6  -2   12.09    5.17
  13  -6  -1   10.44    4.60
  13   6  -1    7.48    3.35
  13  -6   0   -1.60    1.65
  13   6   0   -1.42    2.68
  13  -6   1    2.63    2.11
  13   6   1   15.47    5.27
  13  -6   2   17.93    6.14
  13   6   2    9.37    4.42
  13  -6   3    5.91    3.62
  13   6   3    9.74    4.82
  13  -6   4   -0.20    1.99
  13   6   4    0.63    3.46
  13  -6   5   13.61    4.42
  13   6   5    3.62    3.87
  13  -6   6    0.58    2.14
  13   6   6    4.56    4.50
  13  -6   7    0.15    2.42
  13   6   7    4.44    4.41
  13  -6   8    6.90    3.73
  13   6   8    6.79    3.88
  13  -6   9    5.43    4.56
  13   6   9    1.73    1.98
  13  -6  10    3.22    2.04
  13   6  10    2.14    1.91
  13  -6  11   11.58    4.10
  13   6  11   16.63    5.40
  13  -6  12    2.40    3.10
  13   6  12    5.43    4.67
  13  -6  13    9.59    5.11
  13   6  13    5.07    2.72
  13  -6  14    1.06    3.42
  13   6  14    2.08    2.65
  13  -6  15   12.11    6.94
  13   6  15    9.51    4.38
  13  -6  16   -4.26    4.59
  13   6  16    1.19    4.15
  13  -6  17    3.71    4.80
  13   6  17    7.55    6.00
  13   6  18    2.37    4.59
  13  -7 -15   10.52    5.54
  13  -7 -14   18.89    5.96
  13  -7 -13    2.89    3.50
  13  -7 -12    8.83    4.95
  13  -7 -11   21.71    6.45
  13  -7 -10   87.53   13.54
  13  -7  -9   24.77    6.84
  13  -7  -8   10.24    5.26
  13  -7  -7   22.43    7.50
  13  -7  -6   79.02   12.44
  13  -7  -5   18.37    6.40
  13  -7  -4   43.90    9.19
  13  -7  -3   29.06    7.32
  13  -7  -2   29.66    7.71
  13   7  -2   42.55   10.45
  13  -7  -1   26.54    6.73
  13   7  -1   17.75    6.01
  13  -7   0    8.97    5.53
  13   7   0   17.19    6.40
  13  -7   1   22.51    5.81
  13   7   1   27.36    6.97
  13   7   2   42.34    8.58
  13  -7   2   47.91   10.13
  13  -7   3   19.35    5.51
  13   7   3   18.04    6.21
  13  -7   4   50.93    9.43
  13   7   4   56.28    9.95
  13  -7   5    9.97    5.75
  13   7   5    7.61    4.94
  13  -7   6   94.42   13.50
  13   7   6   56.59    9.73
  13  -7   7   20.87    7.16
  13   7   7   16.59    5.44
  13  -7   8   16.35    5.77
  13   7   8   11.24    5.09
  13  -7   9    3.78    2.93
  13   7   9   14.27    5.66
  13  -7  10   77.82   12.52
  13   7  10  102.77   13.87
  13  -7  11   11.02    5.27
  13   7  11   29.89    7.66
  13  -7  12   15.15    5.79
  13   7  12   16.23    6.21
  13  -7  13   11.36    6.60
  13   7  13   15.08    5.55
  13  -7  14   18.39    7.64
  13   7  14   19.57    5.85
  13  -7  15    8.32    4.62
  13   7  15   14.52    5.90
  13  -8 -11    7.36    4.75
  13  -8 -10    3.28    3.61
  13  -8  -9    9.01    4.39
  13  -8  -8   14.31    4.90
  13  -8  -7    9.27    3.64
  13  -8  -6    3.07    3.92
  13  -8  -5   -1.19    4.27
 -13   8  -5   16.77    6.79
  13  -8  -4    5.08    4.56
 -13   8  -4   -0.44    3.18
  13  -8  -3    5.22    3.17
  13  -8  -2   11.53    5.56
  13  -8  -1    8.39    3.61
  13  -8   0    2.79    4.51
  13   8   0    4.38    2.57
  13  -8   1   10.14    6.46
  13   8   1    2.50    4.66
  13  -8   2    2.77    4.25
  13   8   2    3.67    3.56
  13  -8   3    8.81    4.41
  13   8   3    4.49    3.21
  13  -8   4    1.50    2.65
  13   8   4    3.48    3.91
  13  -8   5    5.10    4.55
  13   8   5    0.52    1.78
  13  -8   6    8.82    5.45
  13   8   6    5.50    5.03
  13  -8   7    4.73    3.46
  13   8   7    6.17    5.13
  13  -8   8   11.67    6.64
  13   8   8    5.45    3.78
  13  -8   9   12.21    5.48
  13   8   9    7.02    2.38
  13  -8  10    4.82    5.44
  13   8  10   -3.16    2.81
  13  -8  11   16.28    5.92
  13   8  11   10.00    4.80
  13  -9  -3   10.91    4.69
 -13   9  -3   11.05    7.98
  13  -9  -2    3.05    4.62
 -13   9  -2   -0.85    6.09
  13  -9  -1    9.22    5.37
 -13   9  -1   -0.59    3.53
  13  -9   0   34.71    8.61
 -13   9   0   23.35    6.71
  13  -9   1    3.10    4.56
 -13   9   1    1.94    2.60
  13  -9   2    4.55    5.35
 -13   9   2   10.24    6.51
  13   9   2    3.20    2.71
  13  -9   3    7.72    4.86
 -13   9   3    6.67    4.54
  13   9   3    8.44    5.50
  14   0 -10  201.00   18.01
  14   0  -9   22.53    5.90
  14   0  -8   29.46    7.09
  14   0  -7  238.12   19.48
  14   0  -6  326.17   22.26
  14   0  -5  178.05   16.13
  14   0  -4  238.30   18.37
  14   0  -3  113.90   12.84
  14   0  -2   70.06   10.02
  14   0  -1  130.89   13.68
  14   0   0  226.91   18.04
  14   0   1  120.08   13.28
  14   0   2   69.77   10.35
  14   0   3  104.08   12.71
  14   0   4  248.96   19.09
  14   0   5  142.80   14.30
  14   0   6  323.19   22.03
  14   0   7  217.09   18.09
  14   0   8   36.85    8.09
  14   0   9   16.18    4.46
  14   0  10  167.13   16.24
  14   0  11   15.92    5.21
  14   0  12  184.45   17.02
  14   0  13  112.13   13.86
  14   0  14   41.75    7.82
  14   0  15   26.93    7.43
  14   0  16   93.48   12.80
  14   0  17    2.96    2.11
  14   0  18    2.07    2.57
  14   0  19   11.72    5.99
  14   0  20   26.17    7.39
  14   0  21   87.55   12.99
  14   0  22   20.10    4.96
  14  -1 -11    0.73    2.14
  14  -1 -10    1.44    3.95
  14  -1  -9   27.55    6.49
  14   1  -9   29.06    6.48
  14  -1  -8    3.49    2.67
  14   1  -8    5.79    4.31
  14  -1  -7   47.58    8.73
  14   1  -7   29.27    6.86
  14  -1  -6    1.47    3.31
  14   1  -6    2.27    2.76
  14  -1  -5    0.17    2.05
  14   1  -5    1.49    2.30
  14  -1  -4   26.62    6.65
  14   1  -4   14.19    3.92
  14  -1  -3   15.18    4.72
  14   1  -3   19.21    5.68
  14  -1  -2   74.39   10.71
  14   1  -2   55.61    9.44
  14  -1  -1   69.99    9.92
  14   1  -1   84.64   11.27
  14  -1   0   76.94   10.78
  14   1   0   71.58   10.26
  14  -1   1   75.86   10.70
  14   1   1   68.06    9.91
  14  -1   2   75.05   10.61
  14   1   2   65.00    9.75
  14   1   3   14.72    4.52
  14  -1   3   11.18    5.02
  14   1   4   28.34    7.52
  14  -1   4   24.49    6.20
  14   1   5   -0.45    1.39
  14  -1   5    1.21    2.77
  14   1   6    6.09    3.57
  14  -1   6    1.58    2.47
  14  -1   7   60.04    9.94
  14   1   7   44.20    8.63
  14   1   8    0.62    1.83
  14  -1   8   11.57    4.76
  14   1   9   23.79    6.26
  14  -1   9   34.01    8.05
  14   1  10   11.20    5.04
  14  -1  10    8.32    3.13
  14   1  11   -1.70    2.31
  14  -1  11    4.02    3.58
  14   1  12    1.48    1.97
  14  -1  12    1.30    3.37
  14   1  13    0.48    2.16
  14  -1  13    0.33    3.05
  14   1  14    0.20    2.40
  14  -1  14    2.86    3.57
  14   1  15   18.05    6.16
  14  -1  15   18.61    5.02
  14   1  16    1.98    2.11
  14  -1  16    9.67    4.72
  14   1  17   -0.78    3.58
  14  -1  17   -2.88    5.00
  14   1  18   10.33    5.56
  14  -1  18    4.99    4.20
  14   1  19    7.67    3.52
  14  -1  19    2.45    2.87
  14   1  20    1.19    2.67
  14  -1  20    0.58    3.83
  14   1  21    1.25    3.75
  14  -1  21    5.58    5.15
  14   1  22    2.01    3.30
  14  -1  22   -0.08    2.91
  14  -2 -13   26.42    8.01
  14  -2 -12   60.33   10.36
  14  -2 -11   10.57    4.63
  14  -2 -10   87.55   12.09
  14  -2  -9  125.04   14.20
  14  -2  -8   32.67    7.42
  14   2  -8   36.29    7.68
  14  -2  -7   26.25    6.38
  14   2  -7   19.41    5.28
  14  -2  -6  103.10   13.08
  14   2  -6  110.42   12.55
  14  -2  -5  100.11   12.74
  14   2  -5   81.59   11.09
  14  -2  -4  137.96   14.79
  14   2  -4  117.87   12.94
  14  -2  -3   32.64    6.90
  14   2  -3   38.57    7.78
  14  -2  -2   21.57    6.89
  14   2  -2   12.86    3.69
  14   2  -1   15.40    5.10
  14  -2  -1   19.52    5.51
  14  -2   0  288.42   21.06
  14   2   0  289.34   20.68
  14   2   1   18.03    4.94
  14  -2   1   30.62    6.54
  14   2   2   17.37    4.36
  14  -2   2   19.60    5.42
  14   2   3   21.04    5.96
  14  -2   3   18.19    5.56
  14  -2   4  156.97   15.36
  14   2   4  117.96   13.28
  14  -2   5  107.21   12.55
  14   2   5   90.96   11.92
  14  -2   6   69.02   10.63
  14   2   6   82.07   11.60
  14   2   7   26.00    6.41
  14  -2   7   25.21    6.01
  14  -2   8   33.17    7.22
  14   2   8   43.50    8.91
  14  -2   9  131.72   13.98
  14   2   9  117.30   14.03
  14  -2  10   85.38   12.06
  14   2  10   59.83   10.37
  14   2  11   13.34    3.79
  14  -2  11   19.92    5.07
  14  -2  12   73.67   10.95
  14   2  12   69.07   10.27
  14   2  13   16.46    4.48
  14  -2  13   13.49    5.71
  14  -2  14   73.33   11.84
  14   2  14   64.09   10.70
  14   2  15   11.02    5.14
  14  -2  15   22.54    5.79
  14  -2  16   79.02   12.07
  14   2  16   94.20   13.09
  14   2  17   18.75    6.73
  14  -2  17   18.92    7.11
  14   2  18   -0.43    2.16
  14  -2  18   -0.02    3.15
  14   2  19    6.05    5.11
  14  -2  19   -2.98    3.98
  14   2  20   46.18    9.84
  14  -2  20   60.23   11.36
  14   2  21   36.71    8.41
  14  -2  21   26.94    9.62
  14   2  22   27.01    7.21
  14  -2  22   25.64    7.54
  14  -3 -14   11.67    5.59
  14  -3 -13    4.83    3.13
  14  -3 -12    9.52    5.54
  14  -3 -11    6.72    4.36
  14  -3 -10   68.83   10.55
  14  -3  -9   10.05    4.04
  14  -3  -8    2.05    2.45
  14  -3  -7    2.32    2.84
  14   3  -7    8.74    4.61
  14  -3  -6   13.71    4.67
  14   3  -6   11.29    4.51
  14  -3  -5   35.90    7.90
  14   3  -5   18.92    5.00
  14   3  -4    7.22    3.44
  14  -3  -4    4.27    4.71
  14   3  -3   24.98    6.01
  14  -3  -3   22.86    5.81
  14  -3  -2  207.01   18.45
  14   3  -2  204.45   17.25
  14   3  -1   30.99    6.86
  14  -3  -1   31.29    6.82
  14  -3   0  167.73   16.50
  14   3   0  166.06   15.51
  14   3   1   38.42    7.65
  14  -3   1   37.66    8.05
  14  -3   2  216.28   18.64
  14   3   2  177.18   16.02
  14   3   3   12.71    4.89
  14  -3   3   11.49    4.20
  14   3   4    0.57    1.64
  14  -3   4    4.49    2.30
  14   3   5   21.53    5.47
  14  -3   5   30.65    8.01
  14   3   6   10.27    5.03
  14  -3   6   19.06    5.54
  14   3   7    2.45    2.60
  14  -3   7    3.59    3.18
  14   3   8   -0.74    1.65
  14  -3   8   -0.83    2.34
  14   3   9    2.60    1.89
  14  -3   9    9.42    4.44
  14  -3  10   57.54   10.37
  14   3  10   58.06    9.45
  14   3  11   12.49    4.41
  14  -3  11    0.65    3.29
  14   3  12    8.75    4.26
  14  -3  12    6.76    4.69
  14   3  13   10.44    5.04
  14  -3  13    6.86    3.51
  14   3  14    4.20    1.84
  14  -3  14    5.95    4.84
  14   3  15   18.16    5.55
  14  -3  15    5.00    2.68
  14   3  16   14.87    6.04
  14  -3  16    8.85    2.48
  14   3  17    4.37    4.09
  14  -3  17    6.04    3.96
  14   3  18    3.88    2.00
  14  -3  18    2.21    3.99
  14   3  19    1.15    3.16
  14  -3  19    4.65    3.37
  14   3  20   10.86    4.47
  14  -3  20    9.70    6.35
  14   3  21    0.43    3.53
  14  -3  21    5.18    3.39
  14  -4 -15   18.06    6.72
  14  -4 -14   58.45   10.51
  14  -4 -13   14.30    6.04
  14  -4 -12   42.77    9.48
  14  -4 -11   69.64   11.56
  14  -4 -10   47.75    9.11
  14  -4  -9  106.53   13.93
  14  -4  -8   46.53    9.70
  14  -4  -7    5.59    3.82
  14  -4  -6   85.33   12.18
  14   4  -5   30.84    6.15
  14  -4  -5   33.64    7.23
  14  -4  -4  101.02   13.25
  14   4  -4   77.26   10.67
  14  -4  -3   63.64   10.87
  14   4  -3   67.55   10.03
  14   4  -2   10.38    3.63
  14  -4  -2   18.17    6.53
  14  -4  -1   37.87    8.09
  14   4  -1   39.51    8.19
  14  -4   0  643.41   32.31
  14   4   0  601.15   30.38
  14   4   1   33.95    7.64
  14  -4   1   35.25    8.36
  14   4   2    6.37    4.06
  14  -4   2    8.08    2.76
  14  -4   3   68.09   10.56
  14   4   3   79.48   11.10
  14  -4   4   82.81   11.70
  14   4   4   87.77   12.09
  14   4   5   32.55    7.34
  14  -4   5   35.37    8.06
  14   4   6  120.84   13.82
  14  -4   6  103.24   13.21
  14   4   7    9.13    3.76
  14  -4   7   12.14    4.78
  14   4   8   33.71    7.19
  14  -4   8   29.26    7.16
  14   4   9   93.33   12.98
  14  -4   9   87.47   12.65
  14   4  10   38.93    7.79
  14  -4  10   50.41    9.55
  14   4  11  103.53   13.44
  14  -4  11   91.29   12.57
  14   4  12   73.84   11.49
  14  -4  12   69.80   11.15
  14   4  13   18.88    5.94
  14  -4  13   13.86    5.90
  14   4  14   63.42   10.70
  14  -4  14   53.77   10.19
  14   4  15   42.88    8.98
  14  -4  15   21.97    7.59
  14   4  16   63.31   11.18
  14  -4  16   48.27    9.70
  14   4  17   43.37    8.77
  14  -4  17   47.79   10.14
  14   4  18   15.80    6.26
  14  -4  18    9.25    4.87
  14   4  19    1.93    4.09
  14  -4  19    0.09    3.12
  14   4  20   60.61   11.35
  14  -4  20   57.78   11.54
  14  -5 -16    4.40    4.48
  14  -5 -15    1.28    2.79
  14  -5 -14    2.69    2.78
  14  -5 -13   11.21    5.60
  14  -5 -12   23.25    7.02
  14  -5 -11    5.62    2.93
  14  -5 -10   19.47    6.88
  14  -5  -9   15.32    4.62
  14  -5  -8    2.67    2.49
  14  -5  -7   14.12    5.54
  14  -5  -6    2.79    3.17
  14  -5  -5    0.89    3.65
  14  -5  -4   13.41    5.34
  14   5  -4   16.08    5.25
  14  -5  -3    7.98    4.59
  14   5  -3    7.96    3.30
  14  -5  -2    9.13    4.19
  14   5  -2    9.26    4.66
  14  -5  -1   57.88   10.96
  14   5  -1   75.55   11.33
  14   5   0  145.14   15.34
  14  -5   0  141.68   15.52
  14   5   1   61.16   10.37
  14  -5   1   57.61   10.50
  14  -5   2    8.52    3.91
  14   5   2   23.59    6.59
  14  -5   3   14.68    5.75
  14   5   3   16.87    4.66
  14  -5   4   22.10    6.09
  14   5   4   16.14    5.04
  14  -5   5   -0.26    3.07
  14   5   5    7.66    4.47
  14  -5   6   -0.59    2.93
  14   5   6   -1.99    2.89
  14  -5   7   23.38    5.70
  14   5   7    6.88    3.47
  14  -5   8    7.12    5.19
  14   5   8    4.00    3.63
  14  -5   9   13.20    6.54
  14   5   9   18.76    5.75
  14  -5  10   13.47    6.19
  14   5  10   21.22    6.98
  14  -5  11    8.76    4.29
  14   5  11   19.04    6.55
  14  -5  12   23.64    6.65
  14   5  12    8.02    2.34
  14  -5  13    7.00    2.79
  14   5  13    9.41    4.11
  14  -5  14    3.33    3.80
  14   5  14   10.97    4.27
  14  -5  15   -2.97    5.09
  14   5  15    2.02    4.73
  14  -5  16   13.94    5.76
  14   5  16   11.83    5.85
  14  -5  17   -0.78    3.49
  14   5  17   -1.39    2.77
  14  -5  18    1.33    4.07
  14   5  18   -1.41    3.39
  14  -6 -16   41.25    9.79
  14  -6 -15    6.28    4.79
  14  -6 -14    4.44    3.71
  14  -6 -13    3.06    4.48
  14  -6 -12   60.74   10.97
  14  -6 -11   22.61    6.14
  14  -6 -10  146.61   16.92
  14  -6  -9   28.20    6.94
  14  -6  -8   20.52    7.07
  14  -6  -7   25.32    7.28
  14  -6  -6  129.40   16.04
  14  -6  -5   -2.28    2.06
  14  -6  -4   96.94   13.70
  14  -6  -3   27.06    6.18
  14   6  -3    2.42    2.25
  14  -6  -2   39.55    8.83
  14   6  -2   41.74    8.69
  14  -6  -1   46.63    9.40
  14   6  -1   49.49    9.39
  14  -6   0  254.23   21.35
  14   6   0  293.48   22.63
  14  -6   1   46.08    9.32
  14   6   1   51.94    9.87
  14  -6   2   39.97    8.58
  14   6   2   36.24    8.14
  14   6   3   51.28    9.55
  14  -6   3   46.46    8.92
  14  -6   4   91.27   12.63
  14   6   4  100.49   13.20
  14  -6   5   11.96    4.78
  14   6   5    4.49    3.97
  14  -6   6  149.93   16.36
  14   6   6  160.89   16.84
  14  -6   7   28.81    6.82
  14   6   7   16.08    5.75
  14  -6   8   -1.74    4.06
  14   6   8    6.15    3.91
  14  -6   9   38.70    8.91
  14   6   9   31.80    7.73
  14  -6  10  103.49   14.40
  14   6  10  112.72   14.19
  14  -6  11   16.12    5.37
  14   6  11   35.88    8.60
  14  -6  12   44.59    9.16
  14   6  12   39.63    8.16
  14  -6  13   11.11    6.94
  14   6  13    7.95    3.87
  14  -6  14    2.70    4.45
  14   6  14    8.97    4.70
  14  -6  15    4.87    6.40
  14   6  15   15.24    6.44
  14  -6  16   22.31    9.17
  14   6  16   32.18    7.51
  14  -7 -13    9.63    5.84
  14  -7 -12    2.54    3.28
  14  -7 -11    6.06    5.86
  14  -7 -10    1.12    3.62
  14  -7  -9    5.19    3.26
  14  -7  -8   15.16    4.69
  14  -7  -7    1.74    2.90
  14  -7  -6   38.92    8.69
  14  -7  -5   20.00    7.33
  14  -7  -4    7.28    4.66
  14  -7  -3   16.68    4.71
  14  -7  -2   18.21    6.78
  14  -7  -1   -5.29    5.04
  14   7  -1    1.31    2.71
  14   7   0   42.53    9.06
  14  -7   0   68.72   11.29
  14  -7   1    3.47    4.58
  14   7   1   -4.30    4.81
  14  -7   2   12.07    5.08
  14   7   2   21.24    6.63
  14  -7   3   14.53    5.60
  14   7   3   20.13    6.09
  14  -7   4   16.59    6.51
  14   7   4    4.58    3.66
  14  -7   5   24.82    7.33
  14   7   5   17.75    5.29
  14  -7   6   28.79    8.39
  14   7   6   48.69    9.47
  14  -7   7   14.64    6.27
  14   7   7    1.67    3.75
  14  -7   8    2.18    2.37
  14   7   8   22.78    6.23
  14  -7   9    0.66    3.10
  14   7   9    1.90    3.26
  14  -7  10    2.83    3.05
  14   7  10    0.46    3.28
  14  -7  11   16.16    6.97
  14   7  11    7.11    2.18
  14  -7  12   24.19    7.55
  14   7  12   16.08    5.93
  14  -7  13   12.30    4.78
  14   7  13    4.66    2.21
  14  -8  -8   14.33    6.28
  14  -8  -7    3.04    3.52
  14  -8  -6   20.06    6.17
  14  -8  -5    2.66    2.42
  14  -8  -4   40.32    9.00
  14  -8  -3    3.70    3.52
  14  -8  -2   11.29    4.94
  14  -8  -1    5.80    4.20
  14  -8   0    7.00    4.28
  14  -8   1    9.17    3.28
  14   8   1   13.79    5.35
  14  -8   2   12.10    5.00
  14   8   2   -0.51    2.96
  14  -8   3   12.45    5.31
  14   8   3    5.79    2.51
  14  -8   4   23.20    6.64
  14   8   4   34.18    8.65
  14  -8   5   -0.82    3.17
  14   8   5    2.31    4.46
  14  -8   6   33.18    8.41
  14   8   6   16.70    5.90
  14  -8   7    7.15    3.93
  14   8   7   10.77    4.34
  14  -8   8   11.95    5.96
  14   8   8   11.01    6.10
  15   0 -10    5.50    5.24
  15   0  -9    0.05    3.58
  15   0  -8    1.30    3.36
  15   0  -7    3.00    3.47
  15   0  -6    0.47    2.13
  15   0  -5   -0.45    2.90
  15   0  -4   -1.31    1.75
  15   0  -3   -1.10    2.23
  15   0  -2   -1.42    1.83
  15   0  -1    1.19    1.67
  15   0   0    2.39    2.30
  15   0   1   -1.40    2.63
  15   0   2    2.53    4.53
  15   0   3    1.04    2.57
  15   0   4   -1.91    1.55
  15   0   5    0.14    2.65
  15   0   6    2.03    4.13
  15   0   7    0.63    3.33
  15   0   8    3.65    3.06
  15   0   9   -0.88    3.49
  15   0  10   -1.88    2.57
  15   0  11   -0.81    1.62
  15   0  12   -3.49    2.69
  15   0  13   -2.58    3.95
  15   0  14   -1.33    3.30
  15   0  15   -0.03    2.48
  15   0  16   -0.74    4.82
  15   0  17   -0.07    3.70
  15   0  18   -0.82    2.66
  15   0  19    2.39    3.67
  15   0  20    1.22    2.45
  15   0  21    3.28    5.23
  15  -1 -11    2.65    4.12
  15  -1 -10   18.39    6.29
  15  -1  -9    6.05    3.34
  15   1  -9   -2.94    3.55
  15  -1  -8   50.21    9.51
  15   1  -8   58.28    9.92
  15  -1  -7  117.82   13.88
  15   1  -7  114.19   13.59
  15  -1  -6    7.33    2.79
  15   1  -6   13.01    5.25
  15  -1  -5   48.90    9.25
  15   1  -5   48.37    9.19
  15  -1  -4   56.33    9.64
  15   1  -4   38.17    7.93
  15  -1  -3   68.92   10.57
  15   1  -3   99.13   12.31
  15  -1  -2    8.14    4.35
  15   1  -2    6.94    3.75
  15  -1  -1    1.05    3.37
  15   1  -1   -1.06    2.42
  15  -1   0   -1.21    1.72
  15   1   0    1.30    2.72
  15  -1   1    1.62    2.42
  15   1   1    1.25    2.66
  15  -1   2   13.93    5.34
  15   1   2    8.76    4.27
  15  -1   3   82.61   11.54
  15   1   3   64.03    9.96
  15  -1   4   48.84    8.98
  15   1   4   55.32    9.38
  15   1   5   47.76    8.26
  15  -1   5   27.55    6.37
  15   1   6    6.42    3.78
  15  -1   6   12.62    2.93
  15  -1   7  144.28   15.83
  15   1   7  136.37   14.78
  15  -1   8   46.54    9.34
  15   1   8   46.79    8.63
  15   1   9    9.64    4.50
  15  -1   9    9.43    4.05
  15   1  10   17.83    5.27
  15  -1  10   19.79    5.43
  15   1  11    7.21    2.95
  15  -1  11    3.21    3.74
  15   1  12   24.09    6.12
  15  -1  12   36.21    8.09
  15  -1  13  183.44   18.15
  15   1  13  192.66   18.46
  15   1  14   18.12    5.70
  15  -1  14   26.87    6.87
  15   1  15    5.42    2.89
  15  -1  15    4.23    1.88
  15   1  16   38.55    8.21
  15  -1  16   29.19    7.39
  15   1  17   60.66   10.58
  15  -1  17   45.76    8.49
  15   1  18    0.09    3.13
  15  -1  18    7.00    5.31
  15   1  19   30.36    7.98
  15  -1  19   24.16    7.50
  15   1  20    2.35    3.10
  15  -1  20   -1.15    3.16
  15   1  21    6.36    4.12
  15  -1  21    1.70    2.83
  15  -2 -12    9.77    4.43
  15  -2 -11   10.95    4.71
  15  -2 -10   16.60    5.55
  15  -2  -9   10.35    4.95
  15  -2  -8    6.32    3.32
  15  -2  -7   14.18    4.04
  15   2  -7   18.32    4.89
  15  -2  -6    8.53    4.99
  15   2  -6   10.30    3.68
  15  -2  -5   11.38    4.31
  15   2  -5   15.13    4.52
  15  -2  -4   10.60    4.83
  15   2  -4    9.41    2.43
  15  -2  -3    1.74    3.72
  15   2  -3    0.91    2.96
  15  -2  -2    0.12    2.69
  15   2  -2    2.62    2.32
  15  -2  -1   -0.42    1.56
  15   2  -1    4.47    3.42
  15   2   0    3.62    3.91
  15  -2   0    3.20    3.36
  15   2   1    3.81    2.39
  15  -2   1   -0.57    2.55
  15   2   2    2.69    3.54
  15  -2   2    2.72    1.42
  15   2   3   -0.94    2.37
  15  -2   3    1.24    2.67
  15   2   4   11.70    4.18
  15  -2   4   12.73    5.10
  15   2   5   16.79    6.06
  15  -2   5   11.09    4.26
  15   2   6    2.07    3.43
  15  -2   6    8.32    3.79
  15   2   7   27.31    6.69
  15  -2   7   29.34    7.32
  15   2   8    5.23    3.44
  15  -2   8    9.23    4.07
  15   2   9   10.35    3.97
  15  -2   9    8.25    3.43
  15   2  10   23.80    6.44
  15  -2  10   29.25    7.66
  15   2  11    6.31    3.54
  15  -2  11    6.58    4.49
  15   2  12    5.52    4.87
  15  -2  12    0.24    2.21
  15   2  13   28.52    7.27
  15  -2  13   53.02   10.04
  15   2  14   17.43    5.11
  15  -2  14   20.61    6.51
  15   2  15   17.88    6.22
  15  -2  15   19.69    7.14
  15   2  16   11.48    5.88
  15  -2  16   25.22    8.16
  15   2  17   -0.53    4.26
  15  -2  17    0.09    3.79
  15   2  18    5.69    2.61
  15  -2  18    9.00    5.53
  15   2  19    8.12    4.44
  15  -2  19    6.28    4.63
  15   2  20   -3.45    3.49
  15  -2  20   -0.39    3.32
  15  -3 -13   18.00    5.91
  15  -3 -12   81.00   12.56
  15  -3 -11   26.66    7.29
  15  -3 -10    7.47    4.63
  15  -3  -9   24.26    7.07
  15  -3  -8   16.31    5.95
  15  -3  -7   22.12    6.63
  15  -3  -6   60.69   10.30
  15   3  -6   40.24    8.31
  15  -3  -5   28.92    7.47
  15   3  -5   37.28    8.05
  15  -3  -4   31.69    6.74
  15   3  -4   27.74    6.26
  15  -3  -3  115.48   14.20
  15   3  -3  133.07   14.88
  15   3  -2   43.11    7.69
  15  -3  -2   36.12    8.15
  15   3  -1   37.72    8.14
  15  -3  -1   39.95    8.69
  15  -3   0   64.05   10.27
  15   3   0   71.36   10.40
  15  -3   1   55.70    9.78
  15   3   1   50.38    9.50
  15   3   2   26.98    6.92
  15  -3   2   23.71    7.19
  15  -3   3  125.38   14.60
  15   3   3  101.65   12.79
  15   3   4   25.41    6.68
  15  -3   4   25.85    6.68
  15   3   5   24.61    7.09
  15  -3   5   33.74    7.83
  15  -3   6   37.06    7.55
  15   3   6   52.18    9.35
  15   3   7    9.12    3.50
  15  -3   7   28.07    6.91
  15   3   8   29.62    8.10
  15  -3   8   28.49    7.44
  15   3   9   15.12    4.88
  15  -3   9   13.55    5.22
  15   3  10    9.04    2.73
  15  -3  10    2.54    2.79
  15   3  11   26.54    7.34
  15  -3  11   36.56    8.13
  15  -3  12   77.12   11.59
  15   3  12   91.84   12.90
  15   3  13   12.56    5.77
  15  -3  13    2.54    3.29
  15   3  14   31.03    8.05
  15  -3  14   14.86    4.71
  15   3  15   14.06    5.38
  15  -3  15   16.80    6.20
  15   3  16   11.60    5.63
  15  -3  16   12.76    6.00
  15  -3  17   71.96   12.60
  15   3  17   64.58   10.87
  15   3  18   34.29    8.97
  15  -3  18   56.79   10.89
  15   3  19    2.67    3.24
  15  -3  19    5.61    2.89
  15  -4 -14   23.09    7.31
  15  -4 -13   25.53    8.32
  15  -4 -12    1.40    2.74
  15  -4 -11   28.22    7.08
  15  -4 -10   15.90    5.93
  15  -4  -9   28.95    6.75
  15  -4  -8   33.11    7.12
  15  -4  -7   48.13    9.83
  15  -4  -6   21.98    7.17
  15  -4  -5   33.58    8.18
  15   4  -5   29.28    8.36
  15   4  -4   13.64    4.44
  15  -4  -4   20.04    6.40
  15   4  -3    1.88    3.41
  15  -4  -3   14.23    4.88
  15   4  -2   -0.87    3.40
  15  -4  -2   10.36    5.93
  15   4  -1   23.13    6.59
  15  -4  -1   15.56    5.40
  15   4   0   31.27    7.41
  15  -4   0   19.27    6.07
  15   4   1   12.77    5.71
  15  -4   1   12.88    5.02
  15   4   2   -0.69    2.85
  15  -4   2    5.29    4.27
  15   4   3    8.28    4.77
  15  -4   3    2.61    3.35
  15   4   4   11.93    4.40
  15  -4   4   12.54    5.72
  15   4   5   39.35    8.09
  15  -4   5   22.60    7.15
  15   4   6   18.34    6.80
  15  -4   6   19.05    5.93
  15  -4   7   47.74    9.47
  15   4   7   47.18    9.27
  15  -4   8   35.63    8.00
  15   4   8   56.27    9.83
  15   4   9   22.01    7.12
  15  -4   9   29.86    7.21
  15   4  10   13.98    5.13
  15  -4  10    3.03    2.26
  15  -4  11   40.12    8.75
  15   4  11   44.02    8.96
  15   4  12    2.43    1.55
  15  -4  12    4.38    3.22
  15   4  13   30.25    7.91
  15  -4  13   24.53    6.71
  15   4  14   29.73    7.28
  15  -4  14   28.62    7.04
  15   4  15   17.22    5.83
  15  -4  15   17.75    7.39
  15   4  16   22.93    7.25
  15  -4  16    9.83    4.97
  15   4  17   17.67    7.59
  15  -4  17   21.55    7.38
  15   4  18   -2.89    5.14
  15  -4  18    4.41    3.86
  15  -5 -15   19.12    6.66
  15  -5 -14   24.86    8.05
  15  -5 -13   46.61   10.90
  15  -5 -12   17.93    7.17
  15  -5 -11    9.57    5.20
  15  -5 -10   30.24    7.94
  15  -5  -9   72.37   11.64
  15  -5  -8   16.60    4.28
  15  -5  -7   18.53    4.86
  15  -5  -6   28.82    8.13
  15  -5  -5    6.27    2.93
  15  -5  -4   16.80    5.33
  15  -5  -3   96.01   12.65
  15   5  -3   87.07   12.33
  15   5  -2   -0.81    2.61
  15  -5  -2   -1.24    3.05
  15  -5  -1   81.84   12.35
  15   5  -1   65.02   10.37
  15  -5   0   84.32   12.43
  15   5   0   71.39   11.42
  15  -5   1   83.16   12.45
  15   5   1   69.54   10.98
  15  -5   2   -0.55    3.17
  15   5   2    5.27    2.19
  15  -5   3   41.43    9.43
  15   5   3   84.40   12.79
  15  -5   4   23.68    5.80
  15   5   4   35.29    8.16
  15  -5   5    1.48    3.54
  15   5   5    7.12    3.91
  15   5   6   40.64    9.18
  15  -5   6   33.52    7.53
  15  -5   7   17.91    6.82
  15   5   7   36.87    8.48
  15  -5   8   12.26    5.53
  15   5   8   10.32    5.12
  15   5   9   93.79   12.82
  15  -5   9  101.81   13.65
  15  -5  10   37.61    8.72
  15   5  10   42.13    8.64
  15  -5  11    8.99    4.23
  15   5  11    3.79    3.07
  15  -5  12   14.17    5.75
  15   5  12   20.00    6.15
  15  -5  13   37.83    8.51
  15   5  13   53.36    9.61
  15  -5  14   17.71    6.10
  15   5  14   12.40    4.35
  15  -5  15   17.87    6.64
  15   5  15    8.45    4.34
  15  -5  16   12.79    6.12
  15   5  16    9.71    5.89
  15  -6 -14    4.06    5.14
  15  -6 -13    0.65    4.03
  15  -6 -12    3.61    2.42
  15  -6 -11    4.86    4.95
  15  -6 -10   15.44    5.50
  15  -6  -9    3.99    3.93
  15  -6  -8    6.76    6.11
  15  -6  -7    4.37    2.74
  15  -6  -6   16.55    6.47
  15  -6  -5   11.75    5.75
  15  -6  -4   45.26    9.64
  15  -6  -3    2.32    3.28
  15  -6  -2   21.39    6.35
  15   6  -2   35.18    8.20
  15  -6  -1   36.60    7.89
  15   6  -1   39.21    9.08
  15  -6   0   33.55    7.42
  15   6   0   58.26   10.19
  15  -6   1   29.46    7.10
  15   6   1   24.58    6.78
  15  -6   2   28.62    7.90
  15   6   2   28.51    7.18
  15  -6   3    0.63    3.88
  15   6   3   -0.96    2.11
  15  -6   4   34.57    8.41
  15   6   4   34.95    7.96
  15  -6   5   16.79    6.76
  15   6   5    0.95    2.95
  15  -6   6   20.69    6.29
  15   6   6   12.07    5.57
  15  -6   7   11.80    6.78
  15   6   7    4.07    2.73
  15  -6   8    4.83    4.54
  15   6   8    9.00    4.89
  15  -6   9   -0.22    3.59
  15   6   9    5.84    4.70
  15  -6  10   19.88    7.01
  15   6  10   29.13    8.07
  15  -6  11    4.79    4.31
  15   6  11    3.22    4.55
  15  -6  12    8.41    4.99
  15   6  12    7.05    4.66
  15  -6  13   -3.91    4.66
  15   6  13    1.59    1.89
  15  -6  14   -2.12    3.21
  15   6  14    8.44    4.10
  15  -7 -10   28.97    7.58
  15  -7  -9   28.43    7.93
  15  -7  -8    2.18    4.44
  15  -7  -7   24.83    7.28
  15  -7  -6    5.30    4.22
  15  -7  -5    2.99    4.72
  15  -7  -4    9.04    4.59
  15  -7  -3   27.18    7.72
  15  -7  -2    4.75    4.51
  15  -7  -1   16.98    5.83
  15  -7   0   26.18    6.69
  15   7   0   20.32    6.17
  15   7   1   29.94    8.17
  15  -7   1   59.57   10.61
  15  -7   2    4.82    3.63
  15   7   2   10.69    5.45
  15  -7   3   36.34    8.10
  15   7   3   30.67    8.62
  15  -7   4    5.16    2.82
  15   7   4   21.48    6.23
  15  -7   5   13.40    6.76
  15   7   5    7.61    4.71
  15  -7   6    1.42    3.93
  15   7   6    7.13    4.44
  15  -7   7   37.41    8.98
  15   7   7   32.52    7.62
  15  -7   8   -3.71    3.17
  15   7   8   -0.16    3.69
  15  -7   9   37.75    8.96
  15   7   9   32.83    7.63
  15  -7  10   35.81    9.71
  15   7  10   25.66    6.42
  15  -8  -2   26.83    8.34
  15  -8  -1    6.54    4.14
  15  -8   0   18.12    7.19
  15  -8   1    3.35    2.46
  15   8   1    5.42    6.10
  15  -8   2   34.43    8.54
  15   8   2   26.60    7.66
  16   0  -9   44.65    9.36
  16   0  -8   34.41    7.62
  16   0  -7  230.64   20.18
  16   0  -6    7.60    4.07
  16   0  -5    6.20    2.91
  16   0  -4   59.56   10.10
  16   0  -3  171.62   16.81
  16   0  -2  153.26   15.59
  16   0  -1   25.34    6.71
  16   0   0    6.25    4.13
  16   0   1   28.54    7.14
  16   0   2  164.63   16.46
  16   0   3  168.93   16.74
  16   0   4   42.40    9.12
  16   0   5   -0.80    2.50
  16   0   6   13.77    4.85
  16   0   7  194.25   17.75
  16   0   8   24.00    6.85
  16   0   9   39.92    8.99
  16   0  10   21.11    5.94
  16   0  11   28.16    7.08
  16   0  12   13.10    5.81
  16   0  13  270.94   21.49
  16   0  14    3.18    2.40
  16   0  15   12.54    4.41
  16   0  16   10.65    5.17
  16   0  17   96.57   13.70
  16   0  18   40.73    9.59
  16   0  19  110.08   14.75
  16  -1 -10    2.84    2.22
  16  -1  -9   12.73    4.35
  16  -1  -8    2.20    3.06
  16   1  -8   -2.01    3.54
  16  -1  -7    2.05    2.14
  16   1  -7    3.33    4.31
  16  -1  -6    7.72    3.84
  16   1  -6    3.35    2.99
  16  -1  -5   19.77    5.79
  16   1  -5   25.01    6.63
  16  -1  -4   -1.78    2.41
  16   1  -4   -2.73    3.30
  16  -1  -3   53.33    9.48
  16   1  -3   52.04    9.62
  16  -1  -2   -1.31    4.04
  16   1  -2   -0.61    3.18
  16  -1  -1   10.91    4.44
  16   1  -1   19.80    5.74
  16  -1   0   -1.11    2.67
  16   1   0    4.99    3.60
  16  -1   1    2.81    2.94
  16   1   1    7.70    2.14
  16  -1   2   -0.30    2.14
  16   1   2    2.58    1.64
  16   1   3   40.98    8.34
  16  -1   3   34.06    8.01
  16  -1   4    1.59    3.20
  16   1   4    3.68    4.04
  16  -1   5   29.60    7.00
  16   1   5   22.46    6.58
  16  -1   6    0.39    2.03
  16   1   6   -0.40    2.74
  16  -1   7    3.52    4.62
  16   1   7   -0.95    2.33
  16   1   8    4.00    4.04
  16  -1   8    1.12    2.41
  16   1   9    7.20    3.68
  16  -1   9    7.80    5.14
  16   1  10    5.19    3.68
  16  -1  10   -0.43    2.67
  16   1  11    3.35    3.85
  16  -1  11    2.98    3.97
  16   1  12    1.53    2.03
  16  -1  12   -0.78    1.81
  16   1  13    6.39    5.18
  16  -1  13   12.62    5.50
  16   1  14   25.02    7.06
  16  -1  14   34.84    9.17
  16   1  15   10.46    5.23
  16  -1  15   11.34    6.44
  16   1  16    2.13    4.09
  16  -1  16    1.96    4.30
  16   1  17   10.86    5.34
  16  -1  17   11.37    5.13
  16   1  18   -2.02    3.95
  16  -1  18   -3.79    3.60
  16   1  19   -3.04    3.55
  16  -1  19   -0.13    3.26
  16  -2 -12   -3.94    2.85
  16  -2 -11   22.00    6.06
  16  -2 -10    4.89    2.68
  16  -2  -9   33.03    8.16
  16  -2  -8    8.93    3.48
  16  -2  -7  103.52   13.99
  16   2  -7  133.26   15.43
  16  -2  -6    4.21    3.87
  16   2  -6    5.52    2.80
  16  -2  -5   13.64    4.83
  16   2  -5    7.82    3.85
  16  -2  -4    7.96    3.83
  16   2  -4   10.03    3.08
  16  -2  -3  106.64   13.95
  16   2  -3  122.81   15.05
  16  -2  -2    5.10    4.12
  16   2  -2    9.12    4.25
  16  -2  -1    6.83    2.24
  16   2  -1   20.53    6.11
  16  -2   0    2.31    3.09
  16   2   0    4.98    2.93
  16  -2   1   12.39    4.79
  16   2   1   11.20    4.17
  16   2   2   11.40    4.35
  16  -2   2    6.70    3.72
  16  -2   3  136.36   15.07
  16   2   3  112.01   13.77
  16   2   4   13.90    4.47
  16  -2   4    9.71    4.46
  16   2   5   19.57    6.34
  16  -2   5    7.71    4.42
  16   2   6   13.22    5.34
  16  -2   6    5.63    3.61
  16  -2   7   88.44   11.88
  16   2   7  103.82   13.45
  16   2   8   10.88    4.87
  16  -2   8    5.30    4.09
  16   2   9   26.83    6.84
  16  -2   9   17.17    5.94
  16   2  10    9.51    4.72
  16  -2  10    7.38    3.71
  16   2  11   16.89    5.82
  16  -2  11   32.63    8.47
  16   2  12   23.60    7.03
  16  -2  12   14.99    5.21
  16  -2  13  109.23   15.78
  16   2  13  155.32   16.60
  16   2  14    7.20    4.39
  16  -2  14   10.48    6.16
  16   2  15    0.20    3.82
  16  -2  15   -0.42    3.72
  16   2  16    7.82    4.58
  16  -2  16    3.01    4.13
  16  -2  17   84.54   12.99
  16   2  17   77.68   12.06
  16   2  18   10.32    5.30
  16  -2  18    2.59    3.68
  16   2  19   11.50    6.22
  16  -2  19   12.08    6.56
  16  -3 -13   -8.44    4.19
  16  -3 -12    0.37    3.13
  16  -3 -11    9.84    6.20
  16  -3 -10    2.50    2.66
  16  -3  -9    1.54    2.18
  16  -3  -8    5.45    3.34
  16  -3  -7   13.97    4.65
  16  -3  -6    0.40    2.53
  16  -3  -5    7.10    4.53
  16   3  -5    6.22    4.45
  16  -3  -4    6.31    4.37
  16   3  -4    7.58    3.22
  16  -3  -3   -0.77    3.19
  16   3  -3    1.94    3.09
  16   3  -2    2.58    3.93
  16  -3  -2    2.47    3.78
  16   3  -1    0.68    1.76
  16  -3  -1    5.58    3.97
  16   3   0    0.11    2.49
  16  -3   0    1.76    2.98
  16   3   1    1.95    1.80
  16  -3   1    8.89    4.96
  16   3   2    3.69    3.84
  16  -3   2    3.38    4.60
  16   3   3    1.56    3.78
  16  -3   3    6.92    5.25
  16   3   4   -0.37    1.66
  16  -3   4    3.65    2.61
  16   3   5    2.43    2.71
  16  -3   5    5.96    4.64
  16   3   6    0.17    2.93
  16  -3   6    3.72    4.66
  16   3   7    5.91    3.25
  16  -3   7   11.25    5.53
  16   3   8    4.14    3.79
  16  -3   8   -1.05    3.73
  16   3   9    6.06    4.02
  16  -3   9    2.42    2.78
  16   3  10    1.48    1.88
  16  -3  10   -1.54    2.26
  16   3  11   18.41    5.82
  16  -3  11   12.79    5.41
  16   3  12   -0.70    3.23
  16  -3  12   -2.41    2.60
  16   3  13    4.44    4.68
  16  -3  13    6.16    6.31
  16   3  14    9.19    6.45
  16  -3  14    0.46    3.09
  16   3  15   -1.69    3.61
  16  -3  15    0.67    2.82
  16   3  16    3.61    3.46
  16  -3  16    4.94    3.34
  16   3  17   -1.82    4.31
  16  -3  17    2.78    3.94
  16   3  18    0.64    2.13
  16  -3  18    1.21    4.06
  16  -4 -14   -4.88    3.84
  16  -4 -13  134.60   16.63
  16  -4 -12   11.03    4.73
  16  -4 -11   14.15    4.59
  16  -4 -10    8.51    4.22
  16  -4  -9   53.99   10.26
  16  -4  -8    2.12    3.08
  16  -4  -7   57.10   10.57
  16  -4  -6    1.61    3.58
  16  -4  -5   47.64    9.39
  16   4  -4    8.71    2.43
  16  -4  -4    8.68    4.52
  16  -4  -3  111.31   14.53
  16   4  -3  105.83   13.32
  16   4  -2   15.67    5.69
  16  -4  -2   12.35    5.12
  16   4  -1   27.46    7.22
  16  -4  -1   25.06    7.05
  16   4   0    5.14    4.64
  16  -4   0    2.38    2.66
  16   4   1   18.43    4.89
  16  -4   1   20.57    6.53
  16   4   2   14.84    5.91
  16  -4   2   10.47    4.59
  16  -4   3  131.69   15.25
  16   4   3  127.40   14.57
  16   4   4    5.01    4.15
  16  -4   4   -1.49    3.67
  16   4   5   27.03    6.75
  16  -4   5   17.85    6.52
  16   4   6    2.71    3.18
  16  -4   6    1.08    2.46
  16  -4   7   59.46   10.54
  16   4   7   52.92   10.42
  16   4   8    2.15    3.08
  16  -4   8   -4.10    3.68
  16  -4   9   69.29   11.90
  16   4   9   62.30   10.34
  16   4  10   17.38    6.42
  16  -4  10   18.53    5.49
  16   4  11   26.11    7.57
  16  -4  11   28.20    6.77
  16   4  12   11.27    3.34
  16  -4  12    7.12    4.20
  16  -4  13  161.96   18.23
  16   4  13  128.33   15.51
  16   4  14    6.88    4.36
  16  -4  14    6.04    4.12
  16   4  15    9.14    4.51
  16  -4  15   13.44    4.27
  16   4  16    9.35    5.16
  16  -4  16   12.61    4.62
  16  -5 -14   31.63    8.33
  16  -5 -13    3.34    4.25
  16  -5 -12   12.79    4.56
  16  -5 -11   13.10    6.76
  16  -5 -10   11.57    5.51
  16  -5  -9    2.70    2.95
  16  -5  -8    2.11    2.96
  16  -5  -7    3.15    3.44
  16  -5  -6    3.13    4.28
  16  -5  -5   39.97    8.79
  16  -5  -4   15.38    6.50
  16   5  -3    6.14    5.70
  16  -5  -3    7.66    4.23
  16   5  -2    3.20    3.40
  16  -5  -2    3.43    2.88
  16   5  -1   19.66    6.99
  16  -5  -1   22.56    7.34
  16   5   0   -0.37    2.31
  16  -5   0    3.58    5.34
  16   5   1    7.14    3.85
  16  -5   1   28.56    7.48
  16   5   2    8.72    5.01
  16  -5   2   -1.70    3.31
  16   5   3    7.07    4.73
  16  -5   3    1.18    3.62
  16   5   4   23.80    7.30
  16  -5   4    6.73    4.76
  16   5   5   32.81    8.32
  16  -5   5   26.36    6.37
  16  -5   6    3.40    4.03
  16   5   6    5.40    4.48
  16  -5   7    0.39    3.03
  16   5   7    0.83    2.91
  16  -5   8    1.52    2.30
  16   5   8    3.72    3.29
  16  -5   9    3.11    2.10
  16   5   9    3.75    5.37
  16  -5  10   13.22    5.63
  16   5  10    2.53    2.99
  16  -5  11    2.44    2.96
  16   5  11    8.36    3.94
  16  -5  12    8.35    4.59
  16   5  12    5.67    2.77
  16  -5  13    0.07    2.91
  16   5  13    2.53    3.63
  16   5  14   36.39    9.16
  16  -5  14   33.10    8.07
  16  -6 -11   18.10    7.55
  16  -6 -10    9.20    4.14
  16  -6  -9   62.16   11.67
  16  -6  -8    7.26    3.37
  16  -6  -7   46.40    9.74
  16  -6  -6    2.15    2.39
  16  -6  -5    2.01    2.21
  16  -6  -4    9.51    5.45
  16  -6  -3   66.23   11.18
  16  -6  -2   46.91    9.11
  16  -6  -1   51.54   10.11
  16   6  -1   43.62    8.94
  16  -6   0    4.53    4.43
  16   6   0    2.67    4.79
  16  -6   1   47.55    9.75
  16   6   1   44.44    9.53
  16  -6   2   54.23   11.38
  16   6   2   69.89   11.50
  16  -6   3   65.43   11.73
  16   6   3   72.27   11.15
  16  -6   4   13.35    5.39
  16   6   4   11.45    5.59
  16  -6   5   -2.74    2.64
  16   6   5   -0.35    3.33
  16  -6   6    7.98    5.46
  16   6   6    8.51    4.92
  16   6   7   66.06   11.37
  16  -6   7   82.26   12.23
  16  -6   8    4.03    4.09
  16   6   8    8.42    5.30
  16   6   9   54.08   10.96
  16  -6   9   52.76   11.16
  16  -6  10   11.63    4.82
  16   6  10   10.52    4.97
  16  -6  11    4.98    2.86
  16   6  11   24.02    7.05
  16  -7  -6   -1.31    4.33
  16  -7  -5   22.44    8.07
  16  -7  -4    3.76    4.82
  16  -7  -3   17.82    6.19
  16  -7  -2    2.10    2.18
  16  -7  -1   -4.54    4.15
  16  -7   0    4.19    4.16
  16   7   0   -9.41    4.36
  16  -7   1   -3.12    3.75
  16   7   1   -6.36    5.83
  16  -7   2    0.49    4.60
  16   7   2    0.27    4.37
  16  -7   3   24.98    6.94
  16   7   3    7.57    4.06
  16  -7   4    4.42    3.22
  16   7   4    1.71    3.59
  16  -7   5   43.04    9.84
  16   7   5   27.91    7.77
  16  -7   6    7.76    3.69
  16   7   6    1.19    2.27
  17   0  -8    2.24    4.35
  17   0  -7   -1.93    4.94
  17   0  -6    0.42    4.43
  17   0  -5    0.19    2.69
  17   0  -4    0.04    3.12
  17   0  -3   -0.42    2.29
  17   0  -2   -0.21    1.99
  17   0  -1   -0.13    2.23
  17   0   0   -1.06    2.91
  17   0   1   -1.49    2.42
  17   0   2   -0.01    3.86
  17   0   3    3.57    3.46
  17   0   4    1.01    2.60
  17   0   5   -0.68    1.70
  17   0   6   -0.20    2.25
  17   0   7    2.85    3.87
  17   0   8   -0.72    3.72
  17   0   9    3.70    2.64
  17   0  10   -1.28    2.77
  17   0  11   -0.10    3.71
  17   0  12    0.32    3.75
  17   0  13   -0.97    4.22
  17   0  14   -1.19    3.63
  17   0  15   -0.22    3.00
  17   0  16   -1.95    2.72
  17   0  17   -1.03    2.48
  17  -1 -10   54.53   11.73
  17  -1  -9   42.53    9.44
  17  -1  -8   28.07    6.84
  17  -1  -7    7.08    3.90
  17   1  -7    1.97    2.06
  17  -1  -6   23.91    6.97
  17   1  -6   13.64    5.85
  17  -1  -5   15.09    5.55
  17   1  -5    9.52    3.30
  17  -1  -4   71.96   11.42
  17   1  -4   60.48   10.84
  17  -1  -3   93.04   13.60
  17   1  -3  108.27   14.23
  17   1  -2   67.83   10.78
  17  -1  -2   52.50    9.09
  17  -1  -1    6.81    4.37
  17   1  -1   26.53    7.50
  17  -1   0   80.36   11.77
  17   1   0   77.29   11.95
  17  -1   1   14.06    6.27
  17   1   1   15.65    5.84
  17  -1   2   42.66    8.83
  17   1   2   59.64   10.40
  17  -1   3   88.98   12.20
  17   1   3   93.08   12.77
  17  -1   4   71.77   11.07
  17   1   4   83.96   12.12
  17  -1   5    9.67    3.30
  17   1   5   13.06    4.37
  17  -1   6   10.38    5.05
  17   1   6   22.83    6.68
  17  -1   7    8.14    4.50
  17   1   7    9.11    4.10
  17  -1   8   37.65    8.43
  17   1   8   40.14    8.42
  17  -1   9   35.37    9.04
  17   1   9   25.38    6.30
  17  -1  10   41.44    8.50
  17   1  10   36.26    7.90
  17  -1  11   61.42   11.33
  17   1  11   47.94    9.21
  17  -1  12   24.45    7.14
  17   1  12   24.47    6.63
  17   1  13   26.37    7.14
  17  -1  13   21.28    6.56
  17   1  14   20.44    7.60
  17  -1  14   11.95    2.37
  17   1  15   -2.47    2.67
  17  -1  15    5.31    4.36
  17   1  16   41.03    9.82
  17  -1  16   42.19    9.33
  17   1  17   77.22   12.66
  17  -1  17   63.13   11.19
  17  -2 -11    4.94    5.17
  17  -2 -10    8.30    4.61
  17  -2  -9   13.17    6.02
  17  -2  -8   24.55    7.25
  17  -2  -7    5.50    4.32
  17  -2  -6   11.37    6.31
  17   2  -6   14.49    6.31
  17  -2  -5    3.09    1.93
  17   2  -5    9.55    5.25
  17  -2  -4    2.04    2.76
  17   2  -4    2.80    3.11
  17  -2  -3   -0.46    3.07
  17   2  -3    1.91    3.23
  17  -2  -2    2.87    2.38
  17   2  -2    1.75    2.89
  17  -2  -1   -1.50    3.61
  17   2  -1    4.60    3.92
  17  -2   0    4.56    1.94
  17   2   0   -1.27    3.37
  17  -2   1    0.93    3.66
  17   2   1    9.76    4.82
  17  -2   2    8.31    4.78
  17   2   2   -0.89    1.85
  17  -2   3    4.33    3.39
  17   2   3    0.95    2.74
  17   2   4    9.82    5.00
  17  -2   4    8.76    4.22
  17   2   5    6.78    3.87
  17  -2   5    2.98    3.86
  17   2   6   12.51    4.67
  17  -2   6    5.21    3.12
  17   2   7    8.82    5.00
  17  -2   7   18.03    6.23
  17   2   8   17.73    5.42
  17  -2   8   17.91    5.57
  17   2   9   20.30    6.62
  17  -2   9    7.70    5.18
  17   2  10    7.96    3.58
  17  -2  10   10.55    3.94
  17   2  11    3.63    2.05
  17  -2  11   -1.75    4.32
  17   2  12    0.47    1.79
  17  -2  12   -0.35    3.20
  17   2  13   13.89    5.69
  17  -2  13   11.25    5.96
  17   2  14    5.55    2.90
  17  -2  14   10.44    5.46
  17   2  15    0.78    3.80
  17  -2  15   11.61    6.23
  17   2  16   -1.86    2.85
  17  -2  16    4.64    5.92
  17  -3 -12    1.69    3.94
  17  -3 -11   13.90    5.88
  17  -3 -10   54.88   10.66
  17  -3  -9   28.71    8.43
  17  -3  -8    0.11    3.51
  17  -3  -7   28.01    7.07
  17  -3  -6    5.84    4.62
  17  -3  -5   60.96   11.13
  17   3  -5   86.12   13.00
  17  -3  -4   67.41   11.32
  17   3  -4   62.86   10.98
  17  -3  -3   15.29    4.99
  17   3  -3    7.87    2.86
  17  -3  -2   71.23   11.46
  17   3  -2   75.55   11.80
  17  -3  -1  145.22   16.62
  17   3  -1  145.20   16.16
  17   3   0   -0.04    2.79
  17  -3   0    3.31    4.51
  17  -3   1  139.54   16.08
  17   3   1  131.27   15.31
  17  -3   2   57.62   10.93
  17   3   2   84.82   12.23
  17   3   3    1.31    2.84
  17  -3   3    9.14    4.45
  17  -3   4   47.69    9.37
  17   3   4   57.53   10.57
  17  -3   5   50.62    9.98
  17   3   5   46.53    9.27
  17   3   6    4.99    3.34
  17  -3   6    7.02    4.72
  17   3   7   38.94    8.18
  17  -3   7   25.06    6.32
  17   3   8   -0.71    2.47
  17  -3   8    5.37    3.79
  17   3   9   26.82    7.48
  17  -3   9   14.98    5.47
  17   3  10   46.89    9.57
  17  -3  10   52.22   10.13
  17   3  11    8.65    5.00
  17  -3  11    8.33    4.06
  17   3  12    3.80    4.12
  17  -3  12    4.26    4.24
  17   3  13   22.24    6.37
  17  -3  13   33.40    8.99
  17   3  14   24.03    7.58
  17  -3  14   18.68    6.01
  17   3  15   22.92    6.91
  17  -3  15   30.62    8.69
  17  -4 -13   34.68    9.83
  17  -4 -12   10.98    5.52
  17  -4 -11   15.31    6.44
  17  -4 -10    3.66    3.18
  17  -4  -9    2.78    4.58
  17  -4  -8    7.50    4.13
  17  -4  -7   -0.13    3.06
  17  -4  -6   16.96    5.73
  17  -4  -5   30.49    7.85
  17  -4  -4   13.53    6.40
  17   4  -3    1.18    2.57
  17  -4  -3    4.48    3.87
  17   4  -2   24.90    7.30
  17  -4  -2   15.60    6.88
  17   4  -1   24.77    6.91
  17  -4  -1   32.99    8.50
  17   4   0   15.17    6.34
  17  -4   0   13.39    4.59
  17   4   1   39.10    9.00
  17  -4   1   27.66    6.67
  17   4   2   18.33    5.71
  17  -4   2   29.78    7.78
  17   4   3    6.27    4.19
  17  -4   3    9.57    5.39
  17   4   4    5.79    3.05
  17  -4   4    8.92    5.29
  17   4   5   41.73    8.79
  17  -4   5   32.68    7.97
  17   4   6   31.15    7.43
  17  -4   6   13.59    4.90
  17   4   7    2.55    3.33
  17  -4   7    1.97    3.34
  17   4   8    1.39    3.92
  17  -4   8    7.49    5.13
  17   4   9    3.83    3.89
  17  -4   9    3.39    3.58
  17   4  10    4.49    4.34
  17  -4  10    8.06    4.08
  17   4  11    4.95    3.00
  17  -4  11   17.95    6.98
  17   4  12    7.10    3.60
  17  -4  12   13.02    5.01
  17   4  13   39.20    8.78
  17  -4  13   46.06   10.29
  17   4  14   33.86    8.09
  17  -4  14   18.71    7.42
  17  -5 -11   16.11    6.96
  17  -5 -10   43.75    9.25
  17  -5  -9   15.35    5.82
  17  -5  -8   14.06    5.84
  17  -5  -7   46.99    9.62
  17  -5  -6   94.77   13.42
  17  -5  -5   15.43    6.29
  17  -5  -4    9.47    4.44
  17  -5  -3   16.17    6.35
  17   5  -2   13.53    7.57
  17  -5  -2   23.45    7.62
  17   5  -1   22.46    6.34
  17  -5  -1   20.28    7.26
  17   5   0   25.96    7.31
  17  -5   0   41.38    9.41
  17   5   1   20.81    7.04
  17  -5   1   20.53    6.85
  17   5   2    8.70    4.35
  17  -5   2   10.61    4.83
  17   5   3   15.12    5.00
  17  -5   3   12.12    6.47
  17   5   4   12.04    4.84
  17  -5   4    8.81    5.06
  17   5   5   21.69    6.72
  17  -5   5   13.23    4.97
  17  -5   6   78.03   12.55
  17   5   6   80.54   12.41
  17  -5   7   55.59   11.16
  17   5   7   49.28   10.28
  17   5   8   14.50    6.84
  17  -5   8    9.16    4.09
  17   5   9    7.95    5.06
  17  -5   9    6.85    3.68
  17  -5  10   74.90   12.54
  17   5  10   91.36   12.96
  17   5  11   11.82    4.57
  17  -5  11   23.82    7.81
  17  -6  -7   -0.07    2.53
  17  -6  -6   10.16    4.05
  17  -6  -5    2.93    4.10
  17  -6  -4    5.20    4.38
  17  -6  -3    6.46    5.29
  17  -6  -2    4.32    3.32
  17  -6  -1    7.91    4.57
  17   6   0    7.19    5.83
  17  -6   0   -0.79    2.39
  17  -6   1   -0.87    3.46
  17   6   1   -3.07    3.14
  17  -6   2    7.59    4.65
  17   6   2    2.80    3.12
  17  -6   3    7.82    6.28
  17   6   3   14.95    5.95
  17  -6   4    5.19    3.42
  17   6   4    5.46    3.78
  17  -6   5    6.08    2.36
  17   6   5    7.54    4.50
  17  -6   6   18.97    7.15
  17   6   6    7.69    4.72
  17  -6   7    0.35    4.21
  17   6   7   12.90    6.32
  18   0  -8   40.89   10.32
  18   0  -7   13.96    5.41
  18   0  -6   11.41    5.52
  18   0  -5  161.75   17.78
  18   0  -4  202.66   19.47
  18   0  -3  150.22   17.00
  18   0  -2   45.37    9.45
  18   0  -1   84.57   12.62
  18   0   0   49.70    9.77
  18   0   1   87.81   12.64
  18   0   2   49.42    9.84
  18   0   3  166.95   17.73
  18   0   4  187.50   18.65
  18   0   5  195.38   18.77
  18   0   6    1.39    2.31
  18   0   7   10.28    3.95
  18   0   8   25.39    6.85
  18   0   9   77.21   11.55
  18   0  10   51.71   10.86
  18   0  11  362.55   27.17
  18   0  12   66.09   11.47
  18   0  13   52.08   10.39
  18   0  14   -3.12    3.12
  18   0  15  495.50   31.81
  18  -1  -9   -1.25    3.33
  18  -1  -8    2.53    2.28
  18  -1  -7    2.04    3.11
  18   1  -7    4.87    3.28
  18  -1  -6   29.76    6.91
  18   1  -6   37.42    9.13
  18  -1  -5    0.88    4.02
  18   1  -5    0.30    2.23
  18  -1  -4    8.88    5.59
  18   1  -4   -1.89    4.83
  18  -1  -3   -0.08    3.60
  18   1  -3    5.90    4.92
  18  -1  -2    0.34    3.98
  18   1  -2    1.32    2.90
  18  -1  -1    4.14    3.95
  18   1  -1    5.60    4.56
  18  -1   0    1.87    3.61
  18   1   0    0.05    4.31
  18  -1   1    4.30    3.74
  18   1   1    5.09    3.64
  18  -1   2   -1.66    2.17
  18   1   2    2.10    2.74
  18  -1   3    8.02    4.45
  18   1   3    0.98    2.89
  18  -1   4    1.55    2.16
  18   1   4   -0.01    3.46
  18  -1   5    0.95    1.97
  18   1   5    0.82    1.84
  18  -1   6   34.58    7.87
  18   1   6   37.08    8.49
  18  -1   7    6.12    4.10
  18   1   7    5.98    4.94
  18  -1   8    0.43    3.72
  18   1   8    1.14    2.74
  18  -1   9    3.20    3.01
  18   1   9   12.17    5.28
  18  -1  10   60.02   10.96
  18   1  10   68.47   11.02
  18  -1  11    0.62    3.13
  18   1  11    8.45    4.82
  18  -1  12    2.78    3.15
  18   1  12    1.90    4.03
  18  -1  13    7.00    4.49
  18   1  13    8.37    5.84
  18  -1  14    1.41    2.95
  18   1  14    0.47    2.35
  18  -1  15   32.79    8.67
  18   1  15   37.35    9.42
  18  -2 -10   54.80   10.98
  18  -2  -9    0.40    2.88
  18  -2  -8   -1.87    3.06
  18  -2  -7    5.22    3.61
  18  -2  -6   42.72    9.22
  18  -2  -5   65.33   11.41
  18   2  -5   83.69   12.70
  18  -2  -4   77.58   12.59
  18   2  -4   62.35   10.98
  18  -2  -3    4.29    3.45
  18   2  -3   19.79    8.31
  18  -2  -2   40.38    9.72
  18   2  -2   18.52    6.35
  18  -2  -1   64.67   11.15
  18   2  -1   96.94   13.92
  18  -2   0   85.49   12.80
  18   2   0   81.84   12.20
  18  -2   1   98.39   13.64
  18   2   1  108.56   13.62
  18  -2   2   27.38    8.19
  18   2   2   15.58    5.47
  18  -2   3   15.40    5.22
  18   2   3   21.89    6.09
  18  -2   4   54.05   10.44
  18   2   4   64.66   10.36
  18  -2   5   62.13   10.99
  18   2   5   80.70   11.92
  18  -2   6   52.10   10.36
  18   2   6   49.40    9.69
  18   2   7    0.96    2.23
  18  -2   7    0.73    2.38
  18   2   8    3.72    5.04
  18  -2   8   -2.73    3.25
  18   2   9   -2.99    5.24
  18  -2   9   -0.89    3.01
  18  -2  10   64.04   11.28
  18   2  10   56.96   10.20
  18   2  11   40.53    8.85
  18  -2  11   37.87    8.61
  18   2  12    4.01    2.75
  18  -2  12    2.31    3.67
  18   2  13   15.11    5.51
  18  -2  13    6.50    4.18
  18   2  14   10.65    4.90
  18  -2  14   15.57    6.36
  18  -3 -11   -0.23    3.08
  18  -3 -10   15.21    6.16
  18  -3  -9   -0.50    4.03
  18  -3  -8    4.27    5.08
  18  -3  -7    1.68    3.57
  18  -3  -6   71.38   12.42
  18  -3  -5    1.18    2.89
  18  -3  -4   23.11    5.93
  18   3  -4   21.03    7.83
  18  -3  -3   -3.19    5.04
  18   3  -3    1.60    3.09
  18  -3  -2   -0.57    4.21
  18   3  -2    2.15    3.86
  18  -3  -1    6.80    5.34
  18   3  -1    3.75    3.85
  18  -3   0    6.04    3.21
  18   3   0    7.37    2.78
  18  -3   1    0.24    2.30
  18   3   1    1.69    3.81
  18   3   2    0.05    3.57
  18  -3   2   -0.13    2.61
  18   3   3    6.62    3.88
  18  -3   3    1.44    2.10
  18   3   4   11.12    4.76
  18  -3   4   20.31    5.84
  18   3   5    2.33    3.94
  18  -3   5    5.23    5.64
  18  -3   6   93.92   13.33
  18   3   6   62.19   10.40
  18   3   7    8.43    4.72
  18  -3   7    0.19    2.98
  18   3   8    3.26    4.48
  18  -3   8   -0.37    3.80
  18   3   9    4.24    4.04
  18  -3   9    5.82    4.78
  18   3  10    1.25    2.49
  18  -3  10    5.75    4.20
  18   3  11    0.36    2.29
  18  -3  11    8.38    6.25
  18   3  12   27.22    6.05
  18  -3  12   29.42    8.31
  18   3  13   36.52    9.22
  18  -3  13   31.67    9.52
  18  -4 -11   14.36    5.73
  18  -4 -10   57.83    9.89
  18  -4  -9   13.58    5.17
  18  -4  -8    1.65    3.39
  18  -4  -7   54.03   10.88
  18  -4  -6  123.01   16.29
  18  -4  -5   74.31   12.31
  18  -4  -4    0.86    2.12
  18  -4  -3   -2.16    5.22
  18   4  -3    2.22    2.36
  18  -4  -2   -3.82    4.09
  18   4  -2    4.07    4.57
  18  -4  -1   82.75   12.53
  18   4  -1   86.11   13.44
  18  -4   0   99.95   13.57
  18   4   0  108.62   14.22
  18  -4   1   74.69   12.39
  18   4   1   70.38   12.01
  18   4   2    2.87    4.52
  18  -4   2    5.69    3.50
  18   4   3   -0.19    2.48
  18  -4   3    0.24    2.38
  18   4   4    2.63    3.59
  18  -4   4    2.94    2.51
  18  -4   5   78.68   12.22
  18   4   5   69.01   11.00
  18  -4   6  117.23   14.94
  18   4   6   96.12   13.00
  18  -4   7   58.02   10.35
  18   4   7   64.25   11.13
  18   4   8    7.35    3.95
  18  -4   8    5.86    5.42
  18   4   9   16.28    5.65
  18  -4   9   13.71    4.92
  18  -4  10   52.22   10.16
  18   4  10   51.92   10.65
  18   4  11   25.07    7.85
  18  -4  11   28.82    7.60
  18  -5  -7   -0.50    2.40
  18  -5  -6   12.02    3.84
  18  -5  -5   -1.04    3.15
  18  -5  -4    8.10    5.32
  18  -5  -3    6.29    5.93
  18  -5  -2    1.13    2.66
  18   5  -1    7.72    3.21
  18  -5  -1    4.98    5.14
  18   5   0    3.38    2.38
  18  -5   0    1.33    2.99
  18   5   1    2.54    2.79
  18  -5   1   15.23    6.03
  18   5   2   -1.20    2.56
  18  -5   2   -0.98    2.08
  18   5   3    2.71    5.17
  18  -5   3   -0.73    3.19
  18   5   4   11.95    4.81
  18  -5   4    7.20    4.26
  18   5   5    2.49    2.38
  18  -5   5   -2.47    3.28
  18   5   6   13.85    5.89
  18  -5   6    9.51    4.76
  18   5   7    3.33    3.64
  18  -5   7    0.75    3.12
  19   0  -7   -1.55    3.64
  19   0  -6   -6.07    5.02
  19   0  -5   -0.99    3.40
  19   0  -4    2.77    4.59
  19   0  -3    1.47    2.75
  19   0  -2    1.73    4.86
  19   0  -1    0.98    3.20
  19   0   0   -0.34    2.13
  19   0   1   -2.01    2.99
  19   0   2    0.93    2.70
  19   0   3   -1.18    4.12
  19   0   4   -1.54    3.09
  19   0   5   -1.59    3.78
  19   0   6    0.70    4.01
  19   0   7    1.26    4.67
  19   0   8   -2.70    3.51
  19   0   9   -1.97    2.40
  19   0  10   -0.80    3.06
  19   0  11   -0.31    4.03
  19   0  12   -1.80    3.76
  19  -1  -8   19.43    6.41
  19  -1  -7   34.22    8.96
  19   1  -6   69.34   13.67
  19  -1  -6   54.65   10.68
  19  -1  -5   62.53   11.62
  19   1  -5   72.02   12.28
  19  -1  -4   35.16    9.03
  19   1  -4   18.49    6.78
  19  -1  -3   20.90    6.60
  19   1  -3   12.87    6.46
  19  -1  -2   62.48   10.97
  19   1  -2   71.10   12.38
  19  -1  -1   66.42   12.39
  19   1  -1   74.42   12.57
  19  -1   0    9.90    4.43
  19   1   0    9.26    5.69
  19  -1   1   63.15   10.93
  19   1   1   66.96   11.60
  19  -1   2   62.13   10.84
  19   1   2   62.48   11.43
  19  -1   3   16.76    6.82
  19   1   3    6.36    3.11
  19  -1   4   34.57    8.46
  19   1   4   21.79    6.31
  19  -1   5   77.89   12.42
  19   1   5   74.68   12.03
  19  -1   6   57.62   11.00
  19   1   6   61.50   10.73
  19   1   7   47.71   10.21
  19  -1   7   26.44    7.36
  19  -1   8   12.29    5.79
  19   1   8    9.07    3.44
  19  -1   9   21.96    6.54
  19   1   9    9.18    5.32
  19  -1  10   69.92   13.44
  19   1  10   93.52   13.62
  19  -1  11   68.07   12.07
  19   1  11   54.52   10.88
  19  -1  12    9.83    5.15
  19   1  12    5.74    3.61
  19  -2  -9    6.09    5.49
  19  -2  -8   -0.74    2.71
  19  -2  -7   12.32    4.59
  19  -2  -6   29.47    8.45
  19  -2  -5   23.31    6.12
  19   2  -5  -10.98    4.67
  19  -2  -4   11.29    4.93
  19   2  -4   11.38    6.32
  19  -2  -3    7.85    5.09
  19   2  -3   11.54    7.02
  19  -2  -2    6.18    4.41
  19   2  -2    2.76    3.90
  19  -2  -1    5.75    4.11
  19   2  -1    4.85    3.00
  19  -2   0    9.25    5.63
  19   2   0   11.01    5.95
  19  -2   1   17.59    6.32
  19   2   1    6.08    2.50
  19  -2   2   11.65    5.02
  19   2   2    3.43    2.83
  19  -2   3    6.79    4.12
  19   2   3   11.14    4.98
  19  -2   4    6.06    4.60
  19   2   4   18.26    6.68
  19  -2   5   51.15   10.22
  19   2   5   30.33    8.19
  19  -2   6   25.41    7.00
  19   2   6   27.92    7.34
  19  -2   7   20.71    6.93
  19   2   7    8.88    5.19
  19  -2   8    4.01    2.20
  19   2   8    2.03    3.60
  19  -2   9    5.25    4.95
  19   2   9    3.69    2.10
  19  -2  10    6.24    5.13
  19   2  10   10.05    6.05
  19  -2  11    4.27    2.35
  19   2  11    4.74    4.00
  19  -3  -9   23.16    6.78
  19  -3  -8   29.78    8.30
  19  -3  -7    6.85    5.45
  19  -3  -6   13.97    6.77
  19  -3  -5   11.21    5.79
  19  -3  -4    7.96    4.33
  19  -3  -3   10.77    3.96
  19   3  -3    8.12    4.84
  19  -3  -2   18.15    6.49
  19   3  -2   18.74    4.90
  19  -3  -1    3.50    3.00
  19   3  -1    2.98    3.93
  19  -3   0    5.05    4.21
  19   3   0    4.95    4.51
  19  -3   1    4.54    2.93
  19   3   1    7.53    5.19
  19  -3   2   26.65    7.67
  19   3   2   15.30    5.68
  19  -3   3   15.52    5.19
  19   3   3    2.35    2.54
  19  -3   4    3.77    3.14
  19   3   4   11.54    5.08
  19   3   5    2.97    2.83
  19  -3   5   18.66    6.55
  19   3   6    5.96    3.35
  19  -3   6   16.86    7.63
  19   3   7    4.45    2.27
  19  -3   7    8.10    4.96
  19   3   8   33.38    8.00
  19  -3   8   31.30    8.23
  19   3   9   20.36    6.75
  19  -3   9   18.16    6.86
  19  -4  -6    0.71    3.09
  19  -4  -5    3.89    3.65
  19  -4  -4    7.66    5.10
  19  -4  -3   13.60    6.37
  19  -4  -2    8.68    4.37
  19   4  -2   27.47    8.57
  19  -4  -1    4.61    4.23
  19   4  -1   -2.92    2.43
  19  -4   0   10.81    4.99
  19   4   0    6.10    3.98
  19   4   1   -0.02    2.88
  19  -4   1   -1.72    4.88
  19   4   2   16.14    7.36
  19  -4   2   13.79    6.74
  19   4   3    7.81    4.61
  19  -4   3    8.62    4.45
  19   4   4    8.67    4.84
  19  -4   4   16.08    5.04
  19   4   5   -0.87    5.06
  19  -4   5    4.75    4.39
  19   4   6   -1.63    2.69
  19  -4   6    1.76    5.09
  20   0  -6    2.52    3.65
  20   0  -5   97.91   14.44
  20   0  -4  310.79   25.87
  20   0  -3    5.75    3.72
  20   0  -2  319.29   26.10
  20   0  -1   46.42   10.37
  20   0   0    0.15    2.59
  20   0   1   25.33    6.22
  20   0   2  323.89   25.41
  20   0   3   -2.34    2.05
  20   0   4  277.88   23.63
  20   0   5   97.15   13.93
  20   0   6   -2.20    2.24
  20   0   7    1.43    2.28
  20  -1  -7   -1.81    5.23
  20  -1  -6    3.85    5.37
  20  -1  -5   15.84    6.58
  20   1  -5    9.72    5.66
  20  -1  -4   -3.11    4.93
  20   1  -4    0.47    2.36
  20  -1  -3   33.73    8.97
  20   1  -3   27.25    8.14
  20  -1  -2   13.62    6.18
  20   1  -2   10.74    4.66
  20  -1  -1   10.44    4.84
  20   1  -1    2.59    3.10
  20  -1   0    1.19    2.54
  20   1   0    2.95    5.75
  20  -1   1    4.81    5.73
  20   1   1    2.28    3.92
  20  -1   2   11.25    4.90
  20   1   2    2.04    4.43
  20  -1   3   33.20    9.53
  20   1   3   19.16    6.50
  20  -1   4    3.07    3.22
  20   1   4   -2.36    1.96
  20  -1   5    5.54    4.19
  20   1   5    7.91    3.94
  20  -1   6    3.69    2.72
  20   1   6    1.84    3.35
  20  -1   7   -2.54    3.04
  20   1   7    4.98    3.59
  20  -2  -5   -1.05    4.27
  20  -2  -4   31.67    8.54
  20   2  -4   34.00    9.44
  20  -2  -3   14.33    6.41
  20   2  -3    9.06    6.63
  20  -2  -2  117.09   16.41
  20   2  -2  122.36   15.77
  20  -2  -1    5.34    4.05
  20   2  -1   15.94    5.93
  20  -2   0    1.73    4.14
  20   2   0   -0.15    3.00
  20  -2   1    3.55    2.02
  20   2   1    9.93    6.89
  20  -2   2  138.58   17.16
  20   2   2  122.01   16.00
  20  -2   3   15.52    5.81
  20   2   3    9.86    5.23
  20  -2   4   31.75    7.74
  20   2   4   25.10    8.61
  20  -2   5   13.04    6.01
  20   2   5    3.01    2.32
   0   0   0    0.00    0.00
TITL 011_210K_SulfamerazineF1_ in Pna2(1)
REM Pna2(1) (#33, found as Pbn2(1) in ba-c setting)
CELL 0.68890  14.476264   8.194570  21.852167  90.0000  90.0000  90.0000
ZERR    8.00   0.000155   0.000087   0.000368   0.0000   0.0000   0.0000
LATT -1
SYMM -x,-y, z+1/2
SYMM  x+1/2,-y+1/2, z
SYMM -x+1/2, y+1/2, z+1/2
SFAC C H N O S
UNIT 88.00 96.00 32.00 16.00 8.00
TREF
HKLF 4
END
_computing_structure_solution     'SHELXT 2014/5 (Sheldrick, 2014)'
;
_shelx_hkl_checksum              31307
loop_
_space_group_symop_operation_xyz
'x, y, z'
'-x, -y, z+1/2'
'x+1/2, -y+1/2, z'
'-x+1/2, y+1/2, z+1/2'
loop_
_atom_site_label
_atom_site_type_symbol
_atom_site_fract_x
_atom_site_fract_y
_atom_site_fract_z
_atom_site_U_iso_or_equiv
_atom_site_adp_type
_atom_site_occupancy
_atom_site_site_symmetry_order
_atom_site_calc_flag
_atom_site_refinement_flags_posn
_atom_site_refinement_flags_adp
_atom_site_refinement_flags_occupancy
_atom_site_disorder_assembly
_atom_site_disorder_group
S1 S 0.64516(7) 0.49512(11) 0.34397(6) 0.0280(2) Uani 1 1 d . . . . .
S2 S 0.57786(7) 0.49686(11) 0.65284(6) 0.0278(2) Uani 1 1 d . . . . .
O1 O 0.6884(2) 0.3704(3) 0.30823(16) 0.0374(7) Uani 1 1 d . . . . .
O2 O 0.5479(2) 0.5225(4) 0.33701(17) 0.0359(7) Uani 1 1 d . . . . .
O3 O 0.6757(2) 0.4698(4) 0.65926(17) 0.0349(7) Uani 1 1 d . . . . .
O4 O 0.5356(2) 0.6241(3) 0.68792(16) 0.0370(7) Uani 1 1 d . . . . .
N1 N 0.8428(3) 1.1170(5) 0.3120(2) 0.0423(10) Uani 1 1 d . . . . .
N2 N 0.6544(3) 0.4474(5) 0.4170(2) 0.0329(9) Uani 1 1 d . . . . .
N3 N 0.8137(2) 0.4090(4) 0.41718(19) 0.0322(8) Uani 1 1 d . . . . .
N4 N 0.7279(3) 0.4299(6) 0.5096(2) 0.0439(10) Uani 1 1 d . . . . .
N5 N 0.3804(3) -0.1202(5) 0.6953(2) 0.0540(13) Uani 1 1 d . . . . .
H5A H 0.3239 -0.1191 0.7074 0.070 Uiso 1 1 calc R U . . .
H5B H 0.4079 -0.2116 0.6889 0.070 Uiso 1 1 calc R U . . .
N6 N 0.5680(3) 0.5388(5) 0.5797(2) 0.0339(9) Uani 1 1 d . . . . .
N7 N 0.4094(3) 0.5871(4) 0.58065(19) 0.0347(9) Uani 1 1 d . . . . .
N8 N 0.4953(3) 0.5658(6) 0.4877(2) 0.0481(11) Uani 1 1 d . . . . .
C1 C 0.7040(3) 0.6772(4) 0.3336(2) 0.0257(9) Uani 1 1 d . . . . .
C2 C 0.7939(3) 0.6791(5) 0.3106(2) 0.0286(9) Uani 1 1 d . . . . .
H2 H 0.8231 0.5817 0.3006 0.037 Uiso 1 1 calc R U . . .
C3 C 0.8394(3) 0.8253(5) 0.3029(2) 0.0289(10) Uani 1 1 d . . . . .
H3 H 0.8989 0.8262 0.2868 0.038 Uiso 1 1 calc R U . . .
C4 C 0.7965(3) 0.9735(5) 0.3191(2) 0.0285(9) Uani 1 1 d . . . . .
C5 C 0.7058(3) 0.9698(5) 0.3424(3) 0.0315(9) Uani 1 1 d . . . . .
H5 H 0.6760 1.0669 0.3523 0.041 Uiso 1 1 calc R U . . .
C6 C 0.6609(3) 0.8233(5) 0.3505(2) 0.0312(9) Uani 1 1 d . . . . .
H6 H 0.6019 0.8213 0.3674 0.041 Uiso 1 1 calc R U . . .
C7 C 0.7369(3) 0.4284(5) 0.4495(2) 0.0312(10) Uani 1 1 d . . . . .
C8 C 0.8066(4) 0.4062(10) 0.5411(3) 0.0647(18) Uani 1 1 d . . . . .
H8 H 0.8048 0.4057 0.5836 0.084 Uiso 1 1 calc R U . . .
C9 C 0.8899(3) 0.3826(8) 0.5118(3) 0.0574(15) Uani 1 1 d . . . . .
H9 H 0.9435 0.3634 0.5341 0.075 Uiso 1 1 calc R U . . .
C10 C 0.8919(3) 0.3882(6) 0.4496(3) 0.0400(12) Uani 1 1 d . . . . .
C11 C 0.9780(3) 0.3698(7) 0.4134(3) 0.0529(14) Uani 1 1 d . . . . .
H11A H 0.9783 0.2651 0.3937 0.069 Uiso 1 1 calc R U . . .
H11B H 1.0305 0.3783 0.4400 0.069 Uiso 1 1 calc R U . . .
H11C H 0.9810 0.4542 0.3830 0.069 Uiso 1 1 calc R U . . .
C12 C 0.5188(3) 0.3159(4) 0.6658(2) 0.0285(9) Uani 1 1 d . . . . .
C13 C 0.5629(3) 0.1686(5) 0.6560(3) 0.0343(10) Uani 1 1 d . . . . .
H13 H 0.6242 0.1680 0.6432 0.045 Uiso 1 1 calc R U . . .
C14 C 0.5179(3) 0.0234(5) 0.6650(3) 0.0400(12) Uani 1 1 d . . . . .
H14 H 0.5479 -0.0746 0.6569 0.052 Uiso 1 1 calc R U . . .
C15 C 0.4263(3) 0.0228(5) 0.6863(2) 0.0337(10) Uani 1 1 d . . . . .
C16 C 0.3823(3) 0.1729(5) 0.6965(2) 0.0316(10) Uani 1 1 d . . . . .
H16 H 0.3213 0.1741 0.7098 0.041 Uiso 1 1 calc R U . . .
C17 C 0.4277(3) 0.3179(5) 0.6872(2) 0.0255(9) Uani 1 1 d . . . . .
H17 H 0.3981 0.4165 0.6951 0.033 Uiso 1 1 calc R U . . .
C18 C 0.4865(3) 0.5661(5) 0.5486(2) 0.0311(9) Uani 1 1 d . . . . .
C19 C 0.4179(4) 0.5971(9) 0.4562(3) 0.0627(18) Uani 1 1 d . . . . .
H19 H 0.4203 0.6007 0.4137 0.082 Uiso 1 1 calc R U . . .
C20 C 0.3346(4) 0.6242(9) 0.4854(3) 0.0659(18) Uani 1 1 d . . . . .
H20 H 0.2815 0.6476 0.4630 0.086 Uiso 1 1 calc R U . . .
C21 C 0.3319(3) 0.6158(6) 0.5475(3) 0.0403(11) Uani 1 1 d . . . . .
C22 C 0.2448(4) 0.6362(8) 0.5844(3) 0.0616(16) Uani 1 1 d . . . . .
H22A H 0.2441 0.7427 0.6027 0.080 Uiso 1 1 calc R U . . .
H22B H 0.2426 0.5546 0.6159 0.080 Uiso 1 1 calc R U . . .
H22C H 0.1921 0.6243 0.5581 0.080 Uiso 1 1 calc R U . . .
H1N1 H 0.900(4) 1.126(7) 0.288(3) 0.061(17) Uiso 1 1 d . . . . .
H2N1 H 0.811(3) 1.205(6) 0.318(2) 0.033(12) Uiso 1 1 d . . . . .
H1N2 H 0.624(4) 0.482(6) 0.434(3) 0.038(18) Uiso 1 1 d . . . . .
H1N6 H 0.618(4) 0.504(6) 0.558(3) 0.042(15) Uiso 1 1 d . . . . .
loop_
_atom_site_aniso_label
_atom_site_aniso_U_11
_atom_site_aniso_U_22
_atom_site_aniso_U_33
_atom_site_aniso_U_23
_atom_site_aniso_U_13
_atom_site_aniso_U_12
S1 0.0253(4) 0.0307(4) 0.0281(6) 0.0026(4) -0.0005(4) -0.0018(4)
S2 0.0262(4) 0.0288(4) 0.0283(6) 0.0032(4) -0.0015(4) -0.0016(4)
O1 0.0416(17) 0.0300(13) 0.041(2) -0.0056(13) 0.0009(15) -0.0012(13)
O2 0.0271(14) 0.0455(16) 0.035(2) 0.0046(15) -0.0032(15) -0.0037(12)
O3 0.0268(15) 0.0435(16) 0.034(2) 0.0065(15) -0.0068(14) -0.0019(12)
O4 0.0442(19) 0.0295(14) 0.037(2) -0.0031(13) -0.0050(15) -0.0020(12)
N1 0.041(2) 0.0293(17) 0.057(3) -0.0097(18) 0.016(2) -0.0041(15)
N2 0.0246(18) 0.042(2) 0.032(3) 0.0050(18) 0.0002(17) 0.0025(15)
N3 0.0259(17) 0.0352(17) 0.036(2) 0.0014(16) 0.0028(16) 0.0041(14)
N4 0.0300(19) 0.073(3) 0.029(3) 0.004(2) 0.0008(17) 0.0095(19)
N5 0.050(3) 0.0290(17) 0.083(4) -0.005(2) 0.018(2) -0.0087(17)
N6 0.0245(17) 0.049(2) 0.028(2) 0.0086(18) 0.0060(16) 0.0030(15)
N7 0.0269(18) 0.0386(18) 0.039(3) 0.0028(17) 0.0052(16) 0.0029(14)
N8 0.037(2) 0.070(3) 0.038(3) 0.005(2) -0.0025(19) 0.013(2)
C1 0.0222(18) 0.0277(16) 0.027(3) 0.0014(16) 0.0010(16) 0.0006(13)
C2 0.0252(19) 0.0295(17) 0.031(3) -0.0012(16) -0.0005(17) 0.0034(14)
C3 0.0255(19) 0.033(2) 0.028(3) -0.0016(18) 0.0053(18) 0.0024(15)
C4 0.0281(19) 0.0326(18) 0.025(2) -0.0021(16) -0.0010(17) -0.0009(15)
C5 0.031(2) 0.0284(17) 0.035(3) -0.0029(19) 0.008(2) 0.0029(14)
C6 0.0232(17) 0.0357(19) 0.035(3) 0.0007(19) 0.0043(18) 0.0019(14)
C7 0.027(2) 0.0330(19) 0.034(3) 0.0034(18) -0.0052(18) 0.0012(15)
C8 0.045(3) 0.114(5) 0.035(4) -0.001(3) -0.015(3) 0.023(3)
C9 0.032(2) 0.095(4) 0.045(4) -0.006(3) -0.007(2) 0.016(3)
C10 0.032(2) 0.042(2) 0.046(4) -0.002(2) -0.005(2) 0.0091(19)
C11 0.030(2) 0.070(3) 0.059(4) -0.006(3) 0.006(2) 0.009(2)
C12 0.0287(19) 0.0281(16) 0.029(3) 0.0016(16) -0.0038(17) -0.0005(14)
C13 0.029(2) 0.035(2) 0.039(3) -0.002(2) 0.011(2) 0.0041(15)
C14 0.034(2) 0.0293(19) 0.056(4) -0.004(2) 0.001(2) 0.0037(16)
C15 0.034(2) 0.0321(19) 0.035(3) -0.0029(17) 0.001(2) -0.0009(16)
C16 0.030(2) 0.0312(18) 0.033(3) -0.0041(17) 0.0031(18) -0.0018(15)
C17 0.027(2) 0.0285(17) 0.021(2) 0.0001(16) 0.0030(17) 0.0009(14)
C18 0.029(2) 0.0340(19) 0.031(3) 0.0017(18) -0.0021(18) 0.0017(16)
C19 0.039(3) 0.113(5) 0.036(4) 0.005(3) -0.004(2) 0.025(3)
C20 0.039(3) 0.101(5) 0.058(5) -0.003(4) -0.011(3) 0.029(3)
C21 0.026(2) 0.047(2) 0.048(4) -0.002(2) -0.001(2) 0.0057(18)
C22 0.033(3) 0.077(4) 0.075(4) -0.005(3) 0.010(3) 0.011(3)
loop_
_atom_type_symbol
_atom_type_description
_atom_type_scat_dispersion_real
_atom_type_scat_dispersion_imag
_atom_type_scat_source
C C 0.0033 0.0016 'International Tables Vol C Tables 4.2.6.8 and 6.1.1.4'
H H 0.0000 0.0000 'International Tables Vol C Tables 4.2.6.8 and 6.1.1.4'
N N 0.0061 0.0033 'International Tables Vol C Tables 4.2.6.8 and 6.1.1.4'
O O 0.0106 0.0060 'International Tables Vol C Tables 4.2.6.8 and 6.1.1.4'
S S 0.1246 0.1234 'International Tables Vol C Tables 4.2.6.8 and 6.1.1.4'
loop_
_geom_angle_atom_site_label_1
_geom_angle_atom_site_label_2
_geom_angle_atom_site_label_3
_geom_angle
_geom_angle_site_symmetry_1
_geom_angle_site_symmetry_3
O1 S1 O2 118.9(2) . .
O1 S1 N2 108.9(2) . .
O2 S1 N2 102.7(2) . .
O1 S1 C1 109.2(2) . .
O2 S1 C1 109.52(18) . .
N2 S1 C1 106.9(2) . .
O4 S2 O3 118.7(2) . .
O4 S2 N6 109.4(2) . .
O3 S2 N6 102.3(2) . .
O4 S2 C12 109.0(2) . .
O3 S2 C12 109.69(18) . .
N6 S2 C12 107.2(2) . .
C4 N1 H1N1 123(3) . .
C4 N1 H2N1 116(3) . .
H1N1 N1 H2N1 117(4) . .
C7 N2 S1 125.9(3) . .
C7 N2 H1N2 110(6) . .
S1 N2 H1N2 114(6) . .
C7 N3 C10 116.2(4) . .
C7 N4 C8 115.2(5) . .
C15 N5 H5A 120.0 . .
C15 N5 H5B 120.0 . .
H5A N5 H5B 120.0 . .
C18 N6 S2 126.1(3) . .
C18 N6 H1N6 119(4) . .
S2 N6 H1N6 111(4) . .
C18 N7 C21 115.9(4) . .
C18 N8 C19 115.6(5) . .
C2 C1 C6 120.1(3) . .
C2 C1 S1 121.1(3) . .
C6 C1 S1 118.8(3) . .
C3 C2 C1 120.0(4) . .
C3 C2 H2 120.0 . .
C1 C2 H2 120.0 . .
C2 C3 C4 120.5(4) . .
C2 C3 H3 119.8 . .
C4 C3 H3 119.8 . .
N1 C4 C5 121.2(4) . .
N1 C4 C3 119.9(4) . .
C5 C4 C3 118.9(4) . .
C6 C5 C4 120.3(4) . .
C6 C5 H5 119.8 . .
C4 C5 H5 119.8 . .
C5 C6 C1 120.1(4) . .
C5 C6 H6 120.0 . .
C1 C6 H6 120.0 . .
N4 C7 N3 127.7(4) . .
N4 C7 N2 114.8(4) . .
N3 C7 N2 117.4(4) . .
N4 C8 C9 121.6(6) . .
N4 C8 H8 119.2 . .
C9 C8 H8 119.2 . .
C10 C9 C8 118.5(5) . .
C10 C9 H9 120.7 . .
C8 C9 H9 120.7 . .
N3 C10 C9 120.8(5) . .
N3 C10 C11 116.0(5) . .
C9 C10 C11 123.2(5) . .
C10 C11 H11A 109.5 . .
C10 C11 H11B 109.5 . .
H11A C11 H11B 109.5 . .
C10 C11 H11C 109.5 . .
H11A C11 H11C 109.5 . .
H11B C11 H11C 109.5 . .
C13 C12 C17 119.8(4) . .
C13 C12 S2 119.6(3) . .
C17 C12 S2 120.6(3) . .
C14 C13 C12 121.1(4) . .
C14 C13 H13 119.5 . .
C12 C13 H13 119.5 . .
C13 C14 C15 120.0(4) . .
C13 C14 H14 120.0 . .
C15 C14 H14 120.0 . .
N5 C15 C16 120.6(4) . .
N5 C15 C14 120.8(4) . .
C16 C15 C14 118.5(4) . .
C17 C16 C15 121.2(4) . .
C17 C16 H16 119.4 . .
C15 C16 H16 119.4 . .
C16 C17 C12 119.3(4) . .
C16 C17 H17 120.3 . .
C12 C17 H17 120.3 . .
N7 C18 N8 127.2(4) . .
N7 C18 N6 118.6(4) . .
N8 C18 N6 114.1(4) . .
N8 C19 C20 121.6(6) . .
N8 C19 H19 119.2 . .
C20 C19 H19 119.2 . .
C21 C20 C19 118.5(5) . .
C21 C20 H20 120.8 . .
C19 C20 H20 120.8 . .
N7 C21 C20 121.2(5) . .
N7 C21 C22 115.3(5) . .
C20 C21 C22 123.5(5) . .
C21 C22 H22A 109.5 . .
C21 C22 H22B 109.5 . .
H22A C22 H22B 109.5 . .
C21 C22 H22C 109.5 . .
H22A C22 H22C 109.5 . .
H22B C22 H22C 109.5 . .
loop_
_geom_bond_atom_site_label_1
_geom_bond_atom_site_label_2
_geom_bond_distance
_geom_bond_site_symmetry_2
S1 O1 1.430(3) .
S1 O2 1.434(3) .
S1 N2 1.649(5) .
S1 C1 1.733(4) .
S2 O4 1.432(3) .
S2 O3 1.441(3) .
S2 N6 1.640(4) .
S2 C12 1.734(4) .
N1 C4 1.363(5) .
N1 H1N1 0.98(6) .
N1 H2N1 0.86(4) .
N2 C7 1.397(6) .
N2 H1N2 0.64(5) .
N3 C7 1.327(5) .
N3 C10 1.346(6) .
N4 C7 1.320(6) .
N4 C8 1.345(6) .
N5 C15 1.361(5) .
N5 H5A 0.8600 .
N5 H5B 0.8600 .
N6 C18 1.380(6) .
N6 H1N6 0.91(5) .
N7 C18 1.328(5) .
N7 C21 1.355(6) .
N8 C18 1.337(6) .
N8 C19 1.340(7) .
C1 C2 1.394(5) .
C1 C6 1.400(5) .
C2 C3 1.378(6) .
C2 H2 0.9300 .
C3 C4 1.409(5) .
C3 H3 0.9300 .
C4 C5 1.409(6) .
C5 C6 1.376(5) .
C5 H5 0.9300 .
C6 H6 0.9300 .
C8 C9 1.378(8) .
C8 H8 0.9300 .
C9 C10 1.362(8) .
C9 H9 0.9300 .
C10 C11 1.484(7) .
C11 H11A 0.9600 .
C11 H11B 0.9600 .
C11 H11C 0.9600 .
C12 C13 1.382(5) .
C12 C17 1.400(5) .
C13 C14 1.371(6) .
C13 H13 0.9300 .
C14 C15 1.405(6) .
C14 H14 0.9300 .
C15 C16 1.403(6) .
C16 C17 1.373(6) .
C16 H16 0.9300 .
C17 H17 0.9300 .
C19 C20 1.383(8) .
C19 H19 0.9300 .
C20 C21 1.361(8) .
C20 H20 0.9300 .
C21 C22 1.506(7) .
C22 H22A 0.9600 .
C22 H22B 0.9600 .
C22 H22C 0.9600 .
loop_
_geom_hbond_atom_site_label_D
_geom_hbond_atom_site_label_H
_geom_hbond_atom_site_label_A
_geom_hbond_distance_DH
_geom_hbond_distance_HA
_geom_hbond_distance_DA
_geom_hbond_angle_DHA
_geom_hbond_site_symmetry_A
N5 H5B O4 0.86 2.29 3.076(5) 152.7 1_545
N1 H1N1 O4 0.98(6) 2.38(6) 3.233(5) 145(4) 4_654
N1 H2N1 O1 0.86(4) 2.24(5) 3.052(5) 156(4) 1_565
N2 H1N2 N8 0.64(5) 2.31(6) 2.937(6) 168(7) .
N6 H1N6 N4 0.91(5) 2.01(6) 2.917(6) 179(5) .
loop_
_geom_torsion_atom_site_label_1
_geom_torsion_atom_site_label_2
_geom_torsion_atom_site_label_3
_geom_torsion_atom_site_label_4
_geom_torsion
_geom_torsion_site_symmetry_1
_geom_torsion_site_symmetry_2
_geom_torsion_site_symmetry_3
_geom_torsion_site_symmetry_4
O1 S1 N2 C7 61.4(4) . . . .
O2 S1 N2 C7 -171.6(4) . . . .
C1 S1 N2 C7 -56.4(4) . . . .
O4 S2 N6 C18 -57.1(4) . . . .
O3 S2 N6 C18 176.2(4) . . . .
C12 S2 N6 C18 60.9(4) . . . .
O1 S1 C1 C2 -18.9(4) . . . .
O2 S1 C1 C2 -150.7(4) . . . .
N2 S1 C1 C2 98.8(4) . . . .
O1 S1 C1 C6 163.2(4) . . . .
O2 S1 C1 C6 31.4(4) . . . .
N2 S1 C1 C6 -79.1(4) . . . .
C6 C1 C2 C3 -2.0(7) . . . .
S1 C1 C2 C3 -179.9(4) . . . .
C1 C2 C3 C4 1.2(7) . . . .
C2 C3 C4 N1 179.1(4) . . . .
C2 C3 C4 C5 -1.0(7) . . . .
N1 C4 C5 C6 -178.5(5) . . . .
C3 C4 C5 C6 1.6(7) . . . .
C4 C5 C6 C1 -2.4(8) . . . .
C2 C1 C6 C5 2.6(7) . . . .
S1 C1 C6 C5 -179.5(4) . . . .
C8 N4 C7 N3 -1.1(8) . . . .
C8 N4 C7 N2 177.9(5) . . . .
C10 N3 C7 N4 0.0(7) . . . .
C10 N3 C7 N2 -178.9(4) . . . .
S1 N2 C7 N4 164.1(4) . . . .
S1 N2 C7 N3 -16.8(6) . . . .
C7 N4 C8 C9 0.1(9) . . . .
N4 C8 C9 C10 1.8(11) . . . .
C7 N3 C10 C9 2.0(7) . . . .
C7 N3 C10 C11 -178.8(4) . . . .
C8 C9 C10 N3 -2.9(9) . . . .
C8 C9 C10 C11 178.0(6) . . . .
O4 S2 C12 C13 -156.8(4) . . . .
O3 S2 C12 C13 -25.3(4) . . . .
N6 S2 C12 C13 85.0(4) . . . .
O4 S2 C12 C17 21.9(4) . . . .
O3 S2 C12 C17 153.4(4) . . . .
N6 S2 C12 C17 -96.3(4) . . . .
C17 C12 C13 C14 2.3(7) . . . .
S2 C12 C13 C14 -179.0(4) . . . .
C12 C13 C14 C15 -2.1(8) . . . .
C13 C14 C15 N5 179.9(5) . . . .
C13 C14 C15 C16 1.5(8) . . . .
N5 C15 C16 C17 -179.6(4) . . . .
C14 C15 C16 C17 -1.3(7) . . . .
C15 C16 C17 C12 1.5(7) . . . .
C13 C12 C17 C16 -1.9(7) . . . .
S2 C12 C17 C16 179.4(4) . . . .
C21 N7 C18 N8 -1.9(7) . . . .
C21 N7 C18 N6 179.1(4) . . . .
C19 N8 C18 N7 3.0(8) . . . .
C19 N8 C18 N6 -178.0(5) . . . .
S2 N6 C18 N7 11.7(6) . . . .
S2 N6 C18 N8 -167.4(4) . . . .
C18 N8 C19 C20 -1.3(10) . . . .
N8 C19 C20 C21 -1.1(11) . . . .
C18 N7 C21 C20 -0.8(7) . . . .
C18 N7 C21 C22 178.9(5) . . . .
C19 C20 C21 N7 2.2(10) . . . .
C19 C20 C21 C22 -177.5(6) . . . .
