#------------------------------------------------------------------------------
#$Date: 2017-11-07 03:11:16 +0200 (Tue, 07 Nov 2017) $
#$Revision: 202779 $
#$URL: file:///home/coder/svn-repositories/cod/cif/1/54/73/1547396.cif $
#------------------------------------------------------------------------------
#
# This file is available in the Crystallography Open Database (COD),
# http://www.crystallography.net/
#
# All data on this site have been placed in the public domain by the
# contributors.
#
data_1547396
loop_
_publ_author_name
'Liu, Bingxian'
'Hu, Panjie'
'Zhang, Ying'
'Li, Yunyun'
'Bai, Dachang'
'Li, Xingwei'
_publ_section_title
;
 Rh(III)-Catalyzed Diastereodivergent Spiroannulation of Cyclic Imines
 with Activated Alkenes.
;
_journal_issue                   19
_journal_name_full               'Organic letters'
_journal_page_first              5402
_journal_page_last               5405
_journal_paper_doi               10.1021/acs.orglett.7b02678
_journal_volume                  19
_journal_year                    2017
_chemical_formula_moiety         'C24 H18 F3 N O3 S'
_chemical_formula_sum            'C24 H18 F3 N O3 S'
_chemical_formula_weight         457.45
_space_group_crystal_system      monoclinic
_space_group_IT_number           14
_space_group_name_Hall           '-P 2yn'
_space_group_name_H-M_alt        'P 1 21/n 1'
_symmetry_space_group_name_Hall  '-P 2yn'
_symmetry_space_group_name_H-M   'P 1 21/n 1'
_atom_sites_solution_hydrogens   geom
_audit_creation_method           SHELXL-2014/7
_cell_angle_alpha                90
_cell_angle_beta                 104.430(3)
_cell_angle_gamma                90
_cell_formula_units_Z            4
_cell_length_a                   11.3446(4)
_cell_length_b                   15.1444(5)
_cell_length_c                   13.1535(4)
_cell_measurement_reflns_used    3328
_cell_measurement_temperature    293(2)
_cell_measurement_theta_max      70.7530
_cell_measurement_theta_min      4.5290
_cell_volume                     2188.57(13)
_computing_cell_refinement       'CrysAlisPro 1.171.38.43f (Rigaku OD, 2015)'
_computing_data_collection       'CrysAlisPro 1.171.38.43f (Rigaku OD, 2015)'
_computing_data_reduction        'CrysAlisPro 1.171.38.43f (Rigaku OD, 2015)'
_computing_structure_refinement  'SHELXL-2014/7 (Sheldrick, 2014)'
_computing_structure_solution    'SHELXL-2014/7 (Sheldrick, 2014)'
_diffrn_ambient_temperature      293(2)
_diffrn_measured_fraction_theta_full 0.999
_diffrn_measured_fraction_theta_max 0.980
_diffrn_measurement_device_type  'SuperNova, Dual, Cu at zero, EosS2'
_diffrn_measurement_method       '\w scans'
_diffrn_radiation_type           CuK\a
_diffrn_radiation_wavelength     1.54184
_diffrn_reflns_av_R_equivalents  0.0487
_diffrn_reflns_av_unetI/netI     0.0519
_diffrn_reflns_Laue_measured_fraction_full 0.999
_diffrn_reflns_Laue_measured_fraction_max 0.980
_diffrn_reflns_limit_h_max       12
_diffrn_reflns_limit_h_min       -13
_diffrn_reflns_limit_k_max       18
_diffrn_reflns_limit_k_min       -18
_diffrn_reflns_limit_l_max       13
_diffrn_reflns_limit_l_min       -16
_diffrn_reflns_number            12403
_diffrn_reflns_point_group_measured_fraction_full 0.999
_diffrn_reflns_point_group_measured_fraction_max 0.980
_diffrn_reflns_theta_full        67.684
_diffrn_reflns_theta_max         72.607
_diffrn_reflns_theta_min         4.536
_exptl_absorpt_coefficient_mu    1.776
_exptl_absorpt_correction_T_max  0.808
_exptl_absorpt_correction_T_min  0.742
_exptl_absorpt_correction_type   multi-scan
_exptl_absorpt_process_details
;
CrysAlisPro 1.171.38.43f (Rigaku Oxford Diffraction, 2015)
Empirical absorption correction using spherical harmonics,
 implemented in SCALE3 ABSPACK scaling algorithm.
;
_exptl_crystal_colour            colorless
_exptl_crystal_density_diffrn    1.388
_exptl_crystal_description       block
_exptl_crystal_F_000             944
_exptl_crystal_size_max          0.19
_exptl_crystal_size_mid          0.14
_exptl_crystal_size_min          0.12
_refine_diff_density_max         0.342
_refine_diff_density_min         -0.374
_refine_diff_density_rms         0.055
_refine_ls_extinction_method     none
_refine_ls_goodness_of_fit_ref   1.028
_refine_ls_hydrogen_treatment    constr
_refine_ls_matrix_type           full
_refine_ls_number_parameters     290
_refine_ls_number_reflns         4259
_refine_ls_number_restraints     0
_refine_ls_restrained_S_all      1.028
_refine_ls_R_factor_all          0.0735
_refine_ls_R_factor_gt           0.0595
_refine_ls_shift/su_max          0.001
_refine_ls_shift/su_mean         0.000
_refine_ls_structure_factor_coef Fsqd
_refine_ls_weighting_details
'w=1/[\s^2^(Fo^2^)+(0.1000P)^2^] where P=(Fo^2^+2Fc^2^)/3'
_refine_ls_weighting_scheme      calc
_refine_ls_wR_factor_gt          0.1596
_refine_ls_wR_factor_ref         0.1727
_reflns_Friedel_coverage         0.000
_reflns_number_gt                3473
_reflns_number_total             4259
_reflns_threshold_expression     'I > 2\s(I)'
_cod_data_source_file            ol7b02678_si_002.cif
_cod_data_source_block           424-5-2-1
_cod_depositor_comments
'Adding full bibliography for 1547395--1547397.cif.'
_cod_database_code               1547396
_shelx_shelxl_version_number     2014/7
_shelx_space_group_comment
;
The symmetry employed for this shelxl refinement is uniquely defined
by the following loop, which should always be used as a source of
symmetry information in preference to the above space-group names.
They are only intended as comments.
;
_shelx_res_file
;

    424-5-2-1.res created by SHELXL-2014/7

TITL 424-5-2-1_a.res in P2(1)/n
REM Old TITL 424-5-2-1 in P21/n #14
REM SHELXT solution in P2(1)/n
REM R1 0.188, Rweak 0.293, Alpha 0.057, Orientation as input
REM Formula found by SHELXT: C24 N O3 F3 S
CELL 1.54184 11.3446 15.1444 13.1535 90 104.43 90
ZERR 4 0.0004 0.0005 0.0004 0 0.003 0
LATT 1
SYMM 0.5-X,0.5+Y,0.5-Z
SFAC C H F N O S
UNIT 96 72 12 4 12 4

L.S. 4
PLAN  5
BOND $H
LIST 6
MORE -1
CONF
fmap 2
acta
OMIT 2 18 2
OMIT -13 6 2
REM <olex2.extras>
REM <HklSrc "%.\\424-5-2-1.hkl">
REM </olex2.extras>

WGHT    0.100000
FVAR       0.59455
S8    6    0.473507    0.296983    0.309476    11.00000    0.04968    0.04278 =
         0.02938    0.00146    0.00122    0.00884
O19   5    0.651690    0.503879    0.526831    11.00000    0.05286    0.04078 =
         0.06632    0.00225    0.01123    0.00904
F21   3    0.683103    0.360365    0.827829    11.00000    0.12174    0.09239 =
         0.04561   -0.00232   -0.02204    0.01900
O24   5    0.351499    0.270720    0.265304    11.00000    0.06039    0.08226 =
         0.06497   -0.03093   -0.02132    0.00864
F22   3    0.559889    0.465126    0.826768    11.00000    0.14021    0.09760 =
         0.05531   -0.02901    0.03083    0.01275
N9    4    0.486736    0.348711    0.419379    11.00000    0.06006    0.03690 =
         0.03513   -0.00380   -0.00621    0.01490
AFIX  43
H9    2    0.461658    0.402079    0.421769    11.00000   -1.20000
AFIX   0
F23   3    0.714951    0.484596    0.765079    11.00000    0.12484    0.11811 =
         0.05939   -0.03238    0.00671   -0.05951
O25   5    0.528104    0.342690    0.239746    11.00000    0.11507    0.07598 =
         0.07969    0.03489    0.05705    0.03396
C26   1    0.796936    0.404669    0.495709    11.00000    0.04410    0.03854 =
         0.03888   -0.00037    0.00041    0.00054
C1    1    0.544650    0.298640    0.515691    11.00000    0.04166    0.03626 =
         0.03210   -0.00222   -0.00299    0.00270
C10   1    0.634431    0.360281    0.594718    11.00000    0.03793    0.03757 =
         0.03074   -0.00458    0.00016    0.00153
AFIX  13
H10   2    0.698683    0.323989    0.638937    11.00000   -1.20000
AFIX   0
C18   1    0.692707    0.429041    0.538474    11.00000    0.03961    0.03934 =
         0.03638   -0.00351   -0.00171    0.00155
C11   1    0.555710    0.400121    0.663715    11.00000    0.05263    0.04482 =
         0.03218   -0.00440    0.00559    0.00476
AFIX  13
H11   2    0.514552    0.452573    0.628000    11.00000   -1.20000
AFIX   0
C17   1    0.454487    0.273068    0.578476    11.00000    0.03959    0.04692 =
         0.04639    0.00084    0.00229    0.00164
C2    1    0.598945    0.218774    0.475896    11.00000    0.04805    0.03761 =
         0.03476   -0.00294   -0.00013    0.00363
C27   1    0.870963    0.331716    0.529556    11.00000    0.04918    0.04810 =
         0.04921    0.00917    0.00812    0.00697
AFIX  43
H27   2    0.852773    0.293801    0.579148    11.00000   -1.20000
AFIX   0
C12   1    0.460906    0.329809    0.661584    11.00000    0.04849    0.05257 =
         0.04245    0.00167    0.00775    0.00768
C7    1    0.564244    0.208723    0.368455    11.00000    0.05332    0.03891 =
         0.03208   -0.00214    0.00067    0.00649
C31   1    0.826679    0.459925    0.420479    11.00000    0.05664    0.04816 =
         0.05374    0.01092    0.01023    0.00398
AFIX  43
H31   2    0.778888    0.509193    0.396500    11.00000   -1.20000
AFIX   0
C29   1    0.999957    0.369623    0.415677    11.00000    0.05361    0.05437 =
         0.06170   -0.01403    0.01643   -0.00746
C20   1    0.628123    0.427352    0.770535    11.00000    0.08325    0.05712 =
         0.03902   -0.01317    0.00679   -0.00199
C30   1    0.925496    0.441970    0.382006    11.00000    0.06993    0.05805 =
         0.05652    0.00578    0.02283   -0.00459
AFIX  43
H30   2    0.943310    0.479377    0.331773    11.00000   -1.20000
AFIX   0
C6    1    0.598408    0.137485    0.316533    11.00000    0.09148    0.05045 =
         0.04155   -0.00670    0.00771    0.01912
AFIX  43
H6    2    0.573512    0.132486    0.243851    11.00000   -1.20000
AFIX   0
C16   1    0.370380    0.204405    0.556999    11.00000    0.05528    0.05481 =
         0.07108    0.00104    0.00621   -0.00974
AFIX  43
H16   2    0.365391    0.167700    0.499397    11.00000   -1.20000
AFIX   0
C3    1    0.671844    0.154183    0.535775    11.00000    0.07498    0.04755 =
         0.04097    0.00163   -0.00313    0.01424
AFIX  43
H3    2    0.696714    0.159044    0.608471    11.00000   -1.20000
AFIX   0
C28   1    0.970905    0.314846    0.490608    11.00000    0.05159    0.04920 =
         0.06905    0.00148    0.01103    0.00805
AFIX  43
H28   2    1.019583    0.266060    0.514879    11.00000   -1.20000
AFIX   0
C13   1    0.383254    0.316779    0.728368    11.00000    0.06836    0.07700 =
         0.06594    0.00826    0.03052    0.00997
AFIX  43
H13   2    0.386082    0.354320    0.784878    11.00000   -1.20000
AFIX   0
C15   1    0.295483    0.192184    0.622323    11.00000    0.05356    0.07394 =
         0.10819    0.01716    0.01768   -0.00866
AFIX  43
H15   2    0.238741    0.146618    0.609486    11.00000   -1.20000
AFIX   0
C32   1    1.108034    0.352352    0.372344    11.00000    0.06635    0.08191 =
         0.10349   -0.01666    0.04086   -0.00727
AFIX 137
H32A  2    1.081336    0.327494    0.303278    11.00000   -1.50000
H32B  2    1.161884    0.311696    0.417272    11.00000   -1.50000
H32C  2    1.150131    0.406798    0.368717    11.00000   -1.50000
AFIX   0
C14   1    0.303656    0.247804    0.708384    11.00000    0.06562    0.09129 =
         0.10470    0.03200    0.04418    0.01076
AFIX  43
H14   2    0.253463    0.237534    0.753287    11.00000   -1.20000
AFIX   0
C5    1    0.670914    0.074153    0.376954    11.00000    0.12265    0.05263 =
         0.06099   -0.00695    0.00906    0.03681
AFIX  43
H5    2    0.696212    0.025301    0.345123    11.00000   -1.20000
AFIX   0
C4    1    0.706073    0.083385    0.485248    11.00000    0.11348    0.05608 =
         0.05717    0.00273   -0.00258    0.04115
AFIX  43
H4    2    0.754604    0.039925    0.524867    11.00000   -1.20000
AFIX   0
HKLF 4

REM  424-5-2-1_a.res in P2(1)/n
REM R1 =  0.0595 for    3473 Fo > 4sig(Fo)  and  0.0735 for all    4259 data
REM    290 parameters refined using      0 restraints

END

WGHT      0.0840      0.0320

REM Highest difference peak  0.342,  deepest hole -0.374,  1-sigma level  0.055
Q1    1   0.4086  0.3765  0.4205  11.00000  0.05    0.34
Q2    1   0.5630  0.3507  0.3030  11.00000  0.05    0.33
Q3    1   0.5330  0.2468  0.3335  11.00000  0.05    0.24
Q4    1   0.3947  0.3077  0.2478  11.00000  0.05    0.23
Q5    1   0.8231  0.3618  0.4956  11.00000  0.05    0.22
;
_shelx_res_checksum              22516
_shelx_hkl_file
;
   0   0  -1    2.00    0.88
   0   0  -2    3.74    1.59
   0   0  -2    1.86    0.87
   0   0  -3    0.12    0.58
   0   0   3    2.31    1.70
   0   0  -4 1499.85   41.85
   0   0   4 1514.13   48.77
   0   0  -4 1515.23   41.35
   0   0  -4 1568.58   44.32
   0   0   4 1487.09   46.40
   0   0   5    1.24    2.28
   0   0  -5    0.48    1.35
   0   0  -5    0.78    1.82
   0   0  -5   -0.13    0.81
   0   0   5   -1.18    1.81
   0   0   6  397.96   32.41
   0   0   6  397.65   33.35
   0   0  -6  392.85   27.47
   0   0  -7    4.12    2.32
   0   0   7    3.61    3.43
   0   0   7   -1.73    2.12
   0   0  -8    1.31    2.79
   0   0   8   11.39    9.14
   0   0   8    1.03    3.94
   0   0  -9   -0.53    2.95
   0   0   9   -0.14    3.26
   0   0   9   -1.76    4.86
   0   0  10   56.48   19.27
   0   0 -10   74.49    9.05
   0   0 -11    0.11    1.00
   0   0 -12  129.08   12.69
   0   0 -13    2.33    0.71
   0   0 -14   76.05    8.43
   0   0 -15    2.86    1.83
   0   1  -1 3496.24   45.17
   0   1   1 3568.79   34.66
   0   1   2  839.51   23.37
   0  -1  -2  879.83   23.76
   0   1  -2  826.42   24.13
   0   1  -2  820.41   24.60
   0   1  -2  816.28   19.71
   0   1   2  839.56   22.30
   0   1  -3 1568.50   37.23
   0   1  -3 1577.81   34.40
   0  -1  -3 1666.47   39.72
   0   1  -3 1644.02   40.55
   0   1   3 1636.20   39.49
   0  -1  -4 2411.92   55.11
   0   1  -4 2296.60   53.63
   0   1  -4 2387.23   55.98
   0   1   4 2399.05   59.94
   0  -1  -4 2279.20   52.15
   0   1   4 2317.71   56.72
   0  -1   5  656.38   39.13
   0  -1  -5  693.68   33.37
   0   1  -5  706.62   34.11
   0   1   5  691.67   37.15
   0   1   5  701.60   38.07
   0  -1  -5  674.46   32.00
   0   1  -5  708.55   34.18
   0  -1   6    2.89    3.42
   0   1   6    2.52    3.47
   0   1  -6    4.05    3.10
   0   1  -6    2.49    2.61
   0  -1  -6    3.65    2.85
   0   1   6    6.86    4.92
   0  -1   6    6.41    3.43
   0   1   7    2.08    3.37
   0  -1  -7    2.66    3.96
   0  -1   7    0.47    3.56
   0   1  -7    3.84    3.14
   0  -1   7    4.03    5.31
   0   1   7   -2.69    4.24
   0   1  -7    1.27    1.16
   0   1   8   25.71   10.64
   0  -1   8   31.77   13.87
   0  -1   8   23.67    9.62
   0  -1  -8   34.24    9.71
   0   1  -8   34.19   10.28
   0   1   8   18.58    8.40
   0   1   9    1.84    4.84
   0   1   9   11.91    9.43
   0  -1   9   -1.64    8.39
   0  -1  -9    1.08    2.04
   0  -1   9   -0.65    3.26
   0   1  -9    1.08    2.38
   0  -1 -10   86.68    9.34
   0   1 -10   90.31   10.25
   0  -1  10   84.59   25.40
   0   1 -11   82.59   10.15
   0  -1 -11   81.70    9.79
   0  -1 -12  144.25   13.10
   0   1 -12  138.04   13.31
   0   1 -13    0.67    0.86
   0  -1 -13    1.36    1.26
   0   1 -14   83.94    9.07
   0  -1 -14   78.50    8.32
   0  -1 -15    7.38    2.32
   0   1 -15    8.85    2.95
   0   2   0 4804.14   48.25
   0   2   0 4766.47   46.93
   0   2  -1  544.42   23.22
   0  -2  -1  485.59   14.56
   0   2  -1  532.84   24.16
   0   2   1  516.73   14.67
   0   2  -1  533.14   23.52
   0   2   1  516.28   18.90
   0   2   1  497.00   16.91
   0   2  -2  185.47   14.59
   0   2  -2  185.03   14.83
   0   2   2  186.86   11.71
   0  -2  -2  174.86   10.89
   0   2   2  173.33   11.39
   0   2   3  445.62   21.92
   0   2  -3  471.02   24.80
   0   2  -3  470.51   23.80
   0   2   3  462.92   21.30
   0  -2  -3  431.56   20.86
   0   2  -4  121.59   13.78
   0  -2  -4  112.82   12.28
   0   2  -4  126.15   13.79
   0   2   4  113.76   12.40
   0   2  -4  115.45   12.47
   0  -2  -4  120.85   12.36
   0   2   4  113.65   12.88
   0   2   5  862.69   40.75
   0   2  -5  855.01   39.73
   0   2   5  846.69   41.93
   0  -2  -5  835.17   37.16
   0  -2  -5  817.61   36.93
   0   2  -5  881.70   40.74
   0   2  -5  886.52   38.42
   0   2   6    3.42    2.30
   0   2   6    6.49    4.56
   0   2  -6    8.68    4.66
   0  -2  -6    4.64    3.56
   0   2  -6    6.70    4.50
   0  -2  -6    5.36    3.91
   0  -2   7  622.60   52.37
   0   2   7  674.45   49.48
   0   2  -7  699.62   44.13
   0  -2  -7  620.26   38.71
   0  -2   7  552.82   47.48
   0   2  -7  676.44   42.66
   0   2   7  703.07   50.24
   0   2   8  129.33   24.40
   0  -2   8   99.78   22.57
   0  -2  -8  127.67   18.92
   0   2  -8  143.07   21.56
   0  -2   8  122.95   25.94
   0   2   8  139.43   25.61
   0   2  -8  122.62   19.85
   0  -2   9  191.46   38.65
   0   2  -9  161.55   24.38
   0   2   9  194.67   34.47
   0  -2  -9  147.22   22.18
   0   2   9  175.45   32.62
   0  -2   9  150.04   30.35
   0   2 -10   94.73   10.64
   0  -2 -10   86.21    9.51
   0  -2 -10   94.26    9.61
   0  -2 -11   11.20    3.95
   0   2 -11   15.03    5.52
   0  -2 -11   13.19    4.12
   0   2 -12   11.99    4.73
   0  -2 -12   14.28    3.87
   0  -2 -13   48.94    7.40
   0   2 -13   48.42    7.49
   0   2 -14   -0.84    1.36
   0  -2 -14    0.63    1.58
   0   2 -15   10.72    2.69
   0  -2 -15    8.87    2.46
   0   3   0    1.29    0.89
   0  -3   0    1.88    1.00
   0   3   0    1.93    1.22
   0   3   1  443.80   25.12
   0  -3  -1  428.48   15.37
   0   3  -1  440.01   23.70
   0   3   1  463.53   17.65
   0  -3   1  452.01   15.14
   0   3  -1  468.04   26.70
   0   3   1  421.29   20.15
   0  -3  -2 2120.32   41.28
   0   3   2 2111.52   45.78
   0   3  -2 2251.55   62.24
   0   3  -2 2302.48   62.05
   0   3   2 2164.55   49.02
   0   3   2 2055.91   37.34
   0   3  -3  761.71   36.40
   0   3   3  722.73   29.81
   0  -3  -3  698.22   27.68
   0   3   3  692.03   29.25
   0   3  -3  760.79   35.71
   0   3  -4  121.97   14.91
   0   3  -4  121.05   14.95
   0   3   4  113.04   13.25
   0  -3  -4  109.64   12.34
   0   3   4  105.29   13.03
   0   3  -4  118.81   14.23
   0  -3  -4  106.99   12.51
   0   3   5  258.91   22.89
   0   3  -5  279.41   24.49
   0   3  -5  244.72   23.28
   0  -3  -5  260.74   21.48
   0   3   5  245.90   22.69
   0   3  -5  249.90   21.56
   0  -3  -5  235.92   20.50
   0   3  -6   32.42    8.77
   0  -3  -6   39.21    9.18
   0   3  -6   42.62   10.55
   0   3   6   41.84   10.79
   0   3   6   37.07   10.19
   0  -3  -6   37.04    9.23
   0   3  -7  287.44   29.40
   0  -3  -7  238.16   24.57
   0   3   7  285.57   32.86
   0   3  -7  258.12   27.65
   0  -3   7  237.81   33.97
   0   3   7  270.05   31.87
   0   3   8  154.18   27.01
   0  -3   8   94.96   23.76
   0   3  -8  134.21   21.97
   0   3   8  116.66   23.84
   0   3  -8  111.79   19.67
   0  -3   8  111.79   26.19
   0  -3  -8  112.31   17.72
   0   3  -9   35.85   12.25
   0   3   9   48.46   18.05
   0  -3  -9   35.28   10.95
   0  -3   9   31.37   14.30
   0  -3   9   33.22   16.97
   0   3   9   42.43   15.75
   0  -3 -10   -0.77    1.92
   0  -3 -10    0.51    1.73
   0   3 -10    1.20    0.75
   0   3 -11  223.55   16.75
   0  -3 -11  209.11   15.28
   0   3 -11  217.24   15.15
   0  -3 -11  200.54   14.63
   0  -3 -12   37.11    6.25
   0   3 -12   36.64    5.85
   0  -3 -12   29.63    5.72
   0   3 -12   40.46    7.26
   0  -3 -13   20.85    4.13
   0   3 -13   27.69    5.88
   0  -3 -13   24.02    4.97
   0  -3 -14   41.87    5.84
   0   3 -14   39.75    5.71
   0   3 -15    1.49    1.40
   0  -3 -15    4.49    1.93
   0  -4   0  116.63    6.63
   0   4   0  119.86   11.06
   0   4   0  114.32   11.42
   0   4   1 2672.37   63.15
   0   4  -1 2859.32   76.74
   0   4  -1 2765.54   56.65
   0   4   1 2607.34   77.65
   0   4   1 2752.35   50.68
   0  -4  -1 2686.89   41.84
   0   4  -1 2823.90   66.60
   0   4  -2  244.91   23.08
   0   4  -2  263.60   22.25
   0  -4  -2  255.84   15.57
   0   4   2  264.33   22.56
   0   4   2  242.85   18.06
   0   4   2  256.05   15.37
   0   4  -3  584.35   36.47
   0   4  -3  607.07   35.75
   0   4   3  579.78   30.04
   0   4   3  609.15   32.88
   0   4   3  549.14   23.13
   0   4  -3  600.83   33.94
   0  -4  -3  590.60   27.32
   0   4  -4 1153.64   50.02
   0   4  -4 1083.51   48.14
   0  -4  -4 1069.01   41.66
   0   4  -4 1089.83   51.03
   0   4   4 1086.99   45.95
   0   4   4 1076.78   45.04
   0   4   4  967.55   33.35
   0   4  -5  104.45   16.85
   0   4  -5   93.02   14.49
   0   4   5  103.21   15.48
   0   4   5   92.44   11.36
   0  -4  -5  100.74   14.05
   0   4   5   98.43   15.42
   0  -4  -5   96.34   13.55
   0   4  -5  110.99   16.67
   0  -4  -6   57.93   13.50
   0   4  -6   47.25   11.49
   0  -4  -6   40.46    9.54
   0   4   6   45.48   11.91
   0   4  -6   40.84   10.66
   0   4   6   45.58   12.14
   0   4  -6   43.64   10.90
   0  -4  -7   76.45   14.12
   0   4  -7   84.51   16.95
   0   4  -7   80.92   16.86
   0   4   7   90.14   18.83
   0   4   7   87.30   18.65
   0   4  -8    1.10    2.37
   0   4   8    3.23    6.71
   0  -4   8   -2.20    4.46
   0  -4  -8    3.17    2.44
   0   4  -8    1.69    4.06
   0   4   8    5.47    6.68
   0  -4   9   52.64   17.75
   0   4   9   64.01   20.79
   0  -4  -9   54.47   14.04
   0  -4   9   54.59   20.39
   0   4  -9   59.24   16.46
   0   4  -9   57.02   15.07
   0  -4 -10   -0.35    1.00
   0   4 -10    0.11    1.20
   0  -4 -10   -0.24    1.38
   0  -4 -11    4.55    2.74
   0  -4 -11    1.57    1.07
   0   4 -11    0.91    1.28
   0   4 -11    3.70    2.22
   0  -4 -12   67.53    8.56
   0  -4 -12   69.59    8.59
   0   4 -12   64.97    8.97
   0   4 -12   67.32    8.41
   0   4 -13    1.73    1.83
   0  -4 -13    2.37    1.70
   0  -4 -13    0.87    0.59
   0   4 -13    0.94    1.20
   0   4 -14    1.24    1.55
   0  -4 -14    0.21    1.08
   0  -4 -14    1.33    1.04
   0   4 -15   52.93    5.21
   0   5   0   -0.67    1.45
   0  -5   0    0.32    0.61
   0   5   0    0.06    2.31
   0   5  -1  206.00   23.17
   0   5  -1  189.98   19.75
   0   5   1  211.10   16.22
   0   5  -1  193.83   16.85
   0   5   1  183.18   24.14
   0  -5  -1  198.54   12.18
   0  -5  -2  217.63   15.44
   0   5  -2  219.31   23.47
   0   5   2  209.90   20.15
   0   5   2  214.29   16.14
   0   5  -2  240.16   24.24
   0   5   2  214.14   25.14
   0   5   3    2.99    2.58
   0   5   3    4.33    2.51
   0   5  -3    8.29    4.52
   0   5  -3    1.78    3.07
   0  -5  -3    3.91    2.70
   0   5   3    4.60    4.18
   0   5   4   38.47   10.48
   0  -5  -4   42.63    8.96
   0   5   4   35.06    8.66
   0   5   4   33.72    6.59
   0   5  -4   35.67    9.17
   0   5  -4   33.95    9.74
   0  -5  -5 1260.70   52.81
   0   5  -5 1251.26   56.35
   0   5   5 1319.48   60.25
   0   5   5 1331.57   64.45
   0   5  -5 1313.86   62.21
   0  -5  -5 1176.55   49.54
   0   5  -5 1316.55   62.88
   0   5  -6    5.49    4.30
   0   5  -6    8.19    5.34
   0  -5  -6   10.66    4.94
   0   5   6   11.12    5.66
   0   5   6   13.49    8.11
   0  -5  -6   10.12    4.72
   0   5  -6    8.16    5.24
   0   5  -7   55.35   14.18
   0   5  -7   52.34   13.63
   0   5   7   51.20   15.75
   0  -5  -7   46.88   11.34
   0   5   7   58.32   16.44
   0   5  -8   -1.14    3.73
   0   5   8   -1.49    4.03
   0   5  -8   -1.34    3.55
   0   5   8    8.20   14.35
   0  -5  -8    0.62    2.30
   0  -5  -9    3.80    2.76
   0  -5  -9    1.77    1.74
   0   5   9    7.20   10.92
   0  -5 -10  330.02   19.09
   0  -5 -10  335.58   19.66
   0   5 -10  332.02   20.16
   0  -5 -11  128.78   11.36
   0   5 -11  144.93   13.02
   0  -5 -11  125.95   11.97
   0   5 -11  138.43   13.24
   0  -5 -12    1.19    0.80
   0   5 -12    0.72    1.01
   0   5 -12    1.33    2.18
   0  -5 -12    0.67    1.28
   0   5 -13   39.80    6.08
   0  -5 -13   45.40    5.94
   0  -5 -13   40.94    5.91
   0   5 -13   39.58    6.10
   0  -5 -14   19.74    3.59
   0   5 -14   17.12    3.30
   0   5 -14   16.21    3.15
   0   6   0 2347.31   71.01
   0   6   0 2375.54   65.06
   0   6   1  263.58   20.77
   0   6  -1  230.14   24.44
   0   6   1  237.85   21.27
   0  -6  -1  217.70   13.36
   0   6  -1  251.16   27.89
   0   6  -1  224.69   20.39
   0   6  -2   23.67    8.27
   0  -6  -2   21.66    5.31
   0   6   2   19.52    5.60
   0   6  -2   18.07    9.43
   0   6   2   19.36    8.98
   0   6   3  231.31   25.18
   0  -6  -3  241.83   19.36
   0   6   3  235.79   31.58
   0   6  -3  218.67   25.99
   0   6   3  223.47   18.57
   0   6  -3  237.93   25.87
   0  -6  -4   23.90    6.78
   0   6  -4   24.42    8.00
   0   6   4   19.19    8.87
   0   6  -4   31.85    9.75
   0   6   4   22.88    8.84
   0   6  -5  301.25   30.80
   0  -6  -5  268.68   24.70
   0   6   5  335.97   38.35
   0   6  -5  339.37   32.31
   0   6   5  328.30   33.23
   0  -6  -5  318.69   27.60
   0  -6  -6   -0.15    2.37
   0   6  -6   -1.56    2.87
   0   6  -6    0.46    2.33
   0   6   6    1.63    4.50
   0   6   6   -1.36    3.02
   0   6   7  232.37   38.03
   0   6  -7  193.88   27.66
   0  -6  -7  178.84   23.22
   0   6   7  209.59   32.70
   0   6  -8   55.79   16.38
   0   6   8   67.85   21.36
   0  -6  -8   39.96   11.76
   0   6  -9  447.79   22.57
   0  -6  -9  467.70   22.75
   0  -6  -9  448.02   21.98
   0   6 -10    3.76    2.99
   0  -6 -10    8.37    3.41
   0  -6 -10    4.23    2.55
   0   6 -11    3.54    2.38
   0   6 -11    3.05    2.47
   0  -6 -11    2.98    2.05
   0   6 -12   16.05    5.53
   0   6 -12   13.73    3.83
   0  -6 -12   12.57    3.63
   0   6 -13    3.45    2.17
   0   6 -13    4.22    2.45
   0  -6 -13    3.72    2.69
   0   6 -14   24.91    3.78
   0   6 -14   26.64    3.88
   0  -6 -14   26.18    3.89
   0   7   0   -0.05    1.61
   0   7   0    2.94    7.40
   0   7   0    1.58    3.53
   0   7   1  197.70   20.42
   0   7   1  196.65   22.12
   0   7  -1  198.80   27.27
   0   7  -1  175.92   23.83
   0   7  -1  188.96   20.71
   0   7   2  155.71   28.46
   0   7   2  188.76   19.57
   0   7  -2  196.61   25.81
   0   7  -2  159.39   25.08
   0   7   3  512.93   53.40
   0   7   3  475.09   41.54
   0  -7  -3  517.28   28.86
   0   7  -3  548.78   42.33
   0   7  -3  469.75   42.07
   0   7   4  183.64   33.26
   0   7  -4  173.77   25.72
   0   7  -4  206.23   26.14
   0  -7  -4  192.94   20.15
   0   7   4  207.25   28.30
   0   7  -5 1589.75   75.18
   0   7   5 1554.18   97.57
   0   7   5 1594.85   82.87
   0   7  -5 1604.57   76.55
   0   7   6    3.26    6.10
   0  -7  -6    0.74    2.82
   0   7   6    6.46    5.99
   0   7  -6    0.35    2.91
   0   7  -7   96.14   20.34
   0   7   7   85.13   22.48
   0  -7  -7   71.05   14.75
   0   7   8   20.55   10.48
   0  -7  -8   17.86    4.11
   0   7  -9   67.94    9.35
   0  -7  -9   61.93    8.30
   0  -7  -9   60.03    7.97
   0   7 -10  221.07   16.65
   0   7 -10  193.21   14.90
   0  -7 -10  190.06   14.48
   0  -7 -10  195.82   14.96
   0   7 -11   99.83   11.02
   0   7 -11   93.94   10.24
   0  -7 -11   94.44   10.12
   0  -7 -12    6.76    3.08
   0   7 -12    8.19    3.02
   0   7 -12    9.74    3.29
   0  -7 -13   64.88    7.25
   0   7 -13   62.41    6.51
   0   7 -13   66.69    7.34
   0   7 -14   13.62    2.71
   0  -7 -14   14.41    2.67
   0   7 -14   12.86    2.61
   0   8   0  315.79   36.82
   0   8   0  362.14   31.33
   0   8   0  345.27   35.40
   0   8   1  135.32   24.96
   0   8   1  177.03   21.20
   0   8   1  179.94   24.20
   0   8  -1  141.04   24.26
   0   8  -1  166.24   26.47
   0   8  -2   65.29   17.24
   0   8   2   88.21   15.09
   0   8  -2   71.81   16.45
   0   8   2   79.84   15.70
   0   8  -3 1333.72   70.85
   0   8   3 1197.95   92.45
   0   8  -3 1223.26   74.19
   0   8  -4   10.06    5.94
   0   8   4   -1.85    6.08
   0   8  -4   -1.97    3.31
   0   8   5  336.82   42.75
   0   8   5  344.72   52.32
   0   8  -5  344.45   37.33
   0   8   6  182.48   41.18
   0  -8  -6  140.47   20.84
   0   8   6  186.02   33.68
   0   8  -6  173.30   28.32
   0   8  -7  170.84   29.02
   0   8   7  193.41   38.21
   0  -8  -7  141.58   22.30
   0  -8  -8   22.19    5.19
   0  -8  -8   25.46    4.90
   0   8  -8   28.58    5.99
   0  -8  -9  190.42   14.39
   0  -8  -9  184.78   13.75
   0   8 -10   10.51    4.19
   0  -8 -10    9.68    4.08
   0  -8 -11    1.09    1.53
   0   8 -11    0.79    1.21
   0  -8 -12   61.75    7.45
   0   8 -12   64.69    7.85
   0   8 -13    6.09    2.37
   0  -8 -13    7.66    2.22
   0   8 -14    1.34    1.01
   0  -8 -14    2.21    1.21
   0   9   0    2.34    4.34
   0   9   0    1.62    2.53
   0   9  -1   -0.50    2.16
   0   9  -1    2.36    5.75
   0   9   1    0.50    2.50
   0   9   1    0.53    1.72
   0   9   1   -0.17    1.99
   0   9   2  144.01   23.51
   0   9  -2  141.77   25.40
   0   9   2  126.61   26.41
   0   9  -2  138.56   27.18
   0   9  -3   15.19   10.07
   0   9  -3   19.26    8.72
   0   9   3   14.89    8.09
   0   9  -4   13.61    7.58
   0   9   5  178.57   41.48
   0   9  -5  175.53   28.44
   0   9  -6    4.88    3.69
   0  -9  -6    3.74    4.66
   0  -9  -7   21.50    4.49
   0   9  -7   21.89    5.80
   0   9  -8   20.24    6.43
   0  -9  -8   10.85    3.01
   0   9  -9   -3.75    3.09
   0  -9  -9    2.85    2.95
   0   9  -9    5.47    2.88
   0  -9  -9    1.57    1.91
   0  -9 -10   27.83    5.17
   0   9 -10   31.81    6.46
   0  -9 -11   21.52    4.51
   0   9 -11   22.72    4.82
   0  -9 -12   47.45    6.21
   0   9 -12   50.96    6.70
   0   9 -13    0.53    0.54
   0  -9 -13    2.35    1.89
   0  10   0   52.63   17.25
   0  10   0   48.07   16.08
   0  10   1   -4.93    6.06
   0  10  -1    2.06    3.66
   0  10  -1    3.13    7.99
   0  10   2   28.56   12.40
   0  10  -2   34.22   13.55
   0  10   3    7.61    7.07
   0  10  -3    2.98    2.16
   0  10  -4  217.83   32.01
   0  10   4  234.26   35.55
   0  10   5   72.67   21.29
   0  10  -5   61.00   16.47
   0 -10  -6  359.84   17.44
   0  10  -6  412.62   25.98
   0 -10  -7    2.08    2.51
   0  10  -7    2.17    3.71
   0 -10  -8    4.59    2.33
   0  10  -8    3.95    3.56
   0  10  -9   28.74    6.46
   0 -10  -9   18.84    4.45
   0  10  -9   19.13    4.90
   0  10 -10   44.87    7.13
   0  10  10   22.56    6.31
   0 -10 -10   36.93    5.76
   0  10 -11    0.85    1.35
   0 -10 -11    0.38    1.05
   0 -10 -11    0.30    0.50
   0 -10 -12    5.78    2.24
   0  10 -12    6.40    2.44
   0 -10 -13    6.78    1.86
   0  10 -13    4.57    1.94
   0  11   0    5.65    5.41
   0  11   1   59.00   19.90
   0  11   2   67.79   21.06
   0  11   3    8.73   10.45
   0  11   4  140.10   17.20
   0  11  -4  126.81   14.52
   0  11  -5  655.57   34.24
   0  11   5  678.58   39.77
   0  11  -6  271.02   21.88
   0  11   6  252.81   25.35
   0 -11  -6  248.81   14.52
   0  11  -7  233.79   16.66
   0  11  -7  238.09   19.32
   0 -11  -7  198.70   13.49
   0  11   7  239.16   26.61
   0  11  -8   20.46    6.10
   0 -11  -8   13.71    4.05
   0  11   8   14.10    8.84
   0  11  -8   16.80    5.05
   0  11  -9   69.21    8.96
   0 -11  -9   66.30    7.97
   0  11   9   45.74   11.84
   0 -11 -10    1.38    1.15
   0  11 -10    4.05    2.15
   0  11  10    5.77    5.01
   0  11 -11    3.60    2.32
   0 -11 -11    1.11    0.94
   0 -11 -11    2.50    1.36
   0 -11 -12   48.17    5.13
   0 -11 -12   41.70    4.23
   0  11 -12   51.28    5.50
   0  12   0   22.62    6.61
   0  12  -1   -0.78    1.16
   0  12   1    4.67    4.86
   0  12   2   58.13   11.68
   0  12  -2   63.04   10.75
   0  12   3   43.24   10.86
   0  12  -3   31.72    7.37
   0  12  -4  168.06   17.80
   0  12   4  169.95   20.22
   0  12   5   -0.23    2.79
   0  12  -5    9.91    8.01
   0  12   6   15.32    6.22
   0  12  -6    6.98    3.87
   0  12  -7   66.18    8.20
   0  12  -7   65.75   10.08
   0  12   7   63.72   13.74
   0 -12  -7   52.57    6.82
   0 -12  -8  126.28   10.48
   0  12   8  148.00   21.26
   0  12  -8  136.55   13.31
   0  12  -8  146.24   12.46
   0 -12  -9    7.73    2.47
   0  12   9   11.70    5.05
   0  12  -9   13.31    3.48
   0  12 -10   68.55    7.35
   0 -12 -10   52.58    6.16
   0  12  10   45.23    8.11
   0 -12 -10   53.53    6.02
   0  12 -11   20.25    3.53
   0 -12 -11   18.67    3.57
   0 -12 -11   16.11    2.82
   0  12 -12    2.25    1.14
   0  13   0   -3.02    2.48
   0  13   1    1.70    6.30
   0  13  -1    4.01    3.58
   0  13  -2  229.54   20.96
   0 -13  -2  203.17   13.64
   0  13   2  246.87   24.07
   0 -13  -3   10.68    3.27
   0  13  -3   17.91    6.49
   0  13   3   17.89    7.11
   0  13   4  210.47   23.20
   0  13  -4  208.21   20.59
   0  13  -5  135.59   15.44
   0  13   5  162.71   20.69
   0  13   6    2.48    4.00
   0  13  -6    3.77    4.82
   0  13   7    0.10    1.83
   0  13  -7   -3.06    3.46
   0 -13  -8    1.66    1.38
   0  13  -8    2.16    2.21
   0  13  -8    3.23    2.84
   0 -13  -8    1.09    0.70
   0  13  -9    9.29    2.56
   0 -13  -9   12.40    3.02
   0  13   9   12.62    6.72
   0 -13  -9   13.28    3.02
   0 -13 -10    5.62    1.79
   0  13 -10    7.01    2.44
   0 -13 -10    8.44    2.71
   0  13 -11    8.54    1.85
   0 -13 -11    9.53    2.01
   0  14   0  355.71   25.95
   0  14  -1   41.94    9.28
   0  14   1   52.64   10.18
   0  14   2   13.40    6.76
   0 -14  -2    8.44    2.61
   0  14  -2   10.69    4.89
   0  14   3    7.74    5.70
   0 -14  -3    4.64    2.13
   0  14  -3    4.97    4.59
   0  14  -4   -0.71    1.26
   0  14   4   -1.41    2.00
   0 -14  -4    1.08    1.58
   0 -14  -5   20.22    4.33
   0  14   5   16.08    6.63
   0  14  -5   13.77    5.36
   0  14   6    8.59    5.61
   0 -14  -6    4.70    2.25
   0  14  -6    8.87    4.04
   0 -14  -7   26.54    4.72
   0  14  -7   26.78    5.70
   0  14   7   38.57   11.62
   0  14   8    1.87    2.19
   0  14  -8    2.70    2.46
   0 -14  -8    0.26    1.19
   0  14   9   32.84    8.77
   0 -14  -9   36.79    4.58
   0 -14 -10    6.87    1.71
   0  15   0    7.08    5.25
   0  15   1    2.87    2.41
   0  15  -1    2.66    4.68
   0  15  -2   18.09    6.61
   0  15   2   15.27    6.64
   0 -15  -3    3.35    2.28
   0  15  -3    2.22    2.90
   0  15   3    2.62    3.10
   0 -15  -4   32.38    5.12
   0  15  -4   30.20    7.21
   0 -15  -5   39.00    5.43
   0  15  -5   54.82    9.35
   0  15   5   55.01   11.25
   0  15  -6   12.66    4.87
   0 -15  -6    4.00    1.67
   0  15   6   11.06    7.51
   0  15  -7   14.03    3.72
   0 -15  -7   11.79    2.76
   0 -15  -8    1.55    1.02
   0  15   9    6.88    3.38
   0 -15  -9    1.43    0.44
   0  16   0   11.11    4.91
   0  16  -1   21.34    8.49
   0  16   1   19.94    7.36
   0  16   2    5.14    3.98
   0  16  -2    4.03    2.25
   0  16   3    5.76    3.08
   0  16  -3    5.17    4.84
   0 -16  -3    4.39    1.61
   0  16  -4   -0.59    1.57
   0 -16  -4   -0.73    1.14
   0  16  -5    1.29    1.58
   0 -16  -5    0.45    0.87
   0 -16  -6    1.84    1.17
   0  16   6   -2.04    3.06
   0  16   7   56.48    9.17
   0 -16  -7   39.96    4.43
   0 -16  -8    1.31    0.55
   0  17   0   -3.26    2.47
   0  17   1    6.62    3.32
   0  17  -1    4.22    3.62
   0  17   2    7.06    3.41
   0  17  -2    6.84    4.39
   0  17   3   14.12    5.30
   0  17  -3   17.39    4.90
   0 -17  -4   28.14    3.68
   0  17  -4   35.02    6.07
   0  17  -5    1.50    1.75
   0  17   5    6.62    3.40
   0 -17  -5    5.49    1.89
   0 -17  -6    6.28    1.79
   0  17   6    7.49    4.17
   0  18   0   22.24    5.73
   0  18  -1   38.22    6.62
   0  18   1   41.32    7.46
   0  18  -2    6.99    2.72
   0  18   2    6.97    3.39
   0  18   3   11.58    4.89
   0  18  -3    1.43    1.60
   0  18   4   11.43    4.74
   1   0 -16    1.83    1.08
   1   0 -15    5.39    2.04
   1   0 -14    5.89    2.66
   1   0 -13    2.47    1.44
   1   0 -12    1.76    2.45
   1   0 -11   30.15    5.60
   1   0 -10   -0.40    4.14
  -1   0  10   -4.38    7.48
  -1   0   9    1.97    3.88
   1   0  -9    1.65    3.34
  -1   0   8   -1.10    2.90
  -1   0   8    0.37    2.44
   1   0  -8    2.59    3.28
  -1   0   7   59.72   14.91
   1   0  -7   57.20   11.18
  -1   0   7   51.14   12.93
   1   0  -7   61.25   11.74
   1   0  -7   65.32   12.61
  -1   0   6    0.97    1.72
   1   0  -6    0.59    0.91
   1   0  -6   -0.37    1.07
  -1   0   6   -0.96    2.51
   1   0  -5 1524.60   46.65
  -1   0   5 1436.62   50.03
  -1   0   5 1454.68   54.44
   1   0  -5 1630.58   49.60
   1   0  -5 1571.67   47.16
   1   0  -4   -0.68    1.50
   1   0  -4    0.30    1.26
   1   0  -4    3.02    1.92
   1   0  -3 1571.73   34.67
   1   0  -3 1637.52   35.85
   1   0  -3 1650.65   37.65
   1   0  -2   -0.13    0.84
   1   0  -2    0.28    0.63
   1   0  -2    1.21    1.10
   1   0  -1 6906.50   55.48
   1   0  -1 7004.38   60.81
   1   0  -1 7023.72   47.92
  -1   0   0    0.26    0.32
   1   0   0    0.10    0.21
  -1   0  -1 1210.92   25.24
  -1   0  -1 1250.97   19.01
  -1   0  -2    2.47    1.98
  -1   0  -3   98.23   10.45
   1   0   4    0.51    1.50
   1   0   4   -0.13    1.45
  -1   0  -4    1.34    2.33
   1   0   5   15.43    6.13
   1   0   5   14.56    6.02
  -1   0  -5   17.91    5.81
  -1   0  -6    4.02    5.49
   1   0   6    1.34    2.80
   1   0   6    0.28    1.07
   1   0   7  619.93   48.88
  -1   0  -7  587.63   38.79
   1   0   7  606.02   48.77
   1   0   8    6.89    8.67
   1   0   8    0.79    1.57
  -1   0  -8    1.83    2.48
  -1   0  -9  194.51   26.48
   1   0   9  216.02   36.79
   1   0   9  203.35   35.92
  -1   0 -10    1.11    2.31
  -1   0 -11  132.42   12.76
  -1   0 -12    1.82    1.41
  -1   0 -13  250.02   16.48
  -1   0 -14    0.07    0.72
  -1   0 -15   31.91    4.22
   1  -1 -15   71.51    7.11
   1   1 -15   68.65    7.08
   1  -1 -14   46.12    6.69
   1   1 -14   42.27    6.32
   1   1 -13   36.62    6.71
   1  -1 -13   36.14    6.60
   1  -1 -12  241.70   16.85
   1   1 -12  232.50   16.79
   1  -1 -11  118.02   11.14
   1   1 -11  130.21   12.33
  -1   1  10   -1.88    5.05
  -1  -1  10   -1.05    4.32
   1  -1 -10    4.57    4.33
   1   1  -9   22.97    8.94
  -1  -1   9   21.85   11.52
  -1   1   9   29.23   12.12
   1  -1  -9   23.78    8.70
  -1  -1   9   20.85   11.47
  -1  -1   8    2.51    2.35
   1  -1  -8    1.44    3.44
   1   1  -8    0.84    2.13
   1   1  -8    2.18    3.70
  -1   1   8   -2.81    6.19
  -1   1   8    0.28    1.63
  -1  -1   8    2.27    3.66
  -1  -1   7  511.77   41.94
   1   1  -7  616.96   37.88
   1  -1  -7  663.96   40.06
  -1   1   7  608.56   45.96
   1   1  -7  669.06   40.50
   1  -1  -7  593.07   35.70
  -1   1   7  606.07   43.38
  -1  -1   7  537.61   45.56
   1  -1  -6    6.20    3.29
   1   1  -6    7.59    3.89
   1   1  -6    9.99    4.20
  -1   1   6    6.19    3.74
  -1   1   6    8.98    4.99
   1  -1  -6    6.14    3.96
  -1  -1   6    6.57    4.66
  -1  -1   6    8.29    4.59
   1   1  -6   10.18    4.45
   1   1  -5    8.88    3.73
   1   1  -5   11.19    4.14
   1  -1  -5    8.56    2.89
  -1   1   5    5.40    2.97
   1   1  -5    8.43    3.89
   1  -1  -5    8.55    3.48
  -1   1   5    4.04    2.44
   1   1  -5    9.30    4.05
   1  -1  -5   10.15    4.00
  -1   1   4 2200.04   54.66
   1   1  -4 2360.89   55.54
   1   1  -4 2390.92   57.35
   1  -1  -4 2213.30   49.21
  -1   1   4 2180.22   48.93
   1  -1  -4 2144.90   45.36
   1   1  -4 2254.04   52.72
   1   1  -4 2231.68   48.37
   1  -1  -4 2243.50   52.56
   1   1  -3  235.94   15.48
   1  -1  -3  225.30   12.21
   1   1  -3  239.92   13.34
   1   1  -3  239.12   15.36
  -1   1   3  227.06   12.33
  -1   1   3  237.95   14.54
   1  -1  -3  242.27   13.62
  -1  -1   2 1495.72   33.77
   1   1  -2 1707.96   30.58
   1   1  -2 1719.29   38.18
   1  -1  -2 1602.43   27.82
  -1   1   2 1588.86   28.04
   1   1  -2 1654.14   39.57
  -1   1   2 1569.23   22.69
   1  -1  -2 1533.48   23.99
  -1   1   1  937.08   12.78
   1   1  -1  936.85   29.76
  -1  -1   1  940.59   23.47
   1   1   0 1243.75   23.30
   1   1   0 1208.02   22.96
   1   1   0 1232.15   23.73
  -1   1   0 1214.86   19.95
  -1   1   0 1231.99   29.27
  -1   1   0 1157.43   14.55
  -1   1  -1  277.70   12.32
  -1   1  -1  320.77   13.00
  -1   1  -1  275.05   11.24
   1   1   1  301.54   12.56
  -1   1  -1  276.58   13.56
  -1  -1  -2 3308.83   52.52
  -1   1  -2 3230.68   51.69
  -1   1  -3 9631.69  104.70
  -1  -1  -3 9684.32  104.75
   1  -1   4   72.32   11.58
   1   1   4   81.58   11.68
  -1   1  -4   77.26    8.56
  -1   1  -4   77.75   10.94
  -1  -1  -4   79.25   10.55
  -1   1  -4   75.62   10.39
   1   1   4   77.01   11.63
  -1   1  -5  100.14   13.13
   1   1   5  101.81   15.08
  -1  -1  -5  106.58   14.19
  -1   1  -5  125.51   11.99
  -1   1  -5  116.64   14.61
   1  -1   5  106.89   16.12
   1   1   5  111.02   15.58
   1  -1   5  109.86   15.87
   1  -1   6  111.79   18.42
   1  -1   6  104.20   18.47
   1   1   6  121.82   18.55
   1   1   6  110.72   17.82
  -1   1  -6   99.27   14.68
  -1  -1  -6  116.26   15.65
   1   1   7  241.36   31.19
   1   1   7  232.71   29.35
   1  -1   7  238.98   31.46
  -1   1  -7  233.85   24.93
   1  -1   7  222.99   29.90
  -1  -1  -7  241.86   25.05
  -1  -1  -8  580.73   41.86
   1   1   8  622.44   54.74
   1  -1   8  539.26   53.16
   1   1   8  579.57   54.13
   1  -1   8  562.73   54.55
  -1   1  -8  584.54   42.94
   1  -1   9  102.00   26.19
   1   1   9  107.35   26.28
  -1   1  -9  101.27   19.33
   1   1   9   94.36   24.60
  -1  -1  -9   86.01   17.38
   1  -1   9   88.58   24.01
  -1   1 -10   74.31    9.43
  -1  -1 -10   78.69    9.36
  -1   1 -11   52.07    8.33
  -1  -1 -11   57.61    8.49
  -1   1 -12    2.99    2.98
  -1  -1 -12    3.09    2.23
  -1  -1 -13    1.26    3.39
  -1   1 -13    0.13    1.24
  -1   1 -14    2.12    1.74
  -1  -1 -14    1.11    1.35
  -1   1 -15   41.10    4.89
  -1  -1 -15   41.94    4.76
   1   2 -15   13.50    2.99
   1  -2 -15   12.37    3.01
   1  -2 -14   53.80    7.42
   1   2 -14   49.49    6.80
   1  -2 -13   10.07    3.02
   1  -2 -13   13.23    3.77
   1   2 -13   14.44    4.05
   1   2 -12   83.67    9.93
   1  -2 -12   77.75    9.09
   1  -2 -12   79.68    9.45
   1  -2 -12   75.14    9.15
   1  -2 -11   98.52   10.48
   1  -2 -11  106.79   10.75
   1   2 -11  101.81   11.51
   1  -2 -10   72.97    8.91
   1   2 -10   67.24    8.69
  -1   2  10   74.04   24.97
  -1  -2   9  113.57   24.29
  -1   2   9  114.38   26.16
  -1  -2   9  111.77   26.20
   1   2  -9  126.69   21.20
   1  -2  -9  125.56   19.55
   1   2  -9  146.31   23.78
   1  -2  -8   43.41   11.28
   1  -2  -8   28.83    8.85
  -1   2   8   46.05   13.87
   1   2  -8   30.31   10.26
  -1  -2   8   29.09   11.93
   1   2  -8   34.71    9.97
  -1  -2   8   33.45   13.23
  -1   2   8   35.52   13.58
   1   2  -7  647.87   42.34
   1  -2  -7  662.56   41.50
  -1  -2   7  517.43   46.75
   1   2  -7  641.02   40.02
  -1   2   7  629.83   43.45
  -1   2   7  629.10   46.37
   1  -2  -7  580.89   35.52
   1  -2  -6  626.70   33.95
   1   2  -6  690.05   39.43
  -1   2   6  623.81   39.69
  -1   2   6  627.47   37.46
   1   2  -6  612.48   36.77
   1  -2  -6  688.06   38.26
   1   2  -6  672.84   38.08
   1   2  -5    2.33    1.13
  -1   2   5    4.08    2.59
   1   2  -5    2.06    0.82
  -1   2   5    7.97    5.10
   1  -2  -5    6.94    4.04
   1  -2  -5    5.36    3.03
   1   2  -5    5.12    2.92
   1   2  -5    4.24    3.49
   1   2  -4   41.84    7.99
   1  -2  -4   37.32    7.11
   1   2  -4   40.11    7.63
  -1   2   4   36.24    6.85
   1  -2  -4   39.30    6.73
   1   2  -4   32.87    5.60
  -1   2   4   31.92    5.79
   1   2  -4   46.89    9.05
   1   2  -3 1180.21   27.61
  -1   2   3 1215.86   29.65
  -1   2   3 1172.49   31.93
   1  -2  -3 1196.49   31.43
   1   2  -3 1293.45   41.79
  -1   2   2  607.49   18.52
  -1   2   2  636.29   19.05
  -1  -2   2  656.79   20.70
   1   2  -2  618.51   15.12
   1  -2  -1  441.27   24.80
  -1   2   1  443.75   17.03
   1   2  -1  447.08   15.11
  -1   2   1  461.03   15.16
  -1  -2   1  465.37   15.65
  -1   2   0  971.20   21.29
  -1   2  -1 5282.59   70.63
  -1   2  -1 5377.30   57.10
  -1   2  -1 5400.39   59.03
  -1   2  -1 5318.82   55.22
  -1   2  -2 1460.87   36.63
  -1   2  -2 1336.96   28.66
  -1   2  -2 1405.87   39.37
  -1   2  -2 1356.63   27.57
  -1   2  -2 1401.01   36.32
  -1   2  -3 4539.76   73.39
  -1   2  -3 4322.60   52.04
   1   2   3 4719.52   77.13
  -1   2  -3 4565.34   78.64
  -1  -2  -3 4504.77   74.46
  -1   2  -3 4362.98   61.32
  -1  -2  -4   37.74    7.56
   1   2   4   32.77    7.37
   1   2   4   33.00    7.41
  -1   2  -4   35.22    7.37
  -1   2  -4   35.99    7.36
  -1   2  -4   37.00    5.21
  -1  -2  -5 1110.72   46.03
  -1   2  -5 1135.37   48.10
   1   2   5 1156.78   51.15
  -1   2  -5 1153.94   47.45
   1   2   5 1136.53   50.61
   1   2   6  291.53   29.45
   1  -2   6  265.76   30.00
  -1   2  -6  302.79   26.94
   1  -2   6  261.40   30.03
   1   2   6  280.43   29.04
  -1  -2  -6  284.44   25.39
  -1   2  -6  272.71   25.93
   1  -2   7  123.94   23.29
   1  -2   7  124.09   23.94
   1   2   7  125.24   22.44
  -1   2  -7  125.50   18.82
  -1  -2  -7  124.36   17.90
   1   2   7  127.47   21.69
  -1   2  -8    3.19    2.78
   1   2   8    2.37    6.29
   1   2   8    7.30    6.15
   1  -2   8    0.42    3.80
  -1  -2  -8    0.04    1.73
   1  -2   8    1.46    4.44
   1  -2   9   27.58   14.03
  -1   2  -9   38.82   12.59
   1   2   9   31.57   15.02
  -1  -2  -9   27.95    9.73
   1   2   9   41.26   17.72
   1  -2   9   32.73   16.53
  -1  -2 -10   73.51    8.38
  -1   2 -10   91.42    9.95
  -1  -2 -10   78.54    8.99
  -1   2 -10   85.00   10.04
  -1   2 -11   71.78   10.24
  -1   2 -11   59.19    7.44
  -1  -2 -11   62.83    8.82
  -1  -2 -12   11.41    3.69
  -1   2 -12   11.79    4.22
  -1  -2 -13   22.53    4.61
  -1   2 -13   30.26    6.13
  -1   2 -14   45.30    6.52
  -1  -2 -14   37.57    5.60
  -1   2 -15   13.64    2.92
  -1  -2 -15   14.45    2.77
   1   3 -15   26.01    3.94
   1  -3 -15   24.78    4.00
   1   3 -14   -1.46    1.36
   1  -3 -14    3.91    2.53
   1  -3 -14    2.82    2.07
   1   3 -13   19.87    4.47
   1  -3 -13   25.32    5.86
   1  -3 -13   21.64    4.41
   1   3 -12   48.59    6.83
   1  -3 -12   49.23    7.33
   1   3 -12   56.15    8.23
   1  -3 -12   50.08    7.62
   1  -3 -12   52.10    7.60
   1  -3 -11    2.94    2.26
   1   3 -11    2.70    1.71
   1  -3 -11    0.28    0.88
   1  -3 -10   67.05    8.55
   1   3 -10   67.46    8.57
   1   3 -10   69.17    8.78
   1  -3 -10   70.27    8.83
   1   3  -9   50.66   13.97
   1  -3  -9   54.35   12.96
  -1   3   9   73.50   20.57
  -1  -3   9   51.21   17.31
  -1  -3   9   47.54   18.42
   1   3  -9   69.71   17.94
  -1  -3   8  568.95   53.31
  -1   3   8  727.80   58.00
  -1  -3   8  592.38   58.76
   1  -3  -8  618.67   41.09
   1   3  -8  744.56   51.75
   1   3  -8  703.81   48.15
   1  -3  -8  730.68   48.76
   1   3  -7  181.58   22.40
   1  -3  -7  157.44   18.89
  -1   3   7  178.31   24.45
  -1   3   7  191.94   24.29
   1   3  -7  192.33   23.56
   1  -3  -7  193.36   22.78
   1   3  -6  653.30   40.35
   1  -3  -6  578.67   33.41
  -1   3   6  571.35   38.28
  -1   3   6  614.31   37.07
   1   3  -6  635.39   39.07
   1   3  -6  640.83   40.34
   1  -3  -6  644.25   38.53
   1   3  -5  573.55   36.08
  -1   3   5  515.98   29.06
  -1   3   5  506.51   30.74
   1  -3  -5  489.97   27.80
   1   3  -5  543.60   34.58
   1  -3  -5  548.43   32.15
   1   3  -5  553.21   34.12
   1  -3  -4    7.35    3.67
   1   3  -4    6.46    3.29
   1   3  -4    8.03    3.81
  -1   3   4    6.63    2.73
   1   3  -4    8.16    4.37
   1  -3  -4    7.49    3.18
  -1   3   4    7.71    3.66
   1   3  -3  268.60   24.17
   1   3  -3  227.21   10.81
   1   3  -3  284.14   22.99
  -1   3   3  267.19   16.86
   1  -3  -3  276.59   18.86
  -1   3   3  262.05   16.46
  -1   3   2  532.08   26.92
  -1   3   2  488.11   21.24
  -1  -3   2  533.65   17.57
  -1   3   2  485.16   19.75
  -1   3   1    1.27    1.14
   1  -3  -1    1.55    0.66
   1  -3   0  190.14   17.20
  -1   3   0  200.86   13.88
  -1   3   0  184.20   10.55
  -1   3  -1 9999.00  105.50
  -1   3  -1 9996.34   99.17
   1   3   1 9747.39   64.62
  -1   3  -2 7179.83   86.71
   1   3   2 7118.33   52.67
  -1   3  -2 7301.18  106.96
  -1   3  -3   11.87    4.47
   1   3   3   14.08    4.80
  -1   3  -3   12.22    4.42
  -1   3  -3   10.27    3.30
   1   3   3   14.59    2.76
   1   3   3   12.13    3.88
  -1   3  -4  101.86   13.54
   1   3   4  100.00   13.50
  -1  -3  -4   95.53   12.36
  -1   3  -4   93.02   11.03
   1   3   4  101.73   13.83
  -1   3  -4  144.16   17.17
  -1  -3  -5  215.92   20.69
  -1   3  -5  236.51   23.86
   1   3   5  244.68   24.59
  -1   3  -5  227.63   22.59
   1   3   5  229.21   23.22
  -1   3  -6   77.32   14.32
  -1  -3  -6   68.52   12.86
   1   3   6   71.85   15.40
  -1   3  -6   73.76   13.99
   1   3   6   75.07   15.59
  -1   3  -7   68.11   15.11
  -1  -3  -7   59.12   12.91
   1   3   7   74.98   17.55
   1   3   7   63.72   16.83
  -1   3  -7   76.64   15.88
   1  -3   7   52.46   16.06
   1  -3   7   52.24   15.93
  -1   3  -8    2.58    2.43
   1  -3   8    2.11    5.14
   1   3   8    5.45    6.56
  -1  -3  -8    4.42    4.36
   1  -3   8    2.59    4.20
   1   3   8    6.65    6.82
  -1   3  -9    6.55    5.61
   1   3   9   21.04   11.63
   1  -3   9   13.24   10.04
   1  -3   9    5.31    8.61
  -1  -3  -9    7.94    5.77
   1   3   9   11.48    8.94
  -1   3 -10   48.18    8.39
  -1  -3 -10   35.30    6.27
  -1  -3 -10   42.60    6.97
  -1   3 -10   40.05    6.54
  -1   3 -11   27.12    5.84
  -1   3 -11   27.77    5.58
  -1  -3 -11   33.68    6.58
  -1  -3 -11   30.23    5.78
  -1  -3 -12   57.09    7.51
  -1   3 -12   66.28    8.97
  -1  -3 -12   58.45    8.00
  -1   3 -12   63.80    8.19
  -1   3 -13    7.88    4.45
  -1  -3 -13    1.88    2.14
  -1   3 -14    0.29    1.30
  -1  -3 -14   -0.81    0.99
  -1   3 -15    3.78    1.89
   1   4 -15    3.89    1.49
   1  -4 -15    7.12    1.92
   1  -4 -14  121.34    9.29
   1  -4 -14  133.11   10.14
   1   4 -14  125.66   10.04
   1   4 -13    3.78    2.26
   1   4 -13    4.59    2.54
   1  -4 -13    4.46    2.34
   1  -4 -13    2.88    1.98
   1  -4 -12   92.20   10.82
   1   4 -12   94.45   10.09
   1  -4 -12   89.54    9.64
   1   4 -12   93.69   10.61
   1  -4 -12   94.66   10.25
   1   4 -11   18.73    4.98
   1  -4 -11   13.95    3.98
   1   4 -11   20.05    5.44
   1  -4 -11   13.91    3.90
   1  -4 -10   62.48    8.46
   1   4 -10   67.97    8.74
   1   4 -10   59.51    8.26
   1  -4 -10   60.64    8.21
   1   4  -9  269.69   32.93
  -1  -4   9  209.59   36.98
   1   4  -9  308.21   36.38
   1  -4  -9  237.05   27.25
  -1  -4   9  231.43   40.14
  -1   4   9  281.94   42.65
   1  -4  -8    0.78    1.21
  -1   4   8    2.63    4.13
   1   4  -8   -0.16    3.51
   1  -4  -8    3.80    4.19
   1   4  -8    2.97    5.01
   1   4  -7   78.87   15.79
   1  -4  -7   73.56   14.82
   1  -4  -7   69.68   12.70
  -1   4   7   68.16   15.79
  -1   4   7   76.19   16.06
   1   4  -7   73.02   15.22
   1   4  -7   65.43   14.52
  -1   4   6  220.81   24.82
   1  -4  -6  221.33   21.17
   1   4  -6  243.39   26.12
  -1   4   6  231.34   24.14
   1  -4  -6  223.18   23.40
   1   4  -6  242.01   25.82
   1   4  -6  240.87   26.67
   1   4  -5  794.07   47.36
   1  -4  -5  711.92   38.49
   1   4  -5  754.58   43.73
   1  -4  -5  623.58   32.39
  -1   4   5  683.19   37.79
   1   4  -5  744.96   42.70
  -1   4   5  676.03   37.01
  -1   4   4  179.12   17.85
  -1   4   4  185.96   16.54
  -1   4   4  169.56   16.80
   1   4  -4  189.36   21.04
   1   4  -4  181.45   20.44
   1  -4  -4  156.47   14.75
   1  -4  -4  186.98   17.60
   1   4  -4  190.15   22.57
   1   4  -3  475.79   34.85
   1   4  -3  516.89   34.76
   1  -4  -3  541.90   27.72
  -1   4   3  538.86   32.78
  -1   4   3  492.87   25.70
  -1   4   3  474.56   24.48
  -1   4   2 1440.48   40.79
  -1   4   2 1483.32   58.32
  -1   4   2 1417.20   42.59
   1  -4  -2 1598.62   44.31
   1   4  -2 1396.66   56.56
  -1  -4   2 1672.48   35.53
  -1   4   1  236.44   16.83
   1   4  -1  229.72   20.39
   1  -4  -1  248.43   18.20
  -1   4   0  784.99   27.63
  -1   4   0  809.91   31.01
  -1   4   0  821.22   34.41
  -1   4  -1  493.95   26.38
   1   4   1  498.32   19.08
  -1   4  -1  468.94   26.48
   1   4   2  118.04   13.52
   1   4   2  128.23   15.58
  -1   4  -2  120.06   13.94
  -1   4  -2  126.05   15.96
   1   4   2  120.79    8.54
  -1   4  -2  126.39   13.79
  -1   4  -2  122.38   13.57
  -1   4  -3 2572.48   76.21
   1   4   3 2599.26   41.42
   1   4   3 2553.28   67.16
  -1   4  -3 2600.33   62.93
   1   4   3 2639.88   71.56
  -1   4  -4  434.13   30.63
   1   4   4  402.98   29.92
   1   4   4  404.16   29.38
  -1   4  -4  414.24   31.79
  -1   4  -4  384.38   24.36
  -1   4  -5   22.47    6.77
  -1  -4  -5   30.14    8.80
  -1   4  -5   25.46   10.23
  -1   4  -5   29.55    8.57
   1   4   5   28.89    9.10
   1   4   5   26.86    8.33
   1   4   6    4.15    3.39
   1   4   6    6.30    6.31
  -1   4  -6    5.24    3.38
  -1  -4  -6    1.60    2.26
  -1   4  -6    4.85    4.38
   1   4   7   39.90   13.51
   1   4   7   41.94   13.51
   1  -4   7   45.14   15.70
  -1  -4  -7   40.29   10.97
  -1   4  -7   41.84   12.53
  -1   4  -7   51.99   13.38
  -1   4  -8   29.91   11.20
   1  -4   8   23.78   12.68
   1   4   8   30.73   13.07
  -1   4  -8   32.14   11.02
   1  -4   8   30.04   13.33
  -1  -4  -8   30.04    9.64
   1   4   8   34.58   13.11
   1   4   9    0.13    3.97
  -1   4  -9    3.24    3.78
  -1  -4  -9    0.34    1.25
  -1   4  -9    0.27    0.92
  -1   4 -10  169.76   13.82
  -1  -4 -10  162.23   12.84
  -1   4 -10  176.20   15.03
  -1  -4 -10  161.49   13.44
  -1  -4 -11   14.71    3.68
  -1   4 -11   19.06    5.28
  -1  -4 -11   27.26    6.56
  -1   4 -11   18.96    4.76
  -1  -4 -12   78.38    8.76
  -1   4 -12   98.54   10.91
  -1  -4 -12   87.29    9.76
  -1   4 -12   86.28    9.32
  -1   4 -13   11.57    3.55
  -1  -4 -13   10.46    3.42
  -1  -4 -13   10.52    3.36
  -1  -4 -14  115.27    8.27
  -1   4 -14  112.74    9.07
  -1   4 -15   19.19    2.83
   1   5 -15   10.85    2.24
   1   5 -14   23.41    4.04
   1   5 -14   22.50    3.66
   1  -5 -14   23.20    4.05
   1  -5 -14   25.93    4.21
   1   5 -13    4.04    2.00
   1  -5 -13    1.30    1.75
   1   5 -13    1.77    1.77
   1  -5 -13   -0.34    0.93
   1   5 -12   30.33    5.88
   1  -5 -12   33.46    5.82
   1  -5 -12   30.62    5.60
   1   5 -12   32.81    6.52
   1  -5 -12   35.47    5.84
   1  -5 -11   53.90    7.63
   1  -5 -11   68.00    9.19
   1   5 -11   63.18    8.58
   1   5 -11   70.45    9.65
   1   5 -10  322.93   19.85
   1  -5 -10  312.89   18.85
   1  -5 -10  297.91   18.36
   1   5 -10  301.47   18.50
   1  -5  -9   -1.96    3.15
  -1   5   9    2.30    5.10
  -1  -5   9    2.84    9.69
   1   5  -9   -1.70    3.27
  -1   5   8   57.77   18.00
   1   5  -8   50.48   14.64
   1  -5  -8   54.55   15.73
   1  -5  -8   42.59   10.73
   1   5  -8   56.32   15.24
   1   5  -7  344.87   34.46
   1  -5  -7  337.91   32.85
   1   5  -7  339.03   34.65
   1   5  -7  359.22   36.42
   1  -5  -7  301.44   27.46
  -1   5   7  351.12   37.80
   1   5  -6   92.53   17.33
   1   5  -6   96.65   17.62
  -1   5   6  102.14   18.52
   1   5  -6   86.82   16.65
   1  -5  -6   88.32   13.75
   1  -5  -6  104.33   16.56
  -1   5   6   94.80   17.27
  -1   5   5  689.78   36.79
   1   5  -5  786.09   49.47
  -1   5   5  729.34   42.40
   1   5  -5  770.73   46.77
   1  -5  -5  664.32   35.01
  -1   5   5  766.36   48.21
   1  -5  -5  797.71   42.62
  -1   5   4  369.72   27.68
   1   5  -4  341.81   32.45
  -1   5   4  378.70   34.06
  -1   5   4  345.08   23.98
   1   5  -4  375.61   32.30
   1  -5  -4  383.01   26.57
   1   5  -3   22.62    8.78
  -1   5   3   33.90   10.44
  -1   5   3   23.74    6.46
  -1   5   3   27.07    6.33
   1  -5  -3   32.47    7.34
   1   5  -3   30.21    9.43
   1   5  -2  555.13   38.42
   1  -5  -2  631.79   28.51
  -1   5   2  623.68   45.26
   1   5  -2  656.65   45.00
  -1   5   2  594.95   29.61
  -1   5   2  574.18   32.89
  -1   5   1    7.36    2.77
   1  -5  -1    0.75    1.67
   1   5  -1    3.17    2.53
   1   5  -1    1.51    1.12
  -1   5   0 1282.73   43.08
   1   5   0 1133.32   60.91
  -1   5   0 1351.87   46.34
   1   5   0 1269.46   48.55
  -1   5   0 1281.25   49.92
   1  -5   0 1197.11   41.12
   1   5   1  627.00   25.61
   1   5   1  592.94   35.91
  -1   5  -1  640.61   35.58
   1   5   1  583.97   41.77
  -1   5  -1  658.53   33.55
   1  -5   1  519.57   28.88
  -1   5  -1  659.03   34.32
  -1   5  -2 1329.83   49.38
   1   5   2 1419.53   36.54
   1   5   2 1316.06   52.57
  -1   5  -2 1416.02   51.23
   1   5   2 1315.70   60.60
  -1   5  -2 1340.67   54.26
  -1   5  -3   21.30    6.22
   1   5   3   30.27    8.38
   1   5   3   26.33    8.33
  -1   5  -3   30.20    7.77
   1   5   4  107.61   16.52
   1   5   4  114.85   18.44
  -1   5  -4   94.04   13.49
  -1   5  -4  117.80   18.80
  -1   5  -4  130.34   18.18
  -1   5  -5    4.14    3.11
  -1   5  -5    4.56    5.34
  -1  -5  -5    4.15    2.98
   1   5   5    6.47    5.15
  -1   5  -5    2.47    2.76
   1   5   5    6.18    5.06
  -1   5  -6    0.67    1.84
   1   5   6    2.03    3.30
   1   5   6    9.76    7.28
  -1  -5  -6   13.80    6.81
  -1   5  -6    2.09    0.99
   1   5   7  149.94   27.42
  -1  -5  -7  177.19   23.16
  -1   5  -7  139.79   23.20
  -1   5  -7  147.00   23.86
   1   5   7  150.11   29.04
   1   5   8  423.21   55.52
  -1   5  -8  366.36   40.15
  -1   5  -8  374.63   40.24
   1  -5   8  248.01   41.04
  -1  -5  -8  327.12   34.43
   1  -5   8  293.69   44.97
   1   5   8  403.85   50.12
  -1   5  -9   97.23   10.70
  -1   5  -9  102.83   11.09
  -1  -5  -9   99.51   10.54
  -1  -5  -9   97.77   10.26
  -1   5 -10  103.26   10.99
  -1   5 -10   96.41   11.04
  -1  -5 -10   90.74   10.39
  -1   5 -11    1.72    2.99
  -1  -5 -11    0.53    0.74
  -1   5 -11    0.18    0.73
  -1  -5 -12    4.06    2.43
  -1   5 -12    4.79    2.69
  -1   5 -12    1.71    1.68
  -1  -5 -13    2.96    2.69
  -1   5 -13   -0.16    0.73
  -1   5 -13    1.24    1.03
  -1   5 -14    3.89    1.52
  -1   5 -14    7.27    2.18
  -1  -5 -14    9.11    2.44
   1   6 -14   23.02    3.62
   1   6 -14   26.05    3.92
   1  -6 -14   24.93    4.11
   1   6 -13   13.27    3.37
   1  -6 -13   15.32    3.64
   1  -6 -13   11.57    2.93
   1   6 -13   13.39    4.48
   1  -6 -12   25.43    5.34
   1  -6 -12   21.89    4.94
   1   6 -12   23.37    5.03
   1   6 -12   28.40    5.89
   1   6 -11  104.74   10.84
   1   6 -11  101.18   11.13
   1  -6 -11  104.75   10.89
   1  -6 -11   97.38   10.46
   1   6 -10  419.34   23.20
   1  -6 -10  394.22   21.13
   1  -6 -10  396.28   21.28
   1   6 -10  393.60   21.26
   1   6  -9   27.07    6.17
   1  -6  -9   26.79    5.37
   1  -6  -9   24.96    5.47
   1   6  -8   35.06   12.48
   1  -6  -8   34.13   10.37
   1   6  -8   41.77   14.71
  -1   6   8   47.54   16.85
  -1   6   7   35.57   13.33
   1   6  -7   35.98   11.16
   1  -6  -7   39.24   10.28
   1  -6  -7   39.21   10.83
   1   6  -7   44.00   13.59
   1   6  -6   60.31   14.55
   1  -6  -6   64.23   13.46
   1   6  -6   60.72   15.44
  -1   6   6   58.13   14.50
   1  -6  -6   42.76    9.89
  -1   6   6   74.97   19.36
   1   6  -5    3.19    4.36
  -1   6   5    1.59    2.32
   1  -6  -5   -0.54    1.73
   1  -6  -5    2.12    1.68
  -1   6   5   -0.41    2.30
   1   6  -5   -1.06    2.28
  -1   6   5    0.22    2.19
  -1   6   4 1583.63   55.78
   1   6  -4 1775.24   76.38
   1  -6  -4 1720.47   59.06
  -1   6   4 1642.94   67.90
  -1   6   4 1726.84   87.62
   1   6  -4 1642.16   75.03
  -1   6   3  307.22   23.77
   1   6  -3  295.61   31.71
  -1   6   3  310.52   36.72
  -1   6   3  312.86   28.69
   1  -6  -3  330.80   23.34
   1   6  -3  342.34   34.54
   1   6  -2  375.46   34.41
   1  -6  -2  418.32   23.84
   1   6  -2  425.05   39.04
  -1   6   2  408.99   27.13
   1  -6  -1  172.91   13.83
   1   6  -1  164.52   21.70
   1   6  -1  158.12   23.62
  -1   6   1  159.13   20.65
  -1   6   1  181.96   18.46
  -1   6   1  165.49   16.68
  -1   6   0   19.29    8.35
  -1   6   0   18.47    6.10
  -1   6   0   18.13    5.66
   1   6   0   14.01    6.00
   1  -6   0   12.41    3.59
   1   6   1   84.40   18.48
  -1   6  -1  104.04   16.44
  -1   6  -1  114.19   15.46
   1   6   1  100.66   11.88
   1   6   1   97.93   14.68
  -1   6  -1   93.43   14.24
  -1   6  -2   11.89    6.25
  -1   6  -2   13.37    5.24
   1   6   2   16.16    6.74
  -1   6  -2   13.89    5.80
   1   6   2   32.91   10.96
   1   6   3  316.45   30.28
   1   6   3  311.73   35.66
  -1   6  -3  308.19   27.06
  -1   6  -3  287.28   26.91
   1   6   4 1202.45   62.31
  -1   6  -4 1231.61   55.04
   1   6   4 1214.84   72.36
  -1   6  -4 1264.43   60.78
   1   6   5  113.10   20.02
  -1   6  -5  119.92   19.97
   1   6   5  124.38   23.55
  -1  -6  -5  109.01   16.85
  -1   6  -6  412.57   38.75
  -1   6  -6  377.56   38.94
   1   6   6  422.67   43.82
   1   6   6  405.48   47.79
  -1  -6  -6  364.79   32.85
   1   6   7   91.82   26.39
   1   6   7   76.08   21.24
  -1   6  -7   76.38   17.73
  -1  -6  -7   67.70   15.58
  -1   6  -7   75.96   18.09
   1   6   8   14.24   13.51
  -1  -6  -8    9.01    7.70
  -1   6  -8    0.52    2.83
   1  -6   8    4.37    7.61
   1   6   8   17.52   15.05
  -1   6  -9   44.63    7.02
  -1   6  -9   35.20    6.31
  -1  -6  -9   33.83    6.20
  -1  -6  -9   37.91    6.76
  -1   6 -10  153.37   13.88
  -1   6 -10  156.43   13.76
  -1  -6 -10  166.10   14.12
  -1  -6 -11    5.23    2.24
  -1   6 -11    9.57    3.61
  -1   6 -11    8.64    3.50
  -1  -6 -12  101.18    9.88
  -1   6 -12  103.32   10.01
  -1   6 -12  104.86   10.32
  -1  -6 -13   26.84    4.60
  -1   6 -13   29.90    5.00
  -1   6 -14   43.11    4.68
  -1   6 -14   39.98    4.65
  -1  -6 -14   39.11    4.30
   1   7 -14   23.73    3.70
   1  -7 -14   21.55    3.48
   1  -7 -13   10.40    3.35
   1   7 -13   13.13    3.64
   1   7 -13   12.32    3.16
   1   7 -12    5.32    2.95
   1  -7 -12   -0.06    0.59
   1   7 -12    3.64    2.13
   1   7 -12    3.04    2.30
   1  -7 -11    8.01    3.42
   1  -7 -11    2.25    1.62
   1   7 -11    7.78    5.19
   1  -7 -10  102.12   10.62
   1  -7 -10   75.97    9.40
   1   7 -10   76.33   11.05
   1   7  -9   93.70   11.06
   1  -7  -9   81.93    9.39
   1  -7  -9   85.84    9.69
   1   7  -8   43.06   15.18
   1   7  -7   47.28   14.46
   1   7  -7   48.96   14.06
  -1   7   7   57.83   17.65
   1  -7  -7   33.68   10.12
   1  -7  -7   44.20   11.78
   1  -7  -6  307.19   30.58
   1  -7  -6  265.00   25.70
  -1   7   6  309.01   37.77
   1   7  -6  357.25   38.47
   1   7  -6  318.21   37.18
   1  -7  -5    6.36    3.51
  -1   7   5    9.86    9.00
   1  -7  -5    7.69    3.64
   1   7  -5   12.48    8.68
  -1   7   5    6.67    5.65
   1   7  -5    9.38    6.95
   1   7  -4    3.94    4.22
   1  -7  -4    7.52    3.88
  -1   7   4    8.00    2.87
  -1   7   4    3.33    2.21
   1   7  -4    2.93    3.43
  -1   7   4    3.12    1.76
   1  -7  -3    5.92    3.71
  -1   7   3    6.92    3.29
   1   7  -3    5.78    6.54
   1   7  -3   13.61    8.04
   1  -7  -2   33.54    6.95
   1   7  -2   31.64   11.28
   1   7  -2   37.21   12.31
  -1   7   2   35.47    8.88
  -1   7   1   20.35    6.79
  -1   7   1   22.92    6.99
   1   7  -1   25.86    9.69
  -1   7   1   29.89   10.02
   1   7  -1   16.10    7.67
  -1   7   0    3.32    3.71
  -1   7   0    5.65    4.74
  -1   7   0    4.32    4.39
   1   7   0    2.56    3.68
   1   7   1   -0.02    1.24
  -1   7  -1   -0.03    2.53
  -1   7  -1    3.50    4.18
  -1   7  -1    3.75    3.77
  -1   7  -2 1001.78   59.60
  -1   7  -2  992.72   50.39
   1   7   2  915.09   69.39
  -1   7  -2 1045.61   52.51
   1   7   2 1042.27   54.64
   1   7   3   25.03   10.70
   1   7   3   23.60   14.00
  -1   7  -3   21.26    7.24
  -1   7  -3   20.39    7.15
   1   7   4  179.49   33.05
   1   7   4  185.27   27.56
  -1   7  -4  195.73   24.93
   1   7   5   80.05   21.78
   1   7   5   88.85   21.21
  -1   7  -5   94.15   18.29
   1   7   6    2.01    5.41
  -1   7  -6    2.29    2.91
  -1  -7  -6    6.51    6.65
   1   7   6    4.69    6.16
   1   7   7   34.21   15.27
   1   7   7   44.20   17.85
  -1   7  -7   33.04   12.56
  -1  -7  -7   50.72   13.76
  -1  -7  -8  608.82   25.86
  -1   7  -8  618.23   26.49
  -1  -7  -8  589.32   24.57
  -1   7  -9   35.47    7.07
  -1  -7  -9   37.09    6.59
  -1   7  -9   35.99    6.55
  -1  -7 -10    9.76    3.34
  -1   7 -10   17.62    6.01
  -1   7 -10    9.40    3.85
  -1   7 -11   11.57    4.16
  -1   7 -11   17.20    4.32
  -1  -7 -11    9.88    3.83
  -1  -7 -12    9.18    2.89
  -1   7 -12    8.51    2.67
  -1   7 -12    8.94    3.19
  -1   7 -13    0.75    1.23
  -1   7 -13    0.52    1.02
  -1  -7 -13    1.66    1.65
  -1  -7 -14    1.26    1.08
  -1   7 -14    5.17    1.72
   1  -8 -14   23.89    3.46
   1   8 -14   22.23    3.34
   1   8 -13   47.90    6.01
   1  -8 -13   53.97    6.44
   1   8 -12    5.20    2.60
   1  -8 -12    0.27    1.58
   1   8 -11   15.18    4.47
   1   8 -11   15.26    4.16
   1  -8 -11   16.48    4.52
   1  -8 -11   14.55    3.87
   1  -8 -10   21.13    4.71
   1   8 -10   27.40    6.10
   1  -8 -10   27.89    6.86
   1   8  -9   59.26    9.25
   1  -8  -9   49.05    7.17
   1  -8  -9   49.98    7.35
   1  -8  -8  184.28   13.18
   1  -8  -8  204.30   14.10
   1   8  -8  204.16   16.44
   1   8  -7   46.47   16.48
   1   8  -6   80.10   19.11
   1  -8  -6   79.25   15.38
   1  -8  -6   71.49   13.84
  -1   8   6   78.25   21.31
   1   8  -6   93.09   19.95
   1   8  -5   38.28   12.49
  -1   8   5   49.53   15.65
   1  -8  -5   40.27    9.49
   1   8  -5   60.14   16.34
   1  -8  -4  266.89   24.07
   1   8  -4  296.37   35.52
   1   8  -4  230.59   33.03
   1   8  -3  598.56   51.23
  -1   8   3  589.73   39.03
   1   8  -3  531.31   50.89
  -1   8   2   64.87   13.24
   1   8  -2   40.77   13.85
  -1   8   2   61.84   13.17
   1   8  -2   57.89   16.47
  -1   8   1  153.90   22.05
  -1   8   1  182.49   22.78
  -1   8   1  179.30   25.60
   1   8  -1  160.86   27.20
   1   8  -1  180.81   28.07
   1   8   0  230.27   31.14
  -1   8   0  237.63   26.86
  -1   8   0  213.11   26.21
   1   8   0  142.36   25.46
  -1   8   0  199.32   26.83
  -1   8  -1  218.37   25.53
  -1   8  -1  236.59   30.54
  -1   8  -1  220.64   26.11
   1   8   1  237.55   29.54
  -1   8  -2  285.18   28.74
  -1   8  -2  301.08   36.10
   1   8   2  302.12   32.75
   1   8   2  237.76   39.52
  -1   8  -3   17.53    7.73
   1   8   3   18.09   12.04
   1   8   3   18.21    8.78
   1   8   4  312.15   41.01
  -1   8  -4  338.56   35.10
   1   8   4  340.57   51.82
   1   8   5   24.36   13.96
  -1   8  -5   27.50   10.54
   1   8   5   25.63   12.81
  -1  -8  -6    7.10    4.25
  -1   8  -6   33.33   11.59
   1   8   6    6.93    9.97
   1   8   6   13.07   12.08
  -1  -8  -7   47.78    6.82
   1   8   7   61.58   28.83
  -1  -8  -8  119.39   11.45
  -1   8  -8  136.65   12.57
  -1  -8  -9    9.23    3.24
  -1   8  -9    3.29    2.92
  -1   8  -9    3.87    2.97
  -1   8 -10    7.60    3.62
  -1   8 -10    2.68    2.06
  -1  -8 -10    3.78    2.30
  -1   8 -11    6.69    2.58
  -1   8 -11   10.54    4.09
  -1  -8 -11    8.52    2.52
  -1  -8 -12   15.59    3.65
  -1   8 -12   17.08    4.03
  -1   8 -12   15.16    3.60
  -1  -8 -13   15.61    3.11
  -1   8 -13   13.74    2.64
  -1   8 -13   14.31    3.06
   1  -9 -14    0.84    0.69
   1   9 -14    0.71    0.77
   1  -9 -13    4.14    1.95
   1   9 -13    2.23    1.44
   1   9 -12   16.16    5.04
   1  -9 -12    9.20    2.95
   1   9 -11   15.39    3.87
   1   9 -11   19.02    4.65
   1  -9 -11    8.59    3.19
   1  -9 -10   55.79    7.56
   1   9 -10   53.59    8.25
   1  -9 -10   61.30    7.93
   1   9  -9   98.01   11.34
   1  -9  -9   88.05    9.47
   1  -9  -9   82.36    8.98
   1  -9  -8    3.15    2.57
   1  -9  -8   -0.33    1.67
   1   9  -8    0.34    3.24
   1   9  -7  262.71   19.50
   1  -9  -7  246.77   14.83
   1   9  -6  108.35   23.56
   1   9  -5    3.68    5.38
   1   9  -5    7.35    6.50
   1   9  -4    7.10    6.33
   1   9  -4    3.49    1.90
   1   9  -3   37.03   13.23
   1   9  -3   39.92   15.05
  -1   9   3   32.53   11.12
  -1   9   2  239.30   28.23
   1   9  -2  216.37   32.73
  -1   9   2  217.13   28.35
   1   9  -2  218.56   34.76
   1   9  -1  471.36   48.97
   1   9  -1  485.93   50.45
  -1   9   1  509.71   44.94
  -1   9   1  529.93   42.65
  -1   9   0   63.33   16.88
   1   9   0   60.85   17.98
   1   9   0   44.80   15.62
  -1   9   0   51.88   13.14
   1   9   1    6.76    7.95
  -1   9  -1    7.82    5.93
   1   9   1    5.29    6.27
  -1   9  -1    5.54    4.66
  -1   9  -2    6.60    4.48
   1   9   2   10.52    8.07
   1   9   3    5.72    4.76
  -1   9  -3    1.54    3.80
   1   9   4   27.07   11.93
  -1   9  -4   24.64   10.60
   1   9   4   28.50   19.26
  -1   9  -5  673.79   54.01
   1   9   5  694.76   85.05
   1   9   6    3.79   11.15
  -1   9  -6    4.27    2.95
   1   9   6   -1.43    7.89
  -1   9  -7    5.71    2.17
  -1  -9  -7    9.64    3.31
  -1   9  -8   35.17    6.56
  -1  -9  -8   32.24    5.73
  -1   9  -9  235.31   16.70
  -1  -9  -9  207.92   14.82
  -1  -9 -10   33.10    6.37
  -1   9 -10   34.39    6.33
  -1  -9 -11   28.86    5.27
  -1   9 -11   36.08    6.27
  -1  -9 -12    4.56    2.11
  -1   9 -12    4.86    2.07
  -1   9 -13    4.19    1.61
  -1  -9 -13    4.87    1.95
   1 -10 -13   24.53    3.74
   1  10 -13   20.90    3.28
   1  10 -12    5.07    1.99
   1 -10 -12    6.62    2.40
   1 -10 -11    1.10    0.95
   1  10 -11    0.49    2.14
   1  10 -11    5.66    3.18
   1 -10 -10   10.72    3.39
   1  10 -10   11.09    4.15
   1  10 -10   13.04    3.99
   1  10  -9   62.25    9.17
   1 -10  -9   48.03    6.74
   1  10  -8   -0.52    1.20
  -1  10   8    2.34    4.93
   1 -10  -8   -0.04    0.76
   1 -10  -7    6.64    2.89
  -1  10   7    2.62    4.50
   1  10  -7    8.01    4.49
  -1  10   6    8.62    7.77
   1  10  -6    4.56    3.97
  -1  10   5  289.66   38.61
   1  10  -5  256.62   36.08
   1  10  -4  486.94   53.14
   1  10  -4  490.17   49.67
  -1  10   4  526.25   50.88
   1  10  -3  641.37   57.05
  -1  10   3  602.61   52.32
   1  10  -3  549.04   58.53
   1  10  -2   25.42   11.87
   1  10  -2   24.17   13.65
  -1  10   2   34.28   13.37
  -1  10   1  269.88   36.93
   1  10  -1  260.93   38.63
   1  10  -1  278.63   42.15
  -1  10   1  282.21   33.17
  -1  10   0    9.19    6.57
   1  10   0    4.79    5.91
   1  10   0    6.26    3.55
   1  10   1  194.04   35.45
   1  10   1  254.87   38.31
   1  10   2   55.23   19.43
   1  10   2   30.30   15.88
   1  10   3   25.99   11.48
   1  10   4   51.64   18.50
  -1 -10  -6   15.52    4.18
  -1  10  -6   13.39    4.03
  -1 -10  -7   21.47    4.62
  -1  10  -7   19.76    4.58
  -1  10  -8   20.08    5.02
  -1 -10  -8   18.85    4.25
  -1  10  -9    1.45    2.02
  -1 -10  -9    0.98    1.94
  -1 -10 -10    0.86    0.62
  -1 -10 -10    1.05    1.04
  -1  10 -10    1.23    0.74
  -1 -10 -11    9.23    2.71
   1  10  11   16.64    5.05
  -1 -10 -11   14.20    3.28
  -1  10 -11   14.06    4.09
  -1 -10 -12    9.52    2.63
  -1  10 -12    9.87    2.72
  -1  10 -13   30.48    3.43
   1  11 -13   14.09    2.57
   1 -11 -12    4.55    1.62
   1 -11 -12    7.32    2.21
   1  11 -12    4.04    1.42
   1  11 -11   51.35    6.95
   1  11 -11   43.75    6.17
   1 -11 -11   46.78    5.85
   1 -11 -10    9.32    2.92
   1  11 -10    9.12    3.77
   1  11 -10    7.26    3.53
   1  11  -9    3.79    2.44
   1 -11  -9    6.52    4.32
   1  11  -9    3.70    2.84
   1 -11  -8   18.31    4.24
  -1  11   8   14.09    6.93
   1  11  -8   23.03    6.67
   1 -11  -7   42.98    6.18
   1  11  -7   45.27    8.66
   1  11  -6   28.24    7.47
  -1  11   6   20.00    7.65
   1  11  -5   85.15   12.21
  -1  11   5   79.38   13.38
   1  11  -4   16.93    6.91
  -1  11   4   25.11    8.48
   1  11  -3   73.12   20.08
   1  11  -2    2.29    4.07
   1  11  -2    0.51    4.60
   1  11  -1   -0.05    8.01
   1  11  -1   -0.68    3.21
   1  11   0   33.78   18.13
   1  11   0   34.03   16.25
   1  11   1  288.25   45.32
   1  11   2   76.18   24.24
   1  11   3   10.33    9.90
   1  11   3    4.68    5.89
   1  11   4   27.15    8.53
  -1  11  -4   22.16    5.59
  -1  11  -5   75.12   12.34
  -1 -11  -6   17.38    4.36
  -1  11  -6   28.72    6.53
  -1 -11  -7   26.41    5.17
  -1  11  -7   25.74    5.49
  -1 -11  -8   56.73    7.35
  -1  11  -8   64.92    8.72
  -1 -11  -9   26.49    4.90
  -1  11  -9   32.46    5.92
   1  11   9   32.20   10.44
  -1 -11  -9   28.81    5.14
  -1 -11 -10    3.80    1.99
  -1 -11 -10    1.83    1.52
   1  11  10    4.29    4.48
  -1  11 -10    1.12    1.47
  -1  11 -11    8.55    2.39
  -1 -11 -11    9.89    2.64
  -1  11 -12   13.46    2.65
  -1 -11 -12   15.52    2.88
   1 -12 -12   31.57    3.66
   1  12 -12   27.56    3.56
   1 -12 -11    2.78    1.53
   1  12 -11    2.56    1.47
   1 -12 -11    2.10    1.30
   1  12 -10    0.58    0.68
   1 -12 -10    1.96    1.83
   1  12 -10    2.99    1.87
   1  12  -9   -0.20    0.49
   1  12  -9    3.11    2.57
   1 -12  -9    2.15    2.06
  -1  12   8    2.54    3.90
   1  12  -8    3.57    2.95
   1 -12  -8    4.00    2.30
   1  12  -8    2.43    1.89
   1  12  -7   22.18    5.81
  -1  12   7   24.14    9.72
  -1  12   6   12.62    6.33
   1  12  -6    5.05    3.61
   1  12  -5   13.27    6.34
  -1  12   5   13.74    6.94
  -1  12   4   11.97    6.03
   1  12  -4    8.27    5.24
  -1  12   3  108.31   15.63
   1  12  -3   96.92   13.97
  -1  12   2   96.82   14.88
   1  12  -2   86.06   12.42
  -1  12   1    7.38    5.05
   1  12  -1    5.88    1.68
   1  12   0   39.82    8.72
   1  12   0   32.12    7.68
  -1 -12  -1   12.82    3.02
   1  12   1   15.11    5.69
  -1  12  -1   18.18    5.20
   1  12   2   19.85    6.74
  -1  12  -2   12.20    5.05
  -1 -12  -2   16.07    3.76
  -1  12  -3   18.34    6.24
  -1 -12  -3    8.98    2.57
   1  12   3   16.36    8.56
   1  12   4    8.71    6.82
  -1  12  -4   11.12    6.18
   1  12   5  386.87   33.46
  -1  12  -5  400.08   26.99
   1  12   6    2.66    3.40
  -1 -12  -6    2.31    2.06
  -1 -12  -7    0.89    1.17
  -1  12  -7    3.03    2.35
  -1 -12  -7    2.65    1.98
   1  12   7   -0.46    4.80
  -1 -12  -8   26.87    4.88
  -1  12  -8   38.48    5.99
  -1 -12  -8   23.38    4.54
   1  12   8   38.15   13.70
  -1 -12  -9   58.54    6.80
  -1 -12  -9   58.16    6.94
  -1  12  -9   66.59    7.83
  -1 -12 -10    3.76    1.81
  -1  12 -10    4.87    2.23
  -1 -12 -10    3.67    1.90
  -1 -12 -11    4.26    1.36
  -1 -12 -11    4.60    1.78
   1 -13 -11    3.59    1.29
   1 -13 -11    0.98    0.64
   1 -13 -10    0.34    0.34
   1  13 -10    0.55    0.96
   1 -13  -9    4.69    2.35
   1  13  -9    1.02    0.96
   1  13  -9    4.06    2.64
  -1  13   8   25.57    8.58
   1  13  -8   37.94    5.77
   1  13  -8   27.34    5.99
  -1  13   7   20.77    6.84
   1  13  -7   21.43    6.53
  -1  13   6  116.67   15.91
   1  13  -6  128.14   15.72
  -1  13   5  124.42   16.99
   1  13  -5  116.59   14.91
  -1  13   4   19.20    6.51
   1  13  -4   27.57   10.88
  -1  13   3  143.32   18.47
   1  13  -3  142.12   16.83
   1  13  -2   84.58   13.71
   1  13  -1   88.81   12.74
   1  13   0    7.55    9.88
   1  13   0    7.17    4.59
  -1  13   0    4.99    3.10
  -1  13  -1   93.40   12.88
  -1 -13  -1   90.06    9.64
   1  13   1   91.16   13.56
  -1  13  -2    4.86    4.96
  -1 -13  -2    5.52    5.04
   1  13   2    6.32    4.97
  -1  13  -3   38.24    8.56
   1  13   3   31.36    8.61
  -1 -13  -3   31.66    5.62
  -1 -13  -4   11.66    3.40
  -1  13  -4   11.29    6.19
   1  13   4   17.98    7.61
   1  13   5   28.63   10.30
  -1 -13  -5   17.18    4.95
  -1  13  -5   19.32    5.89
  -1  13  -6  256.15   19.17
  -1 -13  -6  227.53   14.42
  -1 -13  -7  105.57    9.46
  -1 -13  -7  113.82    9.42
  -1  13  -8   11.40    2.77
  -1 -13  -8    9.26    2.78
  -1 -13  -9   40.17    5.18
  -1  13  -9   43.78    5.61
  -1 -13  -9   36.87    4.79
  -1  13 -10   27.26    3.86
  -1 -13 -10   28.31    3.92
   1  13  10   33.42    8.69
  -1 -13 -10   25.22    3.65
   1 -14 -10   30.19    3.87
   1  14  -9    2.04    2.03
   1 -14  -9   28.32    8.68
   1 -14  -8    4.25    1.92
   1  14  -8    3.96    1.89
   1  14  -7    2.59    2.25
  -1  14   7   28.35   10.36
   1  14  -6    5.46    4.45
  -1  14   6    7.90    6.00
  -1  14   5  121.88   16.48
   1  14  -5  118.21   15.04
   1 -14  -4  118.82    9.96
   1  14  -4  130.66   16.41
  -1  14   4  156.08   18.64
   1  14  -3   16.01    5.59
   1 -14  -3   25.79    4.86
   1  14  -2   40.68    9.88
  -1  14   1  309.45   23.87
   1  14  -1  310.57   24.73
  -1  14   0   20.20    7.72
   1  14   0   24.96    7.70
  -1 -14  -1   80.37    8.49
  -1  14  -1   74.63   11.77
   1  14   1   85.22   13.27
   1  14   1  105.27   16.32
   1  14   2   14.79    6.98
  -1  14  -2   17.16    5.62
   1  14   2    9.50    4.76
  -1 -14  -2   10.05    3.38
  -1  14  -3   12.29    5.73
  -1 -14  -3   11.02    3.25
   1  14   3   13.26    6.18
  -1 -14  -4   56.86    7.19
   1  14   4   79.59   14.64
  -1  14  -4   64.34   10.71
  -1 -14  -5    1.42    1.96
  -1  14  -5    2.92    3.37
   1  14   6   56.41   17.62
  -1 -14  -6   30.90    5.09
   1  14   7    5.59    7.32
  -1 -14  -7    1.62    1.54
   1  14   8   -1.97    3.04
  -1 -14  -8    1.27    1.33
  -1 -14  -9    2.74    1.12
   1  14   9   10.25    9.40
  -1 -14  -9    3.96    1.53
   1 -15  -9    1.43    0.71
   1 -15  -8    1.34    0.83
   1  15  -8    7.11    3.19
   1  15  -7    4.47    2.67
   1 -15  -7    6.75    2.23
   1 -15  -6   27.86    4.62
   1  15  -6   29.48    6.59
   1  15  -5   11.53    5.54
   1 -15  -5    2.39    1.39
   1  15  -4  193.55   18.70
   1 -15  -4  162.30   11.12
   1  15  -3    7.08    5.12
  -1  15   2   72.56   11.81
   1  15  -2   58.42   11.42
   1  15  -1  116.80   15.32
  -1  15   1   87.77   12.97
   1  15   0    7.56    5.53
  -1  15   0    8.36    5.11
   1  15   1    3.41    4.20
  -1  15  -1    3.34    1.64
   1  15   2   24.46    6.28
  -1  15  -2   27.53    7.44
  -1 -15  -2   18.02    4.05
  -1  15  -3    0.12    1.96
  -1 -15  -3    5.42    2.80
   1  15   3   10.57    6.10
   1  15   3    2.58    3.13
  -1  15  -4   16.95    5.07
  -1 -15  -4   11.62    3.08
   1  15   4   15.69    5.64
   1  15   4   13.96    5.04
   1  15   5    3.13    3.36
  -1  15  -5    8.16    4.55
   1  15   5   10.56    4.71
  -1 -15  -5    2.93    2.21
   1  15   6    5.04    3.74
  -1 -15  -6    4.27    1.86
   1  15   7    8.85    8.36
   1  15   7    8.23    4.07
  -1 -15  -7    6.46    2.10
   1  15   8   22.66    5.96
  -1 -15  -8   17.30    3.00
  -1 -15  -9    1.52    0.79
  -1  16   8   11.82    4.54
   1 -16  -8    9.90    2.36
  -1  16   7    0.39    0.96
   1 -16  -7    0.34    0.61
   1  16  -7    2.30    1.71
   1 -16  -6    2.23    1.36
   1  16  -6    1.81    1.83
   1  16  -5   45.92    7.38
   1 -16  -5   33.94    4.54
  -1  16   5   44.51    9.33
  -1  16   4   31.53    7.80
   1 -16  -4   30.59    4.52
   1  16  -4   30.09    6.29
  -1  16   3    3.27    4.06
   1  16  -3    4.44    3.69
  -1  16   2    7.36    3.95
   1  16  -2   10.15    6.03
  -1  16   1   25.56    7.03
   1  16  -1   21.56    6.07
   1  16   0    6.08    4.88
  -1  16   0    7.24    4.38
   1  16   1   12.80    4.83
  -1  16  -1    3.71    2.45
  -1 -16  -2   34.46    4.90
  -1  16  -2   29.53    6.55
   1  16   2   33.47    7.60
  -1  16  -3    1.18    1.75
   1  16   3    4.17    2.77
  -1 -16  -3    3.26    1.63
  -1 -16  -4   57.69    6.44
   1  16   4   76.13   11.84
  -1  16  -4   64.84    8.75
  -1 -16  -5    0.71    0.75
   1  16   5    2.05    1.69
  -1 -16  -6   67.20    6.26
   1  16   6   81.46   10.60
   1  16   7    6.30    3.33
  -1 -16  -7    4.65    1.64
   1  17  -6    9.32    3.22
  -1  17   6    0.24    1.42
   1  17  -5   58.87    6.83
   1 -17  -5   46.59    4.55
  -1  17   5   69.73   10.16
  -1  17   4    6.18    4.12
   1  17  -4   11.93    4.86
   1  17  -3    6.04    2.85
  -1  17   3    2.04    1.16
   1  17  -2    0.67    2.96
  -1  17   2    2.89    2.94
  -1  17   1    1.63    2.51
   1  17  -1    5.77    4.44
   1  17   0   25.02    7.05
  -1  17   0   23.75    6.42
  -1  17  -1    8.58    4.08
   1  17   1   24.22    7.18
  -1  17  -2   25.21    5.76
   1  17   2   30.32    7.69
  -1  17  -3    2.75    2.37
   1  17   3    4.49    3.72
  -1 -17  -3    2.98    2.20
   1  17   4    0.78    2.61
  -1  17  -4    2.30    2.37
  -1 -17  -4    1.43    0.84
  -1 -17  -5   10.34    2.31
   1  17   5   17.19    5.66
  -1  18   4    3.23    1.51
   1  18  -4    9.05    2.68
   1  18  -3    4.28    1.83
  -1  18   3    2.90    1.97
   1  18  -2   19.28    4.61
  -1  18   2   19.59    4.92
  -1  18   1    2.82    2.63
   1  18  -1    1.79    1.90
   1  18   0    3.68    2.44
  -1  18   0   -0.86    1.11
  -1  18  -1    8.22    3.31
   1  18   1    1.18    1.21
   1  18   2   10.09    3.88
  -1  18  -2    6.35    2.85
   1  18   3   11.20    4.35
   2   0 -16   49.21    4.83
   2   0 -15    2.08    1.61
   2   0 -14    4.12    2.27
   2   0 -13   -1.20    1.39
   2   0 -12  197.03   14.07
   2   0 -11    0.08    1.27
   2   0 -10   85.32   17.49
  -2   0  10   73.05   21.60
   2   0  -9    1.20    2.33
  -2   0   9    0.54    4.86
   2   0  -8  856.23   47.43
   2   0  -8  904.43   51.67
   2   0  -8  880.23   47.93
  -2   0   7    2.53    2.71
   2   0  -7   -0.01    1.19
   2   0  -7    1.52    1.16
  -2   0   7    1.30    1.15
   2   0  -7    0.33    1.60
   2   0  -6  283.40   23.63
  -2   0   6  217.71   23.92
  -2   0   6  223.14   21.30
   2   0  -6  271.15   21.78
   2   0  -6  253.63   20.67
   2   0  -5    0.35    0.68
  -2   0   5   -0.05    1.49
   2   0  -5    0.39    1.33
  -2   0   5    2.02    2.13
   2   0  -5    2.58    2.58
   2   0  -4  138.53   13.86
   2   0  -4  140.18   12.17
   2   0  -4  153.72   14.74
   2   0  -4  130.22   11.71
  -2   0   3    2.46    1.21
   2   0  -3   -0.27    2.23
   2   0  -3    0.59    0.80
   2   0  -2 4016.46   53.21
   2   0  -2 3922.89   56.48
   2   0  -2 4047.22   64.29
   2   0  -1   -0.02    0.33
   2   0  -1   12.77    2.93
   2   0   0 2253.04   31.79
   2   0   0 2323.37   36.16
  -2   0   0 2288.11   33.44
   2   0   0 2277.73   28.49
  -2   0  -1    0.82    0.69
  -2   0  -1    0.64    0.87
   2   0   1    0.84    1.06
  -2   0  -1    0.47    0.61
  -2   0  -2  176.14   13.54
  -2   0  -2  206.09   14.55
   2   0   2  194.37   13.52
   2   0   3    0.78    2.48
  -2   0  -3    1.77    1.50
   2   0   3    0.11    1.45
   2   0   4 3952.72   87.58
  -2   0  -4 3926.35   80.65
   2   0   4 3885.58   84.01
  -2   0  -5    1.31    2.49
   2   0   5    0.87    2.61
   2   0   5    0.53    2.34
  -2   0  -6   65.58   12.59
   2   0   6   72.40   15.34
   2   0   7   -2.43    4.34
  -2   0  -7    0.24    2.42
   2   0   7   -3.07    5.18
  -2   0  -8  220.89   27.15
   2   0   8  238.91   35.11
   2   0   8  214.26   34.57
   2   0   9    8.15   11.79
  -2   0 -10  127.19   12.17
  -2   0 -11    1.21    0.95
  -2   0 -12    5.30    4.35
  -2   0 -13    1.35    2.71
  -2   0 -14   -0.21    0.57
   2  -1 -16    1.19    1.10
   2   1 -16    1.33    1.15
   2  -1 -15    2.34    1.58
   2   1 -15   -0.05    0.65
   2  -1 -14  243.27   15.60
   2   1 -14  239.98   15.24
   2   1 -13   72.53    8.88
   2  -1 -13   69.59    8.68
   2  -1 -12  132.06   12.25
   2  -1 -12  144.98   12.42
   2   1 -12  144.26   12.89
   2  -1 -11    9.93    3.43
   2  -1 -11   10.24    3.60
   2   1 -11    4.95    2.26
  -2   1  10   49.68   19.13
  -2  -1  10   42.89   16.36
   2  -1 -10   46.30   12.68
   2   1 -10   45.53   13.74
   2  -1  -9   24.21    8.28
   2  -1  -9   28.29   13.00
  -2   1   9   26.56   13.08
   2   1  -9   25.97    9.48
  -2  -1   9   21.85   11.69
   2  -1  -8    3.67    3.60
  -2  -1   8    1.15    2.23
  -2   1   8   -0.85    2.93
   2   1  -8    1.43    4.99
   2   1  -8   -1.01    3.75
  -2  -1   8    1.53    4.21
   2  -1  -8   -0.90    2.81
   2   1  -8    2.06    3.52
  -2   1   7   65.95   14.66
   2  -1  -7   80.01   14.07
   2   1  -7   68.45   12.57
   2   1  -7   75.35   13.17
  -2   1   7   69.65   13.15
  -2  -1   7   60.18   15.12
  -2  -1   7   57.21   13.10
   2  -1  -7   71.19   12.08
   2   1  -7   81.34   14.13
   2   1  -6  937.04   42.08
   2  -1  -6  926.28   44.17
   2  -1  -6  829.16   35.79
  -2   1   6  846.72   39.30
   2   1  -6  873.22   41.33
   2  -1  -6  820.43   36.30
  -2   1   6  836.13   45.65
   2   1  -6  871.32   40.64
   2   1  -6  932.73   46.30
   2   1  -5   11.06    5.38
   2  -1  -5    7.35    3.20
   2  -1  -5    7.18    3.24
   2   1  -5    8.60    5.00
   2   1  -5   11.65    4.51
  -2   1   5   11.93    4.90
  -2   1   5    7.01    2.70
   2   1  -5    7.95    3.24
   2  -1  -5   13.56    3.93
   2  -1  -4  828.92   27.45
   2   1  -4  907.99   34.60
   2   1  -4  908.65   33.60
   2  -1  -4  827.60   26.91
   2  -1  -4  936.32   38.20
   2   1  -4  857.84   34.05
  -2   1   4  789.93   30.92
   2   1  -4  947.88   40.11
  -2   1   4  810.18   24.75
   2  -1  -3   22.62    3.51
   2  -1  -3   23.00    3.84
   2   1  -3   27.03    5.73
  -2   1   3   20.75    3.82
   2   1  -3   23.02    5.52
  -2   1   3   22.52    2.82
   2   1  -3   25.78    5.88
  -2  -1   3   18.03    5.47
  -2   1   2 2508.73   27.76
   2  -1  -2 2608.20   42.69
   2  -1  -2 2434.17   26.84
  -2  -1   2 2611.58   62.28
   2  -1  -2 2614.18   29.41
   2   1  -2 2562.29   57.96
   2   1  -2 2819.95   63.88
   2   1  -2 2665.19   68.60
   2   1  -1 7651.16   83.90
  -2  -1   1 7625.98   92.07
   2  -1  -1 7700.07   55.83
   2   1   0    1.99    0.96
  -2   1   0    0.63    0.99
   2  -1   0    4.27    1.00
  -2   1   0    2.19    0.88
   2   1   0    3.48    1.63
   2  -1   0    1.88    0.96
   2   1   0    2.17    1.27
  -2   1  -1 1225.45   29.09
  -2   1  -1 1269.38   29.46
  -2   1  -1 1234.66   40.18
   2   1   1 1275.34   30.58
   2  -1   1 1296.69   27.62
   2  -1   1 1293.07   30.98
  -2  -1  -1 1179.38   16.66
   2   1   1 1258.32   31.87
   2   1   2  469.94   21.75
  -2   1  -2  457.51   19.82
  -2   1  -2  459.32   24.17
   2  -1   2  447.69   22.20
   2  -1   2  477.26   21.39
  -2   1  -2  466.15   21.54
  -2  -1  -2  464.77   21.93
  -2  -1  -2  482.86   23.52
   2  -1   3 1845.29   52.65
   2   1   3 1809.30   49.84
  -2   1  -3 1804.89   48.08
  -2   1  -3 1816.63   48.91
  -2  -1  -3 1878.35   50.46
   2  -1   3 1820.96   50.32
   2   1   3 1958.95   53.49
  -2  -1  -4  438.23   27.39
  -2   1  -4  407.84   25.97
   2   1   4  435.40   29.16
   2   1   4  434.20   27.97
   2  -1   4  405.53   27.61
  -2   1  -4  415.44   24.05
   2  -1   4  426.27   29.23
  -2   1  -5    4.21    2.84
  -2  -1  -5    0.81    1.49
   2   1   5    0.88    1.20
   2   1   5    2.64    2.89
   2  -1   5    5.68    4.74
   2  -1   5    1.35    1.91
  -2  -1  -5    1.72    1.82
  -2   1  -5    2.88    2.61
  -2  -1  -6  152.47   19.25
   2   1   6  165.66   22.65
   2  -1   6  161.23   22.84
   2  -1   6  160.48   23.30
   2   1   6  180.50   24.34
  -2   1  -6  170.90   20.66
  -2  -1  -6  203.99   21.14
   2   1   7  132.43   22.48
  -2   1  -7  126.49   19.34
  -2  -1  -7  132.71   18.94
   2  -1   7  125.10   23.97
   2   1   7  136.04   24.44
   2  -1   7  141.62   25.49
  -2   1  -8  126.07   21.62
   2  -1   8  131.65   27.46
   2   1   8  140.12   27.68
   2   1   8  138.98   26.55
   2  -1   8  124.26   26.27
  -2  -1  -8  129.39   20.51
   2   1   9   11.62    8.65
  -2  -1 -10    4.87    2.73
  -2   1 -10    3.91    2.13
  -2   1 -11    6.43    3.16
  -2  -1 -11    8.17    4.04
  -2  -1 -12  113.13   11.27
  -2   1 -12  119.69   11.89
  -2  -1 -13   27.42    5.69
  -2   1 -13   22.65    4.79
  -2   1 -14   61.33    6.65
  -2  -1 -14   55.04    6.13
   2   2 -16    4.58    1.43
   2  -2 -16    4.65    1.52
   2  -2 -15    7.67    2.58
   2   2 -15    6.48    2.45
   2   2 -14    2.50    2.11
   2  -2 -14    1.95    2.21
   2  -2 -13    1.73    2.01
   2   2 -13   -0.48    1.82
   2  -2 -13    0.18    2.01
   2  -2 -12    4.42    2.31
   2   2 -12    7.83    3.39
   2  -2 -12    1.18    1.95
   2  -2 -11    7.78    3.15
   2  -2 -11    7.49    3.04
   2   2 -10    9.00    6.06
  -2   2  10    4.05    4.50
  -2  -2  10    7.03    5.85
   2   2  -9  161.25   23.28
   2  -2  -9  164.02   24.63
  -2   2   9  138.53   26.96
  -2  -2   9  117.41   26.88
   2   2  -9  143.66   23.22
   2  -2  -9  137.27   20.06
   2  -2  -8  115.14   17.12
   2  -2  -8  131.53   20.51
   2   2  -8  114.82   18.27
  -2  -2   8   97.79   19.65
  -2   2   8  120.10   22.17
  -2  -2   8  100.18   22.31
   2   2  -8  134.94   21.05
   2  -2  -7   53.77   10.34
   2   2  -7   73.54   14.26
   2   2  -7   56.62   11.96
   2  -2  -7   64.39   12.93
   2   2  -7   59.85   11.24
  -2   2   7   55.41   13.30
   2   2  -7   58.84   12.06
   2   2  -6    0.70    1.35
   2  -2  -6    1.06    1.17
   2   2  -6   -0.20    2.44
  -2   2   6   -0.10    1.11
  -2   2   6    1.55    2.05
   2   2  -6    1.68    3.13
   2  -2  -6    1.05    2.38
   2   2  -6    0.79    2.41
  -2   2   5  171.39   16.70
   2   2  -5  210.88   21.67
  -2   2   5  184.91   14.30
   2  -2  -5  196.95   19.10
   2   2  -5  196.12   18.80
   2   2  -5  189.28   16.13
   2   2  -5  189.26   19.14
   2  -2  -5  167.55   14.62
   2   2  -4   36.66    8.00
   2   2  -4   49.12   10.44
   2  -2  -4   44.28    8.69
  -2   2   4   40.34    5.61
  -2   2   4   36.10    6.24
   2  -2  -4   42.57    6.44
   2   2  -4   46.76    7.10
   2   2  -4   45.97    9.10
   2   2  -3   94.28   12.38
  -2   2   3   68.80    6.82
  -2   2   3   79.65    6.44
   2   2  -3   76.50   11.75
   2   2  -3   76.23    8.68
  -2  -2   3   69.90   10.22
   2  -2  -3   72.02    6.85
   2   2  -2   68.58   10.90
   2  -2  -2   67.34    4.85
   2   2  -2   68.73   10.10
  -2  -2   2   75.52    9.57
  -2   2   2   63.65    4.82
   2   2  -1   58.94    9.55
  -2  -2   1   67.29    7.97
   2   2   0 5013.14   72.45
   2   2   0 5113.90   71.24
   2   2   0 5003.47   71.84
  -2   2   0 5095.18   43.50
  -2   2   0 5081.34   85.08
  -2   2   0 4837.09   56.67
  -2   2  -1 3357.60   56.57
   2   2   1 3590.54   59.08
  -2   2  -1 3477.23   57.16
  -2   2  -1 3433.04   67.18
  -2   2  -1 3500.28   48.89
  -2   2  -2 2317.39   52.45
  -2   2  -2 2331.52   55.07
   2   2   2 2443.47   53.40
  -2   2  -2 2416.62   52.61
  -2   2  -2 2369.55   48.65
   2   2   3  168.86   16.39
  -2   2  -3  164.28   15.47
  -2   2  -3  157.15   14.55
   2   2   3  158.35   15.45
  -2   2  -3  151.55   14.02
  -2  -2  -3  154.63   14.86
  -2   2  -4 4049.02   72.56
  -2   2  -4 3880.31   83.69
   2  -2   4 3983.40   91.14
   2   2   4 4187.55   91.68
   2   2   4 4097.25   88.60
  -2  -2  -4 3915.60   83.71
  -2   2  -4 3958.59   81.91
  -2  -2  -5 2072.24   67.39
   2   2   5 2244.73   74.41
   2  -2   5 2085.72   75.87
   2  -2   5 2025.60   76.77
   2   2   5 2208.61   76.17
  -2   2  -5 2070.17   67.12
  -2   2  -6    1.36    2.82
  -2  -2  -6    1.91    1.86
   2  -2   6    7.59    5.78
   2   2   6    5.38    4.01
   2  -2   6    3.54    4.05
   2   2   6    8.30    6.05
  -2  -2  -7    1.33    4.83
   2   2   7    3.49    5.46
  -2   2  -7    0.64    1.79
  -2  -2  -7   -1.99    3.80
   2  -2   7   -0.62    2.02
   2   2   7   -3.12    3.73
   2  -2   7    2.19    2.72
   2   2   8   84.47   20.59
  -2  -2  -8   68.71   15.52
   2   2   8   71.05   20.39
   2  -2   8   79.75   22.07
   2  -2   8   79.64   22.01
  -2   2  -8   70.74   15.86
  -2   2  -9  142.84   12.62
  -2   2 -10  104.87   10.25
  -2  -2 -10   94.17   10.18
  -2   2 -10  124.25   12.44
  -2  -2 -11   22.56    5.55
  -2   2 -11   20.72    5.48
  -2   2 -11   16.75    3.92
  -2   2 -12    5.87    3.72
  -2  -2 -12   15.23    4.96
  -2  -2 -13   -0.07    0.88
  -2   2 -13    0.00    1.24
  -2   2 -14    3.39    2.19
  -2  -2 -14    3.04    1.26
   2  -3 -15    2.05    1.35
   2   3 -15    2.91    1.56
   2   3 -14    3.04    2.27
   2  -3 -14   -0.66    0.71
   2  -3 -14    3.97    2.56
   2  -3 -13    9.60    3.25
   2  -3 -13    8.68    3.37
   2   3 -13   16.05    4.18
   2  -3 -12   10.76    4.17
   2  -3 -12   11.05    3.43
   2   3 -12    9.12    3.12
   2   3 -11  366.97   21.46
   2  -3 -11  380.34   21.00
   2   3 -11  351.07   19.83
   2  -3 -11  368.43   20.61
   2   3 -10   32.90    6.77
   2  -3 -10   40.31    7.65
   2  -3 -10   37.35    6.26
  -2  -3   9  708.86   66.14
   2  -3  -9  932.86   60.06
  -2   3   9  890.30   71.15
  -2  -3   9  699.09   59.23
   2   3  -9  836.64   55.82
   2   3  -9  939.49   61.31
   2  -3  -9  800.70   48.09
   2  -3  -8  212.02   26.91
   2  -3  -8  161.29   19.70
  -2   3   8  184.77   28.63
   2   3  -8  173.62   23.65
   2   3  -8  183.53   25.27
   2   3  -7    1.49    1.99
   2   3  -7    1.93    4.26
   2  -3  -7   -0.42    1.41
   2  -3  -7    0.98    1.14
   2   3  -7    1.23    1.12
  -2   3   7    0.69    1.09
   2   3  -6   85.87   15.62
   2   3  -6   94.54   15.95
  -2   3   6   80.92   13.54
   2   3  -6   90.19   15.20
   2  -3  -6   81.03   11.82
   2   3  -6   86.84   11.80
   2  -3  -6   93.08   14.69
   2  -3  -5   80.69   12.48
   2   3  -5   76.59    9.70
  -2   3   5   68.92    9.34
   2   3  -5   84.76   13.76
  -2   3   5   69.72   10.77
   2   3  -5   66.43   12.23
   2  -3  -5   67.62    9.89
   2   3  -5   86.47   15.89
   2   3  -4 2030.62   73.10
   2  -3  -4 2068.50   60.99
  -2   3   4 1785.62   45.60
   2   3  -4 2049.98   65.38
   2   3  -4 1811.91   41.05
  -2   3   4 1974.86   48.20
   2  -3  -4 1835.01   43.97
   2   3  -4 1973.50   65.74
   2   3  -3  263.02   24.35
   2   3  -3  258.16   25.07
   2   3  -3  246.81   12.97
  -2   3   3  246.43   14.43
  -2   3   3  246.98   17.88
  -2  -3   3  251.11   18.39
   2  -3  -3  246.47   13.67
   2  -3  -3  306.17   24.13
  -2   3   2 3377.06   52.05
   2  -3  -2 3387.38   89.12
  -2  -3   2 3470.98   61.66
   2   3  -2 3333.78   56.79
   2   3  -1 2732.72   77.46
   2  -3  -1 2812.04   83.56
  -2  -3   1 2937.01   53.53
  -2   3   0 5315.44   52.11
  -2   3   0 5421.35   50.25
  -2   3  -1 4888.30   82.21
   2   3   1 5310.43   83.24
  -2   3  -1 5332.27   80.61
  -2   3  -1 5325.86   66.27
  -2   3  -1 5324.92   81.71
   2   3   2  867.01   35.42
  -2   3  -2  862.35   36.99
   2   3   2  924.93   37.21
  -2   3  -2  872.86   31.93
  -2   3  -2  847.15   31.06
  -2   3  -2  878.48   35.35
   2   3   3  234.58   19.83
  -2   3  -3  233.02   21.04
  -2   3  -3  243.31   19.47
  -2   3  -3  220.90   15.03
   2   3   3  246.82   21.02
  -2   3  -4  655.64   37.73
  -2   3  -4  685.23   37.06
   2   3   4  677.52   38.21
  -2  -3  -4  603.36   34.02
   2   3   4  702.94   39.79
   2   3   5 1187.13   56.91
  -2  -3  -5 1097.53   50.13
  -2   3  -5 1138.17   53.73
  -2   3  -5 1173.22   53.55
   2   3   5 1216.14   59.20
   2  -3   5 1124.33   59.39
  -2   3  -6    4.51    3.30
  -2  -3  -6    4.52    4.43
   2   3   6    3.57    3.63
   2  -3   6    3.75    5.27
   2  -3   6    2.60    2.22
   2   3   6   -0.27    2.72
  -2   3  -6    1.89    3.60
  -2   3  -7   30.46   10.18
   2   3   7   37.55   11.96
   2  -3   7   33.46   13.82
   2   3   7   44.42   15.84
  -2  -3  -7   28.01    9.04
   2  -3   7   24.21   11.79
  -2   3  -8   29.72   11.16
   2   3   8   30.23   13.13
  -2  -3  -8   31.14   10.30
   2   3   8   28.22   12.15
   2  -3   8   30.27   14.79
   2  -3   8   24.40   13.87
  -2  -3  -9    1.90    1.85
  -2   3  -9    3.64    2.95
  -2   3  -9    3.77    2.41
  -2  -3  -9    5.89    3.56
  -2   3 -10   10.33    3.49
  -2  -3 -10   11.95    4.01
  -2   3 -10   12.09    4.58
  -2  -3 -10   10.72    3.87
  -2   3 -11  327.94   18.31
  -2  -3 -11  303.09   17.32
  -2   3 -11  354.87   21.66
  -2  -3 -11  332.10   19.21
  -2   3 -12   48.47    7.36
  -2   3 -12   54.24    7.85
  -2  -3 -12   44.38    6.60
  -2   3 -13   40.01    6.12
  -2  -3 -13   35.21    5.13
  -2  -3 -14   44.43    4.74
  -2   3 -14   52.73    6.01
   2  -4 -15    6.42    1.83
   2  -4 -15    8.33    2.40
   2   4 -15    6.50    2.03
   2   4 -14   14.01    3.65
   2  -4 -14   17.24    3.73
   2  -4 -14   14.45    3.41
   2  -4 -13   57.79    7.72
   2   4 -13   61.49    7.39
   2   4 -13   50.46    7.01
   2  -4 -13   65.23    8.47
   2  -4 -13   51.53    7.45
   2  -4 -12   11.84    3.35
   2   4 -12   12.03    3.95
   2  -4 -12   12.45    4.18
   2   4 -11    4.38    3.09
   2  -4 -11    7.49    3.57
   2   4 -11    9.89    4.56
   2  -4 -11    5.47    2.91
   2  -4 -10  109.60   11.12
   2   4 -10  108.92   11.50
   2  -4 -10  105.38   10.87
   2   4 -10   94.54    9.78
   2   4  -9  183.77   26.85
   2  -4  -9  204.43   28.87
  -2  -4   9  168.33   33.37
  -2  -4   9  184.17   31.21
   2   4  -9  232.61   31.86
   2   4  -8    0.20    1.50
  -2   4   8    6.59    4.75
   2  -4  -8   -0.57    1.76
   2  -4  -8    6.42    5.92
   2   4  -8    3.99    5.01
   2   4  -8    2.94    4.97
   2   4  -7  327.67   33.68
   2  -4  -7  323.86   31.30
  -2   4   7  303.43   31.52
   2   4  -7  327.29   33.24
   2   4  -7  305.77   30.77
   2  -4  -7  260.41   23.66
   2  -4  -6 1603.18   63.82
  -2   4   6 1528.29   60.71
   2   4  -6 1624.47   66.85
   2   4  -6 1608.96   72.19
   2   4  -6 1621.67   67.90
   2  -4  -6 1442.06   51.81
   2  -4  -5  918.86   37.21
   2   4  -5  962.57   50.81
   2  -4  -5 1031.77   47.38
   2   4  -5 1060.26   57.38
  -2   4   5  947.32   41.57
  -2   4   5 1042.18   46.27
  -2   4   4  590.33   32.84
   2   4  -4  627.83   42.71
  -2   4   4  569.86   28.79
   2   4  -4  554.74   19.63
   2   4  -4  621.90   40.93
  -2   4   4  628.32   36.87
   2  -4  -4  594.00   26.62
   2  -4  -4  648.75   35.03
  -2   4   3  826.41   36.32
  -2   4   3  768.06   30.98
   2   4  -3  737.01   17.35
   2   4  -3  748.96   46.18
   2  -4  -3  896.62   40.90
   2   4  -3  855.51   49.09
  -2  -4   3  856.19   32.59
  -2   4   3  737.61   39.35
   2   4  -2  821.74   45.35
  -2   4   2  751.71   24.63
   2  -4  -2  964.11   46.59
  -2  -4   2  981.03   33.42
  -2   4   2  881.57   35.79
   2   4  -2  865.87   49.32
   2   4  -1  329.57   30.80
   2  -4  -1  348.50   30.18
  -2  -4   1  414.31   22.47
  -2   4   1  374.74   15.32
  -2   4   1  378.32   23.25
  -2   4   0  219.60   13.75
   2   4   0  198.81   21.84
   2   4   0  213.46   19.14
  -2   4   0  222.58   13.51
   2  -4   0  208.39   24.08
   2   4   1   70.01   12.19
   2   4   1   64.01   10.20
   2   4   1   60.75   10.57
  -2   4  -1   60.82    7.64
  -2   4  -1   60.88    9.85
  -2   4  -1   65.55    8.73
   2   4   2  560.26   33.53
   2   4   2  526.28   30.94
  -2   4  -2  559.54   30.98
  -2   4  -2  525.05   32.98
  -2   4  -2  606.30   29.87
  -2   4  -2  558.81   20.84
  -2   4  -3  407.79   19.82
  -2   4  -3  395.47   30.65
   2   4   3  429.72   30.95
   2   4   3  396.41   28.85
  -2   4  -3  422.42   27.81
  -2   4  -4   91.68   15.51
  -2   4  -4  111.35   16.05
   2   4   4   96.69   15.91
  -2  -4  -4   85.36   13.73
   2   4   4   89.53   14.98
  -2   4  -5  215.08   25.04
   2   4   5  211.63   25.33
  -2  -4  -5  176.94   20.88
   2   4   5  211.94   26.08
  -2   4  -5  236.11   25.81
   2   4   6  632.60   48.67
   2   4   6  578.43   48.46
  -2  -4  -6  550.55   39.93
   2  -4   6  568.11   50.69
  -2   4  -6  636.49   45.06
  -2   4  -6  587.98   43.65
  -2   4  -7  110.33   19.84
   2  -4   7  102.83   24.11
   2   4   7  102.07   22.23
   2   4   7  124.46   25.89
   2  -4   7   92.12   22.29
  -2  -4  -7   95.63   18.50
  -2   4  -8  101.79   20.68
   2  -4   8   78.73   22.51
   2   4   8  108.76   26.93
   2  -4   8  100.16   25.41
  -2  -4  -8   85.29   17.27
   2   4   8  110.31   25.34
  -2  -4  -9  853.28   30.60
  -2   4  -9  945.79   31.97
  -2   4  -9  944.54   34.08
  -2  -4 -10   40.46    6.81
  -2   4 -10   51.07    7.70
  -2   4 -10   53.81    8.72
  -2  -4 -11   16.09    8.24
  -2   4 -11   15.86    4.89
  -2   4 -11   10.37    3.28
  -2   4 -12   27.32    4.93
  -2  -4 -12   26.35    4.64
  -2   4 -12   27.11    5.68
  -2   4 -13    7.78    2.30
  -2   4 -13    6.63    2.59
  -2   4 -14    1.40    1.36
   2  -5 -15    9.09    2.77
   2   5 -15    5.41    1.59
   2  -5 -15    8.38    2.07
   2  -5 -14    1.31    1.33
   2   5 -14    2.44    1.56
   2   5 -14    2.52    1.54
   2  -5 -14    0.68    1.16
   2  -5 -13   28.77    5.16
   2  -5 -13   26.71    5.12
   2  -5 -13   22.77    4.63
   2   5 -13   27.07    5.26
   2   5 -13   23.50    4.47
   2  -5 -12    3.10    2.69
   2  -5 -12    2.81    2.97
   2   5 -12    2.00    2.28
   2   5 -12   -0.20    0.99
   2  -5 -11  214.87   15.73
   2   5 -11  205.95   16.10
   2   5 -11  196.63   14.81
   2  -5 -11  206.36   15.58
   2  -5 -10   22.42    5.13
   2   5 -10   28.96    6.29
   2   5 -10   25.63    5.47
   2  -5 -10   28.21    5.66
   2  -5  -9   20.15    9.45
   2   5  -9   23.74   10.02
   2   5  -8  412.83   40.34
   2   5  -8  469.28   43.84
   2  -5  -8  434.27   40.12
   2  -5  -7    8.33    4.36
  -2   5   7    7.77    6.26
  -2   5   7    9.82    6.00
   2   5  -7    5.18    3.00
   2  -5  -7    7.75    4.60
   2   5  -7   10.99    7.66
  -2   5   6  254.17   26.67
  -2   5   6  282.76   27.86
   2   5  -6  296.24   33.02
   2  -5  -6  282.52   27.86
   2  -5  -6  239.90   21.50
   2   5  -6  271.47   29.50
  -2   5   5 1330.09   56.33
   2   5  -5 1410.02   69.97
   2  -5  -5 1247.94   45.20
   2  -5  -5 1396.85   56.75
  -2   5   5 1376.94   55.59
   2   5  -5 1433.51   67.10
  -2   5   4  513.45   32.48
   2   5  -4  485.57   39.92
  -2   5   4  533.38   32.40
   2  -5  -4  539.13   32.81
   2  -5  -4  475.92   25.21
  -2   5   4  509.04   40.52
   2   5  -4  555.72   42.26
  -2  -5   3   28.55    5.77
   2   5  -3   17.19    7.77
   2   5  -3   25.95    9.52
  -2   5   3   23.01    6.45
   2  -5  -3   24.26    6.96
  -2   5   3   25.14    6.73
   2   5  -2   50.73   13.10
  -2   5   2   52.03    7.76
  -2  -5   2   62.02    8.84
   2   5  -2   44.32   11.12
   2  -5  -2   64.96   11.71
  -2   5   2   60.38   10.40
   2  -5  -1  506.69   35.30
  -2   5   1  483.20   22.35
  -2   5   1  524.98   30.33
   2   5  -1  473.57   34.95
  -2  -5   1  571.83   28.42
   2   5   0  560.49   42.69
   2   5   0  690.61   38.87
  -2   5   0  703.89   30.78
  -2   5   0  644.98   27.38
  -2   5   0  646.05   33.82
   2  -5   0  589.07   40.67
   2   5   1   45.62   10.35
  -2   5  -1   53.80   10.25
  -2   5  -1   58.10    9.91
   2   5   1   49.59   12.76
   2  -5   1   58.85   14.16
   2   5   1   56.09   10.58
  -2   5  -1   48.75    8.31
   2   5   2  382.68   30.50
  -2   5  -2  377.90   21.51
   2   5   2  397.01   34.10
  -2   5  -2  401.09   28.74
  -2   5  -2  444.89   28.22
   2   5   3    5.45    4.47
  -2   5  -3   -1.14    3.17
   2   5   3    7.64    3.93
  -2   5  -3   -0.66    1.14
   2   5   4 2128.42   79.04
  -2   5  -4 2151.29   82.14
   2   5   4 2130.55   84.53
  -2   5  -4 2223.22   75.64
  -2  -5  -5  204.81   23.23
  -2   5  -5  253.88   27.84
   2   5   5  218.01   27.69
   2   5   5  267.26   32.55
  -2   5  -5  219.21   27.28
   2   5   6   92.56   20.83
   2   5   6   98.93   20.55
  -2  -5  -6   85.45   16.85
  -2   5  -6   81.03   17.90
  -2   5  -6   86.73   17.61
  -2   5  -7  134.23   23.42
   2  -5   7  118.56   26.72
  -2  -5  -7  137.93   22.53
   2   5   7  145.03   30.97
   2  -5   7  117.61   27.31
   2   5   7  140.32   26.79
  -2   5  -7  145.97   23.94
   2  -5   8   48.01   19.37
   2   5   8   52.29   20.57
  -2  -5  -9    4.93    2.76
  -2   5  -9    3.37    2.23
  -2   5  -9    4.47    2.23
  -2  -5 -10   18.34    5.10
  -2   5 -10   20.35    4.92
  -2   5 -10   27.97    6.49
  -2  -5 -11   27.35    5.76
  -2   5 -11   32.02    5.89
  -2   5 -11   27.83    5.98
  -2   5 -12   24.24    4.85
  -2  -5 -12   27.80    5.19
  -2   5 -12   26.28    5.82
  -2  -5 -13   34.88    4.91
  -2   5 -13   32.54    4.62
  -2   5 -13   33.38    5.84
  -2   5 -14   12.69    2.69
   2  -6 -15   35.14    3.92
   2  -6 -14   14.83    3.15
   2   6 -14   13.89    4.06
   2  -6 -14   11.14    2.90
   2   6 -14    7.89    2.21
   2  -6 -13   16.21    4.07
   2   6 -13   17.74    4.80
   2  -6 -13   12.47    3.34
   2   6 -13   11.46    2.80
   2  -6 -12   19.49    7.14
   2  -6 -12   16.41    4.76
   2   6 -12   17.08    4.62
   2   6 -12   10.77    3.22
   2   6 -11   63.19    9.75
   2  -6 -11   69.34    8.98
   2  -6 -11   73.01    8.94
   2   6 -11   65.35    8.30
   2  -6 -10  105.24   11.13
   2   6 -10  111.02   12.20
   2  -6 -10  114.32   11.56
   2  -6  -9  234.84   16.11
   2  -6  -9  214.49   15.14
   2   6  -9  240.33   17.71
   2   6  -8    9.03    6.52
   2  -6  -8    5.62    3.51
   2   6  -8   14.13   13.57
   2   6  -7  308.98   36.25
   2   6  -7  317.83   35.24
   2  -6  -7  299.19   31.83
   2  -6  -6   68.77   11.95
   2   6  -6   77.68   17.61
   2   6  -6   65.46   15.89
  -2   6   6   78.74   15.21
   2  -6  -6   81.37   14.94
  -2   6   6   78.45   15.97
  -2   6   5    0.27    1.69
   2   6  -5    3.24    4.23
  -2   6   5    1.78    3.15
   2  -6  -5   -0.73    1.10
   2  -6  -5    0.12    1.32
   2   6  -5    3.30    3.64
   2   6  -4 1305.31   69.39
   2  -6  -4 1393.25   54.77
  -2   6   4 1558.12   65.37
  -2   6   4 1468.26   58.55
   2   6  -4 1588.34   76.78
  -2   6   3   91.24   13.98
   2   6  -3   90.89   18.44
   2   6  -3  104.26   19.99
   2  -6  -3   96.75   13.21
   2   6  -2   22.35    7.69
  -2   6   2   33.87    8.73
   2   6  -2   35.15   12.41
   2  -6  -2   29.92    8.28
  -2  -6   2   31.41    6.60
  -2   6   1  469.24   25.08
   2   6  -1  480.33   38.83
  -2   6   1  494.40   27.07
   2  -6  -1  505.93   32.97
  -2   6   1  518.70   32.70
  -2   6   0  922.65   43.20
   2   6   0  830.58   48.39
   2   6   0  684.29   53.14
   2  -6   0  681.85   41.04
  -2   6   0  875.00   43.59
  -2   6   0  797.39   33.30
  -2   6  -1  253.48   24.32
   2   6   1  268.80   26.84
   2   6   1  217.60   29.50
   2  -6   1  196.71   23.80
  -2   6  -1  265.98   24.96
  -2   6  -1  234.12   19.72
  -2   6  -2   53.71   12.03
   2   6   2   64.18   13.14
   2   6   2   72.54   17.91
  -2   6  -2   62.77   11.22
   2   6   2   59.77   13.29
   2   6   3 2109.34   94.97
  -2   6  -3 2228.66   72.88
   2   6   3 2094.11   82.78
   2   6   4   20.31    9.16
   2   6   4   17.49    9.14
  -2   6  -4   24.48    8.11
   2   6   5   66.19   16.67
  -2  -6  -5   64.26   14.19
   2   6   5   64.36   18.78
  -2   6  -5   71.97   17.42
  -2   6  -5   79.84   15.76
  -2   6  -6   15.72    7.80
   2   6   6   16.13   10.50
   2   6   6   12.10    8.35
  -2  -6  -6   15.33    7.58
  -2   6  -6   13.18    7.00
   2   6   7   51.68   17.06
  -2   6  -7   63.44   17.82
   2   6   7   67.14   22.78
  -2   6  -7   55.91   15.90
   2  -6   7   44.53   17.38
  -2  -6  -7   50.88   14.02
  -2  -6  -8    6.84    3.21
  -2   6  -8    4.98    2.72
  -2   6  -8    5.08    2.36
  -2   6  -9    4.59    2.45
  -2  -6  -9    8.77    3.85
  -2   6  -9    6.81    2.84
  -2  -6 -10   10.79    4.10
  -2   6 -10    7.94    3.30
  -2   6 -10   10.78    3.63
  -2   6 -11   83.23   10.09
  -2  -6 -11   80.74    9.23
  -2   6 -11   71.20    8.87
  -2  -6 -12    1.55    2.14
  -2   6 -12   -0.06    1.57
  -2   6 -12    5.33    2.61
  -2  -6 -13    1.04    0.89
  -2   6 -13   -1.29    0.66
  -2   6 -13    1.26    0.98
   2  -7 -14    6.80    2.16
   2   7 -14    5.93    2.02
   2  -7 -13  133.39   10.71
   2   7 -13  133.10   10.63
   2  -7 -12   48.26    7.15
   2   7 -12   46.43    6.93
   2  -7 -12   46.21    7.21
   2  -7 -11  211.32   15.30
   2   7 -11  220.46   16.28
   2  -7 -11  197.06   14.68
   2  -7 -10   27.14    6.90
   2  -7 -10   23.28    5.38
   2   7 -10   21.15    5.47
   2  -7  -9  356.74   19.32
   2  -7  -9  385.85   20.66
   2   7  -9  374.77   22.47
   2  -7  -8  101.67   19.50
   2   7  -8  114.82   23.56
   2   7  -8   82.89   19.82
   2   7  -7    1.24    3.15
   2  -7  -7    1.44    1.99
   2   7  -7    5.94    8.09
   2   7  -6   -0.92    3.46
   2  -7  -6    3.86    2.99
   2   7  -6    0.58    1.94
   2   7  -5  602.45   51.07
  -2   7   5  630.72   43.23
   2  -7  -5  625.08   40.06
  -2   7   5  710.08   53.21
   2   7  -5  678.87   53.35
   2   7  -4   -0.20    4.94
   2   7  -4   -0.46    2.90
  -2   7   4    1.23    1.49
   2  -7  -4    2.71    6.98
   2   7  -3    6.98    6.97
  -2   7   3    5.67    3.65
   2  -7  -3    5.29    3.46
   2   7  -3    3.09    5.53
   2   7  -2   38.38   13.09
   2   7  -2   41.01   12.55
  -2   7   2   44.48   10.54
   2  -7  -2   37.12    8.01
  -2   7   1  341.34   26.61
   2   7  -1  346.85   36.70
   2  -7  -1  353.80   24.33
  -2   7   1  358.62   30.21
   2   7  -1  298.66   35.63
  -2   7   0  220.66   23.71
   2   7   0  207.21   27.49
  -2   7   0  228.10   25.10
  -2   7   0  184.35   17.78
   2   7   1  324.20   32.98
   2   7   1  267.12   36.92
  -2   7  -1  328.69   31.01
  -2   7  -1  282.10   22.79
   2   7   2  483.22   51.67
   2   7   2  551.64   43.49
  -2   7  -2  501.68   38.29
  -2   7  -2  549.53   35.01
   2   7   3  167.92   26.76
   2   7   3  142.73   29.92
  -2   7  -3  164.34   20.52
   2   7   4   93.01   23.88
   2   7   4   71.80   17.35
  -2   7  -4   81.65   15.48
  -2  -7  -5   59.71   14.33
   2   7   5   76.81   23.44
  -2   7  -5   56.43   13.77
   2   7   5   68.93   18.77
   2   7   6   16.93   10.16
  -2   7  -6    8.87    7.35
   2   7   6   -2.20    4.57
  -2  -7  -6    5.27    4.97
   2   7   7   -2.11    6.71
  -2   7  -7    3.40    4.85
   2  -7   7   -3.69    4.52
  -2   7  -8   10.18    4.58
  -2   7  -8   16.33    4.42
  -2  -7  -8    9.47    3.25
  -2  -7  -9  149.47   13.61
  -2   7  -9  132.81   12.92
  -2   7  -9  124.34   11.89
  -2   7 -10   28.47    6.11
  -2   7 -10   27.89    5.83
  -2  -7 -10   28.51    6.16
  -2  -7 -11    2.77    2.02
  -2   7 -11    2.25    1.84
  -2   7 -11    1.33    1.22
  -2   7 -12   40.94    5.84
  -2  -7 -12   42.72    5.99
  -2   7 -12   36.99    5.55
  -2  -7 -13   18.35    3.48
  -2   7 -13   16.88    3.26
  -2   7 -13   15.84    3.14
   2  -8 -14   29.97    4.25
   2   8 -14   28.33    3.82
   2  -8 -13   -0.10    0.88
   2   8 -13   -0.98    0.99
   2  -8 -12   15.96    3.86
   2   8 -12   16.85    4.78
   2   8 -12   18.16    4.61
   2  -8 -12   13.34    3.63
   2  -8 -11   41.17    6.64
   2   8 -11   41.18    7.37
   2  -8 -11   55.42    7.38
   2   8 -10   10.88    4.54
   2  -8 -10   10.43    3.46
   2  -8 -10   10.37    3.26
   2  -8  -9  501.53   22.97
   2  -8  -9  480.02   22.63
   2   8  -9  482.41   25.79
   2  -8  -8    8.12    4.91
   2  -8  -8    0.33    1.47
   2   8  -8    4.91    2.87
   2  -8  -7  214.02   27.33
   2   8  -7  223.32   33.05
   2   8  -7  248.39   36.02
   2  -8  -6  245.38   27.57
   2   8  -6  254.16   35.51
   2   8  -6  250.42   34.53
   2   8  -5   19.56    9.78
   2  -8  -5   17.35    6.29
   2   8  -5   17.85   10.61
   2   8  -4   -0.30    3.28
   2   8  -4   -1.11    2.99
   2  -8  -4    2.32    4.01
  -2   8   4    0.86    2.65
   2   8  -3   13.79    9.28
  -2   8   3   29.35   10.41
   2   8  -3   21.08   10.78
   2   8  -2  385.99   43.17
   2   8  -2  374.46   43.69
  -2   8   2  400.53   34.54
  -2   8   2  398.71   32.06
   2   8  -1    7.17    7.46
  -2  -8   1    0.37    1.35
  -2   8   1    0.31    2.00
   2   8  -1    0.77    2.47
  -2   8   1    2.77    3.85
  -2   8   0  456.42   38.45
   2   8   0  439.00   44.95
   2   8   1  116.99   22.45
  -2   8  -1  132.75   20.88
   2   8   2  197.67   28.95
  -2   8  -2  182.86   21.22
   2   8   2  139.26   31.12
  -2   8  -2  175.53   24.78
   2   8   3    7.40    9.13
   2   8   3    0.60    5.74
  -2   8  -3   -0.24    1.94
   2   8   4  472.82   46.70
   2   8   4  445.67   50.18
   2   8   4  419.52   58.65
  -2   8  -4  425.73   36.74
   2   8   5  220.94   37.12
  -2  -8  -5  202.93   26.74
  -2   8  -5  218.67   28.77
   2   8   5  231.39   45.80
   2   8   6  189.71   47.41
  -2  -8  -6  166.11   25.36
  -2   8  -6  186.78   28.06
   2   8   6  213.80   38.98
  -2  -8  -7  249.07   16.41
  -2   8  -7  233.14   15.44
  -2   8  -7  253.83   17.51
  -2  -8  -8    7.29    3.18
  -2   8  -8    8.03    3.18
  -2   8  -8   13.32    4.50
  -2  -8  -9   34.29    6.50
  -2  -8  -9   32.86    5.58
  -2   8  -9   42.46    6.79
  -2   8  -9   35.46    6.47
  -2  -8 -10  152.00   12.98
  -2   8 -10  159.21   13.41
  -2   8 -10  153.34   13.11
  -2  -8 -11   47.85    6.87
  -2   8 -11   50.60    7.03
  -2   8 -11   47.14    6.90
  -2  -8 -12   17.38    3.59
  -2   8 -12   17.95    3.89
  -2   8 -12   13.92    3.39
  -2  -8 -13    0.55    0.54
  -2   8 -13    1.55    1.18
   2   9 -14    5.26    1.59
   2  -9 -14    4.25    1.46
   2  -9 -13    8.96    3.12
   2   9 -13    3.98    1.73
   2  -9 -12    2.40    2.23
   2   9 -12    2.01    2.41
   2   9 -12    2.05    1.78
   2  -9 -11   37.86    6.13
   2  -9 -11   41.91    6.58
   2   9 -11   40.26    6.77
   2   9 -10   19.74    5.49
   2  -9 -10   17.49    3.91
   2  -9 -10   16.37    4.28
   2   9  -9   30.66    6.72
   2  -9  -9   26.86    5.47
   2  -9  -9   31.75    5.88
   2  -9  -8   35.58    5.80
   2   9  -8   32.57    7.21
   2  -9  -8   34.74    5.96
   2   9  -7    6.61    3.82
   2  -9  -7    4.27    2.10
   2   9  -6    4.19    7.39
   2   9  -6    0.27    2.11
   2   9  -5  250.97   37.06
   2   9  -5  249.07   35.35
   2   9  -4   78.10   20.67
  -2   9   4   71.99   16.00
   2   9  -4   66.11   19.22
   2   9  -3  192.92   33.99
   2   9  -3  223.65   34.19
  -2   9   3  240.46   28.86
  -2   9   3  225.30   27.96
   2   9  -2  111.41   24.25
  -2   9   2  123.95   21.17
   2   9  -2  112.27   25.62
  -2   9   1  116.34   20.65
   2   9  -1  118.68   25.89
   2   9  -1   87.08   21.98
   2   9   0  233.40   36.05
   2   9   0  178.63   31.86
  -2   9   0  245.01   30.97
   2   9   1  331.71   42.61
  -2   9  -1  309.70   34.69
   2   9   2   23.17   11.65
   2   9   3   16.29   16.04
   2   9   3   10.01    7.60
   2   9   4  328.29   57.24
   2   9   4  345.02   43.84
   2   9   5   38.20   17.34
  -2  -9  -5   21.29    9.45
   2   9   5   20.12   17.68
  -2   9  -6  118.61   10.75
  -2  -9  -6  116.07   10.63
  -2  -9  -7  340.08   18.87
  -2   9  -7  339.73   18.94
  -2  -9  -8   64.03    8.63
  -2   9  -8   66.85    8.59
  -2  -9  -9  165.05   13.96
  -2  -9  -9  126.08   11.06
  -2   9  -9  142.21   12.65
  -2   9  -9  153.98   13.09
  -2  -9 -10    9.31    3.68
  -2   9 -10    7.61    2.97
  -2   9 -10    7.98    3.00
  -2  -9 -11    0.94    1.45
  -2   9 -11   -0.52    1.22
  -2  -9 -12   27.25    4.18
  -2   9 -12   28.86    4.47
  -2   9 -13   19.19    2.83
   2 -10 -13    6.07    2.00
   2 -10 -13    5.90    1.55
   2  10 -13    5.17    1.84
   2  10 -12    0.24    0.70
   2 -10 -12   -0.84    1.24
   2  10 -12    1.91    2.08
   2 -10 -11   24.84    4.75
   2  10 -11   24.90    5.00
   2  10 -11   28.18    6.00
   2 -10 -10    4.98    2.45
   2  10 -10    6.52    3.21
   2 -10 -10    5.35    2.47
   2  10  -9    5.47    2.89
   2 -10  -9    3.22    1.18
   2 -10  -9    5.84    2.95
   2 -10  -8    6.35    2.58
   2  10  -8    5.97    2.07
   2 -10  -7    1.07    2.05
   2  10  -7   -0.26    2.11
   2  10  -6  346.72   23.64
  -2  10   6  311.67   23.81
   2  10  -5   75.76   20.74
   2  10  -5   80.83   22.09
   2  10  -4  172.21   30.33
   2  10  -4  146.76   31.25
   2  10  -3    1.94    6.06
  -2  10   3    7.14    5.06
   2  10  -3    6.57    8.41
  -2  10   2   61.97   16.77
   2  10  -2   59.02   21.19
   2  10  -2   46.85   16.91
   2  10  -1    6.38   17.64
  -2  10   1    7.36    4.59
   2  10  -1    9.13    8.80
  -2  10   0   32.92   12.09
   2  10   0   33.73   15.38
   2  10   0   40.78   15.82
  -2  10  -1    4.52    9.09
   2  10   1    3.02    4.10
   2  10   1   13.57   12.51
   2  10   2   77.74   22.87
   2  10   3   80.33   22.91
   2  10   4  195.65   49.06
  -2 -10  -5    2.62    2.02
  -2  10  -5    5.04    2.96
  -2 -10  -6   61.01    7.84
  -2  10  -6   64.76    8.25
  -2  10  -7   23.56    5.39
  -2 -10  -7   19.71    4.20
  -2 -10  -8  340.78   18.61
  -2  10  -8  365.16   20.27
  -2 -10  -8  328.04   18.51
  -2  10  -9   90.13    9.99
  -2 -10  -9   84.37    8.75
  -2 -10  -9   91.02    9.50
  -2 -10 -10   90.88    9.04
  -2  10 -10  115.64   10.58
  -2 -10 -10   90.05    8.37
  -2 -10 -11    3.04    1.48
  -2  10 -11    2.54    2.04
   2  10  11    7.43    6.35
  -2  10 -12   67.61    6.21
  -2 -10 -12   71.80    6.38
   2  11 -13   11.36    2.15
   2 -11 -13   12.76    2.36
   2 -11 -12   36.31    4.88
   2  11 -12   31.98    4.38
   2  11 -12   35.25    4.77
   2  11 -11    1.16    2.14
   2  11 -11    0.89    1.40
   2 -11 -11   -0.39    0.87
   2  11 -10   19.34    5.28
   2 -11 -10   19.24    4.23
   2  11  -9    9.68    4.11
   2 -11  -9   14.09    3.72
   2 -11  -8    0.30    0.87
   2  11  -8   -0.41    1.35
  -2  11   7   53.39   10.14
   2  11  -7   52.35   10.42
  -2  11   6   39.27    8.77
   2  11  -6   44.48    8.60
  -2  11   5   57.90   11.18
   2  11  -5   60.81   10.78
   2  11  -4  347.09   24.02
  -2  11   4  357.41   26.65
   2  11  -3   10.49    5.73
   2  11  -3   15.40    9.52
   2  11  -2   38.59   16.02
   2  11  -2   50.50   23.73
  -2  11   1   74.71   18.37
   2  11  -1   65.87   23.84
   2  11  -1   75.73   22.94
  -2  11   0   70.50   18.96
   2  11   0   62.82   21.60
   2  11   0   77.33   24.45
   2  11   1   49.89   20.53
   2  11   1   55.63   22.88
   2  11   2   44.75   19.36
  -2 -11  -3   23.03    4.57
  -2 -11  -4  180.23   13.36
  -2 -11  -5   10.75    3.40
  -2 -11  -5    8.83    3.76
  -2 -11  -6    8.15    3.22
  -2  11  -6    8.27    2.73
  -2 -11  -6    9.98    3.73
  -2 -11  -7   26.97    5.40
  -2 -11  -7   21.29    4.52
  -2  11  -7   25.35    5.14
  -2 -11  -8   25.78    5.80
  -2 -11  -8   20.91    4.70
  -2  11  -8   22.81    4.81
  -2  11  -9   20.84    4.62
  -2 -11  -9   22.30    4.53
  -2 -11  -9   16.84    3.87
  -2 -11 -10   15.17    3.34
   2  11  10   27.86   15.50
  -2 -11 -10   15.38    3.79
  -2  11 -10   20.23    4.42
  -2  11 -11    1.33    0.76
   2  11  11    3.53    3.63
  -2 -11 -11    0.12    0.64
   2 -12 -12    5.29    1.56
   2  12 -12    2.77    1.49
   2 -12 -12    2.60    1.29
   2 -12 -11    0.74    0.81
   2  12 -11    0.61    1.43
   2  12 -11   -1.37    0.82
   2  12 -10   43.30    7.16
   2  12 -10   35.94    5.49
   2 -12  -9   17.08    3.67
   2  12  -9   19.22    4.99
   2  12  -8   93.43   11.73
  -2  12   7   12.54    4.37
   2  12  -7   12.53    3.92
  -2  12   6   45.05    8.99
   2  12  -6   57.31    9.78
  -2  12   5    3.95    2.14
   2  12  -5   -0.06    3.64
   2  12  -4    8.25    4.27
  -2  12   4    2.32    4.62
   2  12  -3   93.58   14.07
  -2  12   3   97.18   14.63
   2  12  -2    3.10    3.23
   2  12  -1    2.76    2.70
   2  12  -1   -0.98    3.00
  -2 -12   0  388.09   19.63
   2  12   0  375.17   25.75
   2  12   0  323.84   23.19
   2  12   1   20.60    6.93
  -2 -12  -1   18.41    4.44
  -2  12  -1   16.50    4.94
  -2  12  -2    9.60    4.69
   2  12   2   15.18    6.29
  -2 -12  -3   18.13    4.84
  -2  12  -3    7.50    4.38
   2  12   3    8.88    5.40
  -2 -12  -4   54.85    7.25
   2  12   4   64.40   13.99
  -2 -12  -5    3.32    2.26
  -2 -12  -5    2.00    1.09
   2  12   5    3.89    2.03
  -2 -12  -6   79.51    8.35
   2  12   6  103.36   20.00
  -2 -12  -6   82.99    9.32
  -2 -12  -7    2.19    1.69
  -2 -12  -7    2.00    2.34
  -2  12  -7    4.08    2.19
   2  12   7    4.25    3.51
  -2 -12  -8   19.53    4.12
  -2 -12  -8   25.69    5.09
  -2  12  -8   15.76    3.62
  -2  12  -9    0.51    1.55
  -2 -12  -9    1.30    1.17
  -2 -12 -10   56.61    5.83
  -2  12 -10   56.41    6.15
  -2 -12 -10   53.90    5.77
  -2 -12 -11   19.48    3.31
  -2  12 -11   13.51    2.59
   2 -13 -11    1.69    0.91
   2 -13 -11    1.49    0.95
   2  13 -11    3.58    1.77
   2 -13 -10    2.76    1.26
   2  13 -10    0.18    0.91
   2  13  -9   -0.09    0.86
   2  13  -9    0.92    1.04
   2  13  -8   33.91    6.45
   2  13  -8   24.04    5.43
   2  13  -7   60.37   13.49
  -2  13   7    0.99    2.42
  -2  13   6   38.03    8.25
   2  13  -6   46.57    9.54
   2  13  -5   48.74    9.99
  -2  13   5   31.93    9.53
   2  13  -4   12.02    5.69
   2  13  -3   43.19   11.61
   2  13  -2  284.18   24.13
   2  13  -1    0.72    3.18
  -2 -13   0  126.16   11.59
   2  13   0   94.97   13.13
   2  13   0  107.11   14.29
  -2  13   0  101.11   13.01
   2  13   1    6.97    4.34
  -2  13  -1    2.72    3.27
  -2 -13  -1    6.04    2.82
   2  13   1    3.74    4.50
  -2  13  -2   28.24    7.25
  -2 -13  -2   23.97    5.01
   2  13   2   25.48    7.49
  -2 -13  -3   36.06    6.60
  -2  13  -3   34.78    9.81
   2  13   3   34.42   10.49
   2  13   4  105.27   16.80
  -2 -13  -4   86.86    9.20
  -2 -13  -5  169.72   12.63
   2  13   5  239.57   27.06
  -2 -13  -6    2.02    1.82
  -2 -13  -6    0.63    0.66
   2  13   6    6.96    7.04
  -2 -13  -7    2.80    1.30
   2  13   7    0.26    6.05
  -2 -13  -7    3.50    1.66
  -2  13  -8   22.96    4.18
  -2 -13  -8   25.16    4.58
  -2 -13  -8   21.40    4.20
  -2  13  -9   39.26    5.54
  -2 -13  -9   30.82    4.37
  -2 -13  -9   30.44    4.42
   2  13  10   12.25   13.34
  -2 -13 -10    2.24    1.41
  -2 -13 -10    6.19    1.85
  -2  13 -10    2.66    1.19
   2 -14 -10   22.40    3.39
   2  14 -10   27.12    4.07
   2  14  -9   30.20    5.19
   2 -14  -9   27.79    4.22
   2  14  -8    6.30    3.34
   2  14  -7   48.93    8.65
   2  14  -6    1.40    1.78
   2  14  -5    5.99    5.27
   2  14  -4    0.51    3.88
   2  14  -3   69.43   12.47
   2  14  -2   15.72    7.49
  -2  14   1  125.59   15.06
   2  14  -1  146.33   17.37
  -2  14   0   10.66    4.49
   2  14   0   18.75    6.82
  -2 -14  -1    3.87    2.93
  -2  14  -1    2.03    2.11
   2  14   1    6.07    5.69
   2  14   1    3.28    6.18
   2  14   2    3.09    2.95
  -2 -14  -2    2.76    2.77
  -2  14  -2    1.91    3.05
   2  14   2    4.57    4.60
  -2 -14  -3   83.25    8.91
  -2  14  -3   87.79   12.33
   2  14   3  104.53   15.78
   2  14   3   93.54   12.92
   2  14   4    4.61    2.26
  -2 -14  -4    7.96    2.33
   2  14   5   39.97   11.14
  -2 -14  -5   25.90    4.95
  -2 -14  -6   39.01    5.52
   2  14   6   58.95   14.87
  -2 -14  -7   54.01    6.23
   2  14   7  136.38   25.20
  -2 -14  -8   12.63    3.18
  -2 -14  -8    8.00    2.25
  -2 -14  -9   38.09    4.16
  -2 -14  -9   44.16    4.64
   2 -15  -9   25.82    3.50
   2  15  -9   24.72    3.95
   2 -15  -8    6.17    1.88
   2  15  -8    7.65    2.61
   2  15  -7    2.54    2.37
   2 -15  -7    1.61    1.27
   2 -15  -6    5.31    2.12
   2  15  -6   10.88    5.25
   2  15  -5  108.57   13.56
   2 -15  -5   87.76    8.47
   2  15  -4   -0.61    2.67
   2 -15  -4    0.80    1.08
   2  15  -3    4.52    4.12
  -2  15   2    8.44    5.11
   2  15  -2   10.65    4.72
   2  15  -1  112.60   14.86
  -2  15   1   92.30   13.06
  -2  15   0   92.04   12.66
   2  15   0  115.24   14.80
  -2 -15  -1   22.09    5.11
  -2  15  -1   21.14    6.73
   2  15   1   21.19    5.98
  -2  15  -2    7.70    5.13
   2  15   2    0.86    2.27
   2  15   2   -1.06    3.33
  -2 -15  -2    9.09    3.32
  -2 -15  -3   67.32    7.86
  -2  15  -3   58.38    9.19
   2  15   3   73.24   11.31
   2  15   3   76.26   12.75
   2  15   4    9.13    6.17
   2  15   4    3.20    3.67
  -2 -15  -4    3.78    2.43
   2  15   5   13.54    4.88
  -2 -15  -5   17.57    5.08
   2  15   5   23.60    8.32
  -2 -15  -6    1.19    1.36
   2  15   6    4.61    3.10
   2  15   6   -2.73    3.93
   2  15   7   31.70    6.49
  -2 -15  -7   30.26    4.16
   2  15   8   34.29   12.43
  -2 -15  -8   13.87    2.66
   2 -16  -8   21.14    2.92
   2  16  -8   22.44    3.46
  -2  16   8   29.16    6.99
   2  16  -7   10.66    2.96
   2 -16  -7    9.70    2.41
   2 -16  -6    9.27    2.40
   2  16  -6    9.11    3.45
  -2  16   6   16.28    5.46
   2  16  -5   28.12    6.15
   2 -16  -5   24.90    3.71
  -2  16   5   32.90    8.04
  -2  16   4   36.00    8.39
   2  16  -4   29.90    6.98
   2  16  -3   33.63    8.82
  -2  16   3   18.72    6.50
  -2  16   2   17.51    5.74
   2  16  -2   19.28    6.23
  -2  16   1  151.62   16.05
   2  16  -1  160.40   16.82
  -2  16   0    8.98    5.44
   2  16   0    4.90    4.08
  -2  16  -1   40.95    7.92
   2  16   1   45.69    9.36
   2  16   2   12.28    4.78
  -2 -16  -2    7.40    2.39
  -2  16  -2   10.60    4.56
  -2 -16  -3   29.35    4.57
   2  16   3   33.59    8.22
  -2 -16  -4    2.13    1.39
   2  16   4    2.65    2.98
   2  16   5   16.60    5.18
  -2 -16  -5   12.35    2.62
   2  16   6   35.63    7.59
  -2 -16  -6    2.51    1.48
  -2 -16  -7   23.96    3.15
  -2  17   6   20.09    7.30
   2  17  -6    3.69    2.09
   2  17  -5   16.82    3.96
  -2  17   5   16.44    5.52
  -2  17   4    5.98    3.11
   2  17  -4    7.47    3.59
  -2  17   3    2.86    3.21
   2  17  -3    2.55    2.34
   2  17  -2   16.19    4.25
  -2  17   2   16.86    6.09
   2  17  -1   33.82    7.63
  -2  17   1   25.74    5.92
   2  17   0   12.82    5.45
  -2  17   0   11.12    4.19
  -2  17  -1    4.15    2.97
   2  17   1    5.54    3.49
   2  17   2   14.97    4.87
  -2 -17  -2    7.92    1.96
   2  17   3   14.35    5.60
  -2 -17  -3    7.54    2.00
   2  17   4    7.14    3.40
  -2 -17  -4    4.58    1.38
  -2 -17  -5   40.89    4.26
  -2  18   4   26.92    5.95
   2  18  -4   18.49    3.41
   2  18  -3   19.27    4.49
  -2  18   3   27.68    5.61
   2  18  -2    1.71    1.43
  -2  18   2    2.64    2.76
  -2  18   1    3.59    2.59
   2  18  -1    6.03    3.20
   2  18   0   -0.87    1.35
  -2  18   0    0.92    1.02
   2  18   1   11.09    4.58
   2  18   2  335.96   20.58
   3   0 -16    1.97    1.66
   3   0 -15   59.39    6.59
   3   0 -14    6.87    4.26
   3   0 -13   49.16    6.72
   3   0 -13   55.86    7.77
   3   0 -12    5.75    3.81
   3   0 -11  482.18   23.34
   3   0 -11  424.77   20.59
   3   0 -10   -0.37    3.11
   3   0  -9  616.56   46.06
  -3   0   9  505.36   48.64
   3   0  -9  627.73   43.63
  -3   0   8   -0.91    4.29
   3   0  -8    0.89    1.25
   3   0  -8    3.77    3.26
   3   0  -8   -0.09    1.85
   3   0  -7  121.70   16.22
   3   0  -7  131.06   17.97
  -3   0   7  102.39   18.23
   3   0  -7  116.33   15.67
   3   0  -6    0.33    1.62
   3   0  -6   -0.48    1.65
  -3   0   6   -1.83    3.24
   3   0  -6    0.17    2.11
   3   0  -5  268.50   20.13
   3   0  -5  263.90   22.76
  -3   0   5  206.78   15.27
   3   0  -5  243.08   18.46
   3   0  -5  254.05   22.37
   3   0  -4    0.04    0.57
   3   0  -4    0.66    1.50
   3   0  -4    1.31    1.22
   3   0  -4    1.07    2.12
   3   0  -3 1627.08   41.95
   3   0  -3 1655.25   68.68
  -3   0   3 1517.50   63.89
   3   0  -2    0.49    0.77
   3   0  -2    0.12    1.43
   3   0  -2   -2.16    2.71
  -3   0   2    3.03    0.97
   3   0  -1  253.30   17.02
   3   0  -1  247.92   11.48
  -3   0   0   -0.96    1.21
   3   0   0   -0.10    0.84
   3   0   0    1.79    1.05
   3   0   0    1.37    0.88
  -3   0  -1  285.36   15.79
   3   0   1  250.90   12.79
   3   0   1  263.54   14.53
   3   0   1  277.70   16.50
  -3   0  -1  257.40   19.99
  -3   0  -1  254.44   13.00
  -3   0  -2    0.61    1.53
  -3   0  -2    0.46    0.98
   3   0   2    0.44    0.78
   3   0   2    0.29    0.56
  -3   0  -2   -0.11    0.73
   3   0   3 2149.13   57.38
   3   0   3 2209.32   61.91
  -3   0  -3 2179.89   58.35
  -3   0  -3 2123.21   60.36
  -3   0  -4    1.55    2.86
  -3   0  -4    1.10    2.09
   3   0   4   -0.36    0.75
   3   0   4    1.95    2.05
   3   0   5  421.63   33.09
   3   0   5  424.54   34.90
  -3   0  -5  441.23   30.34
  -3   0  -5  405.31   30.16
   3   0   6    1.90    2.44
   3   0   6    1.00    2.85
  -3   0  -7  214.48   26.11
   3   0   7  233.46   31.74
   3   0   7  223.76   32.46
   3   0   8   -0.82    5.87
   3   0   8    1.10    4.63
  -3   0  -8    1.62    2.40
  -3   0  -9    8.93    3.29
  -3   0 -10    1.07    1.97
  -3   0 -11  161.27   14.06
  -3   0 -12    2.71    2.64
  -3   0 -13    6.23    2.50
  -3   0 -14    8.83    2.32
   3   1 -16   26.93    3.50
   3  -1 -16   25.72    3.61
   3   1 -15   72.86    7.35
   3  -1 -15   69.56    7.23
   3   1 -14    6.06    2.32
   3  -1 -14    7.93    3.02
   3  -1 -13   26.21    5.08
   3  -1 -13   23.29    5.84
   3   1 -13   23.51    5.01
   3  -1 -12   27.52    7.26
   3  -1 -12   19.85    4.55
   3  -1 -11   13.03    4.05
   3  -1 -11   11.17    4.26
  -3  -1  10   24.00   12.87
   3  -1 -10   21.88    9.21
   3  -1  -9  118.42   20.81
   3   1  -9  118.18   19.28
   3   1  -9  114.97   19.18
  -3   1   9  108.30   22.42
   3   1  -9  122.52   19.92
  -3  -1   9   92.05   21.16
   3   1  -8   47.21   11.65
   3  -1  -8   43.70   11.72
   3   1  -8   45.31   10.75
   3  -1  -8   52.14   11.64
   3   1  -8   44.71   11.50
  -3  -1   8   33.19   11.72
  -3   1   8   45.89   13.65
   3  -1  -7  671.16   36.70
   3   1  -7  684.26   39.75
   3   1  -7  673.95   39.71
   3  -1  -7  687.87   42.60
   3  -1  -7  661.25   34.94
   3   1  -7  666.68   39.40
  -3   1   7  596.11   42.77
  -3   1   6  332.82   27.54
   3   1  -6  402.57   32.06
   3  -1  -6  379.85   24.48
   3   1  -6  395.57   28.30
   3  -1  -6  389.25   29.84
   3   1  -6  390.85   28.23
   3  -1  -6  381.98   23.95
   3   1  -6  378.10   27.28
   3   1  -5    1.03    1.87
   3  -1  -5    2.25    1.49
   3  -1  -5    2.00    2.58
   3   1  -5    3.33    2.90
  -3   1   5    0.91    0.70
   3   1  -5    1.69    1.80
   3  -1  -5    1.89    1.65
   3   1  -5    1.37    2.19
   3  -1  -4  284.90   14.96
   3   1  -4  343.37   27.68
   3  -1  -4  341.63   18.63
   3  -1  -4  364.32   30.10
   3   1  -4  378.66   25.28
   3   1  -4  356.03   26.61
  -3  -1   4  281.16   28.02
  -3   1   4  276.30   16.73
   3   1  -4  321.23   22.49
   3  -1  -3   10.98    2.41
   3   1  -3   14.03    4.77
   3  -1  -3   19.34    4.90
   3   1  -3   11.69    5.11
  -3   1   3   11.45    6.42
   3  -1  -3   15.41    3.37
   3  -1  -3   14.32    6.35
  -3   1   3   11.21    2.38
   3   1  -3   12.97    5.84
  -3  -1   3   13.67   11.69
   3   1  -2  276.80   21.58
   3  -1  -2  312.04   16.38
   3   1  -2  255.24   24.70
   3  -1  -2  287.37   12.67
  -3  -1   2  295.72   23.73
   3  -1  -1 3248.14   44.17
   3   1  -1 2868.94   65.53
   3  -1  -1 2975.21   32.21
   3   1  -1 3034.31   55.60
  -3   1   1 3104.93   55.54
  -3   1   0  404.87   19.61
  -3  -1   0  398.59   15.26
   3  -1   0  398.29   13.05
   3   1   0  399.81   18.28
   3  -1   0  404.57   16.27
   3  -1   0  392.20   12.35
  -3   1   0  388.50   28.13
   3   1   0  401.34   18.57
   3   1   0  409.89   22.16
  -3   1   0  393.45   14.29
   3   1   1 1227.00   33.30
  -3   1  -1 1264.57   49.70
   3   1   1 1313.25   35.87
   3  -1   1 1257.44   30.49
  -3  -1  -1 1145.42   22.43
   3   1   1 1353.52   38.37
   3  -1   1 1268.03   35.13
  -3  -1  -1 1229.25   41.11
  -3   1  -1 1214.52   33.46
  -3   1  -1 1261.72   33.21
  -3  -1  -2   19.15    5.44
  -3   1  -2   18.46    4.45
  -3   1  -2   18.03    4.38
  -3   1  -2   17.39    5.88
   3  -1   2   15.42    4.20
   3   1   2   16.25    4.85
  -3  -1  -2   15.82    4.47
   3  -1   2   16.81    4.84
   3   1   2   13.52    3.81
  -3   1  -3   79.25   10.89
   3   1   3   80.69   11.12
  -3   1  -3   91.36   13.04
   3   1   3   88.27   12.62
   3  -1   3   88.32   12.32
  -3  -1  -3   87.97   11.65
  -3  -1  -3   86.44   12.27
   3  -1   3   87.97   11.70
  -3   1  -4  332.87   25.41
   3   1   4  340.12   26.27
  -3   1  -4  305.71   24.09
   3  -1   4  305.79   26.59
   3   1   4  318.32   26.77
  -3  -1  -4  323.23   25.33
  -3  -1  -4  326.94   25.51
   3  -1   4  314.51   25.17
  -3  -1  -5   17.82    6.20
  -3  -1  -5   15.39    5.79
   3  -1   5   17.43    7.72
   3   1   5   15.67    6.50
   3   1   5   15.23    7.07
   3  -1   5   21.39    8.35
  -3   1  -5   12.94    5.85
  -3  -1  -6    5.05    3.66
   3  -1   6    4.80    4.71
   3   1   6    5.33    7.01
  -3  -1  -6    8.18    6.37
   3   1   6    6.21    4.88
  -3   1  -6    5.35    4.50
   3  -1   6    9.22    6.83
   3   1   7   55.69   15.22
  -3  -1  -7   47.00   11.93
   3  -1   7   54.29   16.27
   3   1   7   43.91   14.09
   3  -1   7   30.71   12.13
  -3   1  -7   53.19   12.82
   3   1   8    9.24    7.96
  -3   1  -8    8.96    6.41
   3  -1   8   10.15    9.02
   3  -1   8    7.80    6.50
  -3  -1  -8    8.98    5.81
   3   1   8   12.46    9.19
  -3   1  -9  364.10   18.64
  -3   1  -9  362.24   20.10
  -3  -1  -9  348.01   18.91
  -3   1 -10   43.56    7.44
  -3  -1 -10   42.87    6.94
  -3   1 -11   36.39    6.53
  -3  -1 -11   31.08    6.17
  -3   1 -12   -0.01    1.41
  -3  -1 -12    1.11    1.98
  -3  -1 -13    1.97    1.79
  -3   1 -13   -0.10    0.51
  -3   1 -14    2.74    1.36
  -3  -1 -14    6.91    1.95
   3   2 -16    2.23    1.40
   3  -2 -16    1.48    1.46
   3   2 -15    0.30    1.03
   3  -2 -15    0.41    1.31
   3  -2 -14   42.48    6.01
   3  -2 -14   49.33    6.89
   3   2 -14   41.60    6.09
   3  -2 -13  176.99   13.47
   3  -2 -13  181.25   13.46
   3   2 -13  180.90   13.67
   3  -2 -12   93.04   10.30
   3  -2 -12   87.81    9.75
   3   2 -12   94.53    9.96
   3  -2 -11  383.35   21.55
   3  -2 -11  373.44   20.84
  -3  -2  10   70.86   20.94
   3   2 -10   65.59   16.08
   3   2 -10   81.32   18.14
   3  -2  -9  320.55   35.52
   3   2  -9  369.13   35.71
   3   2  -9  328.30   34.52
  -3  -2   9  261.49   37.09
   3   2  -8   25.53    8.33
   3   2  -8   24.60    8.75
   3  -2  -8   23.20    9.05
  -3   2   8   29.43   11.32
  -3  -2   8   13.46    7.81
   3   2  -8   21.31    7.77
   3   2  -7    7.07    4.01
   3   2  -7    6.45    5.27
   3   2  -7    6.71    3.11
   3  -2  -7    8.56    6.20
  -3   2   7    8.88    5.77
   3   2  -7    5.06    3.31
   3  -2  -7    4.75    3.45
   3  -2  -6   90.97   11.53
   3   2  -6   95.06   16.11
   3   2  -6   95.03   13.09
   3  -2  -6   94.69   14.68
  -3   2   6   84.29   12.93
   3   2  -6   95.16   14.82
   3   2  -6   92.58   14.78
  -3   2   5  168.82   14.72
   3   2  -5  184.30   16.87
   3  -2  -5  193.80   21.02
   3   2  -5  204.41   23.45
   3  -2  -5  170.61   13.84
   3   2  -5  225.09   21.65
   3   2  -5  180.33   19.02
  -3   2   4  243.16   14.07
   3  -2  -4  321.10   29.05
   3   2  -4  283.15   20.98
   3   2  -4  294.35   26.52
  -3  -2   4  246.05   24.61
   3  -2  -4  262.95   14.39
   3   2  -4  278.25   23.90
   3   2  -3  573.66   36.19
   3  -2  -3  639.58   17.64
  -3   2   3  515.87   14.57
   3   2  -3  586.10   35.67
  -3  -2   3  601.39   35.89
   3  -2  -3  576.95   42.02
   3   2  -3  538.14   33.31
   3   2  -2  357.02   28.34
   3   2  -2  363.11   27.73
  -3  -2   2  381.15   25.40
  -3   2   1  492.84   24.22
  -3   2   1  481.13   33.79
   3   2  -1  471.59   29.14
   3   2  -1  451.28   26.69
   3  -2  -1  456.24   13.13
  -3  -2   1  461.02   25.20
   3   2   0  239.32   17.17
  -3   2   0  233.08   22.51
   3   2   0  244.20   18.63
   3   2   0  228.48   16.70
   3  -2   0  236.53    9.63
   3  -2   0  220.89   12.62
  -3   2   0  260.43   17.72
  -3   2   0  206.15   11.52
  -3   2  -1  243.26   16.10
   3   2   1  268.54   18.19
   3   2   1  278.57   18.56
   3  -2   1  263.78   14.20
  -3   2  -1  256.97   23.40
   3   2   1  289.90   19.26
   3  -2   1  263.68   16.55
  -3  -2  -1  272.09   19.84
  -3   2  -1  257.43   17.49
  -3   2  -2  341.12   21.35
  -3   2  -2  347.09   26.96
   3   2   2  368.77   23.08
  -3   2  -2  343.09   21.63
   3  -2   2  353.06   22.46
   3   2   2  368.75   23.99
   3  -2   2  346.47   20.30
  -3  -2  -2  427.62   28.01
  -3   2  -3  166.99   18.24
   3   2   3  169.72   17.17
  -3  -2  -3  186.02   19.65
  -3   2  -3  144.50   15.45
   3   2   3  167.27   18.20
   3  -2   3  151.46   16.92
  -3  -2  -3  150.59   16.18
   3  -2   3  152.71   15.79
   3  -2   4    2.72    3.82
  -3   2  -4    1.21    2.18
  -3  -2  -4   -1.09    1.72
   3   2   4    3.18    2.50
   3  -2   4    0.51    1.89
  -3  -2  -4    1.12    2.86
   3   2   4   -0.04    1.28
  -3  -2  -5   12.35    5.70
  -3  -2  -5   18.14    7.02
  -3   2  -5   12.55    5.82
   3   2   5   13.79    6.57
   3   2   5    9.37    5.65
   3  -2   5   13.76    6.67
   3  -2   5   17.12    8.06
  -3  -2  -6    2.75    3.31
  -3  -2  -6    1.56    3.67
  -3   2  -6   -0.56    2.88
   3   2   6   -0.35    2.21
   3  -2   6    3.22    5.37
   3  -2   6    2.35    2.39
   3   2   6    3.01    3.19
  -3   2  -7  263.65   30.07
   3   2   7  273.41   35.42
   3  -2   7  293.89   37.67
   3  -2   7  291.53   38.90
  -3  -2  -7  247.83   28.24
   3   2   7  296.02   37.69
  -3  -2  -8  271.37   31.60
  -3   2  -8  310.93   34.80
   3   2   8  337.70   43.34
   3  -2   8  338.31   45.45
   3   2   8  298.79   43.28
   3  -2   8  306.94   45.21
  -3  -2  -9   57.54    7.85
  -3   2  -9   58.34    7.81
  -3   2  -9   58.39    8.83
  -3   2 -10    5.96    2.99
  -3   2 -10    3.14    2.38
  -3  -2 -10    5.92    3.13
  -3   2 -11   37.66    6.02
  -3   2 -11   37.77    6.87
  -3  -2 -11   29.93    6.15
  -3  -2 -12   26.21    5.17
  -3   2 -12   34.63    6.13
  -3  -2 -13   97.34    8.25
  -3   2 -13  107.76    9.92
  -3   2 -14   30.83    4.30
   3  -3 -15   29.00    3.79
   3   3 -15   34.51    4.68
   3  -3 -15   33.14    4.60
   3  -3 -14   59.50    6.88
   3   3 -14   53.68    6.69
   3  -3 -14   63.35    7.44
   3  -3 -13    0.83    0.87
   3  -3 -13   -1.01    1.86
   3   3 -13   -0.96    0.56
   3  -3 -12   33.46    6.14
   3  -3 -12   25.82    5.19
   3   3 -12   29.70    5.86
   3  -3 -11    2.42    2.18
   3  -3 -11    2.07    2.02
   3   3 -11    2.27    1.08
   3  -3 -10   46.89    7.63
   3  -3 -10   46.64    7.48
   3   3 -10   42.64    6.86
   3  -3  -9   10.15   10.81
  -3  -3   9    2.02    3.58
   3   3  -9    7.17    5.68
   3   3  -9    5.72    5.00
   3   3  -8   31.91   11.26
   3  -3  -8   30.91   10.20
   3   3  -8   32.52   10.36
   3   3  -8   31.32   10.21
   3   3  -7  894.68   55.23
   3  -3  -7  876.86   50.42
   3   3  -7  847.47   49.19
   3   3  -7  889.92   53.36
   3  -3  -6  187.23   16.42
   3   3  -6  213.57   25.66
  -3   3   6  190.38   18.68
   3   3  -6  180.49   17.38
   3  -3  -6  194.94   22.08
   3   3  -6  185.32   21.99
   3  -3  -5  363.46   20.24
   3   3  -5  441.50   36.51
   3   3  -5  383.64   22.73
  -3   3   5  380.57   22.38
   3   3  -5  381.04   30.37
   3  -3  -5  433.22   32.12
   3   3  -4  356.44   20.70
   3   3  -4  331.99   30.27
  -3   3   4  352.18   18.01
   3  -3  -4  431.10   33.22
  -3  -3   4  347.57   27.44
   3   3  -4  361.25   29.85
   3  -3  -4  342.54   16.43
  -3   3   3  941.72   40.35
   3   3  -3  865.27   48.45
  -3   3   3  948.66   26.01
  -3  -3   3  996.99   44.03
   3   3  -3  903.83   38.85
   3  -3  -3  974.77   55.20
   3  -3  -3  886.96   20.36
   3   3  -3  820.69   45.41
  -3   3   2 2280.47   59.01
   3   3  -2 2076.48   73.60
   3   3  -2 2022.98   63.94
   3  -3  -2 2196.36   86.59
  -3  -3   2 2383.95   61.56
  -3   3   1  433.95   32.78
   3   3  -1  420.09   29.95
  -3  -3   1  425.09   24.67
   3   3  -1  398.17   29.87
  -3   3   1  411.29   24.44
   3  -3  -1  442.45   38.06
   3   3   0 3054.46   72.30
   3   3   0 3165.32   74.79
   3   3   0 2986.18   74.44
  -3   3   0 3095.40   81.69
  -3  -3   0 3304.52   69.87
  -3   3   0 3264.71   69.94
   3   3   1   95.87   12.29
   3   3   1   94.73   12.38
  -3   3  -1   91.16   11.11
  -3   3  -1   89.30   13.56
  -3  -3  -1  118.02   14.78
  -3   3  -1  100.79   12.33
   3   3   1   89.73   12.25
  -3  -3  -2  517.53   31.92
   3   3   2  452.45   28.70
  -3   3  -2  418.57   27.33
  -3   3  -2  421.46   28.35
   3   3   2  435.97   27.61
  -3   3  -2  424.84   26.86
   3   3   3  865.63   43.28
   3   3   3  806.08   40.80
  -3   3  -3  765.92   37.57
  -3   3  -3  796.84   37.70
  -3  -3  -3  900.52   44.34
   3  -3   3  838.10   39.87
  -3   3  -3  804.07   40.99
  -3   3  -4 1021.16   49.63
   3   3   4 1034.23   50.91
  -3  -3  -4  970.32   46.41
   3  -3   4 1025.81   53.82
   3  -3   4 1048.12   51.95
  -3  -3  -4 1093.50   51.91
   3   3   4 1053.14   53.31
   3   3   5 1222.25   60.95
   3  -3   5 1263.24   65.02
   3  -3   5 1219.58   66.00
  -3  -3  -5 1154.50   54.63
   3   3   5 1315.06   66.60
  -3  -3  -5 1274.62   59.77
  -3   3  -5 1209.43   57.76
  -3  -3  -6    2.44    4.10
  -3  -3  -6    5.83    3.83
   3  -3   6    0.86    3.17
   3   3   6    1.76    2.84
  -3   3  -6    1.92    2.75
   3   3   6    3.61    4.78
   3  -3   6    2.70    3.84
  -3  -3  -7   62.35   15.28
  -3   3  -7   46.35   13.09
  -3  -3  -7   42.20   12.41
   3  -3   7   40.58   15.47
   3  -3   7   50.94   16.44
   3   3   7   44.49   14.21
   3   3   7   33.30   12.19
   3  -3   8  146.68   31.13
   3   3   8  153.31   31.79
  -3  -3  -9  174.31   13.24
  -3   3  -9  215.03   15.62
  -3   3  -9  187.46   14.86
  -3   3 -10   19.80    4.70
  -3  -3 -10   22.31    5.18
  -3   3 -10   22.69    5.71
  -3  -3 -10   20.53    4.68
  -3   3 -11   76.49    8.88
  -3  -3 -11   71.82    8.63
  -3   3 -11   78.66    9.91
  -3   3 -12  199.80   12.59
  -3   3 -12  221.61   15.56
  -3  -3 -12  199.92   12.99
  -3   3 -13   30.08    5.14
  -3   3 -14    0.02    0.67
   3  -4 -15    8.96    2.37
   3   4 -15    6.73    1.92
   3  -4 -15    9.33    2.47
   3  -4 -14   17.98    4.10
   3  -4 -14   17.43    3.99
   3   4 -14   14.15    3.45
   3  -4 -13    2.57    1.58
   3   4 -13    3.31    1.75
   3  -4 -13    2.87    1.36
   3  -4 -12   16.56    4.09
   3  -4 -12   12.97    3.97
   3   4 -12   12.07    3.74
   3   4 -11   10.91    4.20
   3  -4 -11   10.28    4.05
   3   4 -11    8.34    3.08
   3  -4 -11    9.37    3.42
   3  -4 -10  120.64   12.64
   3  -4 -10  113.96   11.45
   3   4 -10  110.93   11.69
   3  -4  -9   24.05   10.04
   3   4  -9   20.24   10.03
   3   4  -8  197.22   28.39
   3  -4  -8  210.03   27.82
   3   4  -8  195.77   27.15
   3   4  -7    7.80    6.08
   3  -4  -7    2.24    4.04
   3   4  -7    6.79    4.22
   3   4  -6  111.82   20.89
   3   4  -6  119.33   18.49
   3  -4  -6  105.46   17.08
   3   4  -5 1017.28   58.08
  -3   4   5  979.39   50.19
   3  -4  -5 1054.41   50.87
   3   4  -5  956.82   52.75
   3   4  -4    1.59    2.31
   3   4  -4    3.65    2.89
   3  -4  -4    7.82    5.07
  -3   4   4    3.10    3.15
  -3   4   4    3.28    2.36
  -3  -4   4    1.81    2.23
  -3   4   3  673.74   36.43
   3   4  -3  611.99   44.00
   3  -4  -3  729.04   48.19
   3   4  -3  676.64   25.57
  -3  -4   3  737.19   36.53
   3   4  -3  627.44   43.57
  -3   4   2  305.20   23.08
   3   4  -2  289.86   29.07
   3  -4  -2  308.04   33.43
   3   4  -2  261.90   20.82
  -3  -4   2  345.45   23.55
  -3  -4   1    2.03    2.01
   3   4  -1    2.16    1.79
   3  -4  -1    1.14    1.73
   3   4  -1    3.71    4.30
  -3   4   1    2.55    2.39
   3   4   0 2070.88   66.98
   3   4   0 1999.32   73.07
  -3   4   0 2118.41   36.54
  -3   4   0 2162.99   62.28
   3   4   1  211.72   20.55
   3   4   1  202.53   20.95
   3   4   1  200.14   21.70
  -3   4  -1  204.47   19.31
  -3   4  -1  211.96   20.69
  -3   4  -1  203.48   14.80
  -3  -4  -1  243.90   22.13
   3   4   2 2472.41   73.10
   3   4   2 2572.07   78.41
  -3   4  -2 2491.96   67.33
  -3   4  -2 2555.39   72.17
  -3   4  -2 2598.23   62.13
  -3   4  -2 2378.79   71.77
   3   4   3  895.94   46.78
  -3   4  -3  939.55   42.54
  -3   4  -3  901.25   48.00
   3   4   3  910.52   48.84
  -3   4  -3  808.73   41.96
   3   4   4 3048.65   96.97
   3   4   4 2896.10   91.19
  -3   4  -4 2934.56   91.85
  -3  -4  -4 2711.06   80.98
  -3   4  -4 3023.51   85.25
   3  -4   4 3074.67   96.57
  -3  -4  -5   97.15   16.79
   3   4   5  109.91   20.44
   3  -4   5  121.59   21.73
   3   4   5  123.91   20.53
  -3  -4  -5   90.47   16.09
   3  -4   5   94.17   19.16
  -3   4  -5  102.34   17.78
  -3  -4  -6  106.65   19.12
   3   4   6   98.89   20.53
   3   4   6  116.09   23.70
   3  -4   6  124.25   24.43
   3  -4   6   89.81   21.23
  -3  -4  -6   95.87   18.54
  -3   4  -6   95.75   18.02
   3   4   7  385.14   44.39
  -3   4  -7  361.50   37.71
   3   4   7  408.17   49.14
   3  -4   7  427.66   48.62
   3  -4   7  359.04   48.28
  -3  -4  -7  403.13   40.64
  -3  -4  -7  368.16   36.29
  -3  -4  -8  326.09   17.99
  -3   4  -8  358.36   20.25
  -3   4  -8  359.83   19.48
  -3  -4  -9  104.09   10.77
  -3   4  -9  118.73   11.59
  -3   4  -9  120.62   12.30
  -3  -4 -10   58.50    7.86
  -3   4 -10   61.10    8.33
  -3   4 -10   64.31    9.31
  -3  -4 -11    1.54    1.98
  -3   4 -11    1.35    2.12
  -3   4 -11    4.54    2.90
  -3   4 -12   19.83    4.34
  -3   4 -12   19.38    4.68
  -3   4 -13   19.28    4.11
  -3   4 -13   19.80    3.46
  -3   4 -14   38.15    4.33
   3  -5 -15    2.59    1.44
   3  -5 -15    3.22    1.38
   3  -5 -14   54.43    6.44
   3   5 -14   58.79    6.29
   3   5 -14   55.90    5.90
   3  -5 -14   55.68    6.44
   3  -5 -13    7.56    2.89
   3  -5 -13   11.27    4.00
   3   5 -13    6.09    2.60
   3  -5 -12    4.40    2.20
   3  -5 -12    4.08    2.03
   3   5 -12    6.75    3.98
   3   5 -12    1.37    2.19
   3  -5 -11   45.50    7.52
   3  -5 -11   42.78    7.08
   3   5 -11   43.90    7.52
   3   5 -11   44.48    6.97
   3  -5 -10  450.14   23.06
   3  -5 -10  476.57   24.49
   3   5 -10  479.84   24.79
   3   5  -9   41.12   14.60
   3  -5  -9   44.29   14.06
   3   5  -9   39.29   13.29
   3   5  -8  700.19   54.44
   3  -5  -8  766.90   53.45
  -3   5   8  800.39   63.39
   3   5  -8  739.38   55.61
  -3   5   7  200.65   28.59
   3   5  -7  194.75   27.47
   3  -5  -7  188.63   24.85
   3   5  -7  185.99   25.64
   3   5  -6  184.31   27.27
   3  -5  -6  190.59   23.22
  -3   5   6  199.13   25.45
   3   5  -6  175.23   24.13
   3   5  -5  106.98   18.84
   3   5  -5  103.15   19.55
  -3   5   5  112.19   17.43
   3  -5  -5  111.38   16.69
   3   5  -4   33.55   10.98
  -3   5   4   37.41    9.37
   3   5  -4   32.39   10.02
   3  -5  -4   41.62    9.94
   3   5  -3   63.13   14.91
   3   5  -3   63.29   15.11
  -3   5   3   65.33   12.04
  -3  -5   3   78.24   12.14
   3  -5  -3   82.86   15.49
   3   5  -2   13.05    6.74
   3   5  -2   19.83    7.96
  -3   5   2   23.97    7.36
   3  -5  -2   17.48    8.10
  -3  -5   2   22.64    6.21
   3   5  -1  979.65   54.44
  -3   5   1 1014.40   30.39
   3   5  -1  866.82   56.95
  -3  -5   1 1133.21   44.92
  -3   5   1 1034.18   46.53
   3  -5  -1  914.95   60.25
  -3  -5   0  440.98   30.39
   3   5   0  321.07   33.33
   3  -5   0  337.49   36.99
   3   5   0  351.42   30.41
  -3   5   0  354.43   27.09
   3   5   1  324.91   30.20
   3   5   1  331.21   29.13
   3   5   1  312.18   32.08
   3  -5   1  342.05   36.09
  -3   5  -1  339.05   20.38
  -3   5  -1  316.44   26.86
  -3  -5  -1  364.93   28.45
   3   5   2   94.33   15.77
  -3   5  -2   97.70   15.44
   3   5   2   96.12   17.80
  -3   5  -2   96.69   12.99
   3   5   2   86.53   15.77
  -3   5  -3    5.67    4.23
  -3   5  -3    3.57    3.62
   3   5   3    8.34    5.11
  -3   5  -3    4.86    3.74
   3   5   4  720.53   49.51
  -3   5  -4  751.30   50.89
   3   5   4  740.83   53.52
  -3   5  -4  737.41   44.63
   3   5   5   89.29   19.10
  -3  -5  -5   83.99   15.93
  -3   5  -5   82.80   17.07
   3  -5   5   85.67   19.49
   3   5   5   90.21   19.48
  -3   5  -5   94.34   16.99
  -3  -5  -6  116.07   20.69
   3  -5   6  103.73   22.81
   3   5   6  113.11   24.43
   3   5   6  117.43   23.48
   3  -5   6  107.04   24.64
  -3  -5  -6   89.67   17.65
  -3   5  -6  114.85   21.53
  -3  -5  -7    0.61    5.67
  -3   5  -7    4.60    3.54
  -3  -5  -7   10.63    8.07
   3  -5   7    6.96    7.06
   3   5   7    5.09    5.37
   3  -5   7    4.48    7.43
   3   5   7    2.24    6.29
  -3  -5  -8  666.48   27.22
  -3   5  -8  643.84   26.22
  -3   5  -8  687.50   28.33
  -3  -5  -9   49.99    7.84
  -3   5  -9   49.56    7.77
  -3   5  -9   54.88    8.47
  -3  -5 -10   13.00    4.88
  -3   5 -10   21.31    5.46
  -3   5 -10   10.46    3.53
  -3  -5 -11   53.50    7.22
  -3   5 -11   59.86    7.79
  -3   5 -11   54.42    8.11
  -3  -5 -12   50.24    6.38
  -3   5 -12   52.84    6.41
  -3   5 -12   61.99    8.47
  -3   5 -13   17.28    3.65
  -3   5 -13   20.83    3.58
   3  -6 -15   -0.25    0.58
   3  -6 -14   29.96    4.67
   3   6 -14   31.17    5.11
   3  -6 -14   30.25    4.50
   3  -6 -13   12.46    3.65
   3  -6 -13   15.67    4.04
   3  -6 -12  137.28   12.23
   3  -6 -12  140.91   12.49
   3   6 -12  132.86   12.82
   3  -6 -11   53.17    8.14
   3   6 -11   55.01    8.32
   3  -6 -11   53.04    8.06
   3  -6 -10  160.28   13.64
   3   6 -10  164.52   14.72
   3  -6 -10  166.95   14.14
   3  -6  -9   63.33    8.52
   3   6  -9   80.99   10.31
   3   6  -8    9.00    5.39
   3  -6  -8   13.56    7.94
   3   6  -8   24.93   11.02
   3   6  -7    2.37    6.68
   3  -6  -7    1.65    2.79
  -3   6   7   -0.81    5.07
   3   6  -7    1.21    1.20
   3   6  -6  591.42   49.83
  -3   6   6  604.51   46.42
   3  -6  -6  609.30   42.29
   3   6  -6  579.77   47.56
   3   6  -5   15.29    8.72
   3   6  -5    9.85    5.88
   3  -6  -5   16.25    6.21
  -3   6   5   13.54    6.56
  -3   6   4  778.14   46.36
   3   6  -4  661.94   51.25
   3  -6  -4  783.37   44.08
   3   6  -4  773.02   56.36
  -3   6   3  222.84   23.64
   3   6  -3  182.63   27.80
   3  -6  -3  243.08   24.96
   3   6  -3  214.99   30.01
   3   6  -2  408.59   39.71
   3  -6  -2  499.41   39.60
  -3  -6   2  545.70   32.30
   3   6  -2  395.94   40.75
  -3   6   2  490.43   34.92
   3   6  -1  300.87   32.98
   3  -6  -1  280.35   32.77
  -3  -6   1  382.57   28.30
  -3   6   1  325.46   28.07
   3   6   0  114.98   20.84
  -3   6   0   95.19   15.59
   3  -6   0   86.55   19.66
   3   6   0   80.78   18.98
  -3  -6   0  123.00   16.73
   3   6   1  314.49   31.54
   3  -6   1  287.33   34.76
  -3   6  -1  305.30   28.51
   3   6   1  238.85   32.84
  -3   6  -2    3.60    3.91
  -3   6  -2    2.99    2.57
   3   6   2    3.69    3.77
   3  -6   2    4.63    4.85
   3   6   2   12.96   10.06
   3   6   2    1.75    1.79
   3   6   3 2224.39   90.38
   3   6   3 1946.78   85.27
   3   6   3 2015.23   98.12
  -3   6  -3 2122.02   70.76
  -3   6  -3 1888.65   75.52
   3   6   4  442.86   42.69
   3   6   4  417.56   46.33
  -3   6  -4  446.41   35.68
  -3   6  -5   16.78    9.35
   3   6   5    1.93    3.90
   3   6   5    5.34    5.17
  -3  -6  -5   -0.68    3.00
  -3   6  -5    3.18    4.52
  -3  -6  -6   14.01    8.19
   3   6   6    7.47    7.23
  -3   6  -6   16.89    9.24
   3  -6   6   16.56    9.71
   3   6   6   20.50   12.59
  -3  -6  -6   22.25    9.53
   3  -6   6   10.64    7.92
  -3  -6  -7   27.88    5.69
  -3   6  -7   30.90    5.66
   3  -6   7   18.24   11.87
  -3  -6  -8   26.97    5.40
  -3   6  -8   20.28    4.59
  -3   6  -8   23.20    5.33
  -3  -6  -9    0.26    1.46
  -3   6  -9    0.71    1.93
  -3   6  -9    1.85    1.61
  -3  -6 -10   94.71   10.66
  -3   6 -10   89.82    9.75
  -3   6 -10   93.79   11.04
  -3  -6 -11   27.05    5.32
  -3   6 -11   25.61    4.77
  -3   6 -11   28.43    5.65
  -3  -6 -12   24.28    4.34
  -3   6 -12   24.93    4.79
  -3   6 -12   31.16    5.61
  -3  -6 -13   -0.16    0.85
  -3   6 -13    4.89    1.90
  -3   6 -13    2.55    1.84
   3  -7 -15    3.15    1.06
   3  -7 -14   17.82    3.45
   3   7 -14   20.40    3.65
   3  -7 -14   25.75    3.86
   3  -7 -13    1.54    1.28
   3  -7 -13    5.93    2.04
   3  -7 -13    3.79    1.93
   3   7 -13    2.76    1.27
   3  -7 -12   38.74    6.43
   3  -7 -12   39.03    6.69
   3   7 -12   39.83    6.96
   3  -7 -11   28.53    5.85
   3  -7 -11   32.91    7.36
   3   7 -11   25.88    5.91
   3  -7 -10  123.11   11.91
   3   7 -10  139.22   14.04
   3  -7 -10  138.42   12.91
   3  -7  -9   28.87    5.67
   3  -7  -9   37.89    6.55
   3   7  -9   33.78    6.81
   3  -7  -8   13.57    8.26
   3   7  -8   19.89   10.85
   3  -7  -7   18.24    9.16
   3   7  -7   16.17    9.16
   3   7  -7    4.98    4.09
   3   7  -6  425.09   44.55
   3   7  -6  453.47   44.50
  -3   7   6  471.66   42.86
   3  -7  -6  448.57   36.95
   3   7  -5    1.54    4.29
   3   7  -5    0.34    1.83
   3  -7  -5    1.91    2.74
  -3   7   5    2.48    1.96
   3  -7  -4  232.74   23.91
   3   7  -4  207.92   30.70
   3   7  -4  242.00   33.05
  -3   7   4  259.38   28.60
   3   7  -3  664.53   55.36
   3  -7  -3  754.94   42.18
   3   7  -3  701.10   57.24
  -3   7   3  752.54   47.64
   3   7  -2   -1.44    2.56
   3   7  -2   -1.70    1.50
  -3  -7   2    2.44    3.45
   3  -7  -2    1.95    2.70
  -3   7   2   -0.17    2.44
   3   7  -1  478.21   45.34
   3  -7  -1  496.97   39.56
  -3  -7   1  618.19   38.20
  -3   7   1  482.91   37.01
   3   7   0  890.71   62.15
  -3   7   0  897.05   52.09
  -3  -7   0  998.29   51.35
   3  -7   0  715.17   50.56
   3   7   0  705.75   61.57
   3   7   1  217.04   29.48
   3   7   1  160.94   30.13
  -3   7  -1  195.07   24.93
   3   7   2  198.00   28.79
  -3   7  -2  192.95   25.34
   3   7   2  190.94   34.31
   3   7   3  455.00   46.18
   3   7   3  545.23   49.32
   3   7   3  479.88   55.00
   3   7   4   10.98   10.51
   3   7   4    5.45    8.58
   3   7   4    1.83    3.11
  -3   7  -4    2.61    3.75
   3   7   5  147.28   29.39
   3   7   5  168.03   35.74
  -3  -7  -5  137.99   23.00
  -3   7  -5  143.43   21.90
  -3  -7  -6  100.58   19.75
  -3  -7  -6  120.33   23.11
  -3   7  -6  108.31   20.91
   3   7   6  153.17   34.33
   3  -7   6  107.92   25.76
   3   7   6  109.64   31.57
  -3  -7  -7   86.05   10.23
  -3   7  -7   82.01    9.98
  -3   7  -7   73.36    8.58
  -3  -7  -7   71.37    7.89
  -3  -7  -8  189.36   15.16
  -3   7  -8  173.92   13.58
  -3   7  -8  172.90   14.74
  -3   7  -9  318.02   18.77
  -3  -7  -9  350.51   20.83
  -3   7  -9  347.04   20.84
  -3  -7 -10  192.17   15.59
  -3   7 -10  170.33   13.43
  -3   7 -10  171.79   14.25
  -3  -7 -11    0.40    1.48
  -3   7 -11    0.96    1.24
  -3   7 -11    4.70    2.31
  -3   7 -12    0.83    1.59
  -3  -7 -12    2.13    1.63
  -3   7 -12    1.82    1.11
  -3  -7 -13    4.94    1.56
  -3   7 -13    4.26    1.57
   3  -8 -14    1.72    1.30
   3   8 -14    1.96    1.26
   3  -8 -13    0.26    0.39
   3   8 -13    0.03    0.40
   3  -8 -12   61.04    7.49
   3  -8 -12   67.73    8.13
   3   8 -12   68.86    8.65
   3  -8 -11   22.59    5.38
   3   8 -11   26.73    5.87
   3  -8 -11   27.12    5.39
   3  -8 -10    5.12    1.99
   3   8 -10    7.36    4.39
   3  -8 -10    5.22    3.33
   3  -8  -9   11.69    4.46
   3  -8  -9    9.53    3.04
   3   8  -9   10.44    3.23
   3  -8  -8  130.07   11.20
   3  -8  -8  146.51   12.76
   3   8  -8  148.94   14.85
   3   8  -7   10.19    6.62
   3  -8  -7   12.54    7.41
   3   8  -7   11.66    8.35
   3   8  -6   84.00   19.96
  -3   8   6  105.96   21.29
   3   8  -6   70.47   18.86
   3  -8  -6   77.82   15.74
   3   8  -5   88.23   20.96
   3   8  -5   82.80   20.46
   3  -8  -5   81.89   15.34
  -3   8   5  105.37   20.03
   3   8  -4  220.20   33.41
   3  -8  -4  242.65   24.38
   3   8  -4  235.92   35.11
  -3   8   4  278.00   31.57
   3   8  -3  191.99   31.55
   3   8  -3  193.96   32.21
   3  -8  -3  195.65   20.82
  -3   8   3  203.78   26.10
   3   8  -2   44.37   15.48
   3   8  -2   42.85   16.37
  -3   8   2   45.39   12.77
   3   8  -1   31.82   13.03
  -3  -8   1   57.85   12.27
  -3   8   1   57.38   14.53
   3   8  -1   56.29   16.43
   3   8   0  164.18   29.59
  -3   8   0  167.17   24.73
  -3  -8   0  197.73   24.31
  -3  -8  -1   11.84    5.88
  -3   8  -1   13.89    7.10
   3   8   1    6.31    5.38
   3   8   1    6.30    5.44
  -3   8  -2    8.91    6.20
   3   8   2   15.19    9.32
   3   8   2    9.89    9.83
   3   8   3   43.12   20.50
   3   8   3   53.06   17.53
   3   8   4  103.30   30.63
   3   8   4  125.03   27.27
   3   8   4  110.01   27.32
  -3  -8  -5   59.84   15.56
   3   8   5   70.40   28.30
   3   8   5   61.65   19.07
   3   8   5   71.15   22.58
  -3  -8  -6  173.99   13.84
  -3  -8  -6  162.94   12.58
  -3   8  -6  159.48   12.34
  -3   8  -6  169.96   14.74
  -3  -8  -7  123.75   11.20
  -3   8  -7  122.69   11.18
  -3   8  -7  128.72   12.95
  -3  -8  -8   80.63    9.91
  -3  -8  -8   77.35    8.91
  -3   8  -8   76.06    9.09
  -3   8  -8   86.47   10.55
  -3  -8  -9   24.35    5.48
  -3   8  -9   20.88    4.66
  -3   8  -9   26.20    6.01
  -3  -8 -10   69.50    8.80
  -3   8 -10   67.43    8.36
  -3   8 -10   70.08    8.66
  -3  -8 -11   34.34    5.67
  -3   8 -11   33.23    5.81
  -3   8 -11   32.51    5.27
  -3  -8 -12   22.01    3.98
  -3   8 -12   17.69    3.47
   3  -9 -14    4.80    1.64
   3   9 -14    3.39    1.33
   3  -9 -13    2.24    1.72
   3   9 -13    1.25    0.95
   3  -9 -12    1.20    1.66
   3   9 -12   -1.43    1.67
   3  -9 -12    0.28    0.99
   3  -9 -11    3.06    2.29
   3  -9 -11    1.93    1.32
   3  -9 -10   77.67    8.83
   3   9 -10   88.17   11.01
   3  -9 -10   77.95    8.95
   3  -9  -9   68.14    8.31
   3  -9  -9   73.33    9.21
   3   9  -9   77.70   10.79
   3  -9  -8    1.97    1.77
   3  -9  -8    2.42    2.75
   3   9  -8    0.89    1.83
   3  -9  -7  348.78   17.65
   3   9  -7  401.20   24.67
   3   9  -6  123.32   25.75
   3   9  -6  106.45   24.28
   3   9  -5  153.72   29.67
  -3   9   5  171.81   27.33
   3   9  -5  166.83   30.07
   3   9  -4  116.59   25.86
   3   9  -4  106.78   25.57
  -3   9   4  144.52   23.78
   3   9  -3   39.22   16.56
   3   9  -3   42.73   16.06
  -3   9   3   42.25   12.81
   3   9  -2  128.38   29.03
   3   9  -2  126.47   27.47
  -3   9   2  160.23   25.80
   3   9  -1   17.76   10.97
  -3   9   1   21.34    9.80
   3   9  -1   24.12   13.94
   3   9   0  222.01   37.84
  -3  -9   0  298.70   31.96
  -3   9   0  232.48   31.29
  -3  -9  -1   51.56   14.02
   3   9   1   48.83   17.49
  -3   9  -1   61.21   16.51
   3   9   2  132.78   35.47
   3   9   2  154.47   30.97
  -3   9  -2  150.40   26.02
   3   9   3  242.19   39.23
   3   9   3  196.34   44.77
   3   9   4   47.42   19.05
   3   9   4   27.01   22.58
  -3  -9  -5   71.11    9.27
  -3  -9  -5   59.71    7.68
  -3   9  -5   55.69    7.07
  -3  -9  -6   37.77    6.62
  -3   9  -6   40.95    6.43
  -3  -9  -6   44.36    7.06
  -3   9  -6   49.36    8.83
  -3  -9  -7    9.19    3.56
  -3  -9  -7    9.24    3.20
  -3   9  -7    9.76    3.56
  -3   9  -7   11.44    5.78
  -3  -9  -8  177.64   14.14
  -3  -9  -8  159.60   12.75
  -3   9  -8  166.57   13.45
  -3   9  -8  180.06   15.18
  -3  -9  -9   30.98    5.91
  -3   9  -9   30.98    5.73
  -3   9  -9   31.65    6.45
  -3  -9  -9   24.92    4.65
  -3  -9 -10    7.11    2.83
  -3   9 -10    7.03    2.52
  -3  -9 -11   31.94    5.20
  -3   9 -11   33.60    5.25
  -3   9 -12    8.21    2.16
  -3  -9 -12    8.64    2.31
   3 -10 -13   10.10    2.90
   3  10 -13    6.02    1.94
   3 -10 -12    8.45    2.60
   3  10 -12    9.54    2.67
   3  10 -12    9.38    2.75
   3 -10 -11   61.55    7.09
   3 -10 -11   58.24    6.93
   3  10 -11   63.54    8.07
   3 -10 -10    3.91    2.41
   3 -10 -10    3.54    1.87
   3 -10  -9    1.46    1.96
   3 -10  -9    3.80    3.71
   3  10  -9   -1.01    1.67
   3 -10  -8   10.55    3.13
   3  10  -8   12.92    4.67
   3  10  -7   20.01    6.33
   3  10  -6    3.78    3.40
   3  10  -5  145.26   14.98
   3  10  -4  111.44   25.21
   3  10  -4  106.30   26.84
  -3  10   4  132.06   24.35
   3  10  -3  254.43   42.76
  -3  10   3  291.61   36.23
   3  10  -3  279.89   40.83
  -3  10   2   19.87    9.52
   3  10  -2   15.89   10.70
   3  10  -2   15.65    8.93
   3  10  -1   39.06   17.31
  -3  10   1   33.02   13.13
   3  10  -1   29.33   15.70
   3  10   0  135.09   31.55
  -3  10   0  173.51   28.61
   3  10   0  193.11   38.37
  -3  10  -1   48.87   15.26
  -3 -10  -1   52.96   16.30
   3  10   1   50.31   20.62
  -3 -10  -2    8.58    8.65
   3  10   2   10.89    9.24
  -3 -10  -4    3.38    0.85
  -3 -10  -4    4.51    1.94
  -3 -10  -5  283.93   17.33
  -3  10  -5  283.08   16.29
  -3 -10  -5  282.61   17.02
  -3  10  -6    0.93    1.30
  -3 -10  -6   -1.18    1.29
  -3 -10  -7  107.88   10.83
  -3 -10  -7  109.04   10.78
  -3  10  -7  108.61   10.48
  -3 -10  -8    3.68    1.83
  -3  10  -8    6.09    1.89
  -3 -10  -8    5.43    2.60
  -3 -10  -9   43.43    6.58
  -3 -10  -9   42.12    6.23
  -3  10  -9   45.72    6.91
  -3 -10 -10    1.66    1.07
  -3  10 -10    0.63    0.96
  -3 -10 -11    0.36    1.03
  -3  10 -11    1.33    1.14
   3  10  11    7.15   11.14
  -3 -10 -12    1.70    1.38
  -3  10 -12    3.31    1.49
   3 -11 -13    5.22    1.43
   3  11 -13    4.35    1.42
   3 -11 -12    0.50    0.72
   3  11 -12   -0.64    0.52
   3 -11 -11   22.02    4.35
   3  11 -11    3.53    1.92
   3 -11 -10    1.37    1.31
   3  11 -10    0.96    1.38
   3 -11  -9   16.16    3.65
   3  11  -9   16.72    4.80
   3 -11  -8   15.32    3.56
   3  11  -8   14.85    4.70
   3  11  -7  131.76   14.76
   3  11  -6   19.98    6.56
   3  11  -5  173.53   17.39
  -3  11   5  185.66   17.29
   3  11  -4   14.26    5.54
  -3  11   4    6.67    1.58
   3  11  -3   -1.17    2.31
  -3  11   2   84.06   21.12
   3  11  -2   56.58    9.25
  -3  11   1   75.49   19.78
   3  11  -1   63.68   21.11
   3  11   0   -0.99    3.92
   3  11   1   -2.00    1.56
  -3 -11  -1   15.04    4.75
  -3 -11  -2    3.51    2.12
   3  11   2    6.06    3.09
  -3 -11  -3   60.79    8.02
  -3 -11  -4   44.75    6.69
  -3 -11  -4   42.14    6.61
  -3 -11  -5   65.86    8.66
  -3 -11  -5   57.17    7.64
  -3 -11  -6   31.49    5.52
  -3 -11  -6   32.36    6.30
  -3  11  -6   32.51    5.36
  -3 -11  -7    1.48    1.20
  -3 -11  -7    1.08    2.00
  -3  11  -7    1.46    2.13
  -3 -11  -8    2.49    1.73
  -3 -11  -8    2.09    2.71
  -3  11  -8    1.22    0.92
  -3 -11  -9   93.52    8.86
  -3 -11  -9   99.56    8.86
  -3  11  -9  103.15    9.39
   3  11  10   14.74    9.25
  -3 -11 -10   16.21    3.37
  -3  11 -10   15.07    3.50
  -3 -11 -11   55.67    5.27
  -3  11 -11   54.82    5.27
   3 -12 -12   -1.10    0.90
   3  12 -12    1.55    1.30
   3 -12 -11    2.36    1.18
   3  12 -11    3.74    1.60
   3  12 -11    1.87    1.68
   3  12 -10   12.03    3.67
   3 -12 -10   11.17    2.81
   3 -12  -9    4.86    1.64
   3  12  -9   14.34    6.15
   3  12  -8   51.79    9.20
   3  12  -7    4.66    4.63
   3  12  -6  135.43   15.69
   3  12  -5   61.46   10.76
   3  12  -4   77.43   12.21
   3  12  -3   78.56   12.18
   3  12  -2   18.31    6.40
   3  12  -1   56.91    9.02
  -3 -12   1   94.80   10.32
   3  12  -1   68.98   12.12
  -3 -12   0   23.91    5.28
   3  12   0   34.33   11.94
   3  12   0   16.92    6.18
  -3  12   0   41.26    8.67
   3  12   1   37.04    8.12
  -3 -12  -1   43.77    6.75
   3  12   1   38.24    8.80
   3  12   2   61.98   11.41
  -3 -12  -2   86.87   11.48
  -3 -12  -3    9.47    3.17
   3  12   3    8.35    4.47
  -3 -12  -4   76.79    8.53
  -3 -12  -4   72.86    8.89
   3  12   4   69.71   13.63
  -3 -12  -5  155.40   11.96
  -3 -12  -5  157.03   12.64
  -3 -12  -6    0.19    0.87
  -3 -12  -6   20.79    4.61
  -3 -12  -7   12.02    3.25
  -3 -12  -7   11.56    3.37
  -3  12  -7   13.83    3.86
  -3 -12  -8    6.91    2.41
  -3 -12  -8    6.78    2.71
  -3  12  -8    6.16    2.34
  -3 -12  -9   27.15    4.36
  -3 -12  -9   28.76    4.38
  -3  12  -9   29.45    4.48
  -3 -12 -10    4.54    1.81
   3  12  10    3.39    6.99
  -3  12 -10    7.51    2.22
   3  13 -11    7.12    2.32
   3  13 -11    4.81    1.45
   3  13 -10    0.29    0.92
   3  13 -10   -0.08    0.78
   3  13  -9    2.37    1.67
   3  13  -9    3.24    3.04
   3  13  -8   26.54    5.47
   3  13  -7  175.41   17.00
   3  13  -6   48.08    9.03
   3  13  -5   30.17    7.29
   3  13  -4   34.38    9.08
   3  13  -3    5.63    4.46
   3  13  -2   30.79    8.28
  -3 -13   1  184.98   14.31
   3  13  -1  171.50   18.62
   3  13  -1  138.06   14.97
  -3 -13   0   39.68    6.67
   3  13   0   37.27    8.40
   3  13   0   27.03    7.39
  -3  13   0   43.83    7.62
  -3 -13  -1    3.46    1.35
   3  13   1    3.07    4.23
   3  13   1    6.57    5.02
  -3 -13  -2   49.12    7.47
   3  13   2   47.78   10.29
   3  13   2   44.22    9.74
  -3 -13  -3    0.95    1.45
   3  13   3    3.24    3.90
   3  13   3    4.33    3.42
  -3 -13  -4   20.03    4.50
   3  13   4   18.53    8.12
  -3 -13  -5    8.65    3.03
  -3 -13  -5    5.77    2.81
   3  13   5    7.62    6.69
  -3 -13  -6    0.90    1.23
  -3 -13  -6    1.88    1.59
   3  13   6    6.39    7.45
  -3 -13  -7    3.66    2.24
   3  13   7    2.30    3.36
  -3 -13  -7    5.33    2.56
  -3 -13  -8    9.24    2.43
  -3 -13  -8   12.33    3.38
  -3 -13  -9   43.73    4.63
  -3  13  -9   45.46    4.69
  -3 -13  -9   42.00    4.71
   3  14 -10    2.42    1.47
   3 -14 -10    1.85    1.02
   3  14  -9    1.57    1.47
   3  14  -8    4.86    2.82
   3  14  -7   43.85    7.91
   3  14  -6   16.72    6.03
   3  14  -5   18.61    5.56
   3  14  -4   56.70   11.06
   3  14  -3  141.79   17.30
   3  14  -2  114.71   17.94
   3  14  -1   49.15    9.85
  -3  14   1   51.11    8.94
  -3 -14   0    2.69    2.19
   3  14   0    4.43    4.31
   3  14   0    3.66    4.90
  -3 -14  -1   47.52    7.23
   3  14   1   40.91    9.24
   3  14   1   31.95    8.15
   3  14   2    3.45    1.51
   3  14   2   10.02    5.55
  -3 -14  -2    8.23    3.99
   3  14   3   42.19   10.72
  -3 -14  -3   35.34    5.94
   3  14   3   33.76    8.13
  -3 -14  -4   88.30    9.04
   3  14   4  101.53   15.87
   3  14   4   96.87   12.86
  -3 -14  -5    8.48    3.16
   3  14   5   13.05    6.11
   3  14   5    7.81    4.90
   3  14   6  179.32   24.89
  -3 -14  -6  107.05    9.20
  -3 -14  -7    2.76    1.75
  -3 -14  -7    2.61    1.61
   3  14   7    8.68    5.74
   3  14   8   42.08   13.70
  -3 -14  -8   18.88    3.46
   3 -15  -9    5.69    1.82
   3  15  -9    7.99    2.55
   3 -15  -8    7.45    2.30
   3  15  -8    6.13    2.57
   3  15  -7    5.68    3.70
   3 -15  -7    1.80    0.76
   3 -15  -6   19.56    3.32
   3  15  -6   23.22    5.55
   3 -15  -5    0.96    1.54
   3  15  -5    2.65    2.80
   3  15  -4   29.05    7.83
   3  15  -3    2.79    3.16
  -3  15   3    5.37    3.21
   3  15  -2   12.61    6.02
  -3  15   2    5.78    2.73
   3  15  -1   -3.20    2.33
  -3  15   1    2.24    2.95
  -3 -15   0   32.28    5.44
  -3  15   0   34.63    8.09
   3  15   0   35.16    9.06
   3  15   1   25.99    7.74
  -3 -15  -1   24.72    4.70
  -3 -15  -2  150.86   11.68
   3  15   2  159.98   16.91
   3  15   2  133.26   15.62
   3  15   3    7.94    4.12
  -3 -15  -3    2.57    1.01
   3  15   3    5.24    4.69
   3  15   4    6.03    3.41
   3  15   4    7.60    3.93
  -3 -15  -4    5.70    2.20
  -3 -15  -5    2.56    1.51
   3  15   5    3.45    5.60
   3  15   5    0.51    2.58
  -3 -15  -6  109.34    9.92
   3  15   6  562.95   42.31
  -3 -15  -7    0.69    1.18
   3  15   7   -2.74    4.34
   3  16  -8   -1.07    0.90
  -3  16   8    2.64    2.61
   3 -16  -7    3.45    1.62
   3  16  -7    4.54    2.45
  -3  16   7    6.08    4.08
   3 -16  -6    4.74    2.45
   3  16  -6    2.81    1.93
  -3  16   6    1.20    2.20
  -3 -16   5   17.72    3.38
   3  16  -5   19.21    4.97
  -3  16   5   24.99    7.52
   3  16  -4   10.64    4.40
  -3  16   4   12.01    4.93
  -3  16   3    4.58    4.61
   3  16  -3    5.35    2.77
   3  16  -2  104.99   13.22
  -3  16   2   94.48   11.94
   3  16  -1  105.06   13.65
  -3  16   1   81.97   11.83
   3  16   0    5.90    4.09
  -3  16   0    7.69    3.09
  -3 -16  -1   28.27    4.50
   3  16   1   32.70    7.74
  -3 -16  -2    2.50    1.12
   3  16   2    9.85    4.39
   3  16   3    4.24    4.02
  -3 -16  -3    4.41    1.78
   3  16   4   51.77    8.45
  -3 -16  -4   44.52    5.23
  -3 -16  -5    0.17    1.19
  -3 -16  -6   35.03    3.96
   3  17  -6   11.05    2.92
  -3  17   6   13.00    4.05
   3  17  -5    5.91    2.22
  -3  17   5    2.42    1.94
  -3 -17   4   14.97    3.74
   3  17  -4   14.74    4.63
  -3  17   4   10.52    4.35
   3  17  -3   15.52    4.65
  -3  17   3   11.01    4.19
   3  17  -2   62.69    9.16
  -3  17   2   52.68    8.39
   3  17  -1   10.68    4.17
  -3  17   1   60.39    8.77
   3  17   0  135.37   13.52
   3  17   1    7.76    3.87
  -3 -17  -2   25.43    3.59
   3  17   2   31.64    6.51
  -3 -17  -3    3.05    1.33
   3  17   3   14.12    4.56
  -3 -17  -4   45.20    4.41
   3  18  -3    5.71    2.37
  -3 -18   2    8.18    2.19
   3  18  -2   16.58    3.76
   3  18  -1    9.96    3.94
   3  18   0    3.35    2.36
   4   0 -16   39.84    4.31
   4   0 -15    2.25    1.79
   4   0 -14    0.59    0.62
   4   0 -13   -4.06    2.03
   4   0 -13    0.13    0.61
   4   0 -12  190.05   14.66
   4   0 -12  162.22   12.47
   4   0 -11    3.24    3.01
   4   0 -11    0.85    2.27
   4   0 -10  140.28   23.10
   4   0  -9   -1.44    3.73
   4   0  -8  547.56   40.66
   4   0  -7   -1.55    3.21
   4   0  -6   48.08   11.02
   4   0  -6   48.43   10.83
  -4   0   6   37.63    9.18
   4   0  -6   51.17    9.07
   4   0  -5    0.68    1.55
   4   0  -5   -2.02    2.84
  -4   0   5   -0.29    0.59
   4   0  -5    1.58    0.79
   4   0  -4 1744.62   57.66
  -4   0   4 1652.12   80.49
   4   0  -4 1570.71   43.75
   4   0  -4 1684.13   75.00
   4   0  -3    0.38    1.36
   4   0  -3    0.78    1.99
   4   0  -3    2.81    2.57
  -4   0   3   -0.33    3.49
   4   0  -2  122.25   13.67
  -4   0   2  119.97   18.31
   4   0  -2   76.57    8.20
   4   0  -2   98.10   18.12
  -4   0   1   -1.17    0.74
   4   0  -1   -1.70    1.46
  -4   0   1    1.21    1.97
  -4   0   0   14.95    5.60
   4   0   0   12.52    3.66
   4   0   0   16.61    3.65
  -4   0   0   20.21    4.60
  -4   0   0   17.75    3.85
   4   0   0   16.84    4.19
  -4   0  -1    0.16    1.07
  -4   0  -1    0.63    1.35
   4   0   1   -0.69    1.26
   4   0   1    0.74    1.24
   4   0   1   -0.07    0.79
  -4   0  -1    0.01    1.07
   4   0   2  224.36   14.75
   4   0   2  267.82   19.52
  -4   0  -2  240.78   22.72
   4   0   2  260.37   20.49
  -4   0  -2  245.66   16.15
  -4   0  -2  254.43   19.22
  -4   0  -3    0.72    1.98
  -4   0  -3    0.97    2.02
   4   0   3   -0.33    1.23
   4   0   3    0.54    0.89
   4   0   4  502.92   33.92
  -4   0  -4  491.82   35.00
   4   0   4  487.09   35.75
  -4   0  -4  484.20   32.54
  -4   0  -5    0.20    2.77
  -4   0  -5    0.71    1.24
   4   0   5    0.45    2.65
   4   0   5   -0.13    2.62
   4   0   6   90.97   18.76
  -4   0  -6   89.77   16.13
   4   0   6   95.99   20.09
  -4   0  -7    0.62    1.27
   4   0   7   -0.08    3.30
   4   0   7    0.74    4.81
  -4   0  -8   27.18    5.60
  -4   0  -9    4.10    2.62
  -4   0 -10  209.05   15.12
  -4   0 -11    0.59    1.83
  -4   0 -12    2.12    1.72
  -4   0 -13    2.17    1.73
   4   1 -16    2.07    1.21
   4  -1 -16    0.94    0.77
   4   1 -15    2.67    1.70
   4  -1 -15    1.70    1.59
   4  -1 -14    2.22    1.24
   4   1 -14    0.82    0.91
   4  -1 -14    4.64    2.41
   4  -1 -13    0.27    1.18
   4  -1 -13    1.08    1.41
   4  -1 -12   66.59    8.67
   4  -1 -12   66.51    8.28
   4  -1 -11   51.41    8.06
   4   1 -11   53.76    8.49
   4  -1 -11   40.50    6.84
   4   1 -10  248.72   16.93
   4  -1  -9  239.70   29.96
   4   1  -9  235.74   27.46
   4  -1  -8  224.08   26.57
   4   1  -8  205.45   23.76
  -4  -1   7   45.27   11.44
   4   1  -7   69.21   15.02
   4   1  -7   81.48   14.87
   4   1  -7   56.46   11.68
   4  -1  -7   68.33   14.05
   4   1  -7   63.10   12.11
   4   1  -6  236.33   25.26
   4  -1  -6  242.15   25.56
   4   1  -6  239.64   23.42
   4   1  -6  223.15   21.42
   4   1  -5  695.09   41.14
   4   1  -5  691.45   41.06
   4  -1  -5  752.71   47.02
  -4  -1   5  647.46   51.15
   4   1  -5  616.71   33.32
   4  -1  -4  938.04   40.06
   4   1  -4  967.16   47.55
   4   1  -4  931.71   54.21
  -4   1   4  882.14   62.50
  -4  -1   4  892.49   55.18
   4   1  -4  838.89   39.01
   4  -1  -4  899.20   56.63
   4  -1  -3  129.89   13.06
   4   1  -3  104.07   14.58
   4  -1  -3   94.34   18.68
   4   1  -3   93.72   17.75
  -4  -1   3  117.02   18.58
   4  -1  -3   99.83    7.98
   4   1  -3   85.83   12.64
  -4   1   3  107.40   20.23
  -4  -1   2    3.00    3.26
   4  -1  -2    2.58    1.92
   4  -1  -2    4.17    2.74
   4   1  -2    1.48    2.20
   4  -1  -2    0.69    3.91
   4   1  -2    1.85    2.82
   4   1  -2    1.65    1.43
  -4   1   2    2.82    3.28
  -4  -1   1   46.38    9.81
  -4   1   1   58.45    8.83
   4  -1  -1   62.26    6.90
   4   1  -1   49.01    8.94
   4  -1  -1   54.72    5.62
   4   1  -1   57.92    8.60
  -4   1   1   56.79   13.21
  -4   1   0   -0.82    2.16
  -4  -1   0    0.52    1.53
  -4  -1   0    0.87    0.89
  -4   1   0    9.85    3.13
   4   1   0    0.24    1.44
  -4   1   0    0.85    1.63
   4   1   0    1.50    1.65
   4   1   0    8.33    3.06
   4  -1   0    1.05    0.74
   4  -1   0    1.63    1.07
  -4   1  -1   82.55   14.29
   4   1   1   81.81   10.45
   4   1   1   90.37   10.70
   4  -1   1   88.14    8.96
   4   1   1   85.63   11.09
   4  -1   1   92.65   10.53
  -4  -1  -1   91.29   10.65
  -4  -1  -1   77.67   12.15
  -4  -1  -1   77.04    7.18
  -4   1  -1   80.74    9.81
  -4   1  -1   88.65    9.85
  -4   1  -2  246.89   18.56
   4   1   2  238.83   17.71
   4   1   2  261.79   20.46
   4  -1   2  258.02   18.38
   4   1   2  264.31   21.66
  -4   1  -2  258.87   18.55
   4  -1   2  248.92   20.12
  -4  -1  -2  254.77   19.96
  -4   1  -2  244.53   24.79
  -4  -1  -2  264.25   23.09
  -4   1  -3   56.62   12.04
  -4  -1  -3   59.49   11.71
  -4   1  -3   54.08    9.58
   4   1   3   61.96   11.00
   4  -1   3   54.05    9.54
   4   1   3   52.45   10.64
   4  -1   3   56.22   10.92
  -4  -1  -3   53.43   10.20
  -4   1  -4    0.63    2.75
  -4  -1  -4   -0.15    1.54
  -4  -1  -4    1.16    2.57
   4   1   4    0.79    1.30
  -4   1  -4    0.73    1.72
   4   1   4    7.53    3.32
   4  -1   4    0.51    2.14
   4  -1   4    4.41    3.79
  -4   1  -5  406.93   32.21
   4   1   5  434.38   36.16
   4  -1   5  461.78   37.13
   4   1   5  433.14   38.08
   4  -1   5  438.94   38.29
  -4  -1  -5  434.93   35.03
  -4  -1  -5  419.70   33.58
  -4  -1  -6  218.80   25.80
  -4   1  -6  246.15   27.02
   4   1   6  242.63   30.22
   4  -1   6  245.51   31.10
   4  -1   6  252.40   32.48
   4   1   6  257.65   32.77
   4   1   7   47.22   15.33
  -4  -1  -7   39.91   11.96
   4  -1   7   48.99   15.54
   4   1   7   44.04   15.45
   4  -1   7   37.81   15.83
  -4   1  -7   40.47   11.77
  -4   1  -8  530.78   22.71
  -4   1  -8  516.44   23.15
  -4  -1  -8  491.27   22.07
  -4   1  -9    3.34    2.62
  -4   1  -9    3.41    2.44
  -4  -1  -9    1.92    0.89
  -4   1 -10   27.95    5.26
  -4   1 -10   36.73    7.40
  -4  -1 -10   26.57    5.48
  -4   1 -11   12.28    3.75
  -4  -1 -11   12.46    4.65
  -4   1 -12   67.90    7.82
  -4  -1 -12   67.34    7.49
  -4  -1 -13    2.02    1.34
  -4   1 -13    2.75    2.08
   4  -2 -16   22.91    3.14
   4  -2 -15    3.91    2.07
   4  -2 -15    1.87    1.71
   4   2 -15    0.69    0.91
   4  -2 -14    7.96    2.94
   4  -2 -14    9.00    4.01
   4   2 -14    4.71    2.20
   4  -2 -14    6.68    2.54
   4  -2 -13  113.35   10.75
   4  -2 -13  106.82   10.26
   4   2 -13  104.04    9.94
   4  -2 -12  147.81   13.23
   4  -2 -12  128.26   11.94
   4  -2 -11    6.59    2.83
   4  -2 -11   11.17    3.42
   4  -2 -10    1.97    2.42
   4  -2 -10    3.48    3.22
   4   2 -10   -0.42    1.66
   4  -2  -9   91.09   18.99
  -4  -2   8   10.71    8.13
   4   2  -8   19.00    9.35
   4  -2  -8   12.32    8.45
   4   2  -8   16.54    7.31
   4   2  -8   16.19    6.55
   4   2  -7   41.51   11.87
   4   2  -7   32.89    9.45
   4   2  -7   36.36    9.29
   4  -2  -7   32.84   10.48
   4   2  -6 1516.17   66.91
   4   2  -6 1354.51   51.93
   4  -2  -6 1506.47   65.33
   4   2  -6 1293.50   55.39
   4   2  -5  859.71   50.08
   4  -2  -5  874.03   51.33
   4   2  -5  779.11   39.38
  -4  -2   5  757.26   51.68
   4   2  -5  727.73   40.17
   4  -2  -4  335.90   35.09
   4   2  -4  344.26   29.82
   4   2  -4  357.29   30.75
  -4  -2   4  352.15   33.14
   4   2  -4  303.46   26.05
   4   2  -3  200.13   21.99
   4  -2  -3  203.88   28.96
  -4   2   3  220.45   30.42
  -4  -2   3  233.20   24.93
   4   2  -3  180.60   19.88
   4   2  -3  203.10   25.23
  -4  -2   2   40.55    9.40
   4   2  -2   37.09    9.34
  -4   2   2   42.34    8.54
   4   2  -2   32.11    9.84
   4   2  -2   28.49    7.69
   4  -2  -2   31.83   10.60
  -4   2   2   31.41   11.06
  -4   2   1 1132.62   41.62
   4   2  -1 1004.63   45.52
   4  -2  -1 1191.02   66.31
   4   2  -1 1061.72   44.62
   4  -2  -1 1076.24   24.10
  -4   2   1 1140.41   60.83
  -4  -2   1 1098.20   45.47
  -4  -2   0   59.67    6.56
   4   2   0   62.80    9.84
   4   2   0   55.71   10.41
   4   2   0   58.84    9.42
   4  -2   0   60.37    7.48
  -4  -2   0   65.07   10.59
  -4   2   0   48.67    5.81
  -4   2   0   64.69   10.04
  -4   2   0   62.79   13.82
  -4   2  -1  640.28   28.38
   4   2   1  698.86   33.33
   4  -2   1  710.16   25.13
   4   2   1  669.47   33.47
   4   2   1  722.29   34.49
   4  -2   1  702.42   29.80
  -4   2  -1  743.92   46.78
  -4  -2  -1  727.91   37.22
  -4   2  -1  694.04   32.41
  -4   2  -2    2.29    2.91
   4  -2   2    2.88    2.25
  -4  -2  -2   11.54    4.73
  -4  -2  -2    3.94    2.58
  -4   2  -2    4.04    3.01
   4   2   2    3.84    2.28
   4  -2   2    5.27    2.62
   4   2   2    4.86    3.03
  -4   2  -2    2.71    2.49
   4   2   2    2.16    1.17
  -4   2  -3  126.82   15.53
   4   2   3  139.98   17.61
   4  -2   3  147.67   16.34
   4   2   3  140.56   18.12
   4  -2   3  129.12   16.89
  -4   2  -3  134.66   15.70
  -4  -2  -3  142.54   16.71
  -4  -2  -3  141.42   18.48
  -4   2  -3  136.93   19.88
  -4  -2  -4   19.71    6.90
   4   2   4   18.67    6.74
   4  -2   4   23.09    7.64
   4   2   4   19.35    7.17
   4  -2   4   21.56    7.60
  -4  -2  -4   21.14    7.38
  -4   2  -4   14.30    5.62
  -4   2  -5    1.31    1.26
  -4  -2  -5    4.17    4.06
  -4  -2  -5    2.93    4.20
   4   2   5    1.44    3.77
   4  -2   5    1.49    3.95
   4   2   5    1.49    4.08
   4  -2   5    2.76    4.24
  -4  -2  -6   29.43    9.99
  -4   2  -6   27.14   10.16
  -4  -2  -6   27.87    9.73
   4   2   6   28.42   11.00
   4  -2   6   36.96   12.39
   4   2   6   25.32   11.63
   4  -2   6   29.00   12.96
  -4  -2  -7   82.87   17.33
   4   2   7  105.74   22.75
  -4   2  -7   90.88   18.50
   4  -2   7  113.63   24.10
   4   2   7   93.99   22.49
   4  -2   7   76.72   21.16
  -4   2  -8  220.98   15.31
  -4   2  -8  186.74   14.19
  -4   2  -9  165.83   13.52
  -4   2  -9  143.88   12.81
  -4  -2  -9  159.43   12.84
  -4   2 -10  302.89   17.61
  -4   2 -10  305.36   19.11
  -4  -2 -10  311.06   18.04
  -4   2 -11    8.69    3.06
  -4   2 -11    7.19    3.41
  -4  -2 -11    8.94    2.96
  -4   2 -12   80.02    8.69
  -4  -2 -12   79.63    7.74
  -4   2 -13    2.23    1.69
   4  -3 -16   14.04    2.31
   4  -3 -15   19.90    3.27
   4   3 -15   27.50    3.89
   4  -3 -15   27.99    4.23
   4  -3 -14   54.11    6.70
   4  -3 -14   50.62    6.55
   4   3 -14   46.54    6.14
   4  -3 -13   13.22    3.96
   4  -3 -13    8.06    2.70
   4   3 -13   11.21    3.72
   4  -3 -12  146.26   13.06
   4  -3 -12  133.75   12.37
   4   3 -12  118.42   10.77
   4  -3 -11  568.47   26.86
   4  -3 -11  568.99   26.68
   4   3 -11  587.45   26.99
   4  -3 -10   37.86    6.94
   4  -3 -10   39.39    6.95
   4   3 -10   38.23    6.78
   4  -3  -9   84.54   19.21
  -4  -3   9   69.01   18.32
   4   3  -9  100.15   19.09
   4   3  -8  355.80   37.86
   4  -3  -8  366.58   36.27
   4   3  -8  367.64   35.32
   4   3  -7   36.40   11.93
   4  -3  -7   38.49   11.21
   4   3  -7   38.39   10.56
   4   3  -6   24.66    8.35
   4   3  -6   30.65   10.21
   4  -3  -6   24.67    8.81
   4   3  -6   31.61    7.24
   4   3  -5 2445.85   88.01
   4   3  -5 2264.29   60.89
   4  -3  -5 2723.23   92.58
  -4  -3   5 2553.23   88.02
   4   3  -5 2273.85   77.54
   4   3  -4  203.16   24.65
  -4   3   4  226.57   23.58
   4  -3  -4  235.33   29.95
   4   3  -4  213.53   21.45
  -4  -3   4  235.48   25.55
   4   3  -4  196.14   22.69
  -4   3   3  385.05   28.45
   4   3  -3  302.70   29.48
   4   3  -3  293.97   28.77
   4  -3  -3  324.68   36.92
  -4  -3   3  394.94   31.37
   4   3  -3  290.81   28.05
  -4   3   2  215.32   20.20
   4   3  -2  191.79   23.19
   4  -3  -2  211.84   30.41
   4   3  -2  173.90   22.49
  -4   3   2  216.15   29.28
  -4  -3   2  212.15   21.08
   4  -3  -1  616.79   50.47
  -4   3   1  637.58   33.75
   4   3  -1  588.20   39.08
   4  -3  -1  607.82   19.63
  -4   3   1  623.01   45.18
  -4  -3   1  637.49   34.59
   4   3  -1  576.88   38.44
   4   3   0  248.25   24.14
   4   3   0  248.86   22.43
   4  -3   0  256.44   16.06
  -4   3   0  251.17   28.07
  -4  -3   0  262.30   22.29
  -4   3   0  263.80   21.75
   4   3   0  240.07   22.96
   4   3   1 1142.69   48.90
   4   3   1 1177.75   49.01
  -4   3  -1 1050.36   37.71
   4  -3   1 1196.49   33.83
   4   3   1 1188.48   50.13
   4  -3   1 1197.32   41.60
  -4   3  -1 1191.66   59.36
  -4  -3  -1 1262.67   51.59
  -4   3  -1 1176.42   46.47
  -4  -3  -2   23.77    7.83
  -4   3  -2   19.95    6.07
   4   3   2   21.38    6.83
   4  -3   2   21.09    6.12
  -4   3  -2   25.27    7.30
   4  -3   2   17.95    4.99
   4   3   2   23.79    7.49
  -4   3  -2   23.38    8.13
   4   3   2   22.57    7.33
  -4  -3  -3   16.85    6.47
  -4   3  -3   15.81    5.85
   4  -3   3   17.77    6.78
  -4   3  -3   18.00    6.42
  -4  -3  -3   17.82    6.29
   4  -3   3   21.61    6.82
   4   3   3   22.87    7.47
   4   3   3   25.25    7.76
  -4   3  -3   26.38    7.62
   4   3   4  378.39   34.85
   4   3   4  385.64   33.83
  -4   3  -4  381.31   31.73
   4  -3   4  418.44   33.54
  -4  -3  -4  346.25   29.68
   4  -3   4  391.92   35.25
  -4  -3  -4  390.87   33.47
  -4  -3  -5   11.10    6.57
   4   3   5   14.84    7.54
   4  -3   5   19.12    8.82
   4   3   5   12.07    7.35
   4  -3   5    6.76    5.89
  -4   3  -5   10.82    6.22
  -4  -3  -5   14.29    6.04
   4   3   6   49.74   15.41
  -4  -3  -6   46.52   12.58
  -4  -3  -6   40.00   12.21
   4   3   6   52.34   14.89
  -4   3  -6   42.86   12.27
   4  -3   6   46.10   14.69
   4  -3   6   42.98   13.92
   4   3   7  127.88   26.87
   4  -3   7  144.70   29.40
  -4  -3  -7  113.72   20.24
  -4   3  -7  136.57   23.28
   4   3   7  155.02   30.41
   4  -3   7  138.77   30.18
  -4  -3  -8  100.31    9.62
  -4   3  -8  126.41   11.76
  -4   3  -8  118.59   11.58
  -4  -3  -9  105.08   10.15
  -4   3  -9  112.70   11.75
  -4   3  -9  123.40   12.01
  -4   3 -10    5.80    3.04
  -4   3 -10    2.82    2.15
  -4   3 -11    0.32    1.41
  -4   3 -11    2.92    2.13
  -4   3 -12   75.99    7.13
  -4   3 -12   81.71    8.70
  -4   3 -13    6.94    2.27
   4  -4 -15   42.39    4.79
   4  -4 -15   48.15    5.33
   4   4 -15   38.65    4.20
   4  -4 -14   52.63    6.44
   4  -4 -14   44.50    5.89
   4   4 -14   47.71    5.72
   4  -4 -13    2.54    1.59
   4  -4 -13    2.61    1.96
   4   4 -13    3.88    2.62
   4  -4 -12    5.92    3.37
   4   4 -12    5.01    2.57
   4  -4 -12    7.16    3.67
   4   4 -12    2.95    1.63
   4  -4 -11    7.18    3.25
   4  -4 -11    3.19    2.81
   4   4 -11    4.21    3.60
   4  -4 -10   99.04   11.20
   4   4 -10   95.22   10.48
   4  -4 -10  100.45   11.18
   4  -4  -9  233.32   31.63
   4   4  -9  219.14   31.33
  -4   4   9  233.34   39.77
   4   4  -9  203.65   27.86
   4   4  -8  110.06   21.16
   4  -4  -8   97.05   18.68
  -4   4   8   93.11   22.02
   4   4  -8   94.47   18.75
   4   4  -7  111.59   19.61
   4   4  -7  125.98   21.24
   4  -4  -7  125.97   20.40
  -4   4   7  122.62   22.85
   4   4  -6  130.28   22.64
  -4   4   6  129.86   21.44
   4  -4  -6  131.86   20.52
   4   4  -6  114.83   18.73
   4   4  -5    0.02    1.45
   4   4  -5    2.14    4.00
   4  -4  -5    6.96    5.30
  -4   4   5    7.83    5.71
  -4   4   4  360.57   30.91
   4   4  -4  316.61   32.89
   4  -4  -4  352.60   36.76
  -4  -4   4  383.00   32.07
   4   4  -4  255.49   28.58
  -4   4   3  132.27   17.78
   4   4  -3   91.09   17.30
   4   4  -3  102.84   18.35
   4   4  -3   91.40   14.40
   4  -4  -3  125.69   22.90
  -4  -4   3  124.88   17.24
  -4   4   2 1109.65   48.78
   4   4  -2  969.66   57.03
   4  -4  -2 1065.44   70.62
   4   4  -2  927.60   49.37
  -4  -4   2 1211.92   50.40
  -4  -4   1   24.51    6.53
   4   4  -1   27.23    9.10
  -4   4   1   25.48    7.66
   4  -4  -1   30.36   10.75
   4   4  -1   23.45    9.05
  -4  -4   0   15.50    5.63
   4  -4   0   21.66    9.89
   4   4   0   14.80    6.20
   4   4   0   15.80    7.25
  -4   4   0   18.18    7.82
  -4   4   0   18.48    7.77
   4   4   1 1866.41   69.66
   4   4   1 1880.92   70.11
   4   4   1 1846.03   72.11
  -4   4  -1 1835.65   72.56
  -4   4  -1 1881.85   64.48
  -4  -4  -2   28.02    8.54
  -4   4  -2   25.51    7.80
  -4   4  -2   24.57    8.19
   4   4   2   25.52    8.84
   4   4   2   25.20    8.58
   4   4   2   27.85    8.93
  -4   4  -2   22.91    7.49
   4   4   3  301.90   30.12
   4   4   3  293.44   29.54
   4  -4   3  357.56   28.74
  -4   4  -3  297.53   28.80
   4   4   3  283.74   29.95
   4  -4   3  335.94   31.97
  -4   4  -3  282.52   26.51
  -4  -4  -3  335.27   31.82
  -4   4  -4   21.27    8.97
  -4  -4  -4   17.85    8.61
   4  -4   4   25.17    9.37
  -4  -4  -4   17.22    7.48
   4   4   4   20.60    9.05
   4  -4   4   29.06   10.61
   4   4   4   13.88    5.81
  -4   4  -5   21.65    8.83
  -4  -4  -5   25.04    9.21
   4   4   5   24.72   10.18
   4  -4   5   29.98   10.65
   4   4   5   21.28   10.72
   4  -4   5   28.57   11.19
  -4  -4  -5   30.50    9.88
  -4  -4  -6    2.98    2.63
  -4  -4  -6    2.65    4.67
  -4   4  -6   -1.07    2.63
   4   4   6    4.17    5.50
   4  -4   6    3.99    4.63
   4   4   6    3.44    5.83
   4  -4   6    0.14    3.71
  -4  -4  -7   65.13   16.87
   4  -4   7   93.02   23.17
  -4   4  -7   82.95    9.37
  -4   4  -7   76.89    9.03
  -4   4  -7   71.07   16.66
  -4  -4  -8    1.85    1.90
  -4   4  -8    2.47    3.62
  -4   4  -8    0.63    1.24
  -4  -4  -9   23.53    5.00
  -4   4  -9   29.31    5.86
  -4   4  -9   35.62    6.79
  -4  -4 -10    3.58    2.80
  -4   4 -10    0.78    1.58
  -4   4 -10   -0.53    2.04
  -4  -4 -11  169.71   11.95
  -4   4 -11  177.40   13.00
  -4   4 -11  184.59   14.57
  -4   4 -12   32.59    4.78
  -4   4 -12   40.28    6.27
  -4  -4 -13   17.17    3.06
  -4   4 -13   23.82    3.97
   4  -5 -15    6.56    1.84
   4  -5 -15    7.93    2.07
   4  -5 -14   19.31    4.19
   4  -5 -14   15.68    3.86
   4   5 -14   15.30    3.20
   4  -5 -13   45.35    6.87
   4  -5 -13   39.72    6.54
   4  -5 -12   28.66    5.96
   4  -5 -12   28.79    5.87
   4   5 -12   26.70    5.53
   4  -5 -11  606.41   27.79
   4  -5 -11  645.62   28.34
   4   5 -11  617.99   28.12
   4  -5 -10   21.68    5.43
   4  -5 -10   20.98    5.25
   4   5 -10   19.82    4.88
   4  -5  -9  129.86   12.43
  -4   5   9  129.68   29.45
   4   5  -9  118.07   11.87
   4   5  -8   10.26    7.69
   4  -5  -8    8.54    5.16
  -4   5   8    9.40    7.54
   4   5  -8    8.71    7.58
  -4   5   7  391.53   42.09
   4   5  -7  340.11   37.88
   4   5  -7  351.08   35.66
   4  -5  -7  376.17   36.55
   4   5  -6   31.52   10.40
   4   5  -6   37.05   12.00
   4  -5  -6   38.69   11.22
  -4   5   6   41.56   13.50
   4   5  -5   13.07    7.13
   4   5  -5   11.46    8.46
  -4   5   5   14.86    7.01
   4  -5  -5   12.54    5.90
  -4   5   4  935.07   52.33
   4   5  -4  795.78   55.79
   4  -5  -4  988.78   59.32
   4   5  -4  784.90   53.93
   4   5  -3   -0.17    2.93
  -4  -5   3    3.17    3.51
   4   5  -3   -1.89    2.81
  -4   5   3    1.72    2.27
   4  -5  -3    5.85    8.54
   4   5  -2  248.62   30.63
   4  -5  -2  287.64   37.49
  -4  -5   2  322.52   27.03
  -4   5   2  286.35   26.70
  -4  -5   1   43.05    9.85
   4   5  -1   30.92   10.15
   4   5  -1   27.12   10.53
  -4   5   1   40.60    9.81
   4  -5  -1   27.04   11.18
   4   5   0  313.82   32.49
   4  -5   0  291.76   37.63
   4   5   0  260.57   32.73
  -4  -5   0  333.61   28.38
  -4   5   0  301.73   27.11
  -4  -5  -1   68.84   13.16
  -4   5  -1   58.38   12.60
   4   5   1   49.15   12.40
   4   5   1   48.70   13.65
   4   5   1   45.57   12.11
   4   5   2  160.68   22.71
   4   5   2  143.11   21.94
  -4   5  -2  149.78   20.37
  -4  -5  -2  168.08   22.74
   4   5   2  140.41   23.34
  -4   5  -3   91.62   16.66
   4   5   3   91.06   18.13
   4   5   3   98.45   20.24
  -4  -5  -3  109.13   19.76
   4   5   3   91.71   18.15
   4   5   4  621.54   50.68
   4   5   4  507.53   44.72
   4   5   4  543.54   49.90
  -4   5  -4  560.51   45.05
  -4  -5  -4  499.32   39.71
   4  -5   4  598.83   51.20
  -4  -5  -4  597.26   47.26
  -4  -5  -5  104.29   19.73
  -4   5  -5  118.87   21.76
   4   5   5  119.53   25.12
  -4  -5  -5  108.35   19.57
   4  -5   5  126.70   25.85
   4   5   5  125.63   23.74
  -4  -5  -6  160.23   25.38
   4   5   6  182.27   31.10
  -4   5  -6  171.35   26.95
   4   5   6  192.58   34.09
   4  -5   6  183.20   35.40
  -4  -5  -6  158.76   24.70
  -4  -5  -7  209.08   15.00
  -4   5  -7  230.03   16.06
  -4   5  -7  224.37   15.13
  -4  -5  -8  132.32   11.90
  -4   5  -8  136.40   12.97
  -4   5  -8  131.72   11.88
  -4  -5  -9   26.77    5.79
  -4   5  -9   24.86    5.70
  -4   5  -9   28.17    6.05
  -4  -5 -10    1.47    2.37
  -4   5 -10    4.57    4.08
  -4   5 -10   -1.12    2.22
  -4  -5 -11    9.38    2.75
  -4   5 -11    8.71    3.61
  -4   5 -11    6.97    2.48
  -4   5 -12   30.09    4.58
  -4   5 -12   33.29    5.39
   4  -6 -15   22.64    3.44
   4  -6 -15   28.65    3.53
   4  -6 -14   13.17    3.30
   4  -6 -14   11.34    2.69
   4   6 -14   13.19    3.71
   4  -6 -14   11.32    2.68
   4  -6 -13   22.80    4.88
   4  -6 -13   21.16    4.40
   4  -6 -12    3.38    2.40
   4  -6 -12    2.21    1.77
   4   6 -12    3.85    2.70
   4  -6 -11   32.76    6.28
   4  -6 -11   30.18    6.17
   4   6 -11   28.06    6.05
   4  -6 -10    3.52    2.52
   4  -6 -10    5.02    2.73
   4   6 -10    3.34    2.89
   4  -6  -9   64.52    9.11
   4  -6  -9   61.31    8.37
   4   6  -9   65.76    9.48
   4   6  -8   13.44    6.47
   4  -6  -8   18.25    9.06
  -4   6   8   27.30   14.09
   4   6  -8   17.83    9.48
   4   6  -7   29.75   11.70
  -4   6   7   47.92   14.69
   4  -6  -7   45.11   12.65
   4   6  -7   27.11   10.46
   4   6  -6   39.18   13.41
   4   6  -6   48.69   16.01
  -4   6   6   49.00   14.99
   4  -6  -6   31.59    9.77
  -4   6   5  798.07   53.69
   4   6  -5  655.15   53.76
   4  -6  -5  757.36   49.18
   4   6  -5  632.48   51.08
   4   6  -4   25.15   11.85
  -4   6   4   28.26    9.01
   4  -6  -4   28.22    9.42
   4   6  -4   27.50   11.46
   4   6  -3  100.43   21.28
   4   6  -3  115.99   23.03
   4  -6  -3  159.83   25.55
  -4  -6   3  159.69   19.78
  -4   6   3  141.94   20.77
   4   6  -2  914.43   62.87
   4  -6  -2 1067.07   70.89
  -4  -6   2 1246.58   54.69
   4   6  -2  850.28   62.90
  -4   6   2 1143.10   57.73
   4   6  -1  628.04   51.19
   4  -6  -1  637.85   57.52
  -4  -6   1  775.65   44.10
  -4   6   1  679.14   43.70
  -4  -6   0    5.56    5.77
  -4   6   0    3.24    2.62
   4   6   0    3.05    3.95
   4  -6   0   -2.28    7.68
   4   6   0   -2.45    6.04
   4   6   1  408.32   40.18
   4  -6   1  381.04   44.64
   4   6   1  345.04   41.47
  -4   6  -1  393.94   34.85
  -4  -6  -1  450.85   37.61
   4   6   2  203.31   29.10
   4   6   2  200.69   28.79
   4  -6   2  210.65   34.15
   4   6   2  170.20   29.75
  -4   6  -2  176.88   24.07
  -4  -6  -2  204.17   27.05
   4   6   3 1568.12   84.55
   4   6   3 1342.12   77.67
   4   6   3 1411.25   87.87
  -4   6  -3 1300.62   65.98
  -4  -6  -3 1541.35   76.48
  -4  -6  -4   25.25   10.65
   4   6   4   19.98    8.94
  -4  -6  -4   24.96    8.66
   4   6   4   28.24   13.19
   4   6   4   31.99   12.09
  -4  -6  -5    7.32    6.89
   4   6   5   -1.02    2.91
   4   6   5    0.94    4.84
   4   6   5   -4.37    8.29
  -4  -6  -5    3.57    5.44
   4  -6   5    4.93    7.43
  -4  -6  -6  172.97   28.46
   4  -6   6  182.55   35.37
   4   6   6  216.40   38.04
  -4  -6  -7  370.20   20.80
  -4   6  -7  367.04   21.20
  -4   6  -7  339.54   18.60
  -4  -6  -8   43.72    7.27
  -4   6  -8   40.99    7.07
  -4   6  -8   45.76    7.77
  -4  -6  -9   48.85    7.65
  -4   6  -9   46.78    7.16
  -4   6  -9   53.76    8.34
  -4  -6 -10   -1.05    1.52
  -4   6 -10    2.75    2.02
  -4   6 -10    2.61    2.17
  -4  -6 -11  122.25   10.29
  -4   6 -11  118.50   10.21
  -4   6 -11  147.57   12.31
  -4  -6 -12   11.35    2.99
  -4   6 -12   10.90    2.80
   4  -7 -15    5.70    1.97
   4  -7 -14    3.85    2.11
   4   7 -14    3.05    1.67
   4  -7 -14    3.15    1.56
   4  -7 -13    6.30    3.17
   4  -7 -13    5.60    2.36
   4  -7 -12    7.92    3.06
   4   7 -12    5.02    3.04
   4  -7 -12    3.41    1.48
   4  -7 -11    2.94    2.37
   4  -7 -11    4.47    3.05
   4   7 -11    5.55    4.03
   4  -7 -10    2.00    2.45
   4   7 -10   -0.57    0.85
   4  -7 -10    0.61    0.89
   4  -7  -9   55.59    7.67
   4  -7  -9   57.91    8.49
   4   7  -9   63.14   10.95
   4  -7  -8    2.35    2.02
   4   7  -8    2.21    2.37
  -4   7   7   31.46   14.87
   4   7  -7   15.55   11.34
   4  -7  -7   21.92    9.76
   4   7  -7   11.80    6.87
   4   7  -6   45.73   14.47
   4   7  -6   43.24   14.79
  -4   7   6   50.62   15.49
   4  -7  -6   48.48   14.01
   4   7  -5   15.07    6.73
   4   7  -5   14.42   10.53
  -4   7   5   19.65    9.10
   4  -7  -5   14.75    7.18
   4   7  -4  282.45   37.16
   4  -7  -4  311.89   31.35
   4   7  -4  288.16   37.99
  -4   7   4  312.61   34.19
  -4   7   3   43.59   12.51
   4   7  -3   39.60   14.74
   4  -7  -3   51.15   13.18
   4   7  -3   36.56   12.83
   4   7  -2  144.34   27.63
   4   7  -2  129.10   25.18
   4  -7  -2  176.78   27.65
  -4  -7   2  184.29   21.60
  -4   7   2  172.05   24.01
   4  -7  -1 1175.08   75.56
   4   7  -1 1161.14   75.66
  -4  -7   1 1429.34   63.28
  -4   7   1 1281.00   64.55
   4   7   0   96.48   21.62
   4  -7   0   90.62   22.71
   4   7   0   87.48   22.92
  -4   7   0  111.27   19.71
  -4  -7   0  128.50   19.91
  -4  -7  -1    2.17    2.20
  -4   7  -1    3.47    3.14
   4   7   1   -2.58    2.63
   4   7   1    2.54    4.95
  -4  -7  -2   43.68   13.57
  -4   7  -2   28.87   11.41
   4   7   2   27.41   13.48
   4   7   2   30.01   13.24
   4   7   3  218.47   34.06
   4   7   3  167.29   34.70
  -4   7  -3  189.06   27.53
  -4  -7  -3  222.29   30.77
   4   7   3  177.81   30.84
  -4  -7  -4    2.89    5.80
   4   7   4    7.31    9.07
   4   7   4   17.91   10.40
   4   7   4   -1.12    4.24
   4   7   5  579.45   60.68
   4   7   5  526.61   58.49
   4   7   5  539.51   68.43
   4  -7   5  476.58   53.16
  -4  -7  -5  467.75   45.05
  -4  -7  -5  521.77   51.04
  -4  -7  -6  326.05   17.01
  -4   7  -6  369.31   18.80
  -4   7  -6  365.69   20.83
  -4  -7  -7   25.54    6.69
  -4   7  -7   20.14    4.66
  -4   7  -7   22.98    5.26
  -4  -7  -8    3.94    2.50
  -4   7  -8    5.81    2.84
  -4   7  -8    2.90    2.65
  -4  -7  -9   14.04    4.60
  -4   7  -9   13.70    4.32
  -4  -7 -10    0.50    0.50
  -4   7 -10    3.65    2.38
  -4  -7 -11    2.15    1.52
  -4   7 -11    2.00    1.58
  -4  -7 -12    2.87    1.68
  -4   7 -12    0.65    0.99
   4  -8 -14   28.36    4.06
   4   8 -14   28.61    3.88
   4  -8 -13   19.81    4.11
   4  -8 -13   19.54    3.77
   4  -8 -12   37.68    6.08
   4  -8 -12   37.81    6.05
   4   8 -12   44.19    6.69
   4  -8 -11   85.32    9.78
   4   8 -11   85.33   10.43
   4  -8 -11   81.98    9.44
   4  -8 -10  109.48   10.94
   4   8 -10  107.67   11.86
   4  -8 -10  111.94   11.51
   4  -8  -9    3.25    2.62
   4  -8  -9    1.70    1.71
   4   8  -9   -0.45    1.82
   4  -8  -8   64.87    8.32
   4  -8  -8   73.04    9.61
   4   8  -8   71.37   11.41
   4   8  -7  276.20   19.88
   4  -8  -6  340.96   34.18
   4   8  -6  306.07   40.33
   4   8  -6  319.42   39.83
  -4   8   6  356.92   42.76
   4   8  -5   46.35   16.49
   4   8  -5   37.83   13.94
  -4   8   5   59.56   16.53
   4  -8  -5   50.26   12.83
   4   8  -4   32.10   13.43
   4   8  -4   33.40   12.77
  -4   8   4   32.85   12.18
   4  -8  -4   41.57   12.33
   4   8  -3   36.23   15.51
   4  -8  -3   36.79   10.39
   4   8  -3   27.78   12.42
  -4   8   3   38.80   13.04
   4   8  -2   16.84    9.25
   4   8  -2   27.54   13.70
  -4   8   2   30.57   10.72
   4   8  -1   25.59   14.01
  -4  -8   1   22.38    8.62
  -4   8   1   18.33    7.93
   4   8  -1   14.48    8.96
  -4  -8   0   97.13   17.88
  -4   8   0   89.41   19.05
   4   8   0   77.10   21.35
  -4  -8  -1   34.36   11.85
  -4   8  -1   37.33   13.63
   4   8   1   28.32   12.75
   4   8   1   25.40   14.99
  -4  -8  -2   39.28   14.92
  -4   8  -2   37.20   13.16
   4   8   2   27.66   16.61
   4   8   2   39.21   15.81
  -4  -8  -3   82.97   23.25
   4   8   3  105.24   28.41
   4   8   3   96.10   29.33
  -4  -8  -4   -1.20    3.48
   4   8   4    3.51    6.07
   4   8   4    5.45    6.25
  -4  -8  -5  152.28   12.92
  -4  -8  -5  139.46   11.61
  -4   8  -5  137.40   11.36
  -4   8  -5  141.18   13.05
  -4  -8  -6  124.43   12.15
  -4   8  -6  114.32   10.70
  -4  -8  -6  108.14   10.52
  -4   8  -6  117.11   12.09
  -4  -8  -7    5.21    3.75
  -4  -8  -7    3.56    1.22
  -4   8  -7    2.49    2.12
  -4   8  -7    2.17    2.11
  -4  -8  -8    8.05    3.29
  -4   8  -8   11.01    3.99
  -4   8  -8   14.57    6.22
  -4  -8  -9   25.23    6.33
  -4   8  -9   19.07    4.40
  -4   8  -9   17.62    4.84
  -4  -8 -10   14.46    4.32
  -4   8 -10   13.06    3.63
  -4  -8 -11    9.30    2.48
  -4   8 -11    8.13    2.19
  -4  -8 -12   40.24    4.44
  -4   8 -12   43.65    4.70
   4  -9 -14    8.37    1.97
   4   9 -14    5.89    1.62
   4  -9 -13    3.68    1.60
   4   9 -13    3.89    1.60
   4  -9 -13    3.85    1.69
   4  -9 -12   44.63    6.19
   4  -9 -12   41.57    5.75
   4   9 -12   46.02    6.35
   4  -9 -11    7.41    2.68
   4  -9 -11   11.77    3.78
   4   9 -11    8.48    4.63
   4  -9 -10   26.83    5.21
   4   9 -10   29.88    6.08
   4  -9 -10   32.65    5.87
   4  -9  -9   -0.43    1.63
   4  -9  -9   -0.32    1.61
   4   9  -9    0.29    1.75
   4  -9  -8  130.49   11.27
   4  -9  -8  157.01   13.29
   4   9  -8  153.87   15.20
  -4  -9   7    4.78    2.41
   4   9  -7    5.92    5.02
   4   9  -6   84.18   11.17
   4   9  -5   34.48   14.04
   4   9  -5   32.35   13.34
  -4   9   5   41.60   14.58
   4   9  -4  284.41   42.83
   4   9  -4  365.31   46.93
  -4   9   4  407.99   43.45
   4   9  -3   20.38   11.36
   4   9  -3   12.14    8.86
  -4   9   3   21.69    8.58
   4   9  -2  138.27   29.47
   4   9  -2  157.14   33.02
  -4   9   2  179.49   27.80
   4   9  -1   84.98   25.45
  -4   9   1   94.39   21.05
   4   9  -1   78.93   23.39
  -4  -9   0  116.21   20.42
  -4   9   0  101.64   21.98
   4   9   0  108.38   27.08
  -4  -9  -1   -0.74    2.89
  -4   9  -1    2.47    4.78
   4   9   1    2.12   10.79
  -4   9  -2   32.79   13.21
  -4  -9  -2   34.07   15.27
   4   9   2   48.05   22.00
   4   9   2   38.14   20.25
  -4  -9  -3    1.67    5.71
   4   9   3    5.79   12.15
   4   9   3   -1.05    6.98
  -4  -9  -4   82.65    9.08
  -4   9  -4   79.83    8.76
  -4  -9  -4   85.56    9.63
  -4  -9  -5  117.93   11.63
  -4  -9  -5  110.32   11.03
  -4   9  -5  103.06    9.92
  -4  -9  -6   88.12   10.52
  -4   9  -6   75.17    8.96
  -4  -9  -6   86.68   10.09
  -4  -9  -7   82.85    9.98
  -4  -9  -7   71.81    8.68
  -4   9  -7   76.38    8.75
  -4  -9  -8   12.09    4.05
  -4   9  -8    9.43    3.06
  -4  -9  -8   10.87    3.75
  -4  -9  -9    2.67    2.30
  -4   9  -9    3.37    1.00
  -4  -9 -10    7.18    2.73
  -4   9 -10    0.37    1.55
  -4  -9 -11   -0.40    0.48
  -4   9 -11    0.62    0.97
   4 -10 -13   22.27    3.59
   4  10 -13   21.07    3.34
   4 -10 -12    6.03    2.30
   4 -10 -12    9.42    3.77
   4  10 -12    5.39    2.60
   4 -10 -11   15.88    4.30
   4 -10 -11   20.52    4.38
   4  10 -11   13.86    3.77
   4 -10 -10   10.59    3.05
   4 -10 -10   11.36    3.36
   4  10 -10   12.99    4.43
   4 -10  -9   27.98    5.26
   4  10  -9   27.30    5.76
   4 -10  -9   23.59    4.88
   4 -10  -8    3.81    2.42
   4  10  -8    3.62    3.32
   4 -10  -8    2.81    1.64
  -4 -10   7   12.13    4.46
   4  10  -7   12.02    5.09
   4  10  -6  267.74   20.69
   4  10  -5  115.14   13.55
  -4  10   4   90.37   21.76
   4  10  -4   68.66   10.69
   4  10  -3   96.19   25.29
  -4  10   3   97.30   22.78
   4  10  -3   74.13   23.94
   4  10  -2    8.69    6.88
  -4  10   2   17.52   10.49
   4  10  -2    2.33    7.81
   4  10  -1   57.46   20.43
  -4  10   1   84.27   20.53
   4  10  -1   57.44   22.04
   4  10   0   67.67   23.08
  -4  10   0  124.37   25.64
   4  10   0  144.90   39.13
  -4 -10  -1   23.75   11.55
  -4  10  -1   21.30   12.16
   4  10   1   22.23   16.98
  -4 -10  -2  192.19   14.25
  -4 -10  -3   60.47    7.92
  -4 -10  -3   59.44    7.90
  -4 -10  -4   12.62    3.66
  -4 -10  -4   10.48    3.66
  -4 -10  -5   60.54    8.46
  -4  10  -5   68.70    8.76
  -4 -10  -5   75.00   10.73
  -4 -10  -6    3.47    2.42
  -4 -10  -6    4.61    2.47
  -4  10  -6    5.69    3.01
  -4 -10  -7   30.82    6.77
  -4 -10  -7   30.23    6.47
  -4  10  -7   25.08    5.12
  -4 -10  -8   13.27    4.04
  -4 -10  -8   15.30    3.83
  -4  10  -8    9.51    2.92
  -4 -10  -9   16.27    4.17
  -4  10  -9   12.53    3.60
  -4 -10 -10  104.87    8.94
  -4  10 -10   97.41    8.55
  -4 -10 -11   31.34    4.34
  -4  10 -11   24.15    3.57
   4  11 -13    2.29    0.79
   4 -11 -12    3.16    1.80
   4  11 -12    0.55    0.99
   4  11 -12    0.56    0.95
   4 -11 -11    9.75    2.95
   4 -11 -11    8.13    2.21
   4  11 -11    5.81    2.53
   4 -11 -10   38.70    5.71
   4 -11 -10   35.43    5.05
   4  11 -10   46.18    8.00
   4 -11  -9   23.69    4.63
   4  11  -9   23.53    5.44
   4  11  -8    1.27    4.51
  -4 -11   7   -0.43    0.99
   4  11  -7   29.42    7.47
   4  11  -6   94.79   12.56
   4  11  -5    1.78    3.10
   4  11  -4  334.06   24.27
   4  11  -3   45.05    9.27
  -4 -11   2  645.12   27.34
   4  11  -2  528.80   30.50
  -4 -11   1   40.29    6.69
   4  11  -1   31.77    7.53
  -4 -11   0  157.71   13.38
   4  11   0  128.73   14.89
   4  11   0  115.32   13.16
  -4 -11  -1   19.66    4.64
   4  11   1   20.39    5.64
   4  11   1   17.64    5.70
  -4 -11  -2   68.98    9.05
  -4 -11  -3   34.25    6.13
  -4 -11  -3   37.30    6.86
  -4 -11  -4  112.26   10.79
  -4 -11  -4  117.75   11.67
  -4 -11  -5   -0.57    1.42
  -4 -11  -5   -0.83    0.89
  -4 -11  -6    3.50    1.51
  -4 -11  -6    1.73    2.57
  -4  11  -6    5.29    2.85
  -4 -11  -7    7.34    2.82
  -4  11  -7    5.17    2.29
  -4 -11  -8  122.61   10.40
  -4 -11  -8  128.69   10.71
  -4  11  -8  139.84   10.75
  -4 -11  -9   48.77    6.05
  -4  11  -9   54.36    6.46
  -4 -11  -9   63.24    6.37
  -4 -11 -10   13.59    2.80
  -4  11 -10   11.39    2.53
   4  12 -12    2.62    1.39
   4  12 -12    6.29    2.27
   4 -12 -11    4.81    1.81
   4  12 -11    6.69    2.21
   4  12 -11    5.77    2.12
   4  12 -10   15.78    4.29
   4  12  -9    2.03    2.38
   4  12  -8    3.65    2.57
  -4 -12   7    8.62    3.45
   4  12  -7    8.27    3.91
   4  12  -6  144.15   15.50
   4  12  -5   30.94    7.92
   4  12  -4   -0.97    1.93
   4  12  -3    3.03    3.37
  -4 -12   2   21.72    5.34
   4  12  -2   23.58    6.98
   4  12  -1   10.33    5.39
  -4 -12   1   11.66    4.08
  -4 -12   0   37.00    6.89
   4  12   0   29.06    7.93
   4  12   0   29.99    7.04
   4  12   1   24.45    6.56
  -4 -12  -1   35.96    6.65
   4  12   1   38.64    9.34
  -4 -12  -2   14.15    4.12
   4  12   2   10.98    5.49
   4  12   2   16.72    7.56
  -4 -12  -3  107.24   10.90
  -4 -12  -3  111.54   10.80
   4  12   3   94.09   15.28
  -4 -12  -4   31.96    5.64
  -4 -12  -4   34.90    6.62
   4  12   4   30.41    8.89
  -4 -12  -5    5.15    2.34
  -4 -12  -5    8.07    5.23
  -4 -12  -6    7.01    2.50
  -4 -12  -6    9.27    3.10
  -4 -12  -7   12.14    3.44
   4  12   7    7.93    4.80
  -4  12  -7    6.58    2.46
  -4 -12  -7    9.21    3.09
  -4 -12  -8   51.16    6.13
  -4 -12  -8   50.67    6.08
  -4  12  -8   49.15    6.13
  -4 -12  -9    1.46    0.82
  -4 -12  -9    0.47    0.94
  -4  12  -9    5.70    1.88
   4  12   9    3.87    9.96
   4  13 -11   14.46    3.39
   4  13 -11   10.70    2.54
   4  13 -10  108.50    8.07
   4  13 -10  124.98   10.09
   4  13  -9    4.44    2.73
   4  13  -8    2.40    1.93
   4  13  -7   48.16    8.14
  -4 -13   6    4.86    2.49
   4  13  -6   -0.75    1.52
   4  13  -5   52.50    9.78
   4  13  -4   12.21    5.63
   4  13  -3    9.71    4.89
  -4 -13   2   64.58    9.12
   4  13  -2   61.65   11.71
   4  13  -1  157.06   17.84
   4  13  -1  105.06   12.21
  -4 -13   1  150.05   13.22
  -4 -13   0   36.03    7.79
   4  13   0   19.53    6.97
   4  13   0   18.50    6.32
   4  13   1   45.88    9.48
  -4 -13  -1   66.22    8.77
   4  13   1   54.41   10.97
   4  13   2   16.52    6.19
   4  13   2    8.21    5.47
  -4 -13  -2   12.70    5.63
   4  13   3    2.26    4.76
  -4 -13  -3    3.29    2.07
  -4 -13  -4    7.25    2.94
  -4 -13  -4    5.55    2.30
   4  13   4    4.42    1.70
  -4 -13  -5   21.53    4.25
  -4 -13  -5   18.41    4.08
   4  13   5   19.90    6.96
  -4 -13  -6   15.54    3.51
  -4 -13  -6   19.59    4.42
   4  13   6   23.78    7.72
  -4 -13  -7    3.51    1.75
  -4 -13  -7    5.15    1.98
  -4 -13  -8   92.99    7.29
  -4 -13  -8   94.62    7.51
   4  13   9   14.95    9.96
   4  14 -10    9.20    2.41
   4  14  -9   37.08    5.85
   4  14  -8   51.19    7.31
   4  14  -7    5.23    2.91
  -4 -14   6   11.57    3.37
   4  14  -6   14.40    5.00
   4  14  -5   69.47   11.18
   4  14  -4   56.70   11.02
   4  14  -3   13.40    8.15
   4  14  -2   32.57    8.40
  -4  14   2    3.94    2.55
   4  14  -1    8.08    6.52
  -4 -14   1    2.08    2.14
  -4 -14   0   34.87    6.13
   4  14   0   37.11    8.66
   4  14   0   36.37    9.41
   4  14   1  138.04   16.58
   4  14   1  119.76   14.37
  -4 -14  -1  136.47   12.11
  -4 -14  -2   10.17    3.72
   4  14   2    6.30    2.95
  -4 -14  -3   32.53    5.65
   4  14   3   38.46    8.86
   4  14   3   30.56    7.46
  -4 -14  -4   14.04    3.44
   4  14   4   38.32    9.42
  -4 -14  -5    6.52    2.39
   4  14   5    7.89    5.56
  -4 -14  -6    2.61    1.12
   4  14   6   13.15    8.21
   4  14   7   10.71    3.81
  -4 -14  -7   10.79    2.45
  -4 -14  -8    2.53    1.07
   4  14   8    0.87    4.09
   4 -15  -9   17.81    2.68
   4  15  -9   19.15    3.58
   4 -15  -8    4.47    1.54
   4  15  -8    7.35    3.46
   4  15  -7   32.99    6.08
  -4 -15   6    1.89    1.36
   4  15  -6    2.74    2.21
  -4 -15   5   28.41    5.23
   4  15  -5   27.90    5.86
   4  15  -4    8.88    4.19
   4  15  -3   54.26   10.20
  -4  15   3   39.81    8.11
   4  15  -2    5.19    3.63
  -4  15   2   14.06    6.36
   4  15  -1   56.42   10.56
  -4 -15   1   53.22    6.77
   4  15   0   11.58    5.53
  -4 -15   0    6.43    2.73
  -4 -15  -1    1.31    2.10
   4  15   1   10.26    6.71
  -4 -15  -2    2.21    2.24
   4  15   2    3.02    2.99
  -4 -15  -3    4.10    2.01
   4  15   3   10.60    4.77
   4  15   3    4.16    4.04
  -4 -15  -4   -0.12    0.67
   4  15   4    3.06    3.87
   4  15   5   67.50   11.62
  -4 -15  -5   92.49   11.65
  -4 -15  -6    4.17    1.53
   4  15   6   12.93    5.67
  -4 -15  -7   17.83    2.66
   4  15   7   28.92    9.42
   4  16  -8    0.39    0.81
   4  16  -7    9.65    2.72
  -4  16   7   16.24    5.57
   4  16  -6    1.29    1.47
  -4  16   6    2.39    2.59
  -4 -16   5   26.94    4.47
   4  16  -5   35.48    6.30
  -4  16   5   38.07    7.14
  -4 -16   4    4.41    2.83
   4  16  -4    2.15    1.98
  -4  16   4    2.14    2.71
   4  16  -3   10.67    4.49
  -4  16   3    5.89    2.35
   4  16  -2   28.67    7.78
   4  16  -1   68.82   10.64
  -4 -16   0    4.90    2.20
   4  16   0    5.62    3.90
  -4 -16  -1   36.81    5.04
   4  16   1   46.66    8.41
  -4 -16  -2    2.76    1.69
   4  16   2    8.15    5.36
  -4 -16  -3   28.22    4.08
  -4 -16  -4   10.62    2.63
  -4 -16  -5    4.18    1.32
   4  17  -6    6.83    2.39
   4  17  -5   32.16    4.78
  -4 -17   4    0.58    0.96
   4  17  -4    1.00    0.63
  -4 -17   3    4.13    1.77
   4  17  -3    6.22    3.18
   4  17  -2    1.46    1.54
   4  17  -1   83.81    9.73
   4  17   0   19.55    4.88
  -4 -17  -1    3.84    1.62
   4  17   1   10.79    4.55
  -4 -17  -2    9.89    2.15
  -4 -17  -3   -0.14    0.52
   5   0 -16    0.90    1.18
   5   0 -15    2.44    1.53
   5   0 -14    1.07    0.73
   5   0 -13  178.79   13.26
   5   0 -13  153.24   11.16
   5   0 -12    0.90    2.72
   5   0 -12   -1.61    1.76
   5   0 -11   15.76    5.07
   5   0 -11   10.17    3.70
   5   0 -10    0.31    0.80
   5   0  -9  680.85   48.86
   5   0  -8    1.37    2.88
   5   0  -7  452.66   36.90
   5   0  -6   -0.75    2.00
   5   0  -6    8.68    4.13
   5   0  -5  548.50   36.31
   5   0  -5  595.60   47.26
  -5   0   5  565.39   55.10
   5   0  -4   -0.54    2.08
   5   0  -4   -3.52    5.51
  -5   0   4    3.98    4.88
   5   0  -3 1381.64   51.74
  -5   0   3 1270.36   70.18
   5   0  -2   -0.43    0.82
  -5   0   2    1.50    2.66
   5   0  -2    5.99    9.79
  -5   0   2    0.39    1.64
  -5   0   1   11.37    5.78
   5   0  -1   13.55    4.82
  -5   0   1   16.39    4.80
   5   0  -1   13.63    3.97
  -5   0   0    0.83    0.95
  -5   0   0   -0.55    0.93
   5   0   0    1.75    0.70
   5   0   1  271.26   18.91
   5   0   1  268.50   21.28
  -5   0  -1  251.58   26.04
  -5   0  -1  273.35   19.06
  -5   0  -1  251.28   17.75
  -5   0  -2    0.81    1.31
  -5   0  -2    1.19    2.52
   5   0   2    1.37    2.06
   5   0   2    0.74    1.63
  -5   0  -3   10.99    5.86
  -5   0  -3   11.83    5.40
   5   0   3   10.98    4.52
   5   0   3    8.39    4.69
  -5   0  -4    1.39    3.08
   5   0   4    1.00    1.28
  -5   0  -4    3.86    2.83
   5   0   4    2.10    4.29
  -5   0  -5  166.71   21.71
   5   0   5  185.05   25.02
   5   0   5  166.32   24.99
   5   0   6    3.89    2.91
  -5   0  -6   -1.87    2.58
  -5   0  -7  145.75   11.26
  -5   0  -7  164.17   12.58
  -5   0  -8    3.51    1.83
  -5   0  -8    2.38    2.93
  -5   0  -9  148.30   12.62
  -5   0 -10    1.68    1.52
  -5   0 -11    3.65    1.68
  -5   0 -11    5.60    2.52
  -5   0 -12    1.50    1.76
   5  -1 -16    4.41    1.45
   5   1 -15   11.90    2.67
   5  -1 -15   14.58    3.13
   5  -1 -14   24.87    4.30
   5  -1 -14   16.66    3.48
   5   1 -14   21.33    4.01
   5  -1 -13   13.44    3.94
   5  -1 -13   12.02    3.68
   5  -1 -12   89.98   10.43
   5   1 -12   80.36    9.55
   5  -1 -12   77.92    8.92
   5  -1 -11  149.39   13.06
   5  -1 -11  158.87   14.56
   5   1 -11  157.56   14.24
   5  -1 -10  108.05   11.06
   5  -1  -9    0.55    2.56
   5   1  -9   -1.74    3.68
   5  -1  -8  116.55   19.84
   5   1  -8  121.41   19.05
   5   1  -7   21.35    9.25
   5   1  -7   20.12    7.30
   5  -1  -7   20.10    8.51
   5   1  -6   10.33    6.74
   5  -1  -6    9.41    6.27
   5   1  -6    5.76    4.85
   5   1  -5   35.89    9.44
   5   1  -5   48.42   13.25
   5  -1  -5   37.29   12.09
  -5  -1   5   39.25   14.27
   5   1  -4   63.28   11.33
   5  -1  -4   74.63   12.18
   5   1  -4   65.42   12.55
   5   1  -4   57.24   14.93
   5  -1  -4   57.46   16.00
  -5   1   4   58.92   16.74
  -5  -1   4   72.18   17.26
   5   1  -3    7.26    4.99
   5  -1  -3   15.69    4.92
   5   1  -3    7.46    4.00
   5  -1  -3    9.60    5.61
   5   1  -3    2.24    3.98
  -5   1   3    8.05    4.58
  -5  -1   3    7.94    3.45
  -5   1   2  796.00   38.56
   5   1  -2  635.92   34.64
   5  -1  -2  707.41   55.60
   5   1  -2  681.67   50.88
  -5   1   2  751.06   53.77
  -5  -1   2  753.24   46.94
  -5  -1   1    2.27    3.14
   5   1  -1    0.39    0.76
  -5   1   1    3.59    2.13
  -5  -1   1    1.73    2.34
   5   1  -1    2.10    2.05
  -5   1   1   -1.49    3.24
  -5  -1   0   98.01   10.86
  -5   1   0   87.25   17.45
   5   1   0   82.78   10.94
   5   1   0   72.85   10.80
   5   1   0  108.61   13.25
   5  -1   0  104.65   11.01
  -5  -1   0   99.20   10.89
  -5  -1   0   87.41   14.47
  -5   1   0  102.48   13.11
  -5   1  -1   87.94   16.95
  -5  -1  -1   71.00   13.22
   5   1   1   74.69   10.94
   5   1   1   87.32   12.42
  -5  -1  -1   84.87   11.13
  -5   1  -1   76.62   10.90
   5  -1   1   82.24   11.33
  -5   1  -2   68.30   14.91
  -5  -1  -2   65.58   13.25
   5   1   2   80.54   12.68
  -5   1  -2   72.30   10.72
   5  -1   2   79.28   12.38
   5   1   2   71.85   12.57
  -5  -1  -2   74.69   11.63
  -5   1  -3  398.72   28.40
   5   1   3  428.55   32.14
   5  -1   3  432.12   29.86
   5   1   3  422.59   33.43
   5  -1   3  420.95   32.26
  -5   1  -3  442.94   37.69
  -5  -1  -3  445.34   35.71
  -5  -1  -3  390.32   29.59
  -5   1  -4   51.99   12.95
  -5  -1  -4   41.11   11.32
  -5  -1  -4   37.34   10.84
   5   1   4   39.17   10.64
   5  -1   4   47.86   11.61
  -5   1  -4   38.54    9.27
   5   1   4   43.73   12.02
   5  -1   4   44.71   11.57
  -5  -1  -5   22.53    8.71
  -5  -1  -5   15.32    6.71
   5   1   5   14.54    8.26
   5  -1   5   21.64    9.16
   5  -1   5   20.34    9.06
   5   1   5   27.21   10.66
  -5   1  -5   14.88    6.30
  -5  -1  -6   -0.63    2.65
   5   1   6   16.01    9.94
   5   1   6    3.86    3.89
   5  -1   6    0.80    2.02
   5  -1   6    8.22    8.48
  -5   1  -6    3.80    4.60
  -5   1  -7  321.98   17.98
  -5   1  -7  316.97   18.15
  -5   1  -8   21.39    4.74
  -5   1  -8   20.76    4.76
  -5  -1  -8   17.52    4.35
  -5   1  -9  331.13   18.13
  -5   1  -9  307.20   18.22
  -5  -1  -9  319.75   18.15
  -5   1 -10    3.01    2.54
  -5   1 -10    0.69    1.70
  -5   1 -10    3.02    2.69
  -5  -1 -10    3.32    2.18
  -5  -1 -11   57.94    7.48
  -5   1 -11   69.38    8.52
  -5  -1 -11   78.28    8.46
  -5  -1 -12    8.37    2.93
  -5   1 -12    2.55    1.38
   5  -2 -16   -0.17    0.48
   5  -2 -15    2.79    1.40
   5   2 -15    1.10    0.99
   5  -2 -15    2.87    1.52
   5  -2 -14   18.51    3.77
   5  -2 -14   18.27    3.81
   5   2 -14   19.43    3.96
   5  -2 -13   10.54    4.91
   5  -2 -13    7.18    2.98
   5  -2 -12   34.34    6.79
   5  -2 -12   28.27    5.37
   5  -2 -11  395.44   23.19
   5  -2 -11  385.54   21.62
   5  -2 -10  164.65   14.92
  -5   2  10  149.23   17.59
   5   2 -10  131.81   11.97
   5  -2  -9   22.38   10.40
   5   2  -8  146.28   24.05
   5  -2  -8  167.70   24.23
   5   2  -7   11.28    6.28
   5   2  -7   10.35    5.35
   5  -2  -7    7.86    5.12
   5   2  -6   12.97    6.10
   5   2  -6    4.54    3.24
   5  -2  -6   17.10    8.45
   5   2  -6   10.44    4.47
   5   2  -5   66.16   12.43
   5   2  -5   75.59   15.28
   5   2  -5   71.17   14.16
   5  -2  -5   74.25   17.76
  -5  -2   5   76.51   17.25
   5  -2  -4  116.75   23.61
   5   2  -4  113.03   17.38
   5   2  -4  102.42   19.40
  -5  -2   4  136.46   22.71
   5   2  -4  103.96   15.90
  -5   2   3  446.73   32.48
   5   2  -3  380.56   30.26
   5  -2  -3  355.65   40.58
   5   2  -3  338.80   35.91
  -5   2   3  422.66   45.95
  -5  -2   3  499.05   39.67
   5   2  -3  330.84   28.67
  -5   2   2  186.92   19.67
   5   2  -2  147.56   18.32
   5  -2  -2  166.00   29.20
   5   2  -2  150.99   23.65
   5   2  -2  143.32   17.91
  -5   2   2  178.21   27.42
  -5  -2   2  196.64   22.26
  -5   2   1  386.85   27.17
  -5  -2   1  390.56   22.39
   5   2  -1  274.07   24.85
   5  -2  -1  375.58   41.16
   5   2  -1  340.76   27.78
  -5   2   1  393.93   39.64
  -5  -2   1  366.79   29.38
  -5  -2   0   21.56    6.99
   5   2   0   22.19    6.78
  -5   2   0   28.97    7.65
   5   2   0   15.50    5.33
   5   2   0   22.45    6.82
   5  -2   0   22.88    5.09
  -5   2   0   31.53   10.75
   5   2   1  150.87   18.09
   5   2   1  156.10   17.78
   5   2   1  173.54   19.33
  -5  -2  -1  152.89   16.25
   5  -2   1  174.95   16.56
  -5   2  -1  163.33   24.95
  -5  -2  -1  164.58   19.75
  -5   2  -1  162.60   17.59
   5   2   2  458.70   33.23
   5   2   2  428.98   32.18
   5  -2   2  443.81   30.31
  -5  -2  -2  409.53   28.97
  -5   2  -2  450.80   40.68
  -5   2  -2  433.95   29.87
  -5  -2  -2  451.12   34.94
   5   2   3  221.34   24.63
   5   2   3  237.15   25.80
   5  -2   3  224.67   24.05
  -5   2  -3  213.45   27.19
  -5  -2  -3  208.93   22.21
  -5  -2  -3  215.68   25.57
  -5   2  -4  775.45   44.54
   5   2   4  874.32   53.18
   5   2   4  833.51   53.22
   5  -2   4  856.64   53.44
  -5  -2  -4  805.18   51.37
  -5  -2  -4  766.44   46.31
  -5  -2  -5   -1.24    1.92
  -5   2  -5    4.64    4.35
  -5  -2  -5    1.76    2.57
   5   2   5    0.95    1.87
   5   2   5    2.45    4.16
   5  -2   5    1.91    2.84
   5   2   6   18.71   11.44
  -5  -2  -6   16.46    8.69
   5   2   6   15.70    9.14
   5  -2   6   11.46    9.56
  -5   2  -7  444.08   22.29
  -5   2  -7  397.88   20.84
  -5   2  -8  237.13   16.33
  -5   2  -8  210.97   16.50
  -5   2  -8  206.03   15.24
  -5   2  -9   26.14    5.61
  -5   2  -9   28.86    5.85
  -5   2  -9   25.31    5.36
  -5   2 -10   12.17    4.79
  -5   2 -10    9.31    3.19
  -5   2 -11    7.89    2.61
  -5   2 -11   12.44    3.27
  -5  -2 -12   38.31    6.30
  -5   2 -12   39.34    5.37
   5  -3 -15   17.34    3.05
   5   3 -15   17.06    2.89
   5  -3 -15   23.74    4.02
   5  -3 -14   30.76    4.99
   5  -3 -14   25.39    4.33
   5   3 -14   24.38    4.29
   5  -3 -13   10.95    3.33
   5   3 -13    8.85    2.89
   5  -3 -12   66.51    9.10
   5  -3 -12   60.71    8.33
   5  -3 -11   77.96   10.45
   5  -3 -11   70.28    9.66
   5   3 -11   80.37   10.33
  -5   3  10   25.93    8.46
   5  -3 -10   29.93    6.41
   5   3 -10   29.51    5.95
   5  -3  -9   42.19   13.11
   5   3  -8  111.36   21.33
   5  -3  -8  103.36   19.77
   5   3  -7  191.85   26.25
   5  -3  -7  187.91   26.00
   5   3  -7  168.45   21.81
   5   3  -6  875.48   55.55
   5  -3  -6  961.71   57.92
   5   3  -6  804.72   47.22
   5   3  -5    2.89    4.15
   5   3  -5    2.73    4.63
   5   3  -5    2.25    2.42
   5  -3  -5    2.98    3.51
  -5   3   5   -2.60    2.82
  -5  -3   5   -1.37    4.39
  -5   3   4  947.73   52.55
   5   3  -4  781.61   49.43
   5   3  -4  797.16   50.55
   5  -3  -4  886.25   65.67
  -5  -3   4 1000.35   59.00
   5   3  -4  740.35   46.17
  -5  -3   3   97.69   17.29
   5   3  -3   60.67   13.86
   5   3  -3   64.61   14.50
  -5   3   3   92.52   15.30
   5  -3  -3   68.32   18.78
   5   3  -3   70.67   16.19
  -5  -3   2   38.01    9.85
   5   3  -2   26.74    8.84
  -5   3   2   34.10    8.85
   5  -3  -2   37.12   15.59
   5   3  -2   31.17   10.63
   5   3  -2   28.12   10.37
  -5   3   2   27.57   12.47
  -5  -3   1    8.22    4.20
   5   3  -1   10.47    5.38
  -5   3   1    9.36    4.57
   5  -3  -1    5.84    7.06
   5   3  -1    4.57    3.90
  -5   3   1    6.86    7.79
   5   3   0  344.74   30.80
   5   3   0  386.46   33.13
  -5   3   0  420.46   41.59
  -5  -3   0  420.68   31.79
  -5   3   0  409.99   30.40
  -5  -3  -1   39.35    9.98
  -5   3  -1   36.31    9.25
   5   3   1   26.40    8.76
   5   3   1   30.29    8.98
   5   3   1   33.35    9.26
   5  -3   1   36.06    7.51
  -5   3  -1   49.62   14.39
   5   3   2  388.49   33.50
   5   3   2  431.68   34.86
   5   3   2  411.43   34.50
  -5  -3  -2  425.06   30.89
   5  -3   2  430.88   30.96
  -5   3  -2  442.06   40.25
  -5   3  -2  395.40   30.80
  -5  -3  -2  433.01   35.44
  -5   3  -3  187.89   21.49
   5   3   3  190.55   23.87
   5   3   3  179.05   23.96
   5   3   3  198.45   25.73
   5  -3   3  197.96   23.65
  -5  -3  -3  180.81   21.61
  -5   3  -3  191.16   25.43
  -5  -3  -3  181.80   24.23
  -5  -3  -4   74.31   15.74
   5   3   4   76.72   16.47
   5   3   4   66.18   15.82
   5  -3   4   77.22   16.68
  -5  -3  -4   60.02   12.99
  -5  -3  -5   55.35   14.17
  -5  -3  -5   52.60   14.63
   5   3   5   60.33   16.15
   5   3   5   53.52   15.60
   5  -3   5   61.27   17.43
   5   3   6   13.93    9.80
  -5  -3  -6    5.62    3.02
  -5  -3  -6    8.08    5.07
   5   3   6    9.02    8.03
   5  -3   6    9.18    7.58
  -5  -3  -7   65.60    7.96
  -5   3  -7   78.87    9.82
  -5   3  -7   85.15    9.88
  -5   3  -7   79.03    9.71
  -5  -3  -8  378.48   19.16
  -5   3  -8  406.20   22.37
  -5   3  -8  454.19   22.93
  -5   3  -8  408.53   21.77
  -5   3  -9  209.28   15.48
  -5   3  -9  195.39   15.03
  -5   3 -10    5.91    3.86
  -5   3 -10    2.77    1.46
  -5   3 -11   21.85    4.10
  -5   3 -11   25.88    4.86
  -5  -3 -12   16.35    3.80
  -5   3 -12   18.00    3.11
  -5   3 -12   20.78    4.12
   5  -4 -15    2.81    1.38
   5  -4 -15    2.03    0.76
   5  -4 -14    7.29    2.50
   5  -4 -14    2.64    1.24
   5  -4 -13    8.28    2.99
   5  -4 -13    5.95    2.65
   5   4 -13    6.79    2.62
   5  -4 -12   66.58    9.15
   5  -4 -12   71.06    9.02
   5  -4 -11  160.28   14.77
   5   4 -11  145.78   13.23
   5  -4 -11  154.18   14.01
   5  -4 -10   17.44    5.44
   5   4 -10   13.20    4.07
   5  -4 -10    9.69    6.41
   5  -4  -9   62.06    9.17
  -5   4   9   53.12   10.53
   5   4  -9   43.33    6.62
   5   4  -8  291.93   35.15
  -5   4   8  296.51   40.43
   5  -4  -8  277.52   32.86
   5   4  -8  273.37   32.11
   5   4  -7    4.55    6.14
   5  -4  -7    0.71    2.07
  -5   4   7    0.85    3.50
   5   4  -7   -1.19    1.48
   5   4  -6   49.93   13.18
   5   4  -6   49.06   13.95
   5  -4  -6   58.35   15.02
  -5   4   6   46.61   13.95
   5   4  -5   94.78   17.25
  -5   4   5  131.43   21.55
   5   4  -5  112.76   21.29
   5  -4  -5  124.21   22.87
  -5   4   4  670.62   46.68
   5   4  -4  529.60   43.75
   5  -4  -4  667.88   56.74
  -5  -4   4  672.08   47.36
   5   4  -4  550.27   42.88
  -5   4   3  528.13   38.58
   5   4  -3  436.75   39.86
   5  -4  -3  449.03   49.11
  -5  -4   3  581.87   41.96
   5   4  -3  382.89   36.55
  -5   4   2 1240.07   56.84
   5  -4  -2 1119.10   79.22
   5   4  -2 1066.45   60.69
   5   4  -2 1031.67   61.05
  -5  -4   2 1301.74   58.51
  -5  -4   1   75.99   13.61
   5   4  -1   62.04   14.96
  -5   4   1   71.49   13.48
   5  -4  -1   71.66   20.95
   5   4  -1   59.39   15.36
  -5   4   1   75.68   18.35
   5   4   0  586.25   45.02
   5  -4   0  648.49   56.56
   5   4   0  623.45   48.27
  -5   4   0  699.13   54.26
  -5  -4   0  742.36   43.97
  -5   4   0  696.78   41.90
  -5  -4  -1   95.81   16.67
   5   4   1   82.43   16.51
  -5   4  -1   96.23   15.72
   5   4   1   97.00   18.88
   5  -4   1  104.55   13.83
   5   4   1   83.10   17.39
  -5   4  -1   91.57   18.84
   5   4   2  221.67   27.40
   5   4   2  207.50   27.04
   5   4   2  223.02   28.04
   5  -4   2  243.93   24.29
  -5   4  -2  217.75   27.43
  -5   4  -2  211.29   24.57
  -5  -4  -2  248.87   28.47
   5   4   3  173.13   25.05
   5   4   3  168.74   25.06
   5   4   3  167.88   25.32
   5  -4   3  168.54   23.61
  -5  -4  -3  151.83   20.83
  -5   4  -3  144.41   20.50
  -5  -4  -3  164.59   23.73
   5   4   4  822.80   58.70
   5   4   4  897.41   63.27
   5  -4   4 1001.61   64.48
  -5  -4  -4  772.01   50.12
  -5  -4  -4  884.35   57.58
  -5  -4  -5  127.18   22.66
   5   4   5  141.73   25.75
   5   4   5  128.04   26.56
   5  -4   5  173.68   29.93
  -5  -4  -5  111.67   19.88
  -5   4  -6  346.06   18.95
  -5   4  -6  372.38   20.02
  -5  -4  -6  327.22   38.20
  -5  -4  -7   48.59    7.07
  -5   4  -7   48.20    7.40
  -5   4  -7   47.97    7.17
  -5   4  -7   59.67    8.83
  -5  -4  -8  117.17   11.05
  -5   4  -8  135.39   12.49
  -5   4  -8  134.78   12.82
  -5  -4  -9    4.25    1.70
  -5   4  -9    5.74    3.06
  -5   4  -9    3.37    1.94
  -5  -4 -10    5.22    2.33
  -5   4 -10    5.01    2.61
  -5   4 -10    7.48    3.38
  -5   4 -11   36.60    5.85
  -5   4 -11   58.15    7.35
  -5   4 -12   31.54    4.09
  -5  -4 -12   23.47    3.76
   5  -5 -15   32.60    3.93
   5  -5 -15   41.20    4.40
   5  -5 -14   54.58    6.44
   5  -5 -14   52.97    6.00
   5  -5 -13    6.20    2.46
   5  -5 -13    5.10    2.30
   5  -5 -12   59.24    8.45
   5  -5 -12   44.39    7.02
   5   5 -12   48.13    7.48
   5  -5 -11   37.41    7.19
   5  -5 -11   41.17    6.96
   5   5 -11   34.72    6.56
   5  -5 -10   65.30    9.44
   5   5 -10   56.21    8.00
   5  -5 -10   69.97    9.98
   5  -5  -9   43.39    7.76
   5   5  -9   40.58    6.77
   5   5  -8   87.62   20.34
   5  -5  -8   81.40   18.80
  -5   5   8  100.64   25.05
   5   5  -8   83.93   17.54
   5   5  -7   75.87   18.75
   5  -5  -7   84.63   18.62
  -5   5   7   81.67   20.28
   5   5  -7   74.25   16.39
   5   5  -6    4.83    4.69
   5   5  -6    2.66    4.17
  -5   5   6    5.87    6.53
   5  -5  -6    3.40    3.42
  -5   5   5  269.86   31.93
   5   5  -5  215.54   30.31
   5  -5  -5  267.14   33.12
   5   5  -5  215.96   28.16
  -5  -5   4    4.76    4.56
   5   5  -4    6.21    3.92
   5   5  -4   13.65    9.18
  -5   5   4    4.89    4.88
   5  -5  -4    4.09    7.59
  -5  -5   3   44.92   11.50
   5   5  -3   20.25    9.62
   5   5  -3   30.05   10.59
  -5   5   3   30.74   10.14
   5  -5  -3   31.48   13.40
  -5  -5   2    1.98    6.42
   5   5  -2    2.46    5.02
   5  -5  -2   -0.31    4.77
  -5   5   2   -0.26    1.84
  -5  -5   1    3.27    1.96
   5   5  -1    7.66    4.89
   5  -5  -1    5.80    6.56
   5   5  -1    3.73    3.93
  -5   5   1    3.77    1.94
   5   5   0  701.66   53.04
   5  -5   0  695.51   64.59
   5   5   0  671.48   56.45
  -5  -5   0  850.66   49.89
  -5   5   0  750.10   46.71
  -5  -5  -1   30.50    9.64
  -5   5  -1   28.10    9.36
   5   5   1   23.47    9.66
   5  -5   1   18.68   10.02
   5   5   1   27.86   11.77
   5   5   2    0.94    4.18
  -5  -5  -2    4.84    5.59
  -5   5  -2    0.40    1.84
   5   5   2    3.03    3.86
   5  -5   2    2.69    2.30
   5   5   2    2.76    5.80
  -5  -5  -3   37.49   11.83
  -5   5  -3   26.19    9.41
   5   5   3   33.10   11.84
  -5  -5  -3   30.93   10.01
   5   5   3   40.67   14.13
   5  -5   3   39.99   12.28
   5   5   3   29.21   11.94
   5   5   4  484.02   49.28
   5   5   4  434.23   46.10
   5   5   4  388.49   46.69
   5  -5   4  466.88   46.40
  -5  -5  -4  389.73   36.98
  -5  -5  -4  390.26   39.21
  -5  -5  -5   67.99   17.31
   5   5   5   82.42   22.62
   5   5   5   61.22   21.20
   5  -5   5   81.59   21.20
  -5  -5  -5   86.72   18.15
  -5  -5  -6   46.60    7.03
  -5   5  -6   46.86    6.75
  -5   5  -6   46.24    7.78
  -5  -5  -7   73.73    8.96
  -5   5  -7   78.92    9.26
  -5   5  -7   78.01    9.68
  -5   5  -8   28.02    5.52
  -5  -5  -8   24.19    5.40
  -5   5  -8   27.14    5.83
  -5  -5  -9   14.98    5.25
  -5   5  -9   20.42    5.05
  -5   5  -9   10.56    3.53
  -5  -5 -10   34.69    5.73
  -5   5 -10   38.48    6.12
  -5   5 -10   37.90    6.63
  -5  -5 -11   24.04    4.22
  -5   5 -11   20.83    4.14
  -5   5 -11   24.82    5.18
  -5   5 -12   29.85    3.93
   5  -6 -15    3.87    1.43
   5  -6 -15    1.95    0.91
   5  -6 -14   19.10    3.57
   5  -6 -14   18.09    3.46
   5  -6 -13   38.98    6.27
   5  -6 -13   35.93    5.86
   5  -6 -12   67.83    8.70
   5  -6 -12   68.86    8.69
   5   6 -12   62.64    8.19
   5  -6 -11   39.36    7.32
   5  -6 -11   34.10    6.71
   5   6 -11   35.59    6.72
   5  -6 -10   28.64    6.60
   5  -6 -10   27.12    5.60
   5   6 -10   23.47    5.37
   5  -6  -9  244.83   17.45
   5   6  -9  239.42   16.96
   5  -6  -8   67.59    8.69
   5   6  -8   64.89    8.59
   5   6  -7    2.09    3.42
   5   6  -7   -1.23    5.30
  -5   6   7    3.23    7.56
   5  -6  -7    3.65    8.24
   5   6  -6   11.39    6.63
   5   6  -6   11.22    7.97
  -5   6   6   12.93    9.08
   5  -6  -6   16.25    8.32
   5   6  -5    0.70    1.93
  -5   6   5    0.77    2.01
   5   6  -5    5.96    5.34
   5  -6  -5   -0.60    1.85
   5   6  -4    2.60    2.47
   5   6  -4    7.40    5.80
  -5   6   4    3.83    4.55
   5  -6  -4    2.06    5.46
  -5  -6   3   35.50   10.47
   5   6  -3   25.52   11.31
   5   6  -3   31.57   12.22
  -5   6   3   38.42   11.84
   5  -6  -3   33.76   13.60
   5   6  -2    6.14    4.50
  -5  -6   2   10.36    5.46
   5   6  -2    8.06    7.58
   5  -6  -2    8.75    8.04
  -5   6   2    4.91    5.09
  -5  -6   1    5.25    5.31
   5   6  -1    4.67    7.10
  -5   6   1    1.50    3.84
   5  -6  -1    4.19    7.12
   5   6  -1   -0.70    5.12
  -5  -6   0    6.80    3.87
  -5   6   0    4.81    3.85
   5   6   0    9.40    8.36
   5  -6   0    8.10    6.76
   5   6   0    6.82    3.62
  -5  -6  -1   22.58    8.47
  -5   6  -1   19.84    8.08
   5   6   1   12.35    7.35
   5  -6   1   14.15   10.20
   5   6   1   16.87    9.34
  -5  -6  -2    1.89    4.47
  -5   6  -2    2.34    3.40
   5   6   2   -2.20    6.46
   5  -6   2    0.35    2.63
   5   6   2    1.67    8.37
   5   6   3  171.33   29.82
   5  -6   3  203.49   29.07
   5   6   3  159.34   32.32
  -5   6  -3  185.21   26.77
  -5  -6  -3  184.47   27.03
   5   6   3  197.00   33.06
   5   6   4  278.73   43.20
   5  -6   4  259.69   36.30
  -5  -6  -4  210.76   28.59
   5   6   4  185.37   38.89
  -5  -6  -4  247.52   32.51
   5   6   4  230.91   36.33
  -5  -6  -5  103.72   11.65
   5  -6   5  111.14   26.05
  -5   6  -5   82.66    8.75
  -5   6  -5   85.70    9.76
  -5  -6  -6   22.88    5.48
  -5   6  -6   23.94    5.22
  -5   6  -6   20.77    5.17
  -5  -6  -7  167.88   14.22
  -5   6  -7  152.66   12.54
  -5   6  -7  174.95   14.88
  -5  -6  -8  250.20   17.17
  -5   6  -8  237.59   15.74
  -5   6  -8  257.18   18.10
  -5  -6  -9    8.31    3.03
  -5   6  -9    8.04    2.97
  -5   6  -9   12.11    4.98
  -5  -6 -10   25.55    4.88
  -5   6 -10   24.95    4.70
  -5   6 -10   28.36    5.57
  -5  -6 -11   24.48    4.26
  -5   6 -11   30.47    4.72
  -5   6 -12    4.26    2.12
   5  -7 -14   16.61    3.46
   5  -7 -14   14.21    3.02
   5   7 -14   15.12    3.17
   5  -7 -14    9.67    2.20
   5  -7 -13    1.17    1.13
   5  -7 -13   -0.58    0.46
   5  -7 -12    3.84    2.79
   5  -7 -12    3.24    2.78
   5   7 -12    0.59    0.98
   5  -7 -11    5.66    4.76
   5  -7 -11    6.59    3.45
   5   7 -11    1.84    1.07
   5  -7 -10   35.17    6.22
   5  -7 -10   47.13    8.39
   5   7 -10   57.68    9.31
   5  -7  -9    0.79    1.75
   5   7  -9    8.17    4.98
   5  -7  -8   60.89    8.10
  -5  -7   8   52.41    8.20
   5   7  -8   49.65    7.91
   5   7  -7   33.93   12.68
   5  -7  -7   30.71   12.59
  -5   7   7   33.30   13.90
   5   7  -6   67.55   17.57
   5   7  -6   66.37   19.67
  -5   7   6   88.69   21.53
   5  -7  -6   82.80   17.70
   5   7  -5   71.67   18.51
   5   7  -5   72.26   19.42
  -5   7   5   95.07   20.48
   5  -7  -5  105.94   20.66
   5   7  -4  166.40   29.36
   5   7  -4  153.29   28.84
   5  -7  -4  197.99   29.33
  -5   7   4  202.71   29.89
   5   7  -3   58.32   18.38
   5   7  -3   76.64   20.17
   5  -7  -3  101.80   23.01
  -5   7   3   87.62   18.77
   5   7  -2  235.27   36.74
   5  -7  -2  281.15   40.43
  -5  -7   2  357.88   33.81
   5   7  -2  237.84   37.76
  -5   7   2  317.13   34.76
  -5  -7   1   31.90   10.41
  -5   7   1   24.83   10.92
   5   7  -1   18.76   10.77
   5  -7  -1   20.90   11.75
  -5  -7   0   15.47    8.05
  -5   7   0    8.83    7.35
   5   7   0   12.31    7.89
   5  -7   0    8.59    5.89
   5   7   0    8.73    9.45
   5   7   1  224.33   36.77
   5   7   1  193.96   36.76
  -5   7  -1  236.86   31.30
  -5  -7  -1  247.15   31.69
  -5  -7  -2   18.83   10.84
  -5   7  -2   21.25    9.08
   5   7   2   36.55   17.68
   5   7   2   29.80   15.32
   5   7   3  558.62   62.61
   5   7   3  457.21   62.58
  -5  -7  -3  500.33   47.46
   5   7   4   96.69   26.82
   5   7   4  103.37   26.78
  -5  -7  -5   91.86   10.22
  -5  -7  -5   72.59    8.28
  -5   7  -5   79.06    8.89
  -5   7  -5   77.42    9.47
  -5  -7  -6   19.40    5.87
  -5   7  -6   10.51    3.86
  -5   7  -6   11.50    3.75
  -5  -7  -7    3.73    1.78
  -5   7  -7    3.09    1.58
  -5   7  -7    3.57    2.92
  -5  -7  -8   81.03   10.18
  -5   7  -8   67.72    8.39
  -5   7  -8   73.23    9.73
  -5  -7  -9  101.31   10.67
  -5   7  -9   97.42    9.76
  -5  -7 -10    0.05    0.91
  -5   7 -10    3.44    3.30
  -5  -7 -11    2.31    1.27
  -5   7 -11    2.35    1.55
   5  -8 -14    0.89    1.19
   5   8 -14    0.71    0.83
   5  -8 -14    3.22    1.53
   5  -8 -13    9.12    2.57
   5  -8 -13    9.39    2.49
   5  -8 -12   51.30    6.85
   5  -8 -12   47.35    6.60
   5   8 -12   46.74    6.90
   5  -8 -11   51.64    7.36
   5  -8 -11   50.85    7.74
   5   8 -11   55.80    7.89
   5  -8 -10   22.45    5.34
   5  -8 -10   23.98    5.80
   5   8 -10   24.68    6.06
   5  -8  -9   56.28    7.96
   5  -8  -9   55.91    8.46
   5   8  -9   64.88    9.57
   5  -8  -8   68.12    8.88
  -5  -8   8   74.16    9.66
   5   8  -8   66.87    9.57
   5  -8  -7   48.60    7.24
  -5  -8   7   53.02    8.19
   5   8  -7   47.72    8.37
   5  -8  -6   13.57    7.41
  -5   8   6   20.18   11.59
   5   8  -5   64.55   18.62
   5   8  -5   48.71   17.53
  -5   8   5   85.20   21.66
   5  -8  -5   89.79   19.96
   5   8  -4  144.47   28.94
   5   8  -4  141.99   28.86
   5  -8  -4  163.08   25.04
  -5   8   4  179.20   29.67
   5   8  -3   58.17   20.45
   5   8  -3   46.82   17.23
  -5   8   3   62.40   17.62
   5  -8  -3   50.03   14.57
   5   8  -2   22.30   12.23
   5   8  -2   12.81    9.36
  -5   8   2   19.17    9.20
   5  -8  -2   18.54   10.26
   5   8  -1  496.89   56.81
  -5  -8   1  611.61   46.38
  -5   8   1  591.44   50.74
  -5  -8   0   76.43   18.18
  -5   8   0   64.79   17.36
   5   8   0   70.02   21.93
  -5  -8  -1    1.26    2.51
  -5   8  -1    6.19    5.40
   5   8   1    8.97    9.79
  -5  -8  -2   55.36   19.24
  -5   8  -2   71.48   18.89
   5   8   2   83.19   28.16
   5   8   2   42.63   20.76
   5   8   3  141.57   34.70
  -5  -8  -4   30.48    5.96
  -5  -8  -4   24.64    5.42
  -5   8  -4   21.68    4.93
  -5  -8  -5    1.93    5.39
  -5  -8  -5    2.54    3.27
  -5   8  -5    0.46    1.98
  -5  -8  -6    4.64    3.08
  -5  -8  -6    5.04    2.74
  -5   8  -6    9.55    3.95
  -5  -8  -7   28.32    5.95
  -5   8  -7   23.67    4.80
  -5  -8  -8   14.55    4.90
  -5   8  -8   14.24    3.72
  -5  -8  -9   18.60    6.61
  -5   8  -9   15.30    3.80
  -5  -8 -10    0.89    1.28
  -5   8 -10    5.67    2.39
  -5  -8 -11    2.63    1.33
  -5   8 -11    1.34    1.25
   5  -9 -14    8.62    2.02
   5   9 -14    8.67    1.97
   5  -9 -13   27.08    4.09
   5  -9 -13   31.08    4.18
   5  -9 -12   23.24    4.08
   5  -9 -12   25.32    5.03
   5   9 -12   16.74    4.04
   5  -9 -11    5.85    2.97
   5  -9 -11    4.80    2.75
   5   9 -11    3.72    3.19
   5  -9 -10    3.33    2.27
   5   9 -10    2.34    1.47
   5  -9  -9   46.78    7.07
   5  -9  -9   48.99    7.57
   5   9  -9   42.12    7.59
   5  -9  -8   30.68    5.62
  -5  -9   8   33.39    6.52
   5   9  -8   37.75    7.09
  -5  -9   7   99.80   11.57
   5   9  -7   83.27   11.38
  -5  -9   6   34.73    6.64
   5   9  -6   40.30    7.60
   5   9  -5   20.48    7.46
   5   9  -4   87.27   25.03
   5   9  -4   57.92   20.00
  -5   9   4   80.45   19.93
   5   9  -3    9.85   10.22
   5   9  -3    5.82    8.64
  -5   9   3    5.01    4.70
   5   9  -2    9.53    8.97
  -5   9   2    3.92    5.41
   5   9  -2   -0.02    5.61
   5   9  -1  536.12   64.41
  -5   9   1  601.92   54.87
   5   9  -1  499.60   62.14
  -5  -9   0    4.27    6.30
  -5   9   0   -3.28    2.71
   5   9   0    5.04    8.08
  -5  -9  -1    9.89    7.41
  -5   9  -1    8.74    8.60
   5   9   1    7.72    9.57
  -5  -9  -2   97.54   10.16
  -5  -9  -2  111.05   11.73
  -5  -9  -3  417.29   21.79
  -5  -9  -3  388.34   20.81
  -5  -9  -4  307.81   19.09
  -5  -9  -4  293.42   18.22
  -5   9  -4  263.10   15.77
  -5  -9  -5   26.50    6.31
  -5  -9  -5   24.12    5.08
  -5   9  -5   21.42    4.72
  -5  -9  -6   21.64    5.31
  -5  -9  -6   20.00    5.16
  -5   9  -6   18.71    4.60
  -5  -9  -7   39.39    7.14
  -5  -9  -7   31.55    5.61
  -5   9  -7   30.18    5.63
  -5  -9  -8   43.25    7.04
  -5   9  -8   36.83    5.90
  -5  -9  -9  109.64   10.15
  -5   9  -9   97.98    8.91
  -5  -9 -10    1.52    1.62
  -5   9 -10    1.49    1.88
  -5   9 -11    5.64    1.64
   5 -10 -13    3.00    1.14
   5  10 -13    3.08    1.40
   5 -10 -12   10.36    2.45
   5 -10 -12   10.61    2.50
   5  10 -12    8.78    3.23
   5 -10 -11   54.02    6.60
   5 -10 -11   55.69    6.64
   5  10 -11   55.86    7.80
   5 -10 -10    0.92    1.40
   5  10 -10    4.36    2.35
   5 -10  -9   62.41    8.03
   5 -10  -9   66.03    8.71
   5  10  -9   67.19    9.56
  -5 -10   8   60.37    8.37
   5  10  -8   59.75    9.22
   5 -10  -8   60.22    7.79
  -5 -10   7    1.19    1.53
   5  10  -7   -1.03    2.62
  -5 -10   6  113.04   12.16
   5  10  -6  100.34   12.77
   5  10  -5   18.59    5.91
  -5 -10   4   29.80    6.24
   5  10  -4   26.64    6.60
   5  10  -3  242.96   20.13
  -5 -10   3  283.79   18.05
  -5  10   2    6.30    3.66
  -5 -10   2   23.38    5.58
  -5  10   1   52.71    9.88
  -5 -10   1   58.42    8.28
  -5  10   0    2.52    4.02
  -5 -10   0    3.25    1.84
  -5 -10  -1  286.90   18.06
  -5  10  -1  269.48   20.88
  -5 -10  -1  281.11   18.16
  -5 -10  -2  126.01   12.04
  -5 -10  -2  125.82   12.10
  -5 -10  -3   39.23    8.29
  -5 -10  -3   28.46    5.33
  -5 -10  -4  116.88   11.55
  -5 -10  -4  108.62   11.48
  -5 -10  -5   29.09    5.61
  -5 -10  -5   35.14    6.67
  -5  10  -5   32.60    5.63
  -5 -10  -6   43.29    6.67
  -5 -10  -6   26.93    5.46
  -5  10  -6   30.30    6.47
  -5 -10  -7  120.73   11.43
  -5 -10  -7  117.94   10.90
  -5  10  -7  105.98    9.77
  -5 -10  -8   10.70    3.29
  -5  10  -8    9.48    2.66
  -5 -10  -9    3.66    1.80
  -5  10  -9    5.69    2.11
  -5 -10 -10   90.14    7.40
  -5  10 -10   84.54    6.90
   5 -11 -12    2.64    1.24
   5 -11 -12    2.41    1.23
   5  11 -12    0.89    0.80
   5 -11 -11    3.91    1.55
   5  11 -11    7.26    2.64
   5 -11 -10   13.41    3.32
   5 -11 -10   13.50    3.28
   5  11 -10   16.99    4.75
   5 -11  -9   29.55    4.99
   5  11  -9   31.73    7.18
  -5 -11   8  145.93   12.69
   5  11  -8  156.87   14.73
  -5 -11   7  519.35   24.90
   5  11  -7  517.08   28.07
  -5 -11   6   87.36   10.56
   5  11  -6   77.39   11.31
   5  11  -5   26.91    7.45
   5  11  -4   19.41    6.58
  -5 -11   3   51.03    7.71
   5  11  -3   65.66   11.45
   5  11  -2   25.99    9.90
  -5 -11   2    3.51    2.19
   5  11  -1   86.77   12.88
  -5 -11   1  101.06   11.10
  -5  11   0   83.86   12.00
  -5 -11   0   92.73   10.77
  -5  11  -1   76.68   10.95
  -5 -11  -1   65.88    9.01
   5  11   1   51.33    9.00
  -5 -11  -2   40.05    6.96
  -5 -11  -2   50.88    9.69
  -5 -11  -3  204.69   15.15
  -5 -11  -3  223.96   16.46
  -5 -11  -4    1.59    1.87
  -5 -11  -4    1.71    1.77
  -5 -11  -5   20.67    5.51
  -5 -11  -5   13.85    4.27
  -5 -11  -6   40.80    7.34
  -5  11  -6   28.56    5.02
  -5 -11  -6   38.87    6.71
  -5 -11  -7   17.44    4.10
  -5  11  -7   17.00    3.62
  -5 -11  -7   13.36    3.52
  -5 -11  -8    5.77    2.12
  -5 -11  -8    5.31    2.21
  -5  11  -8    3.97    1.35
  -5 -11  -9   13.77    3.04
  -5  11  -9   13.43    2.72
   5  12 -12    3.27    1.16
   5  12 -12    4.17    1.40
   5  12 -11   29.59    4.93
   5  12 -10    7.86    4.65
   5  12  -9    2.19    2.17
  -5 -12   8   13.62    3.62
   5  12  -8    5.78    2.75
  -5 -12   7  172.49   13.66
   5  12  -7  193.88   16.58
  -5 -12   6   13.85    4.20
   5  12  -6   16.59    5.43
   5  12  -5  113.35   13.93
   5  12  -4   26.70   11.35
  -5 -12   3   58.39    8.28
   5  12  -3   51.54   10.90
  -5 -12   2    2.52    1.85
   5  12  -2    5.36    4.74
  -5 -12   1    0.91    2.54
   5  12  -1    5.85    4.37
  -5 -12   0   12.23    3.89
  -5 -12  -1  321.39   19.80
   5  12   1  209.51   18.81
  -5 -12  -2   39.92    6.93
   5  12   2   27.75    7.34
  -5 -12  -3    5.77    3.67
   5  12   3    6.25    4.45
  -5 -12  -4   11.36    3.41
  -5 -12  -4   12.44    4.41
   5  12   4   11.31    5.68
  -5 -12  -5    1.95    1.96
  -5 -12  -5    1.43    1.25
  -5 -12  -6    8.68    3.16
  -5 -12  -6    5.71    2.57
  -5 -12  -7  122.44    9.55
  -5  12  -7  114.96    8.52
   5  12   7  145.86   21.13
  -5 -12  -7  127.65   10.02
  -5  12  -8    1.51    1.29
  -5 -12  -8    0.65    0.91
   5  12   9   16.10    9.19
   5  13 -11   12.48    2.70
   5  13 -10    7.33    2.14
   5  13  -9    8.33    3.14
   5  13  -8    6.01    2.57
  -5 -13   7    7.23    2.90
   5  13  -7   11.23    4.61
  -5 -13   6   64.78    8.52
   5  13  -6   67.14   11.35
   5  13  -5   22.88    7.81
   5  13  -4    6.79    4.76
  -5 -13   3    6.50    3.97
   5  13  -3    5.45    5.17
   5  13  -2   20.34   10.00
  -5 -13   2   13.08    5.77
  -5 -13   1    1.21    0.66
   5  13  -1    3.19    5.31
  -5 -13   0   13.67    4.02
   5  13   0   14.45    7.32
   5  13   0   11.72    6.32
   5  13   1    4.19    2.55
  -5 -13  -1    8.23    4.15
  -5 -13  -2   96.16   10.35
   5  13   2   70.89   11.59
  -5 -13  -3   16.11    4.31
   5  13   3   13.45    5.32
  -5 -13  -4    1.58    1.79
   5  13   4    2.19    3.87
  -5 -13  -5   10.05    3.54
   5  13   5    6.44    3.84
  -5 -13  -6    9.84    2.98
   5  13   6   11.97    5.65
  -5 -13  -7   16.67    3.49
   5  13   7   23.47    7.92
   5  13   8   -1.84    3.54
   5  14 -10    3.60    1.86
   5  14  -9    2.56    1.70
   5  14  -8   16.54    4.32
  -5 -14   7    7.33    2.93
   5  14  -7    3.65    1.61
  -5 -14   6    1.33    1.46
   5  14  -6    3.47    4.02
  -5 -14   5    1.75    1.31
   5  14  -5    4.22    3.83
   5  14  -4   87.71   12.84
   5  14  -3   14.26    8.83
   5  14  -2  189.65   18.98
  -5 -14   2  129.62   11.25
  -5 -14   1    2.53    2.60
   5  14  -1    1.13    4.02
  -5 -14   0   19.02    4.77
   5  14   0   22.17    6.94
   5  14   0   14.01    4.38
  -5 -14  -1   38.49    6.74
   5  14   1   30.17    7.28
  -5 -14  -2   23.26    4.92
   5  14   2   17.79    5.51
  -5 -14  -3   18.46    4.06
   5  14   3   19.36    6.53
  -5 -14  -4   50.72    6.46
   5  14   4   58.40   10.48
  -5 -14  -5   12.90    3.09
   5  14   5   17.21    7.82
  -5 -14  -6    1.79    1.26
   5  14   6    4.63    3.68
  -5 -14  -7   19.81    2.99
   5  14   7   31.63    8.93
   5  15  -9   16.58    3.05
   5 -15  -8   12.44    2.26
   5  15  -8   15.29    3.15
   5  15  -7   -0.03    1.11
  -5 -15   6   81.25    7.57
   5  15  -6   98.21   10.33
  -5 -15   5    5.90    4.22
  -5  15   5    3.98    2.73
   5  15  -5    7.21    3.98
  -5 -15   4   33.55    5.77
   5  15  -4   36.41    7.04
   5  15  -3   25.59    6.00
   5  15  -2    3.80    4.16
  -5 -15   2    2.51    1.95
   5  15  -1    1.24    3.13
  -5 -15   1    0.23    1.14
  -5 -15   0   49.23    6.49
   5  15   0   60.49   10.91
  -5 -15  -1   12.29    3.38
  -5 -15  -2    6.72    2.13
   5  15   2    4.32    2.44
   5  15   3    3.79    2.67
  -5 -15  -3    1.89    1.37
   5  15   4   70.28   10.34
  -5 -15  -4   66.56    6.44
  -5 -15  -5    0.19    0.97
   5  15   5    0.18    0.86
   5  15   6    4.04    2.95
  -5 -15  -6    1.97    0.87
   5  16  -7    2.67    1.25
  -5 -16   6    2.20    1.30
   5  16  -6    5.14    1.92
  -5 -16   5   13.55    3.11
   5  16  -5   12.80    3.32
  -5 -16   4    7.41    2.40
   5  16  -4    9.07    3.52
  -5 -16   3    1.23    1.49
   5  16  -3    1.06    1.66
   5  16  -2  106.96   11.56
  -5 -16   1    0.22    1.50
   5  16  -1    1.66    2.10
  -5 -16   0   10.24    2.79
   5  16   0   21.99    5.12
  -5 -16  -1    4.60    1.69
  -5 -16  -2    4.10    1.37
  -5 -16  -3    0.19    0.51
  -5 -16  -4   39.39    4.07
  -5 -17   4    4.48    1.55
   5  17  -4    4.52    1.94
  -5 -17   3    7.67    2.04
   5  17  -3   12.21    2.98
  -5 -17   2    6.02    1.92
   5  17  -2    9.10    2.59
  -5 -17   1    6.20    2.00
  -5 -17   0    6.73    2.10
  -5 -17  -1    1.99    1.04
   6   0 -15    3.00    1.43
   6   0 -14   13.25    3.41
   6   0 -13   -0.96    1.18
   6   0 -12   97.73   10.66
   6   0 -12   85.40    8.93
  -6   0  11    2.09    2.63
   6   0 -11    1.47    1.53
  -6   0  10   98.15   13.27
   6   0  -9   -0.81    2.65
  -6   0   9   -0.81    2.29
   6   0  -8   21.23    8.03
   6   0  -7    1.38    3.76
   6   0  -6  149.57   20.75
   6   0  -6  127.18   21.55
   6   0  -5    2.41    3.50
   6   0  -5   -2.85    3.12
  -6   0   5   -1.65    5.06
   6   0  -4  366.88   28.67
   6   0  -4  263.12   36.61
  -6   0   4  345.79   41.37
  -6   0   3    2.47    2.96
   6   0  -3    2.18    4.83
  -6   0   3   -0.85    3.14
  -6   0   2  298.40   25.64
   6   0  -2  234.17   35.07
  -6   0   2  262.52   31.65
  -6   0   1    2.06    3.13
  -6   0   1    2.03    2.08
  -6   0   0 1187.71   63.35
  -6   0  -1    0.83    2.28
   6   0   1    0.68    2.33
  -6   0  -2   25.59    9.67
   6   0   2   23.51    7.59
  -6   0  -3    2.06    4.09
   6   0   3    5.99    5.72
  -6   0  -4   59.23   15.04
   6   0   4   57.22   14.57
   6   0   5   10.57    8.05
  -6   0  -6  493.65   21.21
  -6   0  -6  508.78   22.47
  -6   0  -7    5.11    5.21
  -6   0  -7    5.31    6.22
  -6   0  -8  228.20   14.68
  -6   0  -8  226.51   15.74
  -6   0  -9   -1.15    1.84
  -6   0  -9    1.31    1.42
  -6   0  -9    3.70    1.60
  -6   0 -10    6.97    4.28
  -6   0 -10   14.54    5.05
  -6   0 -11    3.20    1.83
   6  -1 -15    2.07    1.37
   6   1 -15    2.32    1.08
   6  -1 -15    1.88    1.15
   6  -1 -14    3.53    1.40
   6  -1 -14    1.35    1.07
   6   1 -14    0.03    0.94
   6  -1 -13    9.24    3.28
   6   1 -13    9.33    3.70
   6  -1 -13    7.75    2.83
   6  -1 -12    1.28    1.80
   6  -1 -12   -1.67    1.26
   6  -1 -11   99.94   11.86
  -6   1  11  104.25   14.64
   6  -1 -11  113.53   11.09
  -6  -1  10  642.54   31.78
  -6   1  10  660.36   35.10
   6  -1  -9   12.65    7.75
  -6   1   9    7.20    3.75
  -6  -1   9    6.70    3.55
   6   1  -8   24.51    7.83
   6  -1  -8   19.09    9.09
   6   1  -7    4.39    3.16
   6  -1  -7    0.17    2.77
   6   1  -7    5.50    4.51
   6   1  -6    7.94    5.21
   6   1  -6   11.99    7.20
   6  -1  -6   10.77    6.83
   6   1  -5    8.16    4.95
   6   1  -5    0.65    2.20
   6  -1  -5    4.93    5.03
  -6  -1   5    2.54    5.46
   6   1  -4  169.94   20.24
  -6   1   4  175.35   23.07
   6  -1  -4  128.64   25.22
   6   1  -4  119.93   24.27
  -6   1   4  153.46   28.93
  -6  -1   4  162.06   26.25
  -6   1   3  212.64   23.93
   6   1  -3  176.41   19.94
   6  -1  -3  162.26   29.03
   6   1  -3  150.75   27.23
  -6   1   3  218.43   32.25
  -6  -1   3  189.23   27.71
  -6  -1   2   49.62   12.82
  -6   1   2   56.21   11.33
  -6  -1   2   54.26   10.82
   6  -1  -2   49.49   16.62
   6   1  -2   38.64   14.13
  -6   1   2   52.09   15.16
  -6   1   1 1124.73   49.94
   6  -1  -1 1030.13   73.44
  -6   1   1 1016.24   64.62
  -6  -1   1 1020.89   55.70
   6   1   0  120.73   16.34
  -6  -1   0  114.35   18.28
  -6   1   0  122.88   16.22
  -6   1   0  117.90   21.64
  -6   1  -1    2.73    2.72
  -6  -1  -1   -0.02    2.75
   6   1   1   -1.05    1.57
  -6   1  -2    1.58    3.08
  -6  -1  -2    4.49    3.97
   6   1   2    4.09    4.12
   6  -1   2    2.96    2.14
  -6   1  -3   24.50    9.20
  -6  -1  -3   37.66   12.28
   6   1   3   35.90   11.21
   6  -1   3   29.14    9.70
   6   1   4  461.95   42.00
   6  -1   4  508.99   43.28
  -6  -1  -4  453.28   41.87
   6   1   5   31.05   14.05
   6  -1   5   34.85   13.88
  -6   1  -6   59.95    7.60
  -6  -1  -6   53.61    6.41
  -6   1  -6   54.90    7.57
  -6  -1  -7  162.07   11.72
  -6   1  -7  185.97   14.01
  -6   1  -7  182.46   14.29
  -6   1  -8  325.40   20.94
  -6   1  -8  316.72   18.33
  -6   1  -8  298.28   18.01
  -6  -1  -8  302.57   17.59
  -6   1  -9    7.01    3.20
  -6   1  -9    5.87    2.50
  -6  -1  -9   13.49    4.63
  -6   1  -9   10.19    4.34
  -6   1 -10   12.36    3.60
  -6   1 -10    9.95    2.84
  -6  -1 -10   13.76    3.94
  -6  -1 -10   13.68    3.60
  -6   1 -10   12.56    3.33
  -6  -1 -11    4.98    2.27
   6  -2 -15    6.25    1.86
   6   2 -15    8.07    2.11
   6  -2 -15    8.80    2.32
   6  -2 -14   15.66    3.49
   6  -2 -14    8.10    2.34
   6   2 -14   20.88    4.22
   6  -2 -13   28.57    6.88
   6  -2 -13   10.66    3.00
   6  -2 -12  136.84   13.35
   6   2 -12  149.72   13.41
   6  -2 -12  124.35   11.57
   6  -2 -11  193.55   16.34
   6  -2 -11  181.52   14.53
  -6   2  11  157.61   18.47
  -6   2  10   30.97    8.03
  -6  -2  10   30.19    7.58
   6   2 -10   25.51    5.66
  -6   2   9   52.78   10.01
  -6  -2   9   47.97    8.24
   6   2  -9   58.32    7.43
  -6  -2   9   65.18    9.67
   6   2  -8   -0.64    5.00
   6  -2  -8   -1.89    3.09
   6   2  -7   17.87    8.61
   6  -2  -7   17.97    8.91
   6   2  -6  492.23   38.75
   6   2  -6  512.32   39.67
   6  -2  -6  554.44   48.20
   6   2  -5  173.93   22.34
  -6   2   5  211.85   27.32
   6   2  -5  193.44   28.09
   6  -2  -5  168.65   28.48
  -6  -2   5  196.95   30.36
   6   2  -4   46.93   13.45
  -6   2   4   25.73    8.35
   6  -2  -4   17.51   10.30
   6   2  -4   20.64   11.33
  -6   2   4   25.62   12.30
  -6  -2   4   21.92    9.34
   6   2  -3   58.13   12.85
   6   2  -3   58.50   12.14
  -6   2   3   91.00   16.15
   6  -2  -3   74.99   20.49
   6   2  -3   64.69   17.61
  -6   2   3   77.14   20.85
  -6  -2   3   86.65   18.13
  -6   2   2  531.00   36.67
   6   2  -2  370.27   29.37
  -6  -2   2  545.53   32.81
   6  -2  -2  449.31   50.90
   6   2  -2  423.55   45.16
  -6   2   2  506.47   50.47
  -6  -2   2  523.72   40.77
  -6  -2   1   16.69    7.28
  -6   2   1   23.53    7.52
   6  -2  -1   25.24   11.80
  -6   2   1   20.80   10.85
  -6  -2   0   72.02   14.35
   6   2   0   74.95   14.50
  -6   2   0   69.15   13.31
  -6   2   0   66.20   17.45
   6   2   1  859.96   49.88
  -6   2  -1  852.95   62.06
  -6  -2  -1  839.15   50.86
  -6   2  -1  869.74   45.68
   6   2   2  555.18   41.99
   6  -2   2  587.31   37.81
  -6   2  -2  542.87   48.32
  -6  -2  -2  551.36   42.82
  -6  -2  -3   71.62   13.80
  -6  -2  -3   71.02   16.33
   6   2   3   71.71   16.42
   6  -2   3   82.97   15.89
  -6   2  -3   81.56   17.94
  -6  -2  -4   37.14   11.80
  -6  -2  -4   36.28   10.49
   6   2   4   36.80   13.10
   6  -2   4   41.00   11.76
  -6  -2  -5   82.88   19.01
   6   2   5   88.65   21.98
   6  -2   5   88.08   20.21
  -6   2  -6  244.26   17.78
  -6   2  -6  245.51   16.33
  -6   2  -6  232.93   15.96
  -6   2  -7    6.35    2.78
  -6   2  -7    7.90    3.23
  -6   2  -7    6.86    3.23
  -6   2  -8  104.26   11.60
  -6   2  -8  112.44   11.15
  -6   2  -8  105.45   10.95
  -6   2  -9   14.96    3.91
  -6   2  -9   13.79    3.74
  -6   2  -9   13.22    3.87
  -6   2 -10    2.40    1.56
  -6   2 -10   10.30    3.09
  -6   2 -10    5.57    2.85
  -6  -2 -11   84.21    8.48
  -6   2 -11   84.29    6.90
   6  -3 -15   15.27    2.74
   6  -3 -15   14.72    3.05
   6  -3 -14    0.22    0.46
   6   3 -14    2.77    1.99
   6  -3 -13   17.83    4.25
   6  -3 -13   16.75    3.92
   6   3 -13   18.91    3.94
   6  -3 -12   12.39    3.92
   6  -3 -12   12.30    4.13
   6  -3 -11  461.66   25.25
   6  -3 -11  444.55   23.38
  -6   3  10    4.16    3.44
  -6  -3  10    4.14    2.74
   6   3 -10   -0.41    0.87
  -6   3   9   16.91    8.99
  -6  -3   9   12.02    4.12
   6   3  -9    9.62    3.40
  -6  -3   9   12.84    5.40
   6   3  -8  191.04   28.18
   6  -3  -8  204.62   28.61
  -6   3   8  229.12   35.21
   6   3  -7   63.60   15.29
   6  -3  -7   67.27   16.05
  -6   3   7   75.75   17.61
   6   3  -6   65.40   15.82
   6  -3  -6   59.56   15.93
  -6   3   6   69.75   17.31
   6   3  -5  133.60   19.78
  -6   3   5  180.73   26.42
   6   3  -5  140.27   21.08
   6  -3  -5  149.63   27.82
  -6  -3   5  170.79   27.67
   6   3  -4   35.46   10.73
   6   3  -4   34.60   10.33
  -6   3   4   64.35   14.85
   6  -3  -4   40.60   15.09
   6   3  -4   39.79   13.61
  -6  -3   4   51.73   14.16
  -6  -3   3    0.91    1.55
   6   3  -3   -1.33    2.46
   6   3  -3    1.98    3.58
  -6   3   3    0.12    1.36
   6  -3  -3    5.25    8.83
   6   3  -3    2.49    4.26
  -6   3   3    2.95    5.08
  -6  -3   2   34.16   10.44
   6   3  -2   19.44    7.30
  -6   3   2   25.92    8.72
   6  -3  -2   23.07   12.56
   6   3  -2   21.60    9.79
  -6   3   2   31.40   13.89
  -6  -3   1   11.72    5.44
   6   3  -1   10.62    6.71
  -6   3   1   13.49    7.13
   6  -3  -1    6.11    4.90
   6   3  -1    7.68    5.98
  -6   3   1   16.45   10.54
   6   3   0  139.21   20.98
   6   3   0  158.06   24.19
   6  -3   0  140.86   27.91
  -6   3   0  166.83   29.95
  -6  -3   0  156.42   21.96
  -6   3   0  156.13   20.65
  -6  -3  -1    3.06    3.31
  -6   3  -1    2.24    3.90
  -6  -3  -1    2.68    3.36
   6   3   1   -0.54    1.67
  -6   3  -1    6.70    5.02
  -6  -3  -2   67.72   15.60
   6   3   2   84.03   17.54
   6   3   2   71.30   15.91
  -6  -3  -2   73.09   14.13
  -6   3  -2   67.53   18.06
  -6  -3  -3   88.90   19.02
   6   3   3   95.78   19.54
   6   3   3   85.40   18.83
   6  -3   3  106.82   19.04
  -6  -3  -3   92.70   16.73
  -6  -3  -4  147.29   22.31
  -6  -3  -4  153.64   24.87
   6   3   4  152.74   25.41
   6   3   4  152.79   26.50
   6  -3   4  165.76   26.85
  -6  -3  -5    7.93    3.16
  -6  -3  -5    6.51    7.49
   6   3   5   15.57   11.15
   6  -3   5   14.65   10.68
  -6  -3  -6  228.03   15.11
  -6   3  -6  267.84   18.97
  -6   3  -6  273.92   17.42
  -6   3  -6  281.58   18.07
  -6  -3  -7  184.23   13.56
  -6   3  -7  207.00   16.48
  -6   3  -7  215.96   15.86
  -6   3  -7  214.86   15.77
  -6   3  -8  216.99   16.66
  -6   3  -8  236.15   16.40
  -6   3  -8  210.89   15.64
  -6   3  -9   25.59    5.61
  -6   3  -9   23.24    4.97
  -6   3  -9   19.47    4.73
  -6   3 -10    4.94    2.40
  -6   3 -10    3.52    1.98
  -6  -3 -11    2.99    1.99
  -6   3 -11   11.43    2.81
   6  -4 -15   18.29    2.89
   6  -4 -15   18.46    3.10
   6  -4 -14    8.32    2.45
   6  -4 -14    3.98    1.80
   6  -4 -13    4.78    2.64
   6  -4 -13    4.47    2.58
   6  -4 -12    4.72    2.72
   6  -4 -12    8.30    2.58
   6  -4 -11   42.22    7.40
   6  -4 -11   46.08    7.53
   6   4 -11   38.24    6.69
   6  -4 -10   29.39    6.38
  -6  -4  10   31.96    7.51
   6   4 -10   20.32    4.89
  -6   4   9  101.69   15.05
  -6  -4   9   89.20   10.92
   6   4  -9   93.91    9.58
   6   4  -8    0.75    3.54
  -6   4   8   -1.81    5.49
   6   4  -7  112.28   21.72
  -6   4   7  128.04   25.87
   6  -4  -7  134.19   23.50
   6   4  -6    2.65    5.56
   6   4  -6    0.51    1.66
  -6   4   6    0.82    2.12
   6  -4  -6   -1.75    5.07
   6   4  -5   32.40   11.07
   6   4  -5   27.78   10.61
  -6   4   5   27.40   11.06
   6  -4  -5   34.16   14.51
   6   4  -4   92.49   18.49
  -6   4   4  117.56   20.65
   6   4  -4   88.08   18.50
   6  -4  -4  104.62   25.08
  -6  -4   4  144.38   24.19
  -6   4   3  397.21   36.66
   6   4  -3  285.52   32.29
  -6  -4   3  425.54   39.24
   6   4  -3  272.78   32.38
   6  -4  -3  319.06   45.06
   6   4  -2  181.91   26.28
   6   4  -2  201.48   30.64
   6  -4  -2  190.71   35.01
  -6  -4   2  277.38   30.30
  -6   4   2  240.98   27.58
  -6  -4   1   72.11   15.23
   6   4  -1   59.98   14.92
   6  -4  -1   57.12   19.45
   6   4  -1   55.23   15.50
  -6   4   1   71.87   14.78
  -6   4   1   62.90   20.07
  -6  -4   0   18.04    7.27
   6   4   0    5.92    3.58
  -6   4   0    9.61    4.63
   6  -4   0    4.58    6.31
   6   4   0   14.21    9.41
  -6   4   0   10.19    8.85
   6   4   1  337.84   37.27
   6   4   1  333.74   38.99
  -6   4  -1  387.32   43.21
  -6  -4  -1  382.56   36.99
  -6   4  -1  350.92   33.77
  -6  -4  -2   24.55    9.63
  -6   4  -2   22.01    9.03
   6   4   2   23.77   10.89
  -6  -4  -2   27.37    9.02
   6   4   2   22.08    9.37
   6   4   3  188.89   30.62
   6   4   3  169.09   29.96
  -6  -4  -3  179.93   24.09
  -6  -4  -3  200.07   28.16
  -6  -4  -4   55.29   15.18
   6   4   4   79.87   22.16
   6   4   4   65.42   19.91
  -6  -4  -4   57.97   14.71
  -6  -4  -5   23.27    4.87
  -6   4  -5   27.75    6.14
  -6   4  -5   26.15    5.42
  -6   4  -5   23.29    5.15
  -6  -4  -6   14.76    4.21
  -6   4  -6   15.02    4.95
  -6   4  -6   15.89    4.58
  -6   4  -6   20.56    4.96
  -6  -4  -7   29.38    6.05
  -6   4  -7   38.09    7.55
  -6   4  -7   38.07    6.78
  -6   4  -7   39.86    6.91
  -6  -4  -8    3.94    2.57
  -6   4  -8    3.05    2.21
  -6   4  -8    3.94    2.86
  -6   4  -8    2.15    1.28
  -6  -4  -9   49.97    6.87
  -6   4  -9   54.20    8.30
  -6   4  -9   50.66    7.45
  -6   4 -10   15.74    3.87
  -6  -4 -11   55.10    6.63
  -6   4 -11   58.27    5.92
   6  -5 -15    1.24    0.93
   6  -5 -15    1.19    0.98
   6  -5 -14    1.75    0.81
   6  -5 -14    2.18    1.10
   6  -5 -13   24.08    5.02
   6  -5 -13   23.08    4.59
   6  -5 -12    4.55    2.70
   6  -5 -12    3.21    1.97
   6   5 -12    4.31    1.71
   6  -5 -11  115.29   12.23
   6  -5 -11   96.40   10.62
   6   5 -11   86.83    9.79
   6  -5 -10    7.82    3.34
  -6  -5  10    9.36    3.83
   6   5 -10    5.79    2.48
   6  -5  -9   82.64   10.94
  -6  -5   9   68.47    9.41
   6   5  -9   66.65    8.76
  -6   5   8    5.56    4.13
  -6  -5   8    6.29    3.76
   6   5  -8    3.57    1.57
   6   5  -7   10.74    8.23
  -6   5   7   11.77    8.97
   6  -5  -7   13.50    9.55
   6   5  -7    4.74    4.55
   6   5  -6   59.57   15.77
   6   5  -6   68.31   16.46
  -6   5   6   60.21   16.75
   6  -5  -6   59.40   15.99
   6   5  -5   45.04   13.48
   6   5  -5   42.59   13.73
  -6   5   5   59.93   16.49
   6  -5  -5   61.11   18.73
  -6   5   4  198.55   28.63
   6   5  -4  129.77   23.84
   6   5  -4  134.32   24.17
   6  -5  -4  196.58   34.86
  -6  -5   4  212.55   28.76
  -6   5   3  465.30   41.62
   6   5  -3  364.98   39.78
  -6  -5   3  520.53   42.95
   6  -5  -3  401.00   52.39
   6   5  -3  338.91   39.62
  -6  -5   2    3.11    4.83
   6   5  -2    1.66    2.16
  -6   5   2    1.37    3.38
   6  -5  -2    3.82    6.49
   6   5  -1  631.16   54.66
   6  -5  -1  665.02   66.97
   6   5  -1  654.53   59.27
  -6   5   1  747.60   50.18
  -6  -5   0    1.26    3.49
  -6   5   0    4.24    4.25
   6   5   0   -0.46    3.14
   6  -5   0    5.30    7.82
   6   5   0   -0.08    4.50
  -6  -5  -1    6.37    4.29
  -6   5  -1    4.02    3.84
   6   5   1    1.48    6.00
   6  -5   1    2.71    1.86
   6   5   1    0.86    3.64
  -6  -5  -2   83.58   18.77
  -6   5  -2   72.56   16.81
  -6  -5  -2   75.89   16.90
   6   5   2   77.28   21.43
  -6  -5  -3   22.89   10.43
   6   5   3    8.78    8.53
  -6  -5  -3   19.61    8.19
   6   5   3   23.94   10.73
  -6  -5  -4   42.45   13.54
   6   5   4   58.42   18.89
   6   5   4   60.00   20.32
  -6  -5  -4   56.40   14.52
  -6  -5  -5  207.22   15.00
  -6   5  -5  197.19   17.09
  -6   5  -5  187.06   14.09
  -6   5  -5  189.83   15.21
  -6   5  -6    2.28    2.44
  -6  -5  -6    1.40    1.88
  -6   5  -6    2.07    2.63
  -6   5  -6    1.92    3.20
  -6  -5  -7   10.07    3.58
  -6   5  -7   11.92    4.55
  -6   5  -7    9.37    2.91
  -6   5  -7    8.56    3.30
  -6  -5  -8    8.05    4.00
  -6   5  -8    5.89    2.43
  -6   5  -8    5.86    3.02
  -6  -5  -9   33.89    5.91
  -6   5  -9   38.71    6.05
  -6   5 -10   12.02    3.41
  -6   5 -11   25.90    4.06
  -6  -5 -11   26.75    4.47
   6  -6 -15   15.74    2.41
   6  -6 -14    8.30    2.43
   6  -6 -14    7.50    2.06
   6  -6 -13   30.48    5.17
   6  -6 -13   27.82    4.93
   6  -6 -12   13.52    4.48
   6  -6 -12    9.05    3.48
   6   6 -12   10.33    3.87
   6  -6 -11   19.34    5.12
   6  -6 -11   21.72    5.20
   6   6 -11   32.27    7.13
   6  -6 -10    1.32    1.43
   6   6 -10    4.70    2.42
   6  -6  -9   97.07   11.24
  -6  -6   9   76.06   10.06
   6   6  -9   81.83    9.94
   6  -6  -8   62.73    8.89
  -6  -6   8   53.08    8.32
   6   6  -8   49.59    7.43
   6   6  -7  146.03   24.21
   6   6  -6   39.00   13.03
   6   6  -6   50.58   18.31
   6  -6  -6   53.37   15.59
  -6   6   6   54.12   16.71
   6   6  -5   73.53   18.16
   6   6  -5   77.71   20.35
  -6   6   5  100.32   22.10
   6  -6  -5   94.95   21.90
   6   6  -4   14.25   10.02
   6   6  -4   18.07   10.08
  -6   6   4   14.46    8.36
   6  -6  -4   28.52   15.36
  -6  -6   3  102.43   19.43
   6   6  -3   77.04   19.50
   6   6  -3   63.66   18.40
  -6   6   3   99.13   20.63
   6  -6  -3   92.55   25.38
  -6  -6   2  114.25   20.24
   6   6  -2   74.85   21.36
   6   6  -2   95.65   22.16
  -6   6   2   92.38   19.05
   6  -6  -2   93.52   26.81
   6   6  -1  123.98   25.98
   6  -6  -1  130.92   31.17
  -6  -6   1  184.68   26.28
  -6   6   1  150.11   24.01
  -6   6   0  146.84   24.19
   6   6   0  131.58   27.35
   6  -6   0  113.79   29.28
   6   6   0  112.04   28.77
  -6  -6   0  139.23   24.37
  -6   6  -1  183.86   27.47
   6   6   1  177.93   32.90
   6  -6   1  161.97   40.88
   6   6   1  161.06   32.95
  -6  -6  -1  158.60   28.31
  -6  -6  -2   83.96   18.61
  -6   6  -2   97.66   20.24
   6   6   2   99.15   25.52
   6  -6   2   71.94   24.87
   6   6   2   79.20   24.78
   6  -6   3  456.10   62.67
   6   6   3  434.63   58.99
  -6  -6  -3  457.73   42.53
  -6  -6  -3  470.36   46.66
  -6  -6  -4    5.08    2.77
  -6   6  -4    6.42    2.47
  -6   6  -4   11.94    5.91
  -6  -6  -5   28.66    6.04
  -6   6  -5   24.16    4.98
  -6   6  -5   27.48    6.73
  -6  -6  -6    3.44    2.83
  -6   6  -6    2.02    2.91
  -6   6  -6    1.51    2.04
  -6  -6  -7    6.16    3.02
  -6   6  -7    8.09    3.02
  -6  -6  -8   -1.79    1.80
  -6   6  -8    0.67    1.23
  -6  -6  -9   65.02    7.91
  -6   6  -9   61.94    7.36
  -6   6 -10    0.79    1.30
  -6   6 -11   14.88    3.13
   6  -7 -14    0.46    1.17
   6  -7 -14    0.81    0.56
   6  -7 -13    2.38    1.48
   6  -7 -13    0.73    2.00
   6  -7 -12    0.53    0.99
   6  -7 -12    0.82    1.14
   6  -7 -11   21.85    5.00
   6   7 -11   23.72    5.14
   6  -7 -11   21.24    5.14
   6  -7 -10   19.65    5.17
   6   7 -10   16.81    4.87
   6  -7 -10   19.72    4.83
   6  -7  -9   14.28    3.91
  -6  -7   9   12.37    3.84
   6   7  -9   13.15    3.94
  -6  -7   8    4.97    3.01
   6   7  -8    6.21    2.88
   6  -7  -7  171.79   13.90
  -6  -7   7  162.31   14.11
   6   7  -7  148.61   13.40
   6   7  -6   -2.08    4.02
  -6  -7   6    2.00    1.74
   6   7  -5   11.97    8.33
   6   7  -5   13.82    8.03
  -6   7   5   14.52    8.22
   6  -7  -5   14.18   10.47
   6   7  -4  161.79   30.29
   6   7  -4  202.18   32.98
   6  -7  -4  228.03   34.39
  -6   7   4  234.43   33.90
   6   7  -3    6.05    6.23
   6   7  -3    5.30    3.22
  -6   7   3    6.10    6.17
   6  -7  -3   12.95   12.04
  -6  -7   2   10.27    7.47
   6   7  -2    3.24    7.44
   6   7  -2    3.39    1.81
  -6   7   2    8.47    8.25
   6  -7  -2   -0.21    7.29
  -6  -7   1   56.05   15.09
  -6   7   1   51.86   14.86
   6   7  -1   37.89   15.58
   6  -7  -1   36.09   16.80
  -6  -7   0    0.55    3.79
  -6   7   0    9.95    8.24
   6   7   0    1.85    5.14
   6  -7   0    1.40    4.96
   6   7   0   10.05   10.92
  -6   7  -1   85.36   19.44
   6   7   1  107.81   29.26
   6   7   1   60.07   22.62
  -6  -7  -2   26.70   14.35
  -6   7  -2   50.06   16.21
   6   7   2   26.95   13.63
   6   7   2   21.31   15.43
  -6  -7  -3   54.00    8.17
  -6  -7  -3   44.90    6.70
  -6   7  -3   53.33    8.29
  -6   7  -3   54.44   10.61
  -6  -7  -4   65.78    9.25
  -6   7  -4   62.23    9.51
  -6  -7  -4   52.70    7.24
  -6   7  -4   55.80    7.55
  -6  -7  -5  362.05   21.17
  -6   7  -5  356.57   23.13
  -6   7  -5  314.73   18.01
  -6  -7  -6   71.04    9.53
  -6   7  -6   55.13    7.69
  -6  -7  -7   81.39   10.10
  -6   7  -7   73.77    8.63
  -6  -7  -8   18.97    4.85
  -6   7  -8   23.31    4.56
  -6  -7  -9    2.18    2.60
  -6   7  -9   10.42    3.09
  -6   7 -10   10.05    2.38
  -6  -7 -11  111.37    7.98
  -6   7 -11  113.33    7.28
   6  -8 -14    0.64    0.68
   6  -8 -14    0.57    0.58
   6   8 -14    1.26    0.82
   6  -8 -13   26.85    4.15
   6  -8 -13   25.91    4.04
   6  -8 -12    8.85    3.45
   6  -8 -12   15.62    4.34
   6   8 -12   13.90    5.42
   6  -8 -11    2.24    2.34
   6  -8 -11    1.06    1.50
   6   8 -11    1.64    2.12
   6  -8 -10   40.55    6.63
   6   8 -10   50.54    8.77
   6  -8 -10   48.63    7.63
   6  -8  -9    1.65    1.94
  -6  -8   9    5.24    3.07
   6   8  -9    4.82    3.15
   6  -8  -8   93.74   10.64
  -6  -8   8   91.31   10.88
   6   8  -8   86.16   10.68
  -6  -8   7   26.40    5.76
   6   8  -7   22.40    5.69
   6   8  -6  557.07   26.89
  -6  -8   6  616.65   26.62
  -6  -8   5  163.54   14.01
  -6  -8   5  163.53   13.90
   6   8  -4   -3.35    2.55
   6   8  -4    2.87    9.07
   6  -8  -4    3.27    3.22
  -6   8   4    7.67    9.43
   6   8  -3   65.64   22.39
   6   8  -3   77.05   33.74
  -6   8   3   64.20   17.11
   6  -8  -3   82.64   22.89
   6   8  -2   32.20   13.57
   6   8  -2   21.08   11.54
  -6   8   2   39.96   15.01
   6  -8  -2   31.37   14.91
   6   8  -1    6.54    7.34
  -6  -8   1    3.47    4.99
  -6   8   1   -0.68    2.56
   6   8  -1    2.92    5.80
  -6  -8   0   -0.41    4.85
  -6   8   0    2.10    3.07
   6   8   0    5.81    9.97
   6   8   1   12.00    8.39
  -6  -8  -1   14.66    3.72
  -6  -8  -2  189.96   15.11
  -6   8  -2  185.47   18.65
  -6  -8  -2  168.67   13.83
  -6  -8  -3    1.81    1.65
  -6   8  -3    1.55    3.72
  -6  -8  -3    1.53    1.07
  -6   8  -3    2.89    2.12
  -6  -8  -4    2.36    2.80
  -6   8  -4    3.52    3.45
  -6  -8  -4   -0.53    0.66
  -6   8  -4    1.05    0.71
  -6  -8  -5   20.99    6.06
  -6  -8  -5   11.91    3.85
  -6   8  -5   13.93    3.87
  -6  -8  -6  108.61   12.54
  -6   8  -6   83.19    8.96
  -6  -8  -7    8.83    4.04
  -6   8  -7    2.02    0.98
  -6  -8  -8   11.27    5.68
  -6   8  -8    2.04    1.49
  -6  -8  -9    1.77    1.06
  -6   8  -9    1.03    0.84
  -6   8 -10    2.10    1.64
   6  -9 -13    7.74    2.36
   6  -9 -13    9.02    2.17
   6  -9 -12   13.52    3.28
   6  -9 -12   16.97    3.47
   6   9 -12   10.31    2.95
   6  -9 -11   19.15    4.23
   6  -9 -11   18.84    4.14
   6   9 -11   16.58    3.99
   6  -9 -10   16.78    6.05
   6  -9 -10   15.18    4.21
   6   9 -10   14.49    4.43
   6  -9  -9    6.89    3.14
  -6  -9   9    7.76    2.84
   6  -9  -9    6.78    2.71
   6   9  -9   10.56    3.90
  -6  -9   8   23.92    5.37
   6   9  -8   22.57    5.41
  -6  -9   7   15.99    4.49
   6   9  -7   11.67    4.19
  -6  -9   6   14.07    4.16
   6   9  -6   11.57    4.68
  -6  -9   5   32.78    6.09
  -6  -9   5   55.59    8.66
   6   9  -5   38.18    7.33
  -6  -9   4  325.26   19.65
  -6   9   3  130.38   17.22
  -6  -9   3  166.19   14.95
  -6   9   2  195.92   20.40
  -6  -9   2  308.74   19.48
  -6   9   1  216.20   21.41
  -6  -9   1  237.72   16.84
  -6   9   0    5.49    3.08
  -6  -9   0    9.06    4.13
  -6   9  -1    1.19    2.30
  -6  -9  -1    3.73    1.65
  -6  -9  -2  176.92   14.83
  -6   9  -2  156.32   17.72
  -6  -9  -2  168.96   14.23
  -6  -9  -3  127.03   12.59
  -6   9  -3  121.66   14.15
  -6  -9  -3  121.03   12.02
  -6  -9  -4   56.97    8.62
  -6  -9  -4   57.79    8.88
  -6   9  -4   52.11    7.20
  -6  -9  -5  224.68   16.86
  -6  -9  -5  188.29   14.66
  -6   9  -5  179.52   13.13
  -6  -9  -6   86.44   10.36
  -6  -9  -6   74.24    8.82
  -6   9  -6   76.02    8.53
  -6  -9  -7   -0.02    0.94
  -6   9  -7    0.93    1.47
  -6  -9  -8    8.59    2.92
  -6   9  -8    7.73    2.74
  -6   9  -9   30.29    4.53
  -6   9 -10   13.97    3.37
   6  10 -13    4.01    1.29
   6 -10 -12    5.18    1.88
   6 -10 -12    4.10    1.50
   6  10 -12    6.60    3.20
   6 -10 -11    6.49    2.97
   6 -10 -11    7.51    2.44
   6  10 -11    3.83    1.93
   6 -10 -10   13.27    4.21
   6 -10 -10   11.02    3.18
   6  10 -10   15.22    4.06
   6 -10  -9    2.03    1.46
  -6 -10   9    8.11    5.26
   6  10  -9    4.74    2.53
   6 -10  -8    2.98    3.13
  -6 -10   8    4.84    2.84
   6  10  -8    4.48    3.72
  -6 -10   7   72.85    9.41
   6  10  -7   66.48    9.69
  -6 -10   6  294.29   19.23
   6  10  -6  262.10   19.49
  -6 -10   5   23.18    5.53
   6  10  -5   21.22    5.95
  -6 -10   5   19.58    4.50
  -6 -10   4   76.16    9.51
   6  10  -4   63.35    9.95
  -6 -10   3  111.87   11.79
  -6  10   2    0.78    4.69
  -6 -10   2   -0.65    2.08
  -6  10   1   18.78    7.34
  -6 -10   1   14.56    4.80
  -6  10   0    6.33    6.67
  -6 -10   0   36.44    5.85
  -6  10  -1   82.67   12.93
  -6 -10  -1   87.58   10.64
  -6  10  -2  109.82   14.53
  -6 -10  -2  116.70   12.06
  -6 -10  -3    1.47    2.28
  -6 -10  -3    1.54    2.01
  -6 -10  -4  154.77   13.66
  -6  10  -4  133.74   10.99
  -6 -10  -4  151.36   13.47
  -6 -10  -5    5.08    2.98
  -6  10  -5    5.14    2.34
  -6 -10  -5    3.33    2.64
  -6 -10  -6   11.42    4.39
  -6 -10  -6   15.85    4.28
  -6  10  -6   15.05    3.58
  -6 -10  -7   39.79    6.14
  -6  10  -7   38.71    5.67
  -6  10  -8    4.08    1.72
  -6  10  -9    1.84    0.89
   6 -11 -12   24.98    3.21
   6  11 -12   24.01    3.69
   6 -11 -11    0.27    1.06
   6  11 -11   -0.43    0.85
   6 -11 -10   17.10    3.40
   6  11 -10   12.88    3.61
   6 -11  -9    0.87    0.63
  -6 -11   9    2.73    1.79
   6  11  -9    3.52    1.97
  -6 -11   8   19.00    4.44
   6  11  -8   20.78    5.35
  -6 -11   7    2.66    2.48
   6  11  -7    5.53    3.73
  -6 -11   6    2.92    2.68
   6  11  -6   -2.82    1.64
  -6 -11   5  148.71   13.88
   6  11  -5  128.79   14.28
  -6 -11   5  129.41   11.74
  -6 -11   4   61.57    8.51
   6  11  -4   64.13   10.29
  -6 -11   3   41.64    7.15
   6  11  -3   53.32    9.55
  -6 -11   2    7.18    5.77
  -6  11   1   15.82    5.89
  -6 -11   1   14.76    4.61
  -6  11   0    0.18    3.50
  -6 -11   0    1.39    1.89
  -6  11  -1   44.46    9.02
  -6 -11  -1   44.75    7.77
  -6  11  -2    6.25    3.03
  -6 -11  -2    5.34    3.00
  -6 -11  -3    1.07    1.16
  -6 -11  -4    6.01    3.32
  -6 -11  -5    3.10    1.82
  -6 -11  -6  103.65    9.78
  -6  11  -6   82.39    7.78
  -6 -11  -7   46.20    5.91
  -6  11  -7   39.39    5.07
  -6  11  -8   15.03    2.99
   6  11   9   14.80    7.19
   6  12 -11    5.56    1.87
   6  12 -10    3.68    2.06
   6  12  -9   12.27    3.70
  -6 -12   8   26.91    5.42
   6  12  -8   33.64    6.20
  -6 -12   7    2.59    2.23
   6  12  -7    1.89    2.21
  -6 -12   6   16.50    5.49
   6  12  -6   14.92    5.15
  -6 -12   5  272.94   18.12
   6  12  -5  251.89   20.05
  -6 -12   4   85.15    9.65
   6  12  -4   96.35   13.17
   6  12  -3   18.27    7.05
  -6 -12   3   17.48    4.83
  -6 -12   2    0.65    1.07
  -6 -12   1   19.96    5.63
  -6 -12   0   45.42    8.14
  -6 -12  -1   27.86    7.14
  -6 -12  -2   41.21    7.17
   6  12   2   32.53    7.69
  -6 -12  -3    2.09    2.06
   6  12   3    7.27    8.96
  -6 -12  -4    5.62    3.45
   6  12   4   26.50    8.06
  -6 -12  -5   24.81    4.90
   6  12   5   12.90    6.11
   6  12   6   60.73   11.26
  -6 -12  -6   58.45    6.97
  -6 -12  -7    6.57    2.18
   6  12   7    4.09    3.23
   6  12   8   46.33   10.40
   6  13 -10   44.09    5.24
   6  13  -9    4.68    1.84
  -6 -13   8    1.00    1.86
   6  13  -8    2.00    2.09
  -6 -13   7    3.92    1.88
   6  13  -7    2.78    3.11
  -6 -13   6    8.55    3.49
   6  13  -6   11.51    3.82
  -6 -13   5    1.05    1.96
   6  13  -5    8.76    5.48
  -6 -13   4    2.10    2.04
   6  13  -4    0.09    2.65
   6  13  -3   89.26   13.23
  -6 -13   3   75.53    9.42
  -6 -13   2   24.57    5.12
  -6 -13   1  108.69   11.27
  -6 -13   0   45.88    7.25
  -6 -13  -1   57.81    8.22
  -6 -13  -2   44.12    6.85
   6  13   2   29.57    6.91
  -6 -13  -3    7.48    3.09
   6  13   3    8.48    4.70
   6  13   4    8.84    7.43
  -6 -13  -4    7.20    2.62
  -6 -13  -5    5.69    2.53
   6  13   5    4.64    3.31
   6  13   6    3.08    0.90
  -6 -13  -6   -0.83    1.12
   6  13   7   11.26    8.06
   6  14  -9    3.49    2.22
  -6 -14   8    1.35    0.67
   6  14  -8    4.84    2.35
  -6 -14   7   12.75    3.03
   6  14  -7   16.97    4.21
  -6 -14   6   12.67    3.36
   6  14  -6   12.78    4.41
  -6 -14   5   52.94    7.19
   6  14  -5   50.78    8.22
  -6 -14   4   25.08    4.87
   6  14  -4   26.69    6.97
  -6 -14   3   15.30    3.94
   6  14  -3   27.71    8.05
   6  14  -2    7.72    3.15
  -6 -14   2   10.67    3.36
  -6 -14   1   10.53    4.26
  -6 -14   0   20.67    4.94
  -6 -14  -1    2.63    2.15
  -6 -14  -2   12.85    4.70
   6  14   2    1.50    1.42
  -6 -14  -3   43.95    5.93
   6  14   3   41.29    7.56
  -6 -14  -4   30.59    4.64
   6  14   4   26.95    6.48
  -6 -14  -5    3.51    1.92
   6  14   5    5.86    3.26
  -6 -14  -6   23.43    3.22
   6  14   6   28.01    6.40
   6  15  -8    4.79    2.20
  -6 -15   7    1.09    0.78
   6  15  -7    3.32    1.92
  -6 -15   6    3.10    1.78
   6  15  -6    5.81    2.50
  -6 -15   5    1.93    1.41
   6  15  -5    5.34    2.30
  -6 -15   4    0.10    0.75
   6  15  -4    9.00    3.03
  -6 -15   3   23.73    4.97
   6  15  -3   44.89    7.18
  -6 -15   2    2.91    1.40
  -6 -15   1   38.31    5.33
  -6 -15   0    1.00    0.83
  -6 -15  -1    2.50    1.33
  -6 -15  -2    3.64    1.57
  -6 -15  -3    0.83    0.60
  -6 -15  -4    2.06    1.18
  -6 -16   5    3.35    1.41
   6  16  -5    3.62    1.62
  -6 -16   4    0.78    0.92
   6  16  -4    1.93    1.10
  -6 -16   3   17.18    3.13
   6  16  -3   20.39    4.33
  -6 -16   2    0.93    0.98
  -6 -16   1    3.66    1.91
  -6 -16   1    1.07    1.38
  -6 -16   0    7.95    2.01
  -6 -16   0    8.21    2.16
  -6 -16  -1   11.94    2.42
  -6 -16  -1    6.73    1.83
  -6 -16  -2    4.86    1.56
   7   0 -15   17.20    2.82
   7   0 -14   -0.39    1.09
   7   0 -13    1.66    1.88
   7   0 -12    1.66    1.40
  -7   0  12   -1.46    2.09
  -7   0  11  147.14   16.02
   7   0 -11  161.65   12.91
  -7   0  10   -0.80    1.59
  -7   0   9   26.90    6.47
  -7   0   9   37.79    8.27
   7   0  -8   -3.28    4.51
   7   0  -7  435.15   40.87
   7   0  -6    1.44    3.46
   7   0  -5   42.42   15.61
  -7   0   5   51.79   17.62
  -7   0   4    0.45    1.68
   7   0  -4    3.24    4.29
  -7   0   4    5.39    6.75
  -7   0   3  133.24   20.49
   7   0  -3   80.74   23.74
  -7   0   3  126.94   24.77
  -7   0   2    0.39    3.05
   7   0  -2    2.22    7.23
  -7   0   2    0.94    1.73
   7   0  -1  119.33   27.83
  -7   0   1  107.62   21.22
  -7   0   0   -0.70    4.02
  -7   0  -1   89.71   19.64
  -7   0  -2    1.09    4.59
  -7   0  -3   12.37    7.25
   7   0   4   -1.57    4.10
  -7   0  -5    6.24    2.51
  -7   0  -6   -0.52    1.42
  -7   0  -6    0.42    1.21
  -7   0  -7  855.76   33.92
  -7   0  -7  810.09   28.34
  -7   0  -7  834.07   29.91
  -7   0  -8    5.75    3.35
  -7   0  -8    2.21    2.08
  -7   0  -9   37.67    6.59
  -7   0  -9   32.00    4.91
  -7   0 -10   -0.90    1.04
  -7   0 -11    1.03    1.59
   7  -1 -15    4.22    1.46
   7   1 -15    2.07    1.06
   7  -1 -15    3.49    1.34
   7  -1 -14    0.60    1.37
   7   1 -14   -0.26    0.61
   7  -1 -13   50.30    6.92
   7   1 -13   42.17    6.12
   7  -1 -13   37.09    5.34
   7  -1 -12   13.64    4.60
   7   1 -12   11.91    4.19
   7  -1 -12    9.70    2.96
  -7  -1  12    9.52    5.84
  -7   1  12   17.21    7.13
   7  -1 -11   69.46    8.95
  -7   1  11   67.53   11.23
  -7  -1  11   60.38    9.90
  -7  -1  10  134.17   14.73
  -7   1  10  128.88   15.13
  -7   1   9   19.04    5.86
  -7  -1   9   21.41    5.95
  -7   1   9   23.00    6.30
  -7  -1   9   24.96    6.11
  -7   1   8   20.70    5.77
  -7  -1   8   26.37    5.77
   7  -1  -8   30.54   11.35
  -7   1   8   37.06    7.85
  -7  -1   8   34.19    7.48
   7   1  -7  335.20   34.84
   7  -1  -7  334.21   36.85
   7   1  -6    8.15    5.41
   7   1  -6    7.45    4.77
   7  -1  -6   16.90   15.30
  -7   1   6   11.27    7.63
  -7  -1   6   13.26   10.25
   7   1  -5   98.34   22.81
   7  -1  -5   86.35   22.76
  -7   1   5  125.28   22.16
  -7   1   5  134.59   30.79
  -7  -1   5  140.95   28.25
  -7   1   4    1.44    3.58
   7  -1  -4    4.06    4.25
   7   1  -4    1.44    4.23
  -7   1   4    2.89    4.45
  -7  -1   4   -2.16    2.99
  -7   1   3  200.89   25.89
  -7  -1   3  204.86   24.50
   7  -1  -3  151.46   31.05
   7   1  -3  156.06   29.90
  -7   1   3  184.93   30.75
  -7  -1   3  210.06   30.23
  -7   1   2   18.30    7.36
   7  -1  -2   12.07    7.02
   7   1  -2   19.64   12.55
  -7   1   2   19.20   10.59
  -7  -1   2   10.84    6.56
  -7  -1   1  122.95   21.41
   7  -1  -1  114.75   27.76
   7   1  -1  110.01   25.70
  -7   1   1  118.37   23.29
  -7  -1   0   27.91   10.45
  -7   1   0   33.28   12.77
  -7   1  -1  282.80   35.85
  -7  -1  -1  262.62   32.42
  -7  -1  -2   46.73   14.21
  -7   1  -2   49.17   16.38
   7   1   3  844.02   58.88
  -7   1  -3  774.61   60.64
  -7  -1  -3  742.20   56.78
  -7  -1  -4    0.38    2.77
  -7   1  -4    7.00    2.87
  -7   1  -4    7.49    2.91
   7   1   4    6.43    6.23
  -7  -1  -5   62.97    7.37
  -7   1  -5   76.78    9.96
  -7   1  -5   75.93    8.87
  -7   1  -6    7.91    4.12
  -7  -1  -6    8.23    3.50
  -7   1  -6    3.72    1.77
  -7   1  -6    6.60    3.16
  -7   1  -7   35.59    6.93
  -7  -1  -7   35.13    5.34
  -7   1  -7   37.32    6.95
  -7   1  -7   36.60    6.25
  -7   1  -8   35.31    7.01
  -7  -1  -8   28.52    6.11
  -7   1  -8   29.51    5.56
  -7  -1  -9   59.14    8.09
  -7   1  -9   60.72    7.66
  -7   1  -9   52.62    7.72
  -7   1 -10    3.15    1.30
  -7  -1 -10    4.87    2.38
  -7   1 -10    5.60    2.05
  -7  -1 -11   49.76    5.51
   7  -2 -15    4.20    1.84
   7  -2 -15    4.18    1.46
   7  -2 -14    1.56    1.54
   7  -2 -14    5.12    2.27
   7   2 -14    4.75    2.20
   7  -2 -13    0.20    1.04
   7   2 -13    1.81    1.48
   7  -2 -13    2.45    1.71
   7  -2 -12   35.67    6.28
   7   2 -12   38.53    6.60
   7  -2 -12   35.75    6.00
   7  -2 -11   49.71    8.39
  -7   2  11   40.16    9.12
   7  -2 -11   51.04    7.76
  -7  -2  11   38.91    7.69
  -7   2  10    4.72    4.84
  -7  -2  10   -0.17    1.20
  -7   2   9  127.66   15.47
  -7  -2   9  124.69   14.33
   7   2  -9  127.25   11.03
  -7   2   9  147.83   16.45
  -7  -2   9  156.30   16.69
  -7  -2   8  262.05   17.62
  -7   2   8  295.33   22.17
  -7   2   8  327.94   24.64
   7   2  -7   15.60    7.80
   7  -2  -7   16.19    8.28
  -7   2   7   23.43   11.66
   7   2  -6  145.92   21.27
  -7   2   6  179.59   28.37
   7  -2  -6  159.48   27.54
  -7  -2   6  204.04   33.93
   7   2  -5   14.44    6.13
  -7   2   5   17.83    8.99
   7   2  -5   16.08    9.10
   7  -2  -5    6.82    3.55
  -7  -2   5   16.17    9.91
  -7   2   4   53.54   14.25
   7  -2  -4   34.35   15.69
   7   2  -4   35.61   14.71
  -7   2   4   38.62   15.47
  -7  -2   4   48.89   15.56
  -7   2   3   54.43   13.86
   7  -2  -3   45.43   17.31
   7   2  -3   34.73   13.76
  -7   2   3   44.67   16.37
  -7  -2   3   50.31   14.56
  -7  -2   2   34.20   11.13
  -7   2   2   32.47   10.15
   7  -2  -2   27.99   14.28
   7   2  -2   20.16   11.40
  -7   2   2   36.82   14.29
  -7  -2   1   36.54   11.14
  -7   2   1   36.45   11.46
   7  -2  -1   34.14   15.61
   7   2  -1   28.41   13.71
  -7   2   1   38.20   14.10
  -7  -2   0   18.83    8.01
   7  -2   0   24.55   14.35
  -7   2   0   24.20   12.03
  -7   2  -1  399.15   45.42
  -7  -2  -1  356.40   37.31
  -7  -2  -2   20.72    8.78
   7   2   2   19.94    9.20
  -7   2  -2   18.97   10.10
  -7  -2  -3    7.14    5.54
   7   2   3   11.95    9.53
  -7   2  -4   20.23    4.83
  -7  -2  -4   20.43    4.47
  -7   2  -4   24.13    4.93
  -7   2  -5   -0.95    1.68
  -7  -2  -5    0.34    1.07
  -7  -2  -6    5.79    2.55
  -7   2  -6    6.52    3.16
  -7   2  -6    2.68    1.90
  -7   2  -7  240.38   18.23
  -7   2  -7  252.76   17.24
  -7   2  -8    8.47    3.80
  -7   2  -8    3.52    2.80
  -7   2  -9    4.79    2.45
  -7  -2  -9    6.22    4.63
  -7   2  -9    2.99    2.26
  -7  -2 -10   16.93    4.61
  -7   2 -10   13.68    3.08
  -7   2 -10   11.14    2.79
  -7  -2 -11   14.20    2.92
   7  -3 -15    0.38    0.72
   7  -3 -15    1.41    1.21
   7  -3 -14    8.35    2.63
   7  -3 -14    7.67    1.90
   7  -3 -13   11.79    3.47
   7  -3 -13   12.03    3.46
   7  -3 -12    4.67    2.58
   7  -3 -12    3.17    2.07
   7  -3 -11    1.09    2.53
   7  -3 -11    1.63    1.12
  -7  -3  11    1.91    0.89
  -7   3  10    3.87    3.62
  -7  -3  10    3.01    1.75
   7   3 -10    0.11    2.04
  -7   3   9   55.50   10.24
  -7  -3   9   47.67    7.72
   7   3  -9   55.59    7.36
  -7  -3   9   63.96    9.51
  -7   3   8  157.70   17.72
  -7  -3   8  139.35   12.77
   7   3  -8  142.28   11.31
  -7   3   8  147.97   16.61
  -7  -3   8  191.15   16.80
   7   3  -7    3.18    2.83
   7  -3  -7    6.61    5.33
  -7   3   7    7.56    7.69
   7   3  -6    5.35    6.44
  -7   3   6    8.73    9.09
   7  -3  -6   17.70   12.43
   7   3  -5    1.78    4.43
  -7   3   5    0.97    4.03
   7  -3  -5    2.58    4.22
  -7  -3   5    5.59    6.35
  -7   3   4  293.37   34.63
   7   3  -4  211.35   25.53
   7  -3  -4  207.22   37.07
  -7  -3   4  301.05   37.63
  -7  -3   3    2.04    3.27
  -7   3   3    8.12    5.59
   7  -3  -3   -4.25    8.17
   7   3  -3    4.21    7.25
  -7   3   3    0.61    5.52
   7  -3  -2  443.93   55.60
   7   3  -2  488.48   53.53
  -7   3   2  575.20   61.65
  -7  -3   2  590.84   47.73
  -7   3   2  613.61   46.35
  -7  -3   1   50.71   13.51
  -7   3   1   47.89   12.71
   7  -3  -1   37.34   16.62
   7   3  -1   41.84   16.34
  -7   3   1   51.77   17.72
  -7  -3   0   68.74   16.26
  -7   3   0   71.86   15.89
   7  -3   0   50.37   20.60
  -7   3   0   73.41   21.66
  -7   3  -1  353.83   44.80
  -7  -3  -1  343.38   37.15
   7   3   2  276.50   36.92
  -7   3  -2  280.59   37.93
  -7  -3  -2  276.38   34.39
  -7  -3  -3  145.42   26.38
   7   3   3  151.35   28.21
  -7  -3  -4   21.75    5.53
  -7   3  -4   20.96    5.04
  -7   3  -4   23.39    5.68
  -7  -3  -5  158.93   12.99
  -7   3  -5  154.92   14.79
  -7   3  -5  166.56   13.75
  -7  -3  -6   35.34    6.19
  -7   3  -6   37.08    7.16
  -7   3  -6   43.06    7.08
  -7   3  -7  104.26   11.59
  -7   3  -7   91.29   10.63
  -7   3  -8   76.86    9.55
  -7   3  -8   87.35    9.54
  -7  -3  -9   14.06    3.48
  -7   3  -9   23.03    4.77
  -7   3  -9   21.42    4.36
  -7  -3 -10   85.32    8.75
  -7   3 -10   34.11    4.73
  -7  -3 -11    2.08    1.45
   7  -4 -15   15.59    2.61
   7  -4 -15   13.65    2.18
   7  -4 -15   18.60    2.88
   7  -4 -14   -0.13    0.41
   7  -4 -14    1.46    1.43
   7  -4 -13    1.72    1.60
   7  -4 -13    0.22    0.69
   7  -4 -12    4.99    2.94
   7  -4 -12    2.77    2.29
   7  -4 -11   11.33    5.00
   7  -4 -11   10.64    4.48
  -7  -4  11    7.32    3.79
   7   4 -11    5.42    2.23
   7  -4 -10   67.92   10.02
  -7  -4  10   58.57    8.64
   7   4 -10   59.95    7.85
  -7   4   9   20.92    9.81
  -7  -4   9   14.58    4.51
   7   4  -9   14.27    4.51
  -7  -4   9   16.04    4.76
  -7  -4   8  506.97   24.57
  -7   4   8  609.25   35.63
   7   4  -8  525.86   22.15
  -7   4   8  509.62   30.36
  -7  -4   8  642.66   29.57
   7   4  -7    1.38    3.22
  -7   4   7   12.05    4.80
  -7  -4   7    6.14    3.13
   7   4  -6   13.86    6.50
  -7   4   6    6.93    6.56
   7  -4  -6    2.48    4.84
   7   4  -5  118.12   21.11
  -7   4   5  166.58   28.42
   7  -4  -5  132.55   29.58
   7   4  -4   49.69   13.29
  -7   4   4   76.28   18.46
   7  -4  -4   53.85   20.02
  -7  -4   4   75.55   19.02
  -7  -4   3   45.22   14.44
   7   4  -3   26.92   11.28
   7   4  -3   28.77   11.14
  -7   4   3   36.05   12.34
   7  -4  -3   34.16   15.58
  -7  -4   2   13.88    8.57
  -7   4   2   16.70    9.05
   7  -4  -2   15.23   14.37
  -7  -4   1   22.01   10.19
  -7   4   1   28.07   11.00
   7  -4  -1   30.13   17.02
  -7   4   1   25.19   13.71
  -7  -4   0  112.86   21.03
  -7   4   0  127.39   22.42
   7  -4   0   88.27   24.10
  -7   4   0  114.92   27.93
  -7  -4  -1    2.25    6.12
   7  -4   1    1.01    4.72
   7   4   1   16.19   13.45
  -7   4  -1    7.16    8.04
  -7  -4  -2   12.18    7.72
   7   4   2   83.38   26.82
  -7   4  -3    6.65    2.56
  -7   4  -3    6.10    2.46
   7   4   3   -0.65    5.92
  -7  -4  -4   88.58   10.12
  -7   4  -4   94.40    9.88
  -7   4  -4   87.89   11.18
  -7  -4  -5   40.42    7.08
  -7   4  -5   51.64    8.03
  -7   4  -5   49.70    8.69
  -7  -4  -6   37.41    6.35
  -7   4  -6   44.17    8.25
  -7   4  -6   42.60    7.69
  -7  -4  -7    5.45    3.10
  -7   4  -7    5.88    2.41
  -7   4  -7    3.16    2.43
  -7   4  -8  187.29   14.41
  -7   4  -8  237.56   15.40
  -7   4  -9   15.31    4.14
  -7   4  -9   16.27    3.68
  -7  -4 -10    1.46    1.51
  -7   4 -10    1.14    1.18
  -7  -4 -11   65.10    5.91
   7  -5 -15    6.00    2.05
   7  -5 -15    6.59    1.63
   7  -5 -14   44.96    5.33
   7  -5 -14   39.19    4.62
   7  -5 -13   10.78    3.22
   7  -5 -13   12.02    3.04
   7  -5 -12    5.20    2.81
   7  -5 -12    6.05    2.84
   7  -5 -11    9.38    4.24
   7  -5 -11    9.71    3.40
  -7  -5  11    9.73    3.36
   7   5 -11   12.61    4.57
   7  -5 -10    7.10    4.23
  -7  -5  10    2.41    1.03
   7   5 -10    3.68    1.77
  -7  -5   9   37.20    6.86
   7   5  -9   37.06    6.99
  -7  -5   8   71.96    9.62
   7   5  -8   71.69    8.28
  -7   5   8   70.55   12.47
  -7  -5   7   17.22    5.37
  -7   5   7   21.91    7.78
  -7  -5   7   10.84    3.69
  -7   5   7   13.21    5.21
   7   5  -6   55.92   16.39
  -7   5   6   63.94   18.92
   7  -5  -6   51.51   15.22
   7   5  -5   10.48    8.61
  -7   5   5    8.29    8.89
   7  -5  -5   15.61   12.42
  -7   5   4  545.94   51.88
   7   5  -4  353.76   39.80
   7  -5  -4  468.16   57.30
  -7  -5   4  565.58   51.47
   7   5  -4  399.45   42.23
  -7  -5   3   11.26    6.30
   7   5  -3   12.60   10.57
   7   5  -3   15.27    8.35
  -7   5   3   16.24    8.01
   7  -5  -3    4.11    5.19
  -7  -5   2   24.75   13.04
   7   5  -2   18.11   11.51
   7   5  -2   19.76   10.01
  -7   5   2   31.03   11.65
   7  -5  -2   15.07   11.09
  -7   5   1  139.68   23.23
   7  -5  -1  113.22   28.50
  -7  -5   1  141.38   25.41
  -7  -5   0   36.29   15.54
  -7   5   0   45.27   14.34
   7  -5   0   26.93   13.61
  -7  -5  -1   18.38   10.59
  -7   5  -1   32.03   13.23
   7  -5   1   29.33   15.35
   7   5   1   11.97   11.48
   7  -5   2   66.77   22.64
   7   5   2  127.56   30.44
  -7  -5  -3   17.91    4.86
  -7   5  -3   22.43    5.34
  -7   5  -3   19.86    6.65
  -7  -5  -4   62.74    8.60
  -7   5  -4   69.20   10.54
  -7   5  -4   57.19    7.91
  -7  -5  -5    6.02    2.29
  -7   5  -5    9.59    3.46
  -7   5  -5    8.55    3.39
  -7  -5  -6    5.67    2.99
  -7   5  -6    6.54    2.86
  -7   5  -6    2.42    2.13
  -7  -5  -7    3.91    2.41
  -7   5  -7    6.14    2.69
  -7   5  -7    4.66    3.14
  -7   5  -8    0.57    1.31
  -7   5  -8   -0.08    0.93
  -7   5  -9    5.26    2.44
  -7  -5 -10    2.22    2.01
  -7   5 -10    1.14    1.27
   7  -6 -14    0.22    1.02
   7  -6 -14    1.60    1.28
   7  -6 -13    5.47    2.45
   7  -6 -13    3.43    1.57
   7  -6 -12   16.90    4.16
   7  -6 -12   32.78    6.28
   7  -6 -11   15.74    4.90
   7  -6 -11   16.62    4.33
  -7  -6  11   11.96    3.72
   7   6 -11   15.66    4.86
   7  -6 -10    1.51    1.69
  -7  -6  10    3.95    5.23
   7   6 -10    3.52    2.59
   7  -6  -9  110.22   11.96
  -7  -6   9   90.11   10.70
   7   6  -9   88.87    9.93
   7  -6  -8   35.91    7.27
  -7  -6   8   33.81    6.93
   7   6  -8   33.75    7.82
  -7  -6   7   40.36    7.18
  -7  -6   7   32.46    6.31
   7   6  -7   31.15    5.74
  -7  -6   6    7.29    5.00
  -7  -6   6    9.38    3.03
   7   6  -5   54.92   15.22
   7   6  -5   57.58   17.68
   7  -6  -5   67.45   18.99
   7   6  -4   63.98   19.24
   7   6  -4   74.67   20.68
   7  -6  -4   96.36   24.31
  -7   6   4   92.61   21.98
  -7  -6   3    6.50    2.66
   7   6  -3   11.11    9.59
   7   6  -3    6.22    8.71
   7  -6  -3   19.09   16.29
  -7   6   3    7.46    6.06
   7   6  -2  554.59   56.81
   7  -6  -2  571.14   65.71
  -7  -6   2  747.15   57.95
  -7   6   2  714.25   56.60
   7   6  -2  558.76   59.73
  -7  -6   1   80.56   21.48
   7   6  -1   71.40   21.28
  -7   6   1   92.77   20.14
   7  -6  -1   63.56   22.99
  -7   6   0  115.96   22.66
   7  -6   0   74.58   23.93
   7   6   0   99.78   27.73
  -7   6  -1    0.25    2.38
   7  -6   1    2.97    6.70
   7   6   1    5.43    5.75
  -7  -6  -2  111.63   10.72
  -7   6  -2  113.22   14.02
  -7   6  -2  111.11   10.39
  -7  -6  -3    1.74    0.99
  -7   6  -3    2.69    3.61
  -7  -6  -3    0.66    3.13
  -7   6  -3    0.16    1.04
  -7  -6  -4   -1.78    2.04
  -7   6  -4   -0.71    2.49
  -7   6  -4    1.52    2.50
  -7  -6  -5    1.76    2.49
  -7   6  -5    5.34    4.63
  -7   6  -5   -0.33    0.90
  -7  -6  -6   50.58    7.60
  -7   6  -6   52.83    8.58
  -7   6  -6   54.93    7.46
  -7  -6  -7   21.46    4.95
  -7   6  -7   16.06    4.47
  -7   6  -7   14.82    3.74
  -7   6  -8  106.29    9.63
  -7   6  -9    3.00    1.76
  -7  -6 -10   13.08    3.21
  -7   6 -10   12.26    2.75
   7  -7 -14   16.35    2.71
   7  -7 -14   18.98    2.86
   7  -7 -13   22.86    3.96
   7  -7 -13   20.22    3.68
   7  -7 -12   11.10    3.36
   7  -7 -12   11.91    3.47
   7  -7 -11   -1.03    0.83
   7  -7 -11    1.14    1.27
   7   7 -11    0.07    0.69
   7  -7 -10    3.97    2.83
  -7  -7  10    9.55    4.09
   7   7 -10    5.40    2.79
   7  -7  -9   32.04    6.48
  -7  -7   9   24.38    5.43
   7   7  -9   23.92    4.95
   7  -7  -8   68.53    9.55
  -7  -7   8   65.58    8.90
   7   7  -8   55.12    7.95
   7  -7  -7    7.03    3.60
  -7  -7   7    5.16    4.04
   7   7  -7    4.45    2.23
  -7  -7   6   51.34    8.06
  -7  -7   6   53.80    8.56
  -7   7   5   14.23    5.44
  -7  -7   5   23.16    7.15
  -7  -7   5   11.42    3.44
  -7   7   4  194.24   19.78
  -7  -7   4  189.56   14.44
  -7  -7   4  208.56   15.53
   7   7  -3  166.00   34.43
   7   7  -3  163.49   32.46
   7  -7  -3  200.59   38.52
  -7  -7   2   -1.41    3.35
   7   7  -2    1.28    7.47
   7   7  -2    2.72    5.80
  -7   7   2    4.79    6.53
   7  -7  -2   -3.03    6.70
  -7  -7   1   37.26   13.37
   7   7  -1   33.64   15.14
   7  -7  -1   39.46   17.78
  -7   7   0   87.11   13.14
  -7  -7   0   50.29    7.87
  -7   7  -1   17.01    7.26
  -7  -7  -1   12.10    5.92
  -7   7  -2  648.89   36.05
  -7  -7  -2  601.15   25.78
  -7   7  -2  597.40   23.97
  -7  -7  -3   46.76    8.47
  -7  -7  -3   36.61    6.46
  -7   7  -3   37.47    6.37
  -7   7  -3   54.56   10.83
  -7  -7  -4  397.08   22.67
  -7   7  -4  366.67   24.85
  -7  -7  -4  313.14   17.45
  -7   7  -4  331.69   18.50
  -7  -7  -5    9.82    3.52
  -7   7  -5   12.35    4.62
  -7   7  -5    9.47    3.10
  -7  -7  -6   21.84    5.02
  -7   7  -6   16.53    4.47
  -7   7  -6   18.58    4.46
  -7   7  -7   12.85    3.50
  -7   7  -8    3.50    1.86
  -7   7  -9   24.41    5.52
  -7  -7 -10    1.64    1.11
  -7   7 -10    1.10    0.78
   7  -8 -13    8.30    2.14
   7  -8 -13    8.58    2.13
   7  -8 -12   -0.02    0.55
   7   8 -12    1.47    1.45
   7  -8 -11   34.21    5.90
   7  -8 -11   38.13    6.10
   7   8 -11   37.94    6.18
   7  -8 -10   11.71    3.70
   7  -8 -10   10.43    3.74
  -7  -8  10   15.34    5.01
   7   8 -10   16.19    4.52
   7  -8  -9   64.69    8.80
  -7  -8   9   69.71    8.99
   7   8  -9   68.27    8.57
   7  -8  -8   26.88    5.63
  -7  -8   8   27.70    5.98
   7   8  -8   22.26    4.96
  -7  -8   7    2.23    2.31
  -7  -8   7    1.23    2.07
   7   8  -7    3.08    3.28
  -7  -8   6   65.13    9.02
  -7  -8   6   56.58    8.06
  -7  -8   5    1.15    2.15
  -7  -8   5    4.12    3.14
  -7   8   4    0.19    2.92
  -7  -8   4    4.20    2.73
  -7  -8   4    4.79    3.14
  -7   8   3  120.94   15.86
  -7  -8   3  123.32   12.09
  -7  -8   3  128.14   12.69
  -7   8   2  584.91   35.35
  -7  -8   2  625.37   27.65
  -7   8   1   18.49    6.26
  -7  -8   1   24.15    5.68
  -7  -8   0   38.74    7.21
  -7   8   0   47.20   10.02
  -7   8  -1   69.98   12.55
  -7  -8  -1   65.69    8.99
  -7   8  -2   44.63    9.83
  -7  -8  -2   48.13    7.63
  -7   8  -2   44.47    6.98
  -7   8  -3   41.16    9.05
  -7  -8  -3   40.61    6.69
  -7   8  -3   38.21    6.36
  -7  -8  -4   89.03   10.63
  -7   8  -4   83.48   12.00
  -7  -8  -4   68.32    8.43
  -7   8  -4   76.98    8.96
  -7  -8  -5   14.11    4.40
  -7   8  -5   14.90    4.61
  -7   8  -5   11.43    3.47
  -7  -8  -6    0.62    1.40
  -7   8  -6   18.95    4.27
  -7   8  -7   33.48    5.17
  -7   8  -8   44.69    5.60
  -7   8  -9    1.12    1.05
   7  -9 -13   38.43    4.07
   7  -9 -13   38.24    4.00
   7  -9 -12    2.99    1.67
   7  -9 -12    3.49    1.56
   7   9 -12    4.21    1.92
   7  -9 -11   -0.24    0.69
   7   9 -11   -1.90    1.19
   7  -9 -10   18.35    3.98
   7  -9 -10   18.31    4.33
  -7  -9  10   19.77    5.16
   7   9 -10   18.51    5.65
   7  -9  -9    1.32    1.70
  -7  -9   9    1.33    1.62
   7   9  -9    4.49    3.37
  -7  -9   8   57.22    8.24
   7   9  -8   57.16    8.59
  -7  -9   7   21.57    4.54
  -7  -9   7   21.30    4.81
   7   9  -7   19.08    4.89
  -7  -9   6  110.00   11.58
   7   9  -6  100.76   11.47
  -7  -9   6  102.20   10.64
  -7  -9   5    3.26    3.15
  -7  -9   5    4.90    3.26
  -7   9   4   20.78    8.09
  -7  -9   4    3.09    2.99
  -7  -9   4   14.49    4.79
  -7   9   3  131.29   17.20
  -7  -9   3  150.95   13.81
  -7   9   2  110.23   15.84
  -7  -9   2  120.16   12.56
  -7   9   1   58.43   11.60
  -7  -9   1   67.97    9.07
  -7   9   0   25.31    8.16
  -7  -9   0   39.93    7.92
  -7   9  -1   39.03    9.98
  -7  -9  -1   39.33    7.12
  -7   9  -2    2.83    3.02
  -7  -9  -2    3.42    0.80
  -7   9  -3   10.80    5.54
  -7  -9  -3   12.85    4.46
  -7   9  -3    9.67    3.46
  -7   9  -4  184.45   16.36
  -7  -9  -4  176.24   13.80
  -7   9  -4  165.43   12.30
  -7  -9  -5   10.77    3.60
  -7   9  -5   11.18    3.78
  -7   9  -6   20.58    4.31
  -7   9  -7    1.92    1.73
  -7   9  -8    3.04    2.49
  -7   9  -9   19.90    3.13
  -7  -9  -9   21.66    3.47
   7 -10 -12    0.25    0.60
   7 -10 -12    1.84    0.87
   7 -10 -11   10.69    2.78
   7 -10 -11    8.41    2.52
   7  10 -11    5.98    1.92
   7 -10 -10   -0.39    0.76
  -7 -10  10    0.78    1.74
   7  10 -10    2.80    1.46
   7 -10  -9   22.65    4.47
  -7 -10   9   21.17    4.56
   7  10  -9   24.43    5.40
  -7 -10   8    5.14    2.28
   7  10  -8    6.20    4.63
  -7 -10   7    2.71    1.58
   7  10  -7    1.58    0.87
  -7 -10   6    8.66    3.55
  -7 -10   6    5.31    2.50
  -7 -10   5  173.17   14.31
  -7 -10   5  183.90   15.01
  -7 -10   4   24.10    5.44
  -7 -10   4   26.10    5.53
  -7  10   3    5.27    3.86
  -7 -10   3    3.66    2.47
  -7  10   2    4.71    4.46
  -7 -10   2    6.06    3.34
  -7  10   1   75.13   12.78
  -7 -10   1   83.95   10.42
  -7  10   0    4.11    4.40
  -7 -10   0    1.18    0.65
  -7  10  -1  142.11   16.87
  -7 -10  -1  144.11   13.48
  -7  10  -2   17.26    6.07
  -7 -10  -2   16.43    4.40
  -7  10  -3   53.83    9.31
  -7 -10  -3   57.74    8.51
  -7 -10  -4    3.54    2.95
  -7  10  -4    3.79    2.15
  -7 -10  -5   47.31    6.70
  -7  10  -5   43.59    5.98
  -7 -10  -6   37.95    5.59
  -7  10  -6   34.40    5.02
  -7  10  -7   51.84    5.75
  -7  10  -8    0.30    0.38
   7 -11 -11   22.61    2.84
   7  11 -11    2.88    1.69
   7 -11 -10    1.31    0.97
   7  11 -10   -0.26    0.77
   7 -11  -9    2.53    1.70
   7  11  -9    4.28    2.49
   7 -11  -8    3.65    1.78
  -7 -11   8    5.26    2.25
   7  11  -8    3.83    2.13
  -7 -11   7   21.37    5.07
   7  11  -7   22.89    5.71
  -7 -11   6   12.32    3.74
  -7 -11   6   14.24    4.48
   7  11  -6   13.96    4.96
  -7 -11   5   69.05    9.25
  -7 -11   5   65.42    8.09
   7  11  -5   66.29    9.58
  -7 -11   4   23.68    5.52
  -7 -11   4   24.17    5.41
  -7 -11   3   12.75    4.52
  -7 -11   2  155.60   14.02
  -7 -11   1    1.16    2.26
  -7  11   1   -0.74    1.94
  -7  11   0    1.75    1.78
  -7 -11   0    1.87    2.31
  -7  11  -1    6.18    2.82
  -7 -11  -1    8.16    3.38
  -7  11  -2   11.86    5.33
  -7 -11  -2   17.01    4.66
  -7 -11  -3  119.51   11.60
  -7 -11  -4    2.86    2.03
  -7 -11  -5   15.97    3.75
  -7  11  -6    3.95    1.47
  -7 -11  -6    2.41    1.46
  -7  11  -7    1.82    1.20
   7  11   7   -1.38    1.25
   7  12 -11   13.11    2.81
   7  12 -10    1.65    0.79
  -7 -12   9   14.45    3.31
   7  12  -9   18.31    3.86
  -7 -12   8   34.33    6.17
   7  12  -8   29.19    5.39
  -7 -12   7   28.31    5.68
   7  12  -7   28.44    5.90
  -7 -12   6   11.55    3.78
   7  12  -6    7.82    2.57
  -7 -12   5    3.60    2.01
  -7 -12   5    2.56    2.10
   7  12  -5    4.54    3.07
  -7 -12   4    3.25    2.00
  -7 -12   4    4.21    2.29
  -7 -12   3   56.72    8.15
  -7 -12   3   69.06    9.30
  -7 -12   2   21.89    5.07
  -7 -12   1   70.19    9.04
  -7 -12   0    3.18    3.51
  -7 -12  -1   59.78    8.25
  -7 -12  -2   21.64    5.04
  -7 -12  -3    7.41    2.92
   7  12   3    1.38    3.21
  -7 -12  -4    9.59    3.22
   7  12   4   26.99    5.38
  -7 -12  -5   38.55    5.76
   7  12   5   32.68    7.28
  -7 -12  -6    6.14    2.07
   7  12   6    6.68    3.42
  -7 -13   9    3.00    1.73
   7  13  -9    2.82    1.94
  -7 -13   8    1.45    1.52
   7  13  -8    0.60    0.59
  -7 -13   7    0.76    1.07
   7  13  -7    3.65    2.89
  -7 -13   6   11.59    3.15
   7  13  -6    8.54    3.29
  -7 -13   5   43.69    5.70
  -7 -13   5   44.72    6.59
   7  13  -5   45.31    7.27
  -7 -13   4   57.91    7.68
  -7 -13   4   48.24    7.15
  -7 -13   3   11.57    3.35
  -7 -13   3   13.86    5.23
  -7 -13   2    1.24    1.87
  -7 -13   2    4.76    3.25
  -7 -13   1   29.40    5.49
  -7 -13   0   10.66    3.90
  -7 -13  -1    8.71    3.33
  -7 -13  -1   12.58    3.32
  -7 -13  -2   38.34    5.80
  -7 -13  -3   45.78    6.14
   7  13   3   40.82    8.34
  -7 -13  -4    6.17    2.20
   7  13   4    6.21    2.62
  -7 -13  -5    5.02    1.78
   7  13   5   16.22    5.51
  -7 -14   8    1.47    1.03
   7  14  -8    9.17    2.49
  -7 -14   7   30.32    4.34
   7  14  -7   37.16    5.18
  -7 -14   6    0.20    0.83
   7  14  -6    4.40    2.47
  -7 -14   5    2.02    1.58
   7  14  -5    4.96    2.80
  -7 -14   4   17.41    3.33
  -7 -14   4   16.08    3.95
  -7 -14   3    2.40    1.35
  -7 -14   3    0.53    1.15
  -7 -14   2   27.43    4.75
  -7 -14   2   28.16    4.99
  -7 -14   1   48.44    6.28
  -7 -14   1   49.09    6.22
  -7 -14   0    0.75    0.62
  -7 -14   0    2.17    1.65
  -7 -14  -1    1.71    1.39
  -7 -14  -1    3.10    2.43
  -7 -14  -2  100.42   12.00
  -7 -14  -3    0.13    1.09
  -7 -14  -4   18.73    3.13
  -7 -15   6   29.28    4.10
  -7 -15   5    0.95    0.77
  -7 -15   4    9.49    2.50
  -7 -15   3    7.06    2.22
  -7 -15   3    3.07    1.45
  -7 -15   2    8.91    2.15
  -7 -15   2    8.92    2.31
  -7 -15   1   12.84    2.78
  -7 -15   1   12.86    2.93
  -7 -15   0   13.57    3.06
  -7 -15   0    8.83    2.27
  -7 -15  -1    1.10    0.92
  -7 -15  -1    3.20    1.64
  -7 -15  -2   35.09    4.08
  -7 -15  -3    2.87    1.25
  -7 -16   4    3.35    1.70
  -7 -16   3    2.06    0.99
  -7 -16   2   12.30    2.41
  -7 -16   1    1.73    1.16
   8   0 -14    1.59    1.40
   8   0 -13    0.80    1.48
   8   0 -12   86.66   10.85
  -8   0  12   69.07   10.20
  -8   0  11    8.75    4.38
   8   0 -11    0.43    1.18
  -8   0  10   63.64    9.82
  -8   0   9   -0.78    1.61
  -8   0   9    0.59    2.30
  -8   0   8   11.49    4.58
  -8   0   8   26.37    6.69
  -8   0   7   -2.04    1.35
  -8   0   7    4.46    4.65
   8   0  -6   26.98   12.12
  -8   0   6   18.24    9.00
  -8   0   5    2.71    8.22
   8   0  -5    8.60   14.90
  -8   0   5    0.11    8.64
  -8   0   4    6.80    6.13
   8   0  -4    4.21    5.76
  -8   0   4    0.40    4.10
   8   0  -3    4.34    4.26
  -8   0   3    0.51    1.70
   8   0  -2  172.16   36.84
  -8   0   2  223.02   33.90
   8   0  -1    5.72    8.63
  -8   0   1    5.81    9.78
   8   0   0   32.52   15.74
  -8   0   0   28.05   11.90
  -8   0  -1    5.91    8.40
  -8   0  -2  275.24   17.29
  -8   0  -2  321.03   18.13
  -8   0  -3    0.96    1.94
  -8   0  -3    5.33    3.12
  -8   0  -4  173.80   14.80
  -8   0  -4  172.68   13.49
  -8   0  -5    1.03    2.02
  -8   0  -5    2.74    1.78
  -8   0  -6  801.58   32.38
  -8   0  -6  796.90   28.67
  -8   0  -7    2.41    3.40
  -8   0  -7   -0.04    0.83
  -8   0  -8    4.50    2.75
  -8   0  -8    2.77    1.46
  -8   0  -9    0.64    1.93
  -8   0 -10    2.79    1.63
   8  -1 -14    6.93    2.26
   8   1 -14    4.80    1.74
   8   1 -14    5.69    1.88
   8  -1 -13    3.99    2.87
   8   1 -13    2.71    1.95
   8  -1 -13    0.72    1.40
  -8  -1  13    1.36    2.29
   8  -1 -12    7.87    3.48
   8   1 -12    4.77    2.49
  -8   1  12    5.84    4.48
  -8  -1  12   11.66    6.67
   8  -1 -12    5.05    2.31
  -8   1  11   13.81    5.07
  -8  -1  11   16.48    4.91
  -8   1  10   82.43   11.63
  -8  -1  10   75.65   10.43
  -8  -1  10  100.63   11.98
  -8   1   9   17.43    5.33
  -8  -1   9   15.51    4.67
  -8   1   9   21.97    6.32
  -8  -1   9   26.28    6.45
  -8   1   8   95.14   11.86
  -8  -1   8   90.97   10.57
  -8   1   8  132.31   14.84
  -8  -1   8  130.82   14.14
  -8   1   7   11.60    4.03
  -8  -1   7    9.38    3.39
  -8   1   7   19.61    5.72
  -8  -1   7   15.95    4.96
  -8   1   6   15.62    8.67
   8   1  -6   12.10    7.86
   8  -1  -6   14.61    9.16
  -8  -1   6   13.15    6.67
  -8  -1   6   18.56   12.63
  -8   1   5   26.28   12.39
  -8  -1   5   12.97    5.58
   8   1  -5    8.85    8.08
   8  -1  -5    7.41    7.03
  -8  -1   5   12.62   11.08
  -8   1   4   10.99    7.07
   8  -1  -4    8.65    7.63
   8   1  -4   13.12   10.24
  -8   1   4    6.57   10.28
  -8  -1   4    6.96    9.29
   8  -1  -3    4.71   11.41
   8   1  -3    1.32    6.46
  -8   1   3   -2.14    5.38
  -8  -1   3    3.14    4.23
   8  -1  -2   58.41   21.47
   8   1  -2   62.55   23.01
  -8   1   2   66.26   20.29
  -8  -1   2   68.47   18.39
   8  -1  -1   14.22   14.10
   8   1  -1    0.78    3.45
  -8   1   1    6.42    7.37
  -8  -1   1    9.46    5.82
   8  -1   0  245.81   45.03
   8   1   0  319.98   50.27
  -8   1   0  333.80   42.11
  -8  -1   0  333.99   39.18
  -8  -1  -1   -2.17    5.11
  -8   1  -1    2.51    6.87
  -8   1  -2    6.32    3.32
  -8  -1  -2    7.22    2.90
  -8   1  -2    7.53    3.20
  -8  -1  -2    7.73    2.44
  -8   1  -2    5.75    4.23
  -8   1  -3   54.77    8.29
  -8  -1  -3   62.84    8.68
  -8  -1  -3   65.21    8.37
  -8   1  -3   59.93    8.31
  -8   1  -4    4.56    3.57
  -8  -1  -4    0.26    2.11
  -8  -1  -4    2.48    2.27
  -8   1  -4    1.63    2.03
  -8   1  -5    6.63    3.34
  -8  -1  -5    7.06    3.62
  -8  -1  -5    5.61    2.74
  -8   1  -5    4.69    2.28
  -8   1  -6   77.22   10.31
  -8  -1  -6   69.54    9.39
  -8  -1  -6   61.37    8.41
  -8   1  -6   75.06    9.32
  -8   1  -7    4.03    2.57
  -8  -1  -7    5.44    3.05
  -8   1  -7    4.30    2.84
  -8   1  -8   90.54   10.24
  -8  -1  -8   93.97   10.10
  -8   1  -8  108.03    9.84
  -8   1  -9   12.55    3.90
  -8  -1  -9   11.26    3.52
  -8   1  -9   10.75    2.73
  -8   1 -10    2.55    1.58
  -8  -1 -10    3.99    1.61
   8  -2 -15    3.45    1.34
   8  -2 -14   44.48    5.18
   8  -2 -14   39.17    4.32
   8  -2 -13    8.50    3.17
   8   2 -13    5.56    2.30
   8  -2 -13    7.31    3.49
   8  -2 -12   80.69    9.53
   8   2 -12   72.23    8.49
   8  -2 -12   64.81    7.81
  -8  -2  12   82.06   10.70
  -8   2  11   35.35    9.15
  -8  -2  11   18.23    4.76
  -8   2  10    7.98    4.61
  -8  -2  10    4.46    2.61
  -8  -2  10    5.19    3.22
  -8   2   9    0.44    1.42
  -8  -2   9    0.60    1.09
  -8   2   9    2.32    2.63
  -8  -2   9    3.00    2.55
  -8   2   8   30.23    7.16
  -8  -2   8   28.25    5.99
  -8   2   8   35.64    7.71
  -8  -2   8   31.85    7.13
  -8  -2   7   77.19    9.22
  -8   2   7   86.84   11.43
  -8  -2   7  114.62   12.98
  -8   2   7   98.87   12.75
  -8   2   6   42.05   15.09
  -8  -2   6   37.62   15.84
  -8   2   5   91.15   21.36
   8  -2  -5   68.95   21.91
  -8  -2   5   85.19   25.28
  -8   2   4  110.04   21.36
   8  -2  -4   82.98   24.60
   8   2  -4   61.14   20.32
  -8   2   4   70.05   23.14
  -8  -2   4   76.53   22.27
  -8   2   3  252.25   31.85
   8  -2  -3  168.09   37.88
   8   2  -3  154.33   33.34
  -8  -2   3  171.12   33.33
  -8   2   3  203.62   37.00
   8  -2  -2   69.13   23.12
   8   2  -2   73.04   23.10
  -8   2   2   81.98   23.13
  -8  -2   2   43.92   17.80
  -8  -2   1    1.02    1.83
   8  -2  -1   -2.98    4.12
   8   2  -1   -0.44    6.60
  -8   2   1    4.24    8.37
  -8  -2   0   93.88   20.91
   8  -2   0   59.74   20.98
   8   2   0   63.94   22.54
  -8   2   0   96.76   23.77
  -8  -2  -1  140.41   25.37
   8  -2   1   84.75   25.42
  -8   2  -1  121.66   27.06
  -8   2  -2   29.38    5.90
  -8  -2  -2   38.69    7.04
  -8   2  -2   38.01    6.13
  -8   2  -3   12.70    3.96
  -8  -2  -3   15.93    5.99
  -8  -2  -3   14.01    3.95
  -8   2  -3   16.67    4.00
  -8   2  -4  182.12   15.56
  -8  -2  -4  216.88   17.26
  -8  -2  -4  172.96   12.70
  -8   2  -4  196.02   14.85
  -8   2  -5   14.30    4.87
  -8  -2  -5   16.46    4.38
  -8  -2  -5   10.98    3.47
  -8   2  -5   25.38    5.96
  -8   2  -6   63.30    9.16
  -8  -2  -6   52.92    8.09
  -8  -2  -6   49.87    6.55
  -8   2  -6   60.40    8.18
  -8   2  -7    3.23    2.44
  -8   2  -7    4.05    2.72
  -8  -2  -7    1.79    1.80
  -8   2  -8    3.92    2.33
  -8  -2  -8    6.44    2.63
  -8   2  -9   27.34    5.09
  -8  -2  -9   21.19    4.74
  -8   2  -9   37.55    5.94
  -8  -2 -10    4.34    1.96
   8  -3 -14    2.10    1.49
   8  -3 -14    0.66    0.86
   8  -3 -13   10.79    3.57
   8  -3 -13   11.31    4.35
   8  -3 -12   17.28    4.35
   8   3 -12   15.84    4.13
   8  -3 -12   12.01    3.30
  -8  -3  12   12.83    3.94
   8  -3 -11   13.46    4.53
  -8  -3  11    9.36    3.55
  -8   3  10   19.61    7.09
  -8  -3  10   33.96    8.46
  -8  -3  10   18.65    4.96
  -8   3   9   15.12    5.54
  -8  -3   9   15.06    4.20
  -8  -3   9   18.93    5.25
  -8  -3   8    3.32    2.35
  -8   3   8    3.60    3.85
  -8  -3   8    1.13    2.61
  -8   3   7   23.44    6.56
  -8  -3   7   21.64    4.71
  -8   3   7   30.06    7.81
  -8  -3   7   26.91    5.62
  -8   3   6   11.15    3.74
  -8  -3   6   14.12    5.18
  -8   3   6   10.63    3.67
  -8   3   5  149.75   27.81
   8  -3  -5  109.73   27.99
  -8  -3   5  132.17   26.90
  -8   3   4   26.97   11.28
   8  -3  -4   16.48   12.20
  -8  -3   4   28.80   15.35
  -8   3   3  137.04   24.57
   8  -3  -3   65.02   23.94
  -8   3   3   91.12   26.90
  -8  -3   3  124.85   26.34
  -8  -3   2   29.24   15.46
  -8   3   2   49.58   14.39
   8  -3  -2   32.12   15.66
  -8   3   2   50.31   18.98
   8  -3  -1  169.92   36.38
   8   3  -1  221.79   41.48
  -8   3   1  274.80   43.72
  -8  -3   1  226.21   35.92
  -8  -3   0  171.91   30.53
   8  -3   0  110.83   29.17
   8   3   0  164.87   37.04
  -8   3   0  175.13   34.70
  -8   3  -1    6.71    2.60
  -8   3  -1    1.46    4.25
  -8   3  -2    4.67    3.15
  -8  -3  -2    2.68    1.91
  -8   3  -2   10.06    4.39
  -8   3  -3    3.83    2.06
  -8   3  -3    5.42    2.61
  -8   3  -4   -0.19    2.56
  -8   3  -4    3.06    3.18
  -8   3  -5   11.34    4.56
  -8   3  -5   29.17    6.79
  -8   3  -6    0.16    1.62
  -8   3  -6    1.00    0.72
  -8  -3  -7    7.10    2.90
  -8   3  -7   11.78    3.46
  -8   3  -7    9.38    3.93
  -8   3  -8   13.32    3.91
  -8  -3  -8   18.97    4.78
  -8   3  -8   18.89    4.45
  -8  -3  -9   44.35    6.43
  -8   3  -9   44.88    5.95
  -8   3  -9   53.54    6.16
  -8  -3 -10    1.09    1.29
   8  -4 -14    3.83    1.48
   8  -4 -14    2.71    1.27
   8  -4 -13    0.60    0.70
   8  -4 -13    3.98    2.11
   8  -4 -12    1.11    1.37
   8  -4 -12    1.66    0.71
  -8  -4  12    3.05    2.54
   8  -4 -11   33.10    6.46
  -8  -4  11   31.34    6.15
  -8  -4  10    1.84    1.76
  -8   4   9   17.67    6.43
  -8  -4   9   13.96    4.16
   8   4  -9   14.70    3.78
  -8  -4   9   20.72    6.29
  -8   4   8   31.82    7.69
  -8  -4   8   28.78    6.20
  -8   4   8   21.68    5.25
  -8  -4   8   29.09    6.22
  -8   4   7   34.56    7.54
  -8  -4   7   22.35    4.79
  -8   4   7   28.04    6.57
  -8  -4   7   36.69    7.15
  -8  -4   6  350.45   19.97
  -8   4   6  426.13   26.44
  -8  -4   6  319.86   18.08
  -8   4   6  318.35   21.68
  -8  -4   6  407.28   21.98
  -8  -4   5   75.68    8.90
  -8  -4   5   72.93    8.55
  -8  -4   5   90.33    9.89
  -8   4   4    0.22    1.92
   8  -4  -4    3.23    4.67
  -8  -4   4    0.91    2.07
   8  -4  -3  154.91   34.66
  -8   4   3  226.62   33.91
  -8  -4   3  170.18   31.60
  -8  -4   2    0.22    4.99
  -8   4   2    2.06    6.75
   8  -4  -2   -6.27    6.62
  -8  -4   1    4.61    6.56
   8  -4  -1    7.78    9.16
  -8   4   1    6.53    8.44
  -8   4   0   43.77   18.25
  -8   4  -1  195.44   15.97
  -8   4  -1  220.38   14.88
  -8   4  -2    2.96    1.97
  -8   4  -2    7.03    2.60
  -8   4  -3  136.58   13.88
  -8   4  -3  148.57   12.87
  -8   4  -4  117.83   13.06
  -8   4  -4  123.98   11.86
  -8   4  -5   66.08    9.78
  -8   4  -5   59.26    8.32
  -8   4  -6    8.18    3.33
  -8   4  -6    9.12    3.93
  -8  -4  -7   44.59    6.86
  -8   4  -7   47.53    6.88
  -8   4  -7   45.11    7.49
  -8   4  -8    8.03    4.45
  -8  -4  -8    1.57    1.41
  -8   4  -8   13.65    5.13
  -8   4  -9   17.20    3.40
  -8  -4  -9   20.72    4.16
  -8   4  -9   21.98    3.91
  -8  -4 -10   39.52    4.69
   8  -5 -14    4.92    1.60
   8  -5 -14    6.15    1.57
   8  -5 -13    0.89    1.18
   8  -5 -13    1.65    0.80
   8  -5 -12    4.64    2.55
   8  -5 -12    3.49    1.92
   8  -5 -11   24.38    5.63
   8  -5 -11   19.77    4.90
  -8  -5  11   18.10    5.08
   8  -5 -10   38.34    7.26
  -8  -5  10   38.76    7.09
   8   5 -10   34.65    5.80
  -8  -5   9   10.98    4.03
   8   5  -9    7.57    2.86
  -8  -5   9    7.66    3.26
  -8  -5   8    2.87    3.12
  -8  -5   8    2.93    3.07
  -8   5   7  260.83   22.90
  -8  -5   7  225.82   16.06
  -8  -5   7  254.87   17.65
  -8   5   6  327.07   22.99
  -8  -5   6  268.91   17.09
  -8   5   6  354.71   24.92
  -8   5   6  238.77   19.60
  -8  -5   6  316.43   19.86
  -8  -5   6  282.77   18.06
  -8   5   5  151.57   16.05
  -8  -5   5  135.34   12.24
  -8   5   5  150.49   14.76
  -8  -5   5  127.37   11.48
  -8  -5   5  139.91   12.36
  -8  -5   4  124.50   11.78
  -8  -5   4  120.56   11.15
  -8  -5   4  122.23   11.14
  -8  -5   3  118.50   25.74
  -8   5   3  127.45   15.54
  -8  -5   3  112.97   12.16
  -8   5   2   15.89    9.63
  -8   5   2   19.57    5.68
  -8  -5   2   22.73    5.60
  -8   5   1   82.57   19.88
  -8   5   1   87.00   11.55
  -8  -5   1   84.16    9.48
  -8  -5   0   27.67    5.23
  -8   5   0   26.39    4.92
  -8   5   0   31.79    8.13
  -8   5  -1   16.02    4.42
  -8  -5  -1   18.02    4.23
  -8   5  -1   19.87    4.80
  -8   5  -2   34.67    9.67
  -8   5  -2   18.94    4.81
  -8   5  -3   -0.47    1.75
  -8   5  -3    1.75    2.19
  -8   5  -4   16.78    5.14
  -8   5  -4   19.42    4.94
  -8   5  -5   18.75    4.38
  -8   5  -5   19.53    5.77
  -8   5  -6    1.18    2.72
  -8   5  -6   -3.00    2.48
  -8   5  -7   41.28    6.99
  -8   5  -7   48.77    6.58
  -8  -5  -8    1.50    0.72
  -8   5  -8   -0.92    1.20
  -8   5  -8    1.19    1.43
  -8  -5  -9   25.14    4.38
  -8   5  -9   30.80    4.62
   8  -6 -14    1.59    0.67
   8  -6 -14    0.60    0.70
   8  -6 -13   10.98    2.56
   8  -6 -13   11.94    2.64
   8  -6 -12   -0.91    1.00
   8  -6 -12    0.48    1.14
   8  -6 -11   55.37    7.49
   8  -6 -11   51.13    7.23
  -8  -6  11   47.39    6.96
   8  -6 -10   38.44    6.62
  -8  -6  10   41.77    6.94
   8   6 -10   36.77    5.98
   8  -6  -9   22.38    5.15
  -8  -6   9   19.85    5.25
   8   6  -9   22.17    4.94
  -8  -6   8    9.19    3.77
  -8  -6   7  141.12   13.16
  -8  -6   7  140.18   13.24
  -8  -6   6    9.16    3.50
  -8  -6   6   10.37    2.93
  -8  -6   6    8.61    3.12
  -8   6   5   43.29   11.87
  -8  -6   5   40.22    6.89
  -8  -6   5   34.18    6.22
  -8  -6   5   37.62    6.27
  -8  -6   4   32.05    5.92
  -8   6   4   45.96    9.00
  -8  -6   4   35.25    6.45
  -8  -6   4   34.37    6.21
  -8   6   3  121.95   14.89
  -8  -6   3  121.10   11.77
  -8  -6   3  127.00   11.54
  -8  -6   3  109.80   10.28
  -8   6   2  158.18   16.31
  -8  -6   2  173.06   14.25
  -8  -6   2  151.56   12.08
  -8  -6   2  149.36   12.05
  -8   6   1   32.87    7.41
  -8  -6   1   30.63    5.99
  -8   6   0  180.19   17.60
  -8   6   0  198.69   13.75
  -8  -6   0  193.68   14.81
  -8  -6  -1   28.55    5.70
  -8   6  -1   33.38    6.03
  -8   6  -2    4.19    3.01
  -8   6  -2    5.52    2.29
  -8  -6  -2    6.93    3.22
  -8   6  -3  119.79   14.07
  -8   6  -3  112.26   10.96
  -8   6  -4   21.74    6.56
  -8   6  -4   22.03    4.93
  -8   6  -5   57.43    8.86
  -8   6  -5   52.06    7.25
  -8   6  -6    5.38    2.42
  -8   6  -6    4.41    2.13
  -8   6  -7   11.08    3.58
  -8   6  -7    8.63    2.79
  -8  -6  -8    0.66    1.18
  -8   6  -8    0.09    0.53
  -8  -6  -9   -0.19    0.73
  -8   6  -9    0.73    1.11
   8  -7 -13    7.71    1.94
   8  -7 -13    0.67    0.86
   8  -7 -12    1.00    1.14
   8  -7 -12    1.94    2.00
   8  -7 -11    7.89    3.80
   8  -7 -11    3.71    2.22
  -8  -7  11    2.70    1.75
   8   7 -11    5.69    2.59
   8  -7 -10    5.25    2.38
  -8  -7  10    6.87    2.78
   8   7 -10   10.04    4.19
   8  -7  -9   36.89    6.99
  -8  -7   9   31.93    5.96
   8   7  -9   47.39    7.21
   8  -7  -8   80.80    9.59
  -8  -7   8   54.93    8.68
  -8  -7   7   84.31    9.72
  -8  -7   7   84.42   10.04
  -8  -7   6  109.84   11.90
  -8  -7   6  106.86   11.32
  -8  -7   5    2.64    2.94
  -8  -7   5    4.10    2.33
  -8   7   4    1.78    3.35
  -8  -7   4    2.27    1.26
  -8  -7   4    3.78    3.06
  -8   7   3  454.92   29.33
  -8  -7   3  478.54   23.94
  -8  -7   3  470.68   23.00
  -8  -7   3  449.41   21.04
  -8  -7   2   21.15    4.89
  -8   7   2   21.43    6.13
  -8  -7   2   31.16    9.10
  -8  -7   2   19.53    4.65
  -8  -7   1   27.84    5.88
  -8  -7   1   29.59    5.87
  -8   7   0   40.83    8.84
  -8  -7   0   44.38    7.18
  -8   7  -1  591.55   33.75
  -8  -7  -1  546.50   25.29
  -8   7  -1  566.04   23.62
  -8   7  -2   19.95    6.15
  -8  -7  -2   14.06    3.79
  -8   7  -2   10.34    4.81
  -8   7  -3   57.44   10.26
  -8  -7  -3   39.87    6.09
  -8   7  -3   47.96    7.12
  -8   7  -4    5.04    2.94
  -8   7  -4    1.32    1.51
  -8   7  -5   12.76    4.75
  -8   7  -5   11.93    3.39
  -8   7  -6   13.28    4.05
  -8   7  -6   14.68    3.52
  -8   7  -7    1.58    1.26
  -8  -7  -8    9.58    2.47
  -8   7  -8    8.24    2.49
  -8  -7  -9   19.89    3.45
  -8   7  -9   21.92    3.35
   8  -8 -13   17.50    2.58
   8  -8 -13   19.73    2.91
   8  -8 -12    3.70    1.55
   8  -8 -12    6.03    2.14
   8  -8 -11    2.69    1.24
   8  -8 -11    3.22    1.92
  -8  -8  11    3.72    1.36
   8   8 -11    2.58    1.25
   8  -8 -10   21.69    5.95
   8  -8 -10   13.09    3.85
  -8  -8  10   10.66    3.21
   8   8 -10   16.37    4.64
   8  -8  -9    7.45    2.96
  -8  -8   9    7.28    2.65
   8   8  -9    9.80    3.36
  -8  -8   8   44.28    7.33
   8   8  -8   36.96    6.37
  -8  -8   7   85.83    9.79
  -8  -8   7   77.57    9.66
  -8  -8   6   11.75    3.60
  -8  -8   6   10.24    3.59
  -8  -8   5   11.28    3.63
  -8  -8   5   10.91    3.82
  -8   8   4   40.64    9.87
  -8  -8   4   33.57    6.62
  -8  -8   4   30.25    6.27
  -8   8   3  263.50   22.89
  -8  -8   3  285.91   18.54
  -8  -8   3  306.53   19.07
  -8   8   2  166.76   18.29
  -8  -8   2  156.74   13.60
  -8  -8   2  143.40   12.93
  -8   8   1  134.55   16.85
  -8  -8   1  142.69   13.44
  -8  -8   1  122.61   11.02
  -8  -8   1  124.10   10.77
  -8   8   0    4.63    3.45
  -8  -8   0    9.54    3.55
  -8   8  -1    7.72    4.42
  -8  -8  -1    5.25    2.70
  -8   8  -2  109.16   14.76
  -8  -8  -2  102.48   10.65
  -8   8  -2   94.62    9.40
  -8   8  -3   51.84    9.79
  -8  -8  -3   40.80    6.24
  -8   8  -3   41.41    6.28
  -8   8  -4  102.38   12.47
  -8  -8  -4   83.37    8.40
  -8   8  -4   92.24    9.10
  -8   8  -5   22.01    5.47
  -8   8  -5   16.20    3.78
  -8   8  -6    7.18    3.44
  -8   8  -6    7.08    3.16
  -8  -8  -7   48.94    6.02
  -8   8  -7   43.39    5.32
  -8  -8  -8    5.21    2.17
  -8   8  -8    5.12    1.84
   8  -9 -12   13.22    2.42
   8  -9 -12   15.35    2.98
   8  -9 -11    1.17    0.87
   8  -9 -11    1.69    1.41
  -8  -9  11    1.67    1.69
   8   9 -11    1.56    1.04
   8  -9 -10   40.38    5.53
   8  -9 -10   47.72    6.41
  -8  -9  10   35.35    5.34
   8   9 -10   43.01    6.18
  -8  -9   9    8.32    3.11
   8   9  -9    8.11    2.96
  -8  -9   8  101.38   10.55
   8   9  -8  104.61   10.34
  -8  -9   7   17.74    4.40
  -8  -9   7   20.25    5.31
  -8  -9   6    7.81    3.54
  -8  -9   6    7.27    2.96
  -8  -9   5    5.68    2.53
  -8  -9   5    9.90    3.50
  -8   9   4   61.87   13.24
  -8  -9   4   49.36    7.41
  -8  -9   4   51.35    7.71
  -8   9   3   88.08   13.51
  -8  -9   3   94.04   10.68
  -8  -9   3   85.25   10.00
  -8   9   2   16.73    5.91
  -8  -9   2   22.06    5.31
  -8  -9   2   20.77    4.87
  -8   9   1    3.33    3.07
  -8  -9   1    4.35    2.89
  -8  -9   1    1.71    0.86
  -8   9   0   18.35    6.24
  -8  -9   0   10.98    3.82
  -8   9  -1   79.39   12.61
  -8  -9  -1   73.27    9.42
  -8   9  -2    5.85    4.54
  -8  -9  -2    3.70    1.93
  -8   9  -3   -1.42    1.47
  -8  -9  -3    1.65    1.75
  -8   9  -3    0.30    0.69
  -8   9  -4   13.48    4.69
  -8  -9  -4   14.90    4.03
  -8   9  -4   11.63    3.48
  -8   9  -5    1.94    1.94
  -8   9  -5    1.72    2.30
  -8   9  -6   40.04    5.25
  -8  -9  -7   24.29    3.85
  -8   9  -7   24.92    3.75
  -8   9  -8   11.58    2.41
   8 -10 -11    3.04    1.36
   8  10 -11    5.34    2.18
   8 -10 -10    0.38    1.08
  -8 -10  10    1.21    1.22
   8  10 -10    2.83    1.79
   8 -10  -9    0.50    1.15
  -8 -10   9    1.30    1.67
   8  10  -9    1.13    1.00
  -8 -10   8    0.39    1.86
   8  10  -8    3.28    2.34
  -8 -10   7    2.04    2.00
  -8 -10   6   24.70    5.24
  -8 -10   6   23.21    4.72
  -8 -10   5    5.82    3.88
  -8 -10   5    5.54    3.48
  -8 -10   4    7.98    3.06
  -8 -10   4    8.15    2.90
  -8  10   3    4.55    4.29
  -8 -10   3    7.49    4.57
  -8 -10   3    2.33    1.25
  -8  10   2   16.55    6.93
  -8 -10   2   13.12    4.56
  -8 -10   2    6.75    2.83
  -8  10   1   31.17    8.02
  -8 -10   1   30.22    6.03
  -8 -10   1   22.77    4.99
  -8  10   0    8.71    3.28
  -8 -10   0   16.88    4.76
  -8 -10   0   11.87    3.41
  -8  10  -1    3.44    3.15
  -8 -10  -1   -0.05    1.70
  -8  10  -2   51.77    9.39
  -8 -10  -2   50.24    7.62
  -8  10  -3    1.02    2.76
  -8 -10  -3    1.80    0.78
  -8  10  -4   77.37    8.63
  -8 -10  -4   68.74    7.70
  -8  10  -4   71.22    6.93
  -8 -10  -5    3.55    1.68
  -8  10  -5    1.33    1.38
  -8  10  -6   13.76    2.70
  -8  10  -7   15.38    2.63
   8  10   7   10.01    4.12
   8 -11 -10   10.92    2.34
  -8 -11  10    9.30    2.24
   8  11 -10    9.39    2.23
   8 -11  -9   14.33    3.36
  -8 -11   9    7.41    2.31
   8  11  -9   11.74    2.89
   8 -11  -8   18.62    3.69
  -8 -11   8   17.91    4.01
   8  11  -8   20.66    4.35
  -8 -11   7    5.07    2.37
  -8 -11   6   11.21    3.77
  -8 -11   6   11.34    3.60
  -8 -11   5   10.90    3.28
  -8 -11   5   13.45    3.55
  -8 -11   4   20.92    4.95
  -8 -11   4   21.09    4.76
  -8 -11   3    7.70    3.05
  -8 -11   3    6.50    2.77
  -8 -11   2   17.34    4.41
  -8 -11   2   14.93    4.01
  -8  11   1    3.52    2.48
  -8 -11   1    6.32    2.89
  -8 -11   1    4.07    2.65
  -8  11   0   66.83   10.87
  -8 -11   0   63.96    8.41
  -8 -11   0   57.69    7.60
  -8  11  -1   -0.09    1.29
  -8 -11  -1    1.60    1.80
  -8  11  -2   63.28    8.92
  -8 -11  -2   67.65    8.32
  -8  11  -3    0.90    1.74
  -8 -11  -3   -1.52    1.19
  -8 -11  -4    0.62    0.92
   8  11   4   23.50    6.45
  -8 -11  -5    2.98    1.46
   8  11   5    6.07    3.89
   8  11   6    2.90    1.51
  -8 -12   9    0.40    1.05
   8  12  -9   18.98    4.04
  -8 -12   8    1.12    1.53
   8  12  -8    1.98    1.95
  -8 -12   7    2.72    1.51
  -8 -12   6    5.66    4.17
  -8 -12   6    4.38    1.95
  -8 -12   5   26.85    5.14
  -8 -12   5   27.00    5.02
  -8 -12   4   35.23    5.81
  -8 -12   4   40.88    6.51
  -8 -12   3    2.93    2.01
  -8 -12   3    6.68    2.62
  -8 -12   2   30.37    5.69
  -8 -12   2   27.34    5.43
  -8 -12   1    5.52    3.16
  -8 -12   1    3.32    2.04
  -8 -12   0    2.41    1.19
  -8 -12   0    2.24    1.62
  -8 -12  -1    4.58    2.03
  -8 -12  -2   22.31    4.44
  -8 -12  -3   16.18    4.06
  -8 -12  -4   43.52    5.25
  -8 -12  -5    2.78    1.22
  -8 -13   8   13.80    3.23
  -8 -13   7   11.79    3.07
  -8 -13   6    4.28    1.80
  -8 -13   5   11.27    3.44
  -8 -13   5   24.52    4.67
  -8 -13   4    1.50    0.73
  -8 -13   4    1.84    1.04
  -8 -13   3   24.84    4.79
  -8 -13   3   25.25    4.65
  -8 -13   2    4.53    2.87
  -8 -13   2    2.37    1.97
  -8 -13   1    0.66    0.71
  -8 -13   1    3.00    1.94
  -8 -13   0    8.18    2.80
  -8 -13   0    7.12    2.46
  -8 -13  -1   33.15    5.05
  -8 -13  -2   41.82    5.36
  -8 -13  -3    5.06    2.00
  -8 -13  -4   10.75    2.33
  -8 -14   7   10.81    2.45
  -8 -14   6    3.35    1.60
  -8 -14   5    7.22    2.11
  -8 -14   4   23.47    3.84
  -8 -14   4   21.20    3.35
  -8 -14   3    4.69    1.78
  -8 -14   3    3.29    1.53
  -8 -14   2    6.99    2.25
  -8 -14   2    5.46    2.09
  -8 -14   1    0.10    0.74
  -8 -14   1    0.42    0.80
  -8 -14   0    1.41    1.00
  -8 -14   0    0.47    0.63
  -8 -14  -1   -0.06    0.51
  -8 -14  -2   10.11    2.20
  -8 -15   5    1.89    1.30
  -8 -15   4    3.59    1.53
  -8 -15   3   12.33    2.47
  -8 -15   2    1.76    1.55
  -8 -15   2   -0.66    0.77
  -8 -15   1   22.79    3.02
  -8 -15   0   12.86    2.22
   9   0 -14    1.80    1.03
   9   0 -14    1.18    1.04
   9   0 -13   -0.62    0.75
   9   0 -12    0.09    1.14
  -9   0  12    5.40    3.90
  -9   0  11  209.72   16.57
  -9   0  10    6.67    4.78
  -9   0  10    0.85    1.44
  -9   0   9   69.04    9.27
  -9   0   9   92.47   11.79
  -9   0   8    0.29    1.33
  -9   0   8   -0.21    1.05
  -9   0   7    3.48    2.73
  -9   0   7    4.93    2.48
  -9   0   6    2.43    2.30
  -9   0   6    6.55    4.83
  -9   0   5    8.62    3.37
  -9   0   5    9.36    3.87
  -9   0   4    1.02    0.80
  -9   0   4   -0.01    1.32
  -9   0   3    6.09    3.16
  -9   0   2   -2.00    1.49
  -9   0   1   51.05    6.62
  -9   0   1   61.11    7.99
  -9   0   0   -0.11    1.52
  -9   0  -1  408.39   21.93
  -9   0  -2   -0.75    1.98
  -9   0  -2    4.05    3.42
  -9   0  -3   -0.69    1.58
  -9   0  -3    1.76    0.74
  -9   0  -4   -1.25    1.58
  -9   0  -4    1.08    2.25
  -9   0  -5   13.53    4.54
  -9   0  -5   15.24    4.51
  -9   0  -6    2.46    3.46
  -9   0  -6    2.55    2.06
  -9   0  -7   19.41    4.91
  -9   0  -8    1.20    1.70
  -9   0  -9    8.24    2.59
   9  -1 -14    2.11    1.09
   9   1 -14    2.22    1.03
   9  -1 -13   55.87    6.46
   9   1 -13   49.20    5.91
   9  -1 -12   -0.23    1.15
   9   1 -12    1.39    1.30
   9  -1 -12    0.32    1.04
  -9   1  12    0.53    2.69
  -9  -1  12    0.75    2.48
  -9   1  11   24.74    6.28
  -9  -1  11    6.00    3.47
  -9   1  10    0.34    2.73
  -9  -1  10    2.64    1.31
  -9  -1  10    2.49    2.10
  -9   1   9    4.73    2.14
  -9  -1   9    5.32    3.20
  -9   1   9    6.35    3.05
  -9  -1   9    8.73    4.06
  -9   1   8    0.62    1.58
  -9  -1   8    1.03    1.61
  -9   1   8    2.29    2.71
  -9  -1   8    3.39    2.46
  -9   1   7  264.32   18.95
  -9  -1   7  251.99   17.11
  -9   1   7  317.50   22.25
  -9  -1   7  346.33   22.66
  -9   1   6   59.38    8.73
  -9  -1   6   57.57    7.88
  -9   1   6   70.10   10.20
  -9  -1   6   69.96    9.67
  -9   1   5   35.53    6.34
  -9  -1   5   35.25    6.17
  -9   1   5   42.84    7.92
  -9  -1   5   45.87    7.90
  -9   1   4    0.76    1.65
  -9  -1   4   -1.01    1.59
  -9   1   4    4.60    3.09
  -9  -1   4    0.08    2.21
  -9   1   3  147.46   12.55
  -9  -1   3  177.11   13.75
  -9   1   2    0.66    1.43
  -9  -1   2    4.21    2.34
  -9  -1   2   -0.18    1.69
  -9   1   1   48.17    6.54
  -9  -1   1   53.13    6.98
  -9   1   1   60.66    8.24
  -9   1   0   16.30    4.06
  -9   1   0   23.17    5.18
  -9  -1   0   24.39    5.40
  -9   1  -1   25.64    5.57
  -9  -1  -1   25.46    5.50
  -9   1  -1   35.23    7.23
  -9   1  -2   83.03   11.22
  -9  -1  -2   77.11    9.55
  -9   1  -2   92.26   10.66
  -9   1  -3   22.11    5.48
  -9  -1  -3   20.25    5.16
  -9   1  -3   21.90    5.33
  -9   1  -4    1.54    2.01
  -9  -1  -4    4.81    3.50
  -9   1  -4    3.72    2.79
  -9   1  -5   84.48   10.43
  -9  -1  -5   82.13   10.12
  -9   1  -5   81.94    9.38
  -9   1  -6   71.93    9.21
  -9  -1  -6   67.77    8.56
  -9   1  -6   78.67    8.83
  -9   1  -7    2.69    3.23
  -9  -1  -7    2.70    2.92
  -9   1  -7    4.39    2.31
  -9   1  -8    6.23    3.13
  -9  -1  -8    5.77    2.33
  -9   1  -9    5.55    2.05
  -9  -1  -9    8.09    2.28
   9  -2 -14   -1.04    0.32
   9  -2 -13    1.94    1.72
   9   2 -13    2.56    1.58
   9  -2 -13    2.45    1.43
  -9  -2  13    0.51    0.94
   9  -2 -12   -0.63    1.06
   9  -2 -12    0.96    0.92
  -9  -2  12   -0.27    1.09
  -9   2  11    9.17    3.82
  -9  -2  11   10.70    3.90
  -9   2  10   16.80    5.22
  -9  -2  10   23.51    6.62
  -9  -2  10   16.77    4.75
  -9   2   9   15.57    5.22
  -9  -2   9   16.67    4.68
  -9   2   9   18.01    5.26
  -9  -2   9   18.96    5.82
  -9  -2   8   62.62    8.43
  -9   2   8   66.39   10.43
  -9  -2   8   82.70   10.49
  -9   2   8   73.25   11.07
  -9   2   7   24.29    5.94
  -9  -2   7   18.17    4.78
  -9   2   7   24.35    6.45
  -9  -2   7   38.84    7.98
  -9   2   6   55.25    9.32
  -9  -2   6   42.07    6.75
  -9   2   6   49.24    8.58
  -9  -2   6   58.24    8.47
  -9   2   5    9.18    4.41
  -9  -2   5    5.07    2.15
  -9   2   5    7.85    3.40
  -9  -2   5    7.01    2.71
  -9  -2   4   32.65    6.04
  -9  -2   4   19.11    4.12
  -9   2   4   24.70    5.47
  -9  -2   4   24.87    5.19
  -9   2   4   25.28    5.35
  -9  -2   3   22.52    5.25
  -9  -2   3   16.36    4.10
  -9   2   3   27.63    7.37
  -9   2   3   17.83    4.66
  -9   2   2   41.57    6.40
  -9  -2   2   59.57    7.75
  -9   2   2   66.36    8.44
  -9  -2   2   52.83    6.93
  -9   2   1   55.22    6.74
  -9   2   1   66.99    8.40
  -9  -2   1   60.21    7.34
  -9   2   0   18.88    6.15
  -9   2   0   14.36    3.40
  -9   2  -1  118.33   11.99
  -9  -2  -1  129.88   12.88
  -9   2  -1  143.34   12.91
  -9   2  -1   92.87    8.75
  -9   2  -2   13.44    4.12
  -9  -2  -2    5.84    2.98
  -9   2  -2    6.18    2.95
  -9   2  -3   70.78    9.56
  -9  -2  -3   65.35    9.02
  -9   2  -3   73.19    9.30
  -9   2  -4    8.52    3.08
  -9  -2  -4   10.30    3.59
  -9   2  -4   11.06    3.89
  -9   2  -5   17.00    5.09
  -9  -2  -5   16.46    5.09
  -9   2  -5   16.78    4.44
  -9  -2  -6    6.57    2.78
  -9   2  -6    6.64    3.00
  -9   2  -6    9.41    3.58
  -9   2  -7   16.60    4.16
  -9  -2  -7   20.41    5.11
  -9   2  -7   21.68    4.45
  -9  -2  -8   24.24    4.60
  -9   2  -8   23.82    4.71
  -9   2  -9    2.51    1.47
  -9  -2  -9   23.83    3.43
   9  -3 -14    4.08    1.56
   9  -3 -13    8.50    2.38
   9   3 -13    9.77    2.88
   9  -3 -13    5.56    2.00
  -9  -3  13    7.87    2.50
   9  -3 -12    4.35    4.18
   9   3 -12    4.27    2.16
   9  -3 -12    4.37    2.37
  -9  -3  12    1.89    2.02
   9  -3 -11    2.00    2.19
  -9  -3  11    1.03    2.65
  -9   3  10   14.23    4.83
  -9  -3  10   14.92    4.31
  -9  -3  10   14.60    4.50
  -9   3   9   30.64    7.54
  -9  -3   9   24.21    5.67
  -9   3   9   29.10    6.57
  -9  -3   9   30.22    5.97
  -9   3   8   26.60    6.53
  -9  -3   8   24.71    5.56
  -9   3   8   28.15    6.68
  -9  -3   8   33.72    6.53
  -9   3   7   10.77    4.37
  -9  -3   7    7.93    3.37
  -9   3   7    6.83    3.17
  -9  -3   7   10.93    3.93
  -9   3   6   63.11    9.58
  -9  -3   6   54.86    7.58
  -9   3   6   51.11    8.63
  -9  -3   6   69.42    9.55
  -9  -3   5   22.79    5.45
  -9   3   5   26.54    6.73
  -9  -3   5   24.36    4.89
  -9   3   5   24.40    6.27
  -9  -3   5   28.35    6.06
  -9  -3   4   -1.13    1.28
  -9   3   4   -2.76    2.69
  -9  -3   4    3.17    2.69
  -9   3   4    4.32    3.49
  -9  -3   4    3.70    2.90
  -9   3   4    3.19    3.21
  -9  -3   3   65.89    8.08
  -9   3   3   87.47   11.04
  -9  -3   3   66.63    7.94
  -9  -3   3   76.58    9.14
  -9   3   3   65.66    8.15
  -9  -3   2    5.83    2.41
  -9   3   2    7.69    2.96
  -9  -3   2    4.16    1.91
  -9   3   2    2.66    1.14
  -9   3   1    0.86    1.05
  -9  -3   1    0.22    1.53
  -9   3   0   41.93    7.13
  -9   3   0   53.47    7.79
  -9  -3  -1   34.48    6.21
  -9   3  -1   37.81    6.98
  -9   3  -1   28.04    5.75
  -9   3  -2   26.10    5.82
  -9  -3  -2   27.37    6.16
  -9   3  -2   31.95    6.38
  -9  -3  -3   59.86    8.45
  -9   3  -3   73.46    9.02
  -9   3  -3   60.56    9.21
  -9  -3  -4    7.32    2.86
  -9   3  -4    9.91    3.83
  -9   3  -4   15.96    5.84
  -9  -3  -5   18.27    4.49
  -9   3  -5   20.84    5.28
  -9   3  -5   14.97    4.54
  -9   3  -6   77.59    9.52
  -9  -3  -6   62.77    8.00
  -9   3  -6   83.31    9.38
  -9   3  -7   30.41    5.86
  -9  -3  -7   30.08    5.23
  -9   3  -7   34.96    5.50
  -9   3  -8    6.94    2.59
  -9  -3  -8    3.50    2.22
  -9   3  -8    4.79    2.16
  -9  -3  -9    7.32    2.31
   9  -4 -14    1.49    0.96
   9  -4 -13    0.34    1.41
   9  -4 -13    0.58    0.42
   9  -4 -12    6.76    3.16
   9   4 -12    3.84    1.86
   9  -4 -12    4.50    2.78
  -9  -4  12    5.06    2.78
   9  -4 -11    6.69    2.65
  -9  -4  11   11.17    4.26
  -9  -4  10   40.03    6.65
  -9   4   9   -0.10    2.19
  -9  -4   9    1.68    2.09
  -9  -4   9    3.59    2.98
  -9   4   8  224.28   20.08
  -9  -4   8  180.23   13.91
  -9   4   8  169.53   16.13
  -9  -4   8  225.70   17.30
  -9   4   7   80.01   12.71
  -9  -4   7   55.50    7.77
  -9   4   7   54.85    8.79
  -9  -4   7   74.08    9.36
  -9   4   6    3.36    2.68
  -9  -4   6    3.24    2.32
  -9   4   6    2.11    2.79
  -9  -4   6    5.13    2.92
  -9   4   5    5.17    2.41
  -9   4   5    1.79    2.50
  -9  -4   5    3.41    2.58
  -9  -4   5    4.02    2.69
  -9   4   5    5.02    2.40
  -9  -4   5    2.76    2.53
  -9   4   4   80.39   11.00
  -9  -4   4   58.45    7.92
  -9   4   4   78.34   10.18
  -9  -4   4   61.31    7.98
  -9  -4   4   63.26    8.52
  -9   4   4   51.62    7.92
  -9   4   3   59.52    9.70
  -9  -4   3   51.39    7.53
  -9  -4   3   51.90    7.08
  -9  -4   3   63.23    8.32
  -9   4   2  374.08   23.11
  -9  -4   2  381.33   19.93
  -9  -4   2  342.72   18.81
  -9  -4   1   55.48    7.57
  -9   4   1   55.91    8.68
  -9   4   0    2.05    2.46
  -9  -4   0    2.68    2.47
  -9   4   0    2.79    2.64
  -9   4  -1   20.43    5.47
  -9   4  -1   25.75    5.70
  -9   4  -2  304.92   20.57
  -9  -4  -2  312.08   18.60
  -9   4  -2  342.23   19.85
  -9   4  -3   40.50    7.51
  -9  -4  -3   35.51    6.77
  -9   4  -3   40.02    6.44
  -9   4  -4    9.66    3.71
  -9  -4  -4    8.79    3.25
  -9   4  -4    9.70    3.40
  -9   4  -5    6.60    3.35
  -9  -4  -5    2.13    1.71
  -9   4  -5    3.45    0.70
  -9   4  -6    1.81    2.08
  -9  -4  -6    0.25    1.10
  -9   4  -6    1.94    2.45
  -9   4  -7    8.02    2.93
  -9  -4  -7    4.31    1.91
  -9   4  -7    8.10    2.78
  -9   4  -8   23.62    4.37
  -9  -4  -8   22.06    3.78
  -9   4  -8   25.25    3.92
  -9  -4  -9   11.95    2.41
   9  -5 -13    9.30    2.49
   9  -5 -13    9.57    2.21
   9  -5 -12   36.87    5.30
   9  -5 -12   38.75    5.34
  -9  -5  12   35.02    5.84
   9  -5 -11    4.10    2.44
  -9  -5  11    5.32    3.20
   9  -5 -10    6.65    2.90
  -9  -5  10    5.20    3.27
  -9  -5   9   16.92    4.26
  -9  -5   9   18.92    4.67
  -9  -5   8    1.19    1.33
  -9  -5   8    1.61    2.32
  -9  -5   7   30.62    5.88
  -9   5   7   25.91    6.45
  -9  -5   7   38.17    6.99
  -9   5   6  171.81   15.91
  -9  -5   6  143.66   12.95
  -9  -5   6  139.75   12.49
  -9   5   6  113.26   12.33
  -9  -5   6  161.25   13.58
  -9   5   5    5.10    3.75
  -9  -5   5    4.02    2.23
  -9  -5   5    4.46    3.36
  -9  -5   5    2.27    2.42
  -9  -5   4   39.57    6.54
  -9   5   4   45.22    8.51
  -9  -5   4   48.99    7.92
  -9  -5   4   39.32    7.28
  -9  -5   3   -0.37    1.39
  -9   5   3    5.75    3.96
  -9  -5   3    6.46    2.43
  -9  -5   3    3.41    2.24
  -9  -5   2    9.62    3.61
  -9   5   2    5.78    3.50
  -9  -5   2   -0.47    1.14
  -9   5   1  112.21   12.82
  -9  -5   1  102.38   10.85
  -9   5   0    1.12    0.84
  -9  -5   0    2.15    2.12
  -9   5   0    4.86    2.80
  -9   5  -1   37.36    7.11
  -9  -5  -1   34.87    5.78
  -9   5  -1   47.38    7.30
  -9   5  -2  118.82   13.04
  -9   5  -2  130.74   11.95
  -9   5  -3   60.66    9.52
  -9  -5  -3   57.72    7.72
  -9   5  -3   61.67    8.30
  -9   5  -4    8.03    3.23
  -9  -5  -4    5.22    2.40
  -9   5  -4   13.58    3.65
  -9   5  -5    1.82    1.92
  -9  -5  -5    1.21    1.61
  -9   5  -5    0.38    0.61
  -9   5  -6  105.64   10.79
  -9  -5  -6  111.80    9.86
  -9   5  -6  115.78    9.96
  -9   5  -7    8.80    3.45
  -9  -5  -7   13.08    3.52
  -9   5  -7   10.10    3.08
  -9  -5  -8   -0.07    0.33
  -9   5  -8   -0.07    0.48
   9  -6 -13   11.57    2.33
   9  -6 -13   13.59    2.54
   9  -6 -12    2.09    0.98
   9  -6 -12    2.85    1.72
  -9  -6  12    3.33    1.96
   9  -6 -11   13.86    3.51
   9  -6 -11   19.37    4.36
   9  -6 -10   16.97    4.52
  -9  -6  10   20.24    4.88
   9  -6  -9   23.49    6.59
  -9  -6   9   10.51    3.44
   9  -6  -8   32.81    6.44
  -9  -6   8   22.57    5.36
  -9  -6   8   24.98    5.32
  -9  -6   7    1.21    1.85
  -9  -6   7    8.10    4.86
  -9  -6   6    2.15    1.67
  -9  -6   6    0.73    0.61
  -9  -6   6    4.07    2.39
  -9   6   5    8.14    5.10
  -9  -6   5    0.00    1.05
  -9  -6   5    5.13    3.09
  -9  -6   5    2.19    2.17
  -9   6   4  113.73   13.78
  -9  -6   4  106.45   11.08
  -9  -6   4  102.16   10.53
  -9  -6   4  103.77   10.46
  -9  -6   3   12.42    3.33
  -9   6   3    8.94    4.36
  -9  -6   3   11.88    3.87
  -9  -6   3    8.35    3.14
  -9   6   2  350.70   23.34
  -9  -6   2  373.72   20.81
  -9  -6   2  331.21   18.03
  -9  -6   2  365.49   19.34
  -9  -6   1   28.92    5.66
  -9   6   1   28.42    6.42
  -9   6   0   75.98   10.80
  -9  -6   0   82.65    9.44
  -9   6   0  100.69   10.31
  -9   6  -1    8.27    4.20
  -9  -6  -1    6.38    2.70
  -9   6  -1    5.77    2.69
  -9   6  -2    7.13    3.28
  -9  -6  -2    9.57    4.01
  -9   6  -2   11.73    5.30
  -9   6  -3  191.28   16.86
  -9   6  -3  199.84   14.36
  -9   6  -4    0.53    2.18
  -9  -6  -4    0.89    0.52
  -9   6  -4    2.14    1.63
  -9   6  -5    7.27    2.77
  -9  -6  -5    9.58    3.56
  -9   6  -5   16.27    5.05
  -9   6  -6    3.98    3.19
  -9  -6  -6    6.53    2.96
  -9   6  -6    7.99    2.61
  -9   6  -7   29.01    4.61
  -9  -6  -7   33.89    5.04
  -9   6  -7   30.15    4.57
  -9  -6  -8  192.84   11.50
  -9   6  -8   54.36    5.22
   9  -7 -13    7.62    1.73
   9  -7 -12   -0.07    0.34
   9  -7 -12   -0.66    0.87
  -9  -7  12   -0.13    0.48
   9  -7 -11    0.25    0.62
   9  -7 -11    0.91    2.10
  -9  -7  11    0.23    0.66
   9  -7 -10   32.24    5.24
  -9  -7  10   30.63    5.51
   9  -7  -9    2.07    1.89
  -9  -7   9    1.28    1.30
   9  -7  -8    3.28    1.89
  -9  -7   8    2.18    2.26
  -9  -7   7   87.68   10.06
  -9  -7   6    5.70    3.35
  -9  -7   6    0.54    0.96
  -9   7   5    1.91    2.85
  -9  -7   5    1.16    2.29
  -9  -7   5    0.70    2.33
  -9  -7   5   -0.08    1.02
  -9   7   4  261.27   20.98
  -9  -7   4  260.42   17.20
  -9  -7   4  254.86   16.07
  -9  -7   4  265.49   17.72
  -9   7   3  117.44   13.91
  -9  -7   3  130.03   12.29
  -9  -7   3  122.95   11.35
  -9  -7   3  112.27   10.60
  -9  -7   2   28.21    5.62
  -9   7   2   27.47    7.04
  -9  -7   2   29.17    5.90
  -9  -7   2   26.43    5.44
  -9  -7   1    7.11    2.93
  -9   7   1    9.74    3.32
  -9  -7   1    5.28    2.88
  -9   7   0   -0.78    1.13
  -9  -7   0    1.58    1.72
  -9   7  -1   -1.81    2.71
  -9  -7  -1    0.29    1.68
  -9   7  -2   10.00    3.59
  -9  -7  -2   10.92    3.23
  -9   7  -2   10.32    3.25
  -9   7  -3   59.84    9.30
  -9   7  -3   61.70    7.72
  -9   7  -4   41.94    7.26
  -9  -7  -4   38.62    5.76
  -9   7  -4   32.82    5.39
  -9   7  -5    0.79    1.95
  -9  -7  -5    1.73    1.50
  -9   7  -5    0.30    1.55
  -9   7  -6    0.58    2.08
  -9  -7  -6   -0.26    0.92
  -9  -7  -7    9.12    2.68
  -9   7  -7    8.96    2.52
   9  -8 -12    1.17    0.81
   9  -8 -12    0.77    0.76
   9  -8 -11    0.40    0.75
   9  -8 -11    1.27    1.80
  -9  -8  11    2.28    1.63
   9  -8 -10   16.69    3.19
   9  -8 -10   17.64    3.84
  -9  -8  10   14.21    3.68
  -9  -8   9    7.55    3.06
  -9  -8   8   18.60    4.61
  -9  -8   7   15.39    3.85
  -9  -8   6   24.54    5.09
  -9  -8   6   19.68    4.58
  -9  -8   5   41.19    6.88
  -9  -8   5   45.94    7.31
  -9   8   4   74.47   11.36
  -9  -8   4   65.03    8.88
  -9  -8   4   63.55    8.54
  -9   8   3    8.33    3.69
  -9  -8   3   10.43    4.25
  -9  -8   3   12.82    4.69
  -9   8   2   99.14   13.05
  -9  -8   2  101.32   10.99
  -9  -8   2   89.71    9.36
  -9  -8   2  116.26   10.47
  -9  -8   1   46.03    7.44
  -9  -8   1   41.88    6.22
  -9   8   1   43.27    8.58
  -9  -8   0   35.81    5.74
  -9   8   0   44.69    8.90
  -9  -8   0   48.20    7.43
  -9   8  -1    4.54    4.31
  -9  -8  -1    4.33    2.47
  -9   8  -2   -2.07    2.32
  -9  -8  -2   -1.14    1.54
  -9   8  -2    0.78    0.92
  -9   8  -3   10.89    4.90
  -9  -8  -3    5.30    2.75
  -9   8  -3    8.43    2.98
  -9   8  -4    7.30    3.35
  -9   8  -4    5.06    2.37
  -9   8  -5    8.50    2.60
  -9   8  -5    9.47    2.60
  -9   8  -6    1.29    1.39
  -9  -8  -6    3.43    2.08
  -9   8  -6    2.70    1.60
  -9   8  -7   15.64    2.92
   9  -9 -11    1.02    1.20
  -9  -9  11    2.59    1.75
   9  -9 -10   10.06    2.57
  -9  -9  10    8.97    2.74
  -9  -9   9    7.26    2.74
  -9  -9   8   11.85    3.39
  -9  -9   7   18.90    4.45
  -9  -9   6   63.66    8.39
  -9  -9   6   59.62    8.31
  -9  -9   5   28.56    5.43
  -9  -9   5   33.00    5.93
  -9  -9   4   77.28    9.38
  -9  -9   4   74.14    9.36
  -9   9   3   19.17    5.62
  -9  -9   3   15.34    4.38
  -9  -9   3   14.99    3.98
  -9   9   2   10.80    4.14
  -9  -9   2    9.01    3.05
  -9  -9   2    8.62    2.70
  -9   9   1   32.43    7.81
  -9  -9   1   33.56    6.67
  -9  -9   1   21.33    4.25
  -9   9   0   95.54   13.04
  -9  -9   0   88.56    9.94
  -9  -9   0   72.96    7.52
  -9  -9  -1   21.17    4.13
  -9   9  -1   26.01    6.03
  -9  -9  -1   22.69    5.14
  -9   9  -2   23.09    6.28
  -9  -9  -2   15.11    4.01
  -9   9  -3   72.56    9.97
  -9  -9  -3   66.64    7.12
  -9   9  -3   74.06    7.20
  -9   9  -4    4.71    2.29
  -9   9  -4    4.42    1.90
  -9   9  -5   23.33    4.21
  -9   9  -5   27.72    4.12
  -9   9  -6   13.66    3.41
   9 -10 -10    7.28    2.04
  -9 -10  10    4.38    1.52
   9 -10  -9    3.09    1.66
  -9 -10   9    3.03    1.40
  -9 -10   8    5.70    2.29
  -9 -10   7   34.98    5.68
  -9 -10   6    0.03    1.46
  -9 -10   6    1.28    1.89
  -9 -10   5   11.90    3.44
  -9 -10   5   10.08    3.05
  -9 -10   4   11.24    3.03
  -9 -10   4    9.73    3.45
  -9 -10   3    2.78    2.49
  -9 -10   3    7.22    2.94
  -9  10   2    1.20    2.44
  -9 -10   2    1.65    1.95
  -9 -10   2    0.36    0.93
  -9  10   1    5.99    3.96
  -9 -10   1    3.62    2.88
  -9 -10   1    2.36    1.98
  -9  10   0   -1.63    1.90
  -9 -10   0    7.02    4.25
  -9  10  -1   51.59    8.63
  -9 -10  -1   46.48    6.57
  -9  10  -2   22.51    5.73
  -9 -10  -2   22.87    4.90
  -9 -10  -3   17.44    3.41
  -9  10  -3   19.33    4.64
  -9 -10  -3   18.03    3.66
  -9 -10  -4   18.46    2.83
  -9  10  -4   23.41    4.20
  -9 -10  -5    8.89    1.83
   9 -11  -9    5.00    1.97
  -9 -11   9    1.37    1.17
   9 -11  -8    3.87    1.58
  -9 -11   8    2.31    1.47
  -9 -11   7   13.41    3.45
  -9 -11   6    3.11    1.68
  -9 -11   6    2.98    1.57
  -9 -11   5   35.51    6.37
  -9 -11   5   36.05    5.67
  -9 -11   4    0.83    1.64
  -9 -11   4    2.70    2.02
  -9 -11   3    7.34    2.46
  -9 -11   3    7.54    3.02
  -9 -11   2   67.84    8.15
  -9 -11   2   57.45    6.86
  -9 -11   1    1.58    1.76
  -9 -11   1    2.03    1.45
  -9  11   0    0.51    2.63
  -9 -11   0    1.97    3.29
  -9  11  -1    9.37    4.78
  -9 -11  -1    1.13    0.87
  -9  11  -2   10.29    3.46
  -9 -11  -2    9.50    3.06
  -9  11  -3   42.81    5.65
  -9 -11  -3   45.52    5.40
  -9 -11  -4    2.21    1.54
  -9 -12   8    7.32    2.23
  -9 -12   7    6.17    2.20
  -9 -12   6    1.26    1.12
  -9 -12   5    1.66    1.01
  -9 -12   5    4.14    2.19
  -9 -12   4    4.61    1.96
  -9 -12   4    4.10    2.60
  -9 -12   3    6.10    2.25
  -9 -12   3    6.98    2.80
  -9 -12   2   28.89    4.83
  -9 -12   2   26.94    4.42
  -9 -12   1   86.67    8.76
  -9 -12   1   74.29    7.00
  -9 -12   0    2.50    1.80
  -9 -12  -1   13.46    3.25
  -9 -12  -2    0.85    1.15
  -9 -12  -3    7.51    2.05
  -9 -13   7    3.42    1.26
  -9 -13   6    4.72    1.51
  -9 -13   5    1.28    0.92
  -9 -13   4    1.05    0.52
  -9 -13   4    6.54    1.69
  -9 -13   3    3.28    1.63
  -9 -13   3    2.16    1.28
  -9 -13   2    6.84    2.87
  -9 -13   2    1.81    1.54
  -9 -13   1   15.08    3.10
  -9 -13   1   10.72    2.37
  -9 -13   0    7.21    1.98
  -9 -13  -1    3.63    1.53
  -9 -13  -2    7.73    1.96
  -9 -14   5    1.32    1.02
  -9 -14   4    1.30    1.10
  -9 -14   3   -0.04    0.39
  -9 -14   3    1.10    1.03
  -9 -14   2   19.01    2.97
  -9 -14   1    5.67    1.67
  -9 -14   0    5.23    1.58
  10   0 -13    1.19    0.94
  10   0 -12    7.90    2.58
 -10   0  12   12.74    3.56
 -10   0  11   -0.27    1.43
 -10   0  10    5.28    2.42
 -10   0   9   -0.86    1.35
 -10   0   9    1.75    2.35
 -10   0   8    3.62    3.15
 -10   0   8    0.83    1.63
 -10   0   7   -0.55    1.30
 -10   0   7    0.01    2.02
 -10   0   6    1.38    1.07
 -10   0   6    1.21    1.42
 -10   0   5    3.06    1.99
 -10   0   5   -0.94    0.58
 -10   0   4  110.03   10.53
 -10   0   4  106.04   11.21
 -10   0   3   -0.12    1.27
 -10   0   2   11.46    3.71
 -10   0   1    4.31    2.46
 -10   0   1    5.48    4.02
 -10   0   0    3.95    3.63
 -10   0   0    2.55    1.77
 -10   0  -1   -0.90    1.33
 -10   0  -1   -0.46    1.33
 -10   0  -2    0.17    1.07
 -10   0  -3    3.06    3.38
 -10   0  -4  117.42   11.44
 -10   0  -5    2.10    2.47
 -10   0  -6    2.17    1.84
 -10   0  -7    0.88    1.13
 -10   0  -8    5.37    1.79
  10  -1 -13    2.19    1.49
  10   1 -13    2.27    1.13
  10  -1 -12   17.12    3.87
  10   1 -12   18.98    3.97
 -10  -1  12   17.59    4.23
  10  -1 -11    6.32    2.22
 -10   1  11    2.46    1.82
 -10  -1  11    1.63    1.85
 -10   1  10   33.19    6.03
 -10  -1  10   33.14    5.83
 -10  -1  10   43.49    6.88
 -10   1   9    7.59    3.79
 -10  -1   9    5.46    2.51
 -10   1   9    6.56    2.78
 -10  -1   9    8.78    3.62
 -10   1   8  123.18   12.46
 -10  -1   8  109.51   11.17
 -10   1   8  146.75   14.37
 -10  -1   8  140.39   13.94
 -10   1   7    1.90    1.96
 -10  -1   7    0.25    1.45
 -10   1   7    2.35    2.94
 -10  -1   7    1.48    0.71
 -10   1   6   71.55    9.62
 -10  -1   6   59.83    8.17
 -10   1   6   87.44   11.37
 -10  -1   6   85.49   10.85
 -10   1   5    7.23    6.72
 -10  -1   5    2.24    2.41
 -10   1   5    2.34    1.70
 -10  -1   5   -0.08    0.61
 -10  -1   4   30.23    5.68
 -10   1   4   27.34    5.30
 -10  -1   4   35.68    6.42
 -10  -1   3    4.16    2.91
 -10   1   3   25.55    5.61
 -10   1   2   30.62    5.46
 -10  -1   2   36.80    6.14
 -10   1   2   48.55    7.49
 -10   1   1    2.45    1.92
 -10  -1   1    1.03    2.38
 -10   1   1    3.67    2.70
 -10   1   0  261.32   17.62
 -10  -1   0  274.19   17.44
 -10   1   0  208.81   13.70
 -10  -1   0  244.61   15.81
 -10   1  -1    2.03    1.65
 -10   1  -1    0.61    0.66
 -10  -1  -1    3.36    2.52
 -10   1  -2    9.53    3.19
 -10   1  -2   11.54    3.74
 -10  -1  -2    8.90    3.02
 -10   1  -3   17.46    3.80
 -10   1  -3   23.37    5.61
 -10  -1  -3   26.86    5.61
 -10   1  -4   42.21    5.54
 -10   1  -4   55.66    8.12
 -10   1  -5   19.43    4.39
 -10  -1  -5   16.80    4.09
 -10   1  -6   52.99    7.04
 -10  -1  -6   50.95    6.52
 -10  -1  -7    1.65    0.59
 -10   1  -7    2.75    1.62
 -10  -1  -7    0.94    0.63
 -10   1  -8   11.17    2.63
 -10  -1  -8   11.89    2.59
  10  -2 -13    0.35    0.71
  10   2 -13    3.55    1.78
  10  -2 -12    4.99    2.35
  10   2 -12    5.93    2.80
  10  -2 -12    2.78    1.62
 -10  -2  12    4.16    2.14
 -10  -2  11   10.49    3.50
 -10   2  10    1.38    1.47
 -10  -2  10    1.06    1.17
 -10  -2  10    0.20    1.14
 -10   2   9    1.15    1.65
 -10  -2   9    0.91    0.88
 -10   2   9    3.44    2.35
 -10  -2   9    4.17    3.74
 -10   2   8   18.73    5.70
 -10  -2   8    9.68    3.19
 -10   2   8   14.28    4.61
 -10  -2   8   15.20    4.48
 -10   2   7   -0.16    1.32
 -10  -2   7    2.41    2.29
 -10   2   7    1.47    1.64
 -10  -2   7   -0.66    1.26
 -10   2   6   52.47    9.02
 -10  -2   6   34.65    6.12
 -10   2   6   39.23    7.00
 -10  -2   6   43.66    7.30
 -10   2   5  266.49   18.10
 -10  -2   5  217.64   15.18
 -10   2   5  225.54   16.40
 -10  -2   5  272.25   18.36
 -10  -2   4   46.28    7.04
 -10  -2   4   60.92    9.49
 -10   2   4   39.31    6.59
 -10   2   3   87.00   10.49
 -10   2   3   61.41    7.76
 -10  -2   3   71.50    8.97
 -10  -2   2   25.79    5.22
 -10   2   2   30.27    6.58
 -10   2   2   19.96    4.10
 -10   2   1   16.36    4.98
 -10  -2   1    9.31    3.32
 -10   2   1   10.18    3.95
 -10   2   0    7.12    2.82
 -10  -2   0    7.01    2.99
 -10   2   0    9.22    3.60
 -10   2  -1   22.06    4.42
 -10   2  -1   22.88    5.46
 -10  -2  -1   25.46    5.53
 -10   2  -2   32.98    4.97
 -10  -2  -2   35.63    6.74
 -10   2  -2   30.97    6.53
 -10   2  -3   20.83    5.07
 -10  -2  -3   19.80    4.60
 -10   2  -4   12.14    3.61
 -10  -2  -4   10.65    3.42
 -10   2  -5   33.40    6.68
 -10  -2  -5   29.78    5.38
 -10   2  -6    2.76    2.24
 -10  -2  -6    1.95    1.46
 -10   2  -7   17.66    3.80
 -10  -2  -7   17.14    3.43
 -10  -2  -8    5.67    1.56
  10  -3 -13    4.04    1.43
  10  -3 -13    4.63    1.51
  10  -3 -12    5.26    2.33
  10   3 -12    1.47    1.14
  10  -3 -12    4.04    2.18
 -10  -3  12    1.64    1.48
  10  -3 -11    1.53    1.62
 -10  -3  11    1.04    1.75
 -10  -3  10   14.97    3.67
 -10  -3  10    9.62    3.11
 -10   3   9   43.13    7.69
 -10  -3   9   40.72    6.74
 -10   3   8   22.70    5.75
 -10  -3   8   22.66    4.93
 -10   3   8   18.53    4.79
 -10  -3   8   35.32    6.63
 -10   3   7   14.06    5.03
 -10  -3   7   13.07    3.87
 -10   3   7   11.97    3.97
 -10  -3   7   10.31    2.92
 -10   3   6   12.91    4.88
 -10  -3   6   11.33    3.83
 -10   3   6   10.23    3.86
 -10  -3   6   18.54    5.23
 -10   3   5    7.19    3.70
 -10  -3   5    6.52    2.40
 -10   3   5    8.57    3.80
 -10  -3   5   12.67    5.04
 -10   3   4   71.58    9.78
 -10  -3   4   57.65    7.65
 -10  -3   4   69.38    9.02
 -10   3   4   45.51    7.14
 -10  -3   3   56.26    7.83
 -10   3   3   61.68    9.03
 -10  -3   3   56.76    7.43
 -10   3   3   51.23    7.26
 -10  -3   2    2.46    2.33
 -10   3   2    3.03    2.87
 -10  -3   2    1.22    1.41
 -10   3   2   -0.13    1.28
 -10  -3   1    4.60    3.03
 -10   3   1    7.66    3.74
 -10  -3   1    8.20    3.24
 -10   3   1    4.10    0.75
 -10   3   0   96.16   10.76
 -10  -3   0   97.18   10.00
 -10   3  -1   36.41    7.81
 -10   3  -2   41.80    6.98
 -10  -3  -2   43.83    6.67
 -10   3  -3    1.80    1.35
 -10  -3  -3    3.36    2.36
 -10   3  -4   31.76    6.01
 -10  -3  -4   33.31    5.63
 -10   3  -4   41.70    6.70
 -10   3  -5   22.11    5.29
 -10  -3  -5   21.71    4.27
 -10   3  -6    3.58    2.96
 -10  -3  -6    0.04    0.74
 -10   3  -7   21.66    4.13
 -10  -3  -7   16.27    3.08
  10  -4 -13    1.83    1.01
  10  -4 -13    0.41    0.68
  10  -4 -12    1.33    1.65
  10   4 -12    2.80    1.82
  10  -4 -12    1.07    1.07
 -10  -4  12   -0.09    0.96
  10  -4 -11   11.88    2.94
 -10  -4  11   11.65    3.52
  10  -4 -10    1.41    2.35
 -10  -4  10    0.31    0.84
 -10  -4   9    1.82    1.31
 -10  -4   9    2.49    2.03
 -10  -4   8   20.87    4.87
 -10   4   8   19.76    4.67
 -10  -4   8   25.71    5.38
 -10   4   7    6.95    3.52
 -10  -4   7    8.34    3.13
 -10   4   7    4.18    1.87
 -10  -4   7    5.31    2.06
 -10   4   6   12.26    4.22
 -10  -4   6    9.43    3.37
 -10   4   6   12.43    4.06
 -10  -4   6   11.77    3.78
 -10   4   5   67.76    9.46
 -10   4   5   57.77    9.53
 -10  -4   5   50.70    7.50
 -10  -4   5   62.16    8.59
 -10   4   5   39.01    6.72
 -10   4   4   41.50    7.42
 -10  -4   4   36.45    6.32
 -10  -4   4   29.34    5.52
 -10   4   4   28.17    5.93
 -10  -4   4   40.60    6.69
 -10   4   3  222.61   17.47
 -10  -4   3  204.42   14.45
 -10  -4   3  198.23   13.48
 -10  -4   3  224.85   15.63
 -10  -4   2   24.69    5.04
 -10   4   2   27.33    6.10
 -10  -4   2   24.90    6.40
 -10  -4   1    6.49    2.71
 -10   4   1    4.48    2.83
 -10  -4   1    3.81    1.97
 -10   4   0   76.84    9.98
 -10  -4   0   75.66    8.85
 -10   4  -1   22.83    5.69
 -10   4  -2   12.85    4.57
 -10  -4  -2   18.00    5.08
 -10   4  -3    2.76    2.59
 -10  -4  -3    4.36    2.57
 -10   4  -3    2.78    2.61
 -10   4  -4   10.24    5.11
 -10  -4  -4    6.74    3.25
 -10   4  -4    8.34    3.75
 -10   4  -5   26.99    5.58
 -10  -4  -5   24.32    4.31
 -10   4  -5   29.63    5.07
 -10   4  -6    2.30    2.21
 -10  -4  -6    2.37    0.94
 -10   4  -7    3.88    1.75
 -10  -4  -7    4.02    1.60
  10  -5 -13    1.13    0.82
  10  -5 -12    2.51    1.30
  10  -5 -12    1.96    1.13
 -10  -5  12    4.50    2.19
  10  -5 -11    2.41    1.63
  10  -5 -11    1.66    1.36
 -10  -5  11    2.19    1.83
  10  -5 -10    3.03    1.95
 -10  -5  10   -0.75    0.80
  10  -5  -9   64.84    8.05
 -10  -5   9   64.21    7.97
 -10  -5   9   58.46    7.17
 -10  -5   8    0.99    1.29
 -10  -5   8    9.27    5.41
 -10  -5   7   37.30    7.01
 -10   5   7   22.07    4.73
 -10  -5   7   33.19    6.38
 -10  -5   6    1.73    1.51
 -10   5   6    0.34    1.65
 -10  -5   6    1.90    1.94
 -10   5   5   41.22    8.11
 -10  -5   5   43.08    7.04
 -10  -5   5   44.66    6.88
 -10  -5   5   42.35    7.09
 -10   5   4   35.30    7.10
 -10  -5   4   28.40    5.50
 -10  -5   4   30.97    5.78
 -10  -5   4   32.78    5.94
 -10   5   3  100.09   11.72
 -10  -5   3   86.61    9.77
 -10  -5   3   86.55    8.94
 -10  -5   3   92.67   10.13
 -10  -5   2   27.53    5.35
 -10   5   2   40.83    7.84
 -10  -5   2   29.73    5.64
 -10  -5   1   27.13    6.02
 -10   5   1   20.15    5.56
 -10  -5   1   18.85    4.41
 -10  -5   0   33.84    6.89
 -10   5   0   23.53    5.58
 -10  -5   0   29.29    5.50
 -10   5  -1  243.38   17.93
 -10   5  -2   71.22    9.71
 -10   5  -3   33.48    6.57
 -10  -5  -3   26.82    4.93
 -10   5  -3   37.41    6.12
 -10   5  -4   -0.20    0.89
 -10  -5  -4   -1.36    1.28
 -10   5  -4    1.74    1.52
 -10   5  -5   12.69    3.77
 -10  -5  -5   10.76    3.10
 -10   5  -5   15.43    3.39
 -10   5  -6    4.97    1.92
 -10  -5  -6    4.28    1.97
 -10  -5  -7   38.84    4.34
  10  -6 -12    3.32    1.30
  10  -6 -12    2.94    1.42
 -10  -6  12    3.26    1.36
  10  -6 -11   16.29    3.41
  10  -6 -11   17.22    3.50
 -10  -6  11   17.22    3.64
  10  -6 -10    6.78    2.42
 -10  -6  10    8.68    3.14
 -10  -6   9    1.65    1.50
 -10  -6   9    3.20    1.58
  10  -6  -8   21.41    4.70
 -10  -6   8   20.54    4.57
 -10  -6   8   22.54    4.68
 -10  -6   7   24.22    5.39
 -10  -6   7   16.98    4.33
 -10  -6   6   37.99    6.37
 -10  -6   6   37.86    6.18
 -10   6   5  176.32   15.63
 -10  -6   5  162.95   13.37
 -10  -6   5  165.40   13.14
 -10  -6   5  168.73   13.36
 -10   6   4   53.68    8.59
 -10  -6   4   54.30    7.66
 -10  -6   4   48.23    7.14
 -10  -6   4   62.04    8.31
 -10  -6   3   14.82    3.78
 -10   6   3   16.95    5.12
 -10  -6   3   16.79    4.07
 -10  -6   3   28.67    5.00
 -10  -6   2   54.06    7.34
 -10   6   2   41.67    7.24
 -10  -6   2   52.53    7.66
 -10  -6   1    2.42    2.30
 -10   6   1    3.84    3.18
 -10  -6   1    1.64    0.97
 -10  -6   0    1.59    1.49
 -10   6   0    4.35    3.79
 -10  -6   0    4.26    2.32
 -10   6  -1   -0.71    1.61
 -10  -6  -1    1.97    1.37
 -10   6  -2  100.79   11.51
 -10   6  -3   48.03    7.65
 -10   6  -4   10.64    3.44
 -10  -6  -4   10.72    2.92
 -10   6  -4   15.80    3.67
 -10   6  -5   13.88    3.85
 -10  -6  -5   15.84    3.28
 -10   6  -6   32.15    4.95
 -10  -6  -6   34.86    4.47
  10  -7 -12    1.03    0.73
  10  -7 -11    5.12    1.42
  10  -7 -11    4.49    1.90
 -10  -7  11    3.68    1.88
  10  -7 -10    6.59    2.34
 -10  -7  10    2.93    1.83
 -10  -7   9   14.49    3.59
 -10  -7   8    3.72    1.97
 -10  -7   7   64.19    8.09
 -10  -7   6   10.04    3.76
 -10  -7   6   14.52    4.41
 -10  -7   5    3.77    1.62
 -10  -7   5    4.93    2.39
 -10  -7   5    5.00    2.62
 -10   7   4   34.10    6.67
 -10  -7   4   37.00    6.32
 -10  -7   4   33.38    5.88
 -10  -7   4   36.84    5.94
 -10   7   3   48.57    9.66
 -10  -7   3   49.79    7.68
 -10  -7   3   32.73    5.32
 -10  -7   3   40.56    6.39
 -10  -7   2   10.20    3.19
 -10   7   2   11.28    3.67
 -10  -7   2   13.08    3.86
 -10  -7   1    6.26    2.59
 -10   7   1    5.80    2.87
 -10  -7   1    4.82    2.19
 -10  -7   0   31.54    5.91
 -10   7   0   34.81    6.92
 -10  -7   0   31.08    5.55
 -10  -7  -1   43.84    6.27
 -10   7  -1   57.96    9.00
 -10  -7  -1   39.48    5.68
 -10   7  -2   11.76    4.50
 -10   7  -3   35.18    6.69
 -10   7  -4    1.26    2.49
 -10   7  -5    6.45    2.72
 -10  -7  -6   17.87    2.81
  10  -8 -11   30.34    3.73
 -10  -8  11   25.07    3.65
  10  -8 -10   14.40    3.65
 -10  -8  10   12.01    2.94
 -10  -8   9    2.03    1.77
 -10  -8   8    4.75    1.92
 -10  -8   7    6.06    2.21
 -10  -8   6    5.33    4.34
 -10  -8   5   14.04    4.30
 -10  -8   5   16.86    4.05
 -10   8   4   14.90    5.47
 -10  -8   4   14.67    4.05
 -10  -8   4   12.20    3.34
 -10  -8   4   14.93    3.67
 -10   8   3    8.17    3.86
 -10  -8   3    9.37    3.26
 -10  -8   3    4.07    1.08
 -10  -8   3    5.83    2.78
 -10  -8   2    1.92    2.06
 -10   8   2    1.46    1.48
 -10  -8   2    1.06    1.41
 -10  -8   1   16.38    4.81
 -10   8   1   14.18    4.08
 -10  -8   1   16.14    3.80
 -10  -8   0    0.84    0.77
 -10   8   0   -0.32    1.09
 -10  -8   0    1.43    1.63
 -10  -8  -1    0.00    1.11
 -10  -8  -1    0.39    1.59
 -10  -8  -2    4.07    1.69
 -10   8  -2    3.34    2.87
 -10  -8  -2    3.93    1.90
 -10  -8  -3    8.35    2.52
 -10   8  -3    9.88    3.64
 -10  -8  -4   27.17    3.95
 -10   8  -4   30.53    5.20
 -10  -8  -5    1.58    0.84
 -10   8  -5    1.23    1.11
  10  -9 -10    2.97    1.18
 -10  -9  10    2.75    1.39
 -10  -9   9    1.18    1.38
 -10  -9   8   24.71    4.28
 -10  -9   7    8.55    2.62
 -10  -9   6    7.42    2.83
 -10  -9   5    6.80    2.64
 -10  -9   5    7.19    2.63
 -10  -9   4   10.51    3.31
 -10  -9   4    9.66    3.07
 -10  -9   3    3.67    2.22
 -10  -9   3    1.48    1.57
 -10   9   2   -1.01    1.24
 -10  -9   2    4.59    2.68
 -10  -9   2    3.62    2.04
 -10  -9   1    1.03    1.60
 -10   9   1    0.14    2.41
 -10  -9   1    1.02    0.98
 -10   9   0  119.96   12.57
 -10  -9   0  118.83   10.25
 -10  -9   0  100.85    8.09
 -10   9  -1   70.03    9.31
 -10  -9  -1   59.52    6.86
 -10  -9  -1   53.40    5.70
 -10  -9  -2   27.61    4.13
 -10   9  -2   32.38    6.21
 -10  -9  -2   27.10    4.08
 -10  -9  -3    2.41    1.41
 -10   9  -3    3.61    2.67
 -10  -9  -4    4.78    1.32
 -10   9  -4    7.55    2.43
  10 -10  -9    5.01    1.76
 -10 -10   9   15.70    3.56
 -10 -10   8   18.68    3.51
 -10 -10   7    7.55    2.52
 -10 -10   6    1.99    1.74
 -10 -10   5    9.74    2.73
 -10 -10   5   11.68    3.28
 -10 -10   4   19.98    4.12
 -10 -10   4   17.00    3.56
 -10 -10   3   30.66    5.77
 -10 -10   3   28.86    4.50
 -10 -10   2    7.80    3.24
 -10 -10   2    5.19    2.61
 -10  10   1    7.36    3.55
 -10 -10   1    7.41    2.60
 -10  10   0   33.72    7.01
 -10 -10   0   13.66    3.22
 -10  10  -1   35.30    6.71
 -10 -10  -1   31.11    4.72
 -10  10  -2   24.12    4.95
 -10 -10  -2   24.42    3.87
 -10  10  -3    7.07    2.41
 -10 -11   8    3.91    1.66
 -10 -11   7    6.56    2.33
 -10 -11   6    2.66    1.45
 -10 -11   5    3.00    1.97
 -10 -11   4    6.52    2.15
 -10 -11   4    6.69    2.31
 -10 -11   3    0.40    0.50
 -10 -11   3    1.49    1.33
 -10 -11   2   35.08    5.19
 -10 -11   2   28.90    4.08
 -10 -11   1    1.88    1.15
 -10 -11   0   18.38    3.48
 -10 -11  -1    1.60    1.24
 -10 -11  -2   39.31    4.34
 -10 -12   7    3.94    1.45
 -10 -12   6   13.08    2.71
 -10 -12   5    3.12    1.41
 -10 -12   4   42.67    4.89
 -10 -12   4   36.45    4.34
 -10 -12   3    0.92    0.97
 -10 -12   3    0.45    0.74
 -10 -12   2   13.51    2.95
 -10 -12   2    8.01    2.11
 -10 -12   1    1.49    0.89
 -10 -12   0    5.39    1.74
 -10 -12  -1   18.97    2.92
 -10 -13   2   15.81    2.56
  11   0 -12    0.16    1.24
 -11   0  11    7.68    2.74
 -11   0  10    1.02    1.92
 -11   0   9   29.46    5.27
 -11   0   9   26.01    5.30
 -11   0   8    0.58    0.77
 -11   0   8    2.13    2.26
 -11   0   7    0.52    1.42
 -11   0   7   -0.01    1.45
 -11   0   6   -0.56    0.64
 -11   0   6    0.37    1.52
 -11   0   5    2.57    2.89
 -11   0   5    0.97    1.24
 -11   0   4   -0.15    0.46
 -11   0   3   49.82    7.09
 -11   0   2    0.81    1.42
 -11   0   1    8.54    2.71
 -11   0   1    9.92    3.35
 -11   0   0    2.21    1.65
 -11   0   0    0.23    1.09
 -11   0  -1   81.47    9.51
 -11   0  -1   69.63    7.52
 -11   0  -2    1.14    1.63
 -11   0  -2   -0.21    1.85
 -11   0  -3   11.17    2.69
 -11   0  -3   13.68    3.76
 -11   0  -4    1.30    1.35
 -11   0  -4    0.11    0.73
 -11   0  -5   17.36    2.72
 -11   0  -5   27.08    4.52
 -11   0  -6    0.82    1.32
  11  -1 -12    1.89    1.86
  11   1 -12    0.81    0.80
 -11  -1  11    2.72    1.66
 -11   1  10    6.23    2.40
 -11  -1  10    6.80    2.54
 -11   1   9    0.22    0.90
 -11  -1   9    1.14    1.48
 -11   1   9    2.98    2.54
 -11  -1   9    1.90    2.01
 -11   1   8    2.72    1.87
 -11  -1   8    3.94    2.11
 -11   1   8    5.78    2.71
 -11  -1   8    1.89    1.34
 -11   1   7   30.18    6.28
 -11  -1   7   25.92    5.18
 -11   1   7   23.42    5.25
 -11  -1   7   26.05    5.60
 -11   1   6    2.42    1.61
 -11  -1   6   -0.09    0.46
 -11   1   6    0.34    0.49
 -11  -1   6    1.06    1.05
 -11   1   5    1.93    1.78
 -11  -1   5    3.48    2.08
 -11   1   5    4.24    1.73
 -11  -1   5    2.80    2.18
 -11   1   4    9.11    3.85
 -11  -1   4    5.71    1.98
 -11   1   3  284.84   16.56
 -11  -1   3  315.72   18.23
 -11  -1   2   26.86    5.73
 -11   1   2   21.42    4.40
 -11   1   1    8.78    2.83
 -11  -1   1    7.20    2.91
 -11   1   1    8.41    2.85
 -11   1   0   37.01    5.69
 -11  -1   0   39.21    6.10
 -11   1   0   38.73    6.58
 -11  -1   0   46.88    7.00
 -11   1  -1    9.28    3.49
 -11  -1  -1    8.67    2.93
 -11   1  -1    8.18    2.98
 -11  -1  -1    9.55    3.47
 -11   1  -2    4.03    2.21
 -11  -1  -2    6.48    2.72
 -11   1  -2    5.58    3.14
 -11  -1  -2    6.32    2.63
 -11   1  -3   41.13    5.02
 -11  -1  -3   52.26    7.22
 -11   1  -3   48.29    7.00
 -11  -1  -3   41.35    5.54
 -11  -1  -4    0.90    0.58
 -11   1  -4    2.31    2.49
 -11  -1  -4    0.60    0.94
 -11  -1  -5    3.16    1.58
 -11   1  -5    2.70    1.49
 -11  -1  -5    3.29    1.71
 -11   1  -6    0.69    1.17
 -11  -1  -6    3.94    2.44
  11  -2 -12    0.93    0.72
  11   2 -12    0.30    0.49
  11  -2 -11    0.88    0.60
 -11  -2  11   -0.24    0.95
 -11  -2  10   12.27    3.20
 -11   2   9    4.97    2.40
 -11  -2   9    7.28    2.77
 -11   2   9    6.45    3.16
 -11  -2   9    5.15    2.09
 -11   2   8   31.66    5.68
 -11  -2   8   28.03    5.09
 -11   2   8   29.11    5.64
 -11  -2   8   39.87    6.59
 -11   2   7   62.00    8.36
 -11  -2   7   60.95    7.76
 -11   2   7   60.67    7.93
 -11  -2   7   74.60    9.18
 -11   2   6   16.38    4.12
 -11  -2   6   13.80    3.76
 -11   2   6   12.75    3.81
 -11  -2   6   14.16    4.84
 -11   2   5   25.84    6.31
 -11  -2   5   22.97    4.86
 -11   2   5   18.60    4.41
 -11  -2   5   23.97    5.32
 -11   2   4    8.35    2.90
 -11  -2   4   15.08    4.24
 -11   2   3   12.29    3.47
 -11  -2   3   16.12    4.66
 -11   2   2   62.14    8.35
 -11  -2   2   61.23    7.77
 -11   2   2   49.83    6.33
 -11  -2   1    1.29    1.53
 -11   2   1    1.58    1.04
 -11   2   1    1.50    1.43
 -11  -2   0    4.58    2.55
 -11   2   0    4.57    3.11
 -11   2   0   -0.97    1.23
 -11   2  -1    5.40    2.01
 -11  -2  -1    7.48    2.51
 -11   2  -1    6.20    2.93
 -11  -2  -1    8.46    2.79
 -11  -2  -2   25.38    4.58
 -11   2  -2   31.45    5.58
 -11  -2  -2   35.63    6.70
 -11  -2  -3    7.68    2.68
 -11   2  -3    8.26    2.66
 -11  -2  -3   11.25    3.23
 -11  -2  -4   16.37    3.55
 -11   2  -4   20.19    4.25
 -11  -2  -4   16.89    3.64
 -11  -2  -5    8.81    2.08
 -11   2  -5   11.51    3.32
 -11  -2  -5   12.08    2.83
 -11   2  -6    3.87    1.87
 -11  -2  -6    4.50    1.63
  11  -3 -12    2.60    1.23
  11  -3 -12    3.02    1.24
 -11  -3  12    3.20    1.39
  11  -3 -11    4.07    1.69
  11  -3 -11    5.47    2.64
 -11  -3  11    4.14    1.76
 -11  -3  10    1.02    1.02
 -11  -3   9    4.96    2.33
 -11  -3   9    4.45    1.95
 -11   3   8   -0.11    0.65
 -11  -3   8    0.73    3.22
 -11   3   8    0.83    1.35
 -11  -3   8    0.36    0.99
 -11   3   7    6.74    2.91
 -11  -3   7    9.97    4.60
 -11   3   7    2.55    1.89
 -11  -3   7    3.68    2.80
 -11   3   6   20.86    5.35
 -11  -3   6   17.66    4.43
 -11   3   6   12.81    3.60
 -11  -3   6   16.57    4.23
 -11  -3   5    2.56    2.07
 -11   3   5    0.96    1.38
 -11  -3   5    2.27    1.37
 -11  -3   4    1.79    1.79
 -11   3   4   -0.23    0.64
 -11  -3   4   -0.12    0.85
 -11   3   3   79.02    9.95
 -11   3   3   55.97    6.95
 -11  -3   3   78.35    9.14
 -11   3   2   54.23    8.18
 -11  -3   2   53.50    7.48
 -11   3   2   42.04    5.85
 -11  -3   1   34.34    5.90
 -11   3   1   33.88    6.35
 -11  -3   0   11.16    3.66
 -11   3   0   14.21    4.45
 -11  -3  -1    0.78    1.23
 -11   3  -1    1.35    1.96
 -11  -3  -2   12.34    3.29
 -11   3  -2   15.34    4.32
 -11  -3  -2   15.69    3.99
 -11  -3  -3   18.64    3.69
 -11   3  -3   24.33    4.87
 -11  -3  -3   21.07    3.93
 -11  -3  -4    3.96    1.47
 -11   3  -4    3.03    2.27
 -11   3  -5   51.49    6.19
 -11  -3  -5   49.09    5.33
 -11  -3  -5   35.99    4.18
 -11  -3  -6   19.34    2.62
 -11   3  -6   26.12    4.01
 -11  -3  -6   27.42    3.55
  11  -4 -12    0.63    0.71
  11  -4 -12    0.19    0.63
 -11  -4  12   -0.31    0.38
  11  -4 -11    0.36    1.13
 -11  -4  11    0.11    0.93
  11  -4 -10    7.70    2.35
 -11  -4  10    6.28    2.02
 -11  -4   9    1.89    1.11
 -11  -4   9    1.68    1.36
 -11  -4   8   22.37    4.47
 -11  -4   8   25.13    5.04
 -11   4   7    1.39    0.85
 -11  -4   7    4.75    1.79
 -11  -4   6   18.35    4.51
 -11   4   6   12.71    3.53
 -11  -4   6   14.96    4.12
 -11  -4   5   16.06    3.79
 -11   4   5    9.09    2.84
 -11  -4   5   15.98    4.00
 -11   4   4    5.55    2.73
 -11  -4   4    7.89    2.82
 -11   4   4    1.86    1.22
 -11  -4   4    7.48    4.17
 -11   4   3   22.34    5.05
 -11  -4   3   28.08    5.32
 -11   4   2   61.21    8.23
 -11  -4   2   59.80    7.76
 -11  -4   1    2.05    2.07
 -11   4   1    0.43    2.01
 -11  -4   0   11.89    3.39
 -11   4   0   22.98    6.12
 -11  -4  -1    6.43    2.65
 -11   4  -1    8.65    3.24
 -11  -4  -2    0.00    1.25
 -11   4  -2    0.18    0.50
 -11  -4  -3    1.96    1.56
 -11   4  -3    2.60    2.25
 -11  -4  -3    2.37    2.13
 -11  -4  -4   17.05    3.37
 -11   4  -4   19.15    4.14
 -11  -4  -4   18.80    3.49
 -11  -4  -5    3.83    1.65
 -11   4  -5    5.00    2.39
 -11  -4  -5    4.00    1.84
  11  -5 -11    5.06    1.69
  11  -5 -11    4.58    1.76
 -11  -5  11    4.29    1.85
  11  -5 -10   31.31    4.40
 -11  -5  10   37.35    5.29
  11  -5  -9    6.23    2.25
 -11  -5   9    6.39    2.70
 -11  -5   9    5.10    1.98
 -11  -5   8   -0.30    1.38
 -11  -5   8    0.32    1.34
 -11  -5   7    0.40    0.45
 -11  -5   7    1.38    1.67
 -11  -5   6    0.19    0.54
 -11  -5   6    0.62    0.90
 -11   5   5    2.88    1.35
 -11  -5   5    4.90    2.42
 -11  -5   5    5.70    2.79
 -11   5   4   93.69   10.18
 -11  -5   4   79.74    8.11
 -11  -5   4   95.35    9.73
 -11   5   3    2.79    3.33
 -11  -5   3    3.24    1.83
 -11  -5   2   12.57    3.79
 -11   5   2   15.17    4.96
 -11  -5   2    8.46    2.33
 -11  -5   1   -0.84    1.60
 -11   5   1    1.52    2.86
 -11  -5   1    4.21    2.02
 -11  -5   0    8.86    2.88
 -11   5   0   10.01    3.50
 -11  -5  -1    9.52    2.81
 -11   5  -1   10.51    3.91
 -11  -5  -2   24.80    4.49
 -11   5  -2   34.58    6.27
 -11  -5  -3    9.30    3.50
 -11   5  -3    3.85    2.72
 -11  -5  -4    5.41    1.97
 -11   5  -4    4.07    2.30
 -11  -5  -4    3.80    1.79
 -11  -5  -5    0.80    0.75
 -11   5  -5    1.15    1.43
  11  -6 -11    4.24    2.03
 -11  -6  11    2.77    1.36
  11  -6 -10    9.67    2.13
 -11  -6  10   12.88    2.95
  11  -6  -9   11.46    2.67
 -11  -6   9   16.22    3.61
 -11  -6   8   30.07    5.14
 -11  -6   8   26.67    4.37
 -11  -6   7   -0.52    0.58
 -11  -6   7    1.68    1.33
 -11  -6   6   17.95    4.21
 -11  -6   6   21.53    4.34
 -11  -6   5    3.67    2.13
 -11  -6   5    3.20    1.86
 -11   6   4    5.69    2.68
 -11  -6   4    7.02    2.99
 -11  -6   4    6.14    2.78
 -11   6   3    1.17    2.81
 -11  -6   3    0.29    0.92
 -11  -6   3    2.22    2.58
 -11  -6   2    0.11    0.60
 -11  -6   2    1.46    1.70
 -11  -6   1    1.74    1.81
 -11   6   1    1.47    1.75
 -11  -6   1    2.36    2.21
 -11  -6   0    8.04    3.08
 -11   6   0    8.72    3.22
 -11  -6   0    6.63    2.50
 -11  -6  -1   13.78    4.55
 -11   6  -1    4.25    2.60
 -11   6  -2   41.53    6.80
 -11  -6  -2   40.27    5.43
 -11  -6  -3    3.53    1.56
 -11   6  -3    2.02    1.92
 -11  -6  -4    4.04    1.61
 -11   6  -4    3.38    2.02
 -11  -6  -5   -0.13    0.34
 -11   6  -5    1.96    1.83
  11  -7 -11    9.78    2.08
  11  -7 -10    7.11    2.04
 -11  -7  10    6.57    2.09
 -11  -7   9    4.23    1.62
 -11  -7   8    4.70    2.08
 -11  -7   7    3.80    2.26
 -11  -7   7    7.79    2.41
 -11  -7   6   13.57    3.43
 -11  -7   6    9.32    2.46
 -11  -7   5    8.39    3.23
 -11  -7   5    0.41    1.39
 -11   7   4   18.35    4.93
 -11  -7   4   13.22    2.98
 -11  -7   4   15.77    3.93
 -11   7   3   -0.22    1.61
 -11  -7   3    0.28    0.47
 -11  -7   3    2.38    1.96
 -11   7   2   14.83    3.65
 -11  -7   2   17.96    3.86
 -11  -7   2   16.84    3.61
 -11  -7   1    9.67    3.29
 -11   7   1    7.24    2.43
 -11  -7   1    6.49    2.29
 -11  -7   0    1.60    1.31
 -11   7   0    0.21    0.59
 -11  -7   0    1.86    1.03
 -11  -7  -1   11.83    3.08
 -11   7  -1   12.26    3.85
 -11  -7  -2    1.01    0.64
 -11   7  -2    2.36    2.22
 -11  -7  -3   21.71    3.49
 -11   7  -3   27.25    4.80
 -11  -7  -4    1.27    1.04
 -11   7  -4    2.12    1.78
  11  -8 -10    2.42    1.21
 -11  -8  10    1.33    1.05
 -11  -8   9    3.97    1.74
 -11  -8   8   11.31    2.72
 -11  -8   7   16.76    3.60
 -11  -8   6   11.03    3.32
 -11  -8   5    6.70    2.98
 -11  -8   4    3.85    1.63
 -11  -8   4    4.63    2.31
 -11   8   3    3.43    1.95
 -11  -8   3    2.96    1.83
 -11  -8   3    2.28    1.03
 -11   8   2    1.77    1.89
 -11  -8   2    1.68    1.87
 -11  -8   2    2.38    2.34
 -11   8   1   53.66    7.50
 -11  -8   1   43.08    5.79
 -11  -8   1   38.40    4.90
 -11  -8   0   -0.34    0.74
 -11   8   0    1.75    1.84
 -11  -8   0    0.19    0.71
 -11  -8  -1    2.06    1.07
 -11   8  -1    4.42    2.27
 -11  -8  -2    6.98    2.05
 -11   8  -2   10.43    3.21
 -11  -8  -3    2.96    1.51
 -11   8  -3    6.57    2.52
  11  -9  -9   11.69    2.23
 -11  -9   9    9.76    2.46
 -11  -9   8    2.21    1.23
 -11  -9   7    6.88    2.12
 -11  -9   6    0.60    1.42
 -11  -9   5    2.46    1.80
 -11  -9   4   37.83    4.82
 -11  -9   3   51.86    6.17
 -11  -9   2   19.27    3.74
 -11   9   1    0.65    0.73
 -11  -9   1    1.61    1.23
 -11  -9   1    0.55    1.16
 -11   9   0   16.39    4.17
 -11  -9   0   16.44    3.06
 -11  -9   0   16.15    2.89
 -11   9  -1    3.05    2.12
 -11  -9  -1    3.74    2.05
 -11  -9  -1    9.39    3.02
 -11   9  -2    1.44    1.44
 -11  -9  -2   -0.27    0.41
 -11 -10   8    0.87    0.95
 -11 -10   7    4.40    1.43
 -11 -10   6    2.51    1.31
 -11 -10   5   35.28    4.34
 -11 -10   4    2.13    1.44
 -11 -10   3   53.59    5.84
 -11 -10   2   10.56    2.61
 -11 -10   1    0.45    1.27
 -11 -10   0    2.22    1.28
 -11 -11   5   -0.31    0.37
 -11 -11   1    7.07    1.90
  12   0 -11    0.81    1.20
 -12   0  10   18.72    3.45
 -12   0   9    2.39    1.51
 -12   0   9    2.75    2.04
 -12   0   8    2.74    1.34
 -12   0   8    0.69    1.40
 -12   0   7   -0.40    1.04
 -12   0   7    5.67    3.09
 -12   0   6    2.13    2.53
 -12   0   6    1.20    1.40
 -12   0   5    0.71    1.54
 -12   0   4   23.60    4.50
 -12   0   3    1.03    1.43
 -12   0   2    3.94    2.08
 -12   0   1    0.59    1.73
 -12   0   0  126.39   10.44
 -12   0   0  101.45    8.60
 -12   0  -1   16.51    3.47
 -12   0  -1    3.12    1.56
 -12   0  -2   12.94    3.91
 -12   0  -2    7.13    2.05
 -12   0  -3    3.98    2.11
 -12   0  -3    0.79    0.75
 -12   0  -4    3.36    1.30
  12  -1 -11    1.03    0.69
  12   1 -11    1.17    1.00
 -12  -1  10   16.26    3.38
 -12   1   9    5.17    2.14
 -12  -1   9    6.16    2.18
 -12  -1   9    5.35    2.25
 -12   1   8    8.61    4.48
 -12  -1   8    4.17    1.96
 -12   1   8    4.68    2.95
 -12  -1   8    5.52    2.51
 -12   1   7    1.98    1.59
 -12  -1   7    2.25    1.43
 -12   1   7    1.16    0.90
 -12   1   6    8.96    2.50
 -12  -1   6    8.44    2.74
 -12   1   6    7.94    2.61
 -12  -1   6    9.95    3.25
 -12   1   5    5.97    2.25
 -12  -1   5    6.10    2.76
 -12   1   4   29.85    5.02
 -12  -1   4   35.78    5.89
 -12   1   3    0.67    0.89
 -12  -1   3    0.38    3.11
 -12   1   2   94.47    8.54
 -12  -1   2  104.92    9.49
 -12   1   1    2.02    1.17
 -12   1   1    4.61    2.26
 -12  -1   1    3.15    1.64
 -12  -1   0   24.82    4.87
 -12   1   0   25.36    4.75
 -12   1   0   18.55    3.56
 -12  -1  -1    3.51    1.74
 -12   1  -1   -0.15    1.13
 -12  -1  -1    3.46    2.09
 -12   1  -1    0.16    0.74
 -12  -1  -2    5.41    1.97
 -12   1  -2    5.72    2.13
 -12  -1  -2    8.93    3.02
 -12   1  -2    5.10    1.84
 -12  -1  -3    3.09    1.42
 -12   1  -3    1.96    1.57
 -12  -1  -3    0.84    1.38
 -12   1  -4    7.26    2.07
 -12  -1  -4    8.36    2.39
  12  -2 -11   26.56    3.52
 -12  -2  11   27.22    3.99
  12  -2 -10   12.81    2.97
 -12  -2  10   14.28    3.05
 -12  -2   9    0.14    0.70
 -12  -2   9    4.01    1.85
 -12  -2   8    7.60    2.56
 -12   2   8    8.27    2.35
 -12  -2   8    8.36    2.67
 -12  -2   7   11.73    3.39
 -12   2   7    7.55    2.83
 -12  -2   7    6.62    3.75
 -12  -2   6    1.07    1.32
 -12   2   6    0.24    0.86
 -12  -2   6    2.87    1.91
 -12   2   5    1.99    1.12
 -12  -2   5    5.23    2.10
 -12   2   4    6.98    3.68
 -12  -2   4    1.62    1.50
 -12  -2   3   43.15    6.74
 -12   2   3   34.87    5.00
 -12   2   2    4.06    2.25
 -12   2   2    2.45    1.13
 -12  -2   2    6.24    2.90
 -12   2   1   -0.30    1.24
 -12   2   1    0.35    1.25
 -12  -2   1    0.60    0.69
 -12   2   0   69.70    7.93
 -12   2   0   55.27    5.72
 -12  -2   0   56.00    6.83
 -12  -2  -1   34.31    5.01
 -12   2  -1   52.19    6.79
 -12  -2  -2   17.37    3.11
 -12   2  -2   23.94    4.47
 -12  -2  -2   24.09    3.98
 -12  -2  -3    1.58    0.95
 -12   2  -3    3.01    1.49
 -12  -2  -4    6.54    1.48
 -12   2  -4   12.72    2.77
  12  -3 -11    2.39    1.07
 -12  -3  11    2.13    1.12
  12  -3 -10    2.05    1.33
 -12  -3  10    1.35    1.08
 -12  -3   9   19.56    3.81
 -12  -3   9   16.12    3.30
 -12  -3   8    2.33    1.87
 -12  -3   8    3.79    1.77
 -12  -3   7   23.99    4.52
 -12   3   7   14.63    3.07
 -12  -3   7   22.17    4.19
 -12  -3   6    1.02    1.45
 -12   3   6    1.22    1.49
 -12  -3   6    2.19    1.40
 -12  -3   5   27.13    4.37
 -12   3   5   23.42    3.97
 -12  -3   5   30.84    5.45
 -12   3   4    3.64    1.76
 -12  -3   4    3.30    2.62
 -12   3   3    3.51    2.51
 -12   3   3    2.21    1.48
 -12  -3   3    1.63    1.25
 -12   3   2    9.59    4.24
 -12  -3   2    1.87    1.83
 -12   3   1   16.82    4.11
 -12  -3   1    8.06    2.48
 -12  -3   0    0.89    0.52
 -12   3   0    3.21    1.51
 -12   3  -1   59.81    7.24
 -12  -3  -1   49.10    5.87
 -12  -3  -2    7.18    2.15
 -12   3  -2    8.16    2.55
 -12  -3  -3    1.76    1.02
 -12   3  -3   -0.44    0.75
 -12  -3  -4    3.00    1.33
 -12   3  -4   -0.33    0.65
  12  -4 -10   17.58    2.76
 -12  -4  10   20.64    3.61
 -12  -4   9    3.16    1.63
 -12  -4   9    3.53    1.86
 -12  -4   8    8.94    2.50
 -12  -4   8   42.10    5.49
 -12  -4   7    9.61    2.82
 -12  -4   7    8.46    2.58
 -12  -4   6    3.03    2.54
 -12   4   6    2.73    1.68
 -12  -4   6    2.02    2.20
 -12  -4   5   28.09    4.33
 -12  -4   5   32.57    5.70
 -12   4   4    5.02    2.30
 -12  -4   4    6.04    2.51
 -12   4   3    2.57    2.09
 -12  -4   3    0.38    0.70
 -12   4   2   24.12    4.52
 -12  -4   2   19.89    4.12
 -12   4   1   35.32    5.53
 -12  -4   1   31.36    5.22
 -12  -4   0    2.84    2.11
 -12   4   0    0.99    1.50
 -12  -4  -1    6.82    2.47
 -12   4  -1    6.21    2.46
 -12  -4  -2    3.04    1.51
 -12   4  -2   14.91    3.33
 -12  -4  -3    1.85    1.28
 -12   4  -3    0.67    1.18
 -12   4  -4   10.31    2.88
  12  -5 -10    2.70    1.31
 -12  -5  10    3.09    1.47
 -12  -5   9   31.70    4.57
 -12  -5   8    2.99    1.98
 -12  -5   8    0.50    0.84
 -12  -5   7   23.13    4.28
 -12  -5   7   21.49    3.90
 -12  -5   6    3.04    1.94
 -12  -5   6    3.67    1.86
 -12  -5   5   24.64    3.86
 -12  -5   5   28.86    4.98
 -12   5   4    5.01    2.25
 -12  -5   4    2.66    1.56
 -12   5   3    0.48    1.25
 -12  -5   3   -1.10    1.37
 -12   5   2    7.19    2.96
 -12  -5   2    4.83    2.15
 -12   5   1    3.38    1.66
 -12  -5   1    2.09    1.64
 -12  -5   0    5.48    2.11
 -12   5   0    8.01    3.03
 -12  -5  -1   17.61    3.38
 -12   5  -1   19.41    4.16
 -12  -5  -2   12.25    2.65
 -12   5  -2   14.46    3.26
 -12  -5  -3    2.24    0.95
 -12   5  -3    4.88    2.35
 -12  -6   9    5.63    1.80
 -12  -6   8   10.68    2.59
 -12  -6   8   12.01    2.39
 -12  -6   7   -0.07    0.90
 -12  -6   7    0.19    0.35
 -12  -6   6    0.23    0.87
 -12  -6   6    1.79    1.37
 -12  -6   5   10.02    2.37
 -12  -6   5   10.10    2.70
 -12  -6   4    2.05    1.32
 -12   6   3    2.72    1.64
 -12  -6   3    1.91    1.30
 -12   6   2    3.82    1.52
 -12  -6   2    4.60    2.01
 -12   6   1    9.31    3.40
 -12  -6   1    4.27    2.01
 -12   6   0   -1.12    0.74
 -12  -6   0    0.26    0.98
 -12  -6  -1    3.68    1.96
 -12   6  -1    2.81    1.67
 -12  -6  -2    1.04    0.80
 -12   6  -2    1.89    1.43
 -12  -7   9    0.14    0.29
 -12  -7   8    7.88    1.91
 -12  -7   7   25.14    3.68
 -12  -7   6    1.50    1.11
 -12  -7   6    0.66    1.21
 -12  -7   5    3.63    1.92
 -12  -7   5    0.99    1.41
 -12  -7   4    3.02    1.53
 -12  -7   3    3.59    1.81
 -12   7   2    5.56    2.15
 -12  -7   2    5.01    1.69
 -12   7   1    0.91    1.07
 -12  -7   1    1.69    1.57
 -12   7   0    6.65    1.90
 -12  -7   0    6.34    2.10
 -12   7  -1   21.14    4.02
 -12  -7  -1   18.49    2.91
 -12   7  -2    1.05    0.80
 -12  -7  -2    0.98    0.87
 -12  -8   7   13.46    2.62
 -12  -8   6    7.21    1.85
 -12  -8   5   12.84    2.62
 -12  -8   4   13.08    2.50
 -12  -8   3   12.19    3.25
 -12  -8   2    5.61    1.82
 -12   8   1   10.54    2.87
 -12  -8   1   12.18    2.61
 -12   8   0   24.17    3.79
 -12  -8   0   23.00    3.21
 -12   8  -1    4.79    1.73
 -13   0   8   -0.63    0.40
 -13   0   7   23.28    3.63
 -13   0   6    1.27    1.13
 -13   0   5   14.68    3.10
 -13   0   4   -0.66    0.93
 -13   0   3   15.28    3.29
 -13   0   2    2.49    1.67
 -13   0   1    0.20    0.42
 -13   0   0    1.26    0.98
 -13   0  -1   17.58    2.51
 -13  -1   8    1.44    0.99
 -13   1   7    0.31    0.31
 -13  -1   7    2.16    1.29
 -13   1   6    2.42    1.13
 -13  -1   6    2.23    1.18
 -13   1   5    0.83    0.98
 -13  -1   5    1.18    1.21
 -13   1   4    3.47    1.81
 -13  -1   4    4.30    1.72
 -13   1   3   24.99    3.84
 -13  -1   3   27.64    4.20
 -13   1   2    0.79    1.24
 -13  -1   2    2.24    1.36
 -13   1   1    1.53    1.11
 -13  -1   1    2.07    1.35
 -13   1   0    2.30    1.25
 -13  -1   0    1.77    1.11
 -13  -1  -1   10.06    2.40
 -13  -2   8    7.49    2.05
 -13  -2   8   10.15    2.34
 -13  -2   7    7.29    2.18
 -13   2   7    8.08    1.99
 -13  -2   7   12.46    2.74
 -13   2   6    2.06    1.42
 -13  -2   6    4.41    1.91
 -13   2   5   23.49    3.43
 -13  -2   5   28.48    4.30
 -13   2   4    2.51    1.34
 -13  -2   4    2.26    1.28
 -13   2   3    7.82    3.20
 -13  -2   3    4.94    1.93
 -13   2   2    0.62    0.55
 -13  -2   2   -0.37    0.91
 -13   2   1    6.30    2.06
 -13  -2   1    6.03    1.97
 -13   2   0   54.50    5.39
 -13  -2   0   48.00    4.92
 -13   2  -1   47.09    4.62
 -13  -2  -1   37.37    3.95
 -13  -3   8    1.36    0.85
 -13  -3   8    1.11    1.11
 -13  -3   7    4.71    1.88
 -13  -3   7    4.86    1.67
 -13   3   6    1.57    1.03
 -13  -3   6    0.74    0.66
 -13   3   5    2.19    1.07
 -13  -3   5    5.30    2.53
 -13  -3   4   17.36    3.32
 -13  -3   3    9.79    2.58
 -13  -3   2    6.43    2.04
 -13   3   1   21.31    4.21
 -13  -3   1   12.51    2.68
 -13   3   0   13.21    2.77
 -13  -3   0    9.10    2.15
 -13   3  -1    3.35    1.09
 -13  -3  -1    1.49    0.84
 -13  -4   8    6.37    1.63
 -13  -4   7    3.05    1.31
 -13  -4   7    1.32    0.55
 -13  -4   6    8.20    2.53
 -13  -4   5    8.55    2.62
 -13  -4   4   -0.80    0.95
 -13  -4   3    0.58    0.78
 -13   4   2    8.62    3.82
 -13  -4   2    3.38    1.93
 -13   4   1    5.29    2.19
 -13  -4   1    3.26    1.53
 -13   4   0   20.15    3.14
 -13  -4   0   18.60    2.96
 -13  -4  -1    7.45    1.62
 -13  -5   7    3.29    1.11
 -13  -5   6    3.76    1.58
 -13  -5   5    1.83    0.59
 -13  -5   4   13.64    2.63
 -13  -5   3    0.83    0.91
 -13   5   2   23.14    3.45
 -13  -5   2   16.30    2.87
 -13   5   1    8.05    2.09
 -13  -5   1    6.53    1.70
 -13  -5   0    3.81    1.44
 -13  -6   5    6.28    1.87
 -13  -6   4    1.84    1.14
 -13  -6   3    4.15    1.24
 -13  -6   2  119.01    9.35
 -13  -6   1    8.47    1.86
   0   0   0    0.00    0.00


TITL 424-5-2-1 in P2(1)/n
REM P2(1)/n (#14 in standard setting)
CELL 1.54184  11.344578  15.144353  13.153529  90.0000 104.4304  90.0000
ZERR   25.00   0.000394   0.000529   0.000358   0.0000   0.0032   0.0000
LATT  1
SYMM -x+1/2, y+1/2,-z+1/2
SFAC C H N O F S
UNIT 25.00 25.00 25.00 25.00 25.00 25.00
TREF
HKLF 4
END
_computing_structure_solution     'SHELXT 2014/5 (Sheldrick, 2014)'
;
_shelx_hkl_checksum              78729
loop_
_space_group_symop_operation_xyz
'x, y, z'
'-x+1/2, y+1/2, -z+1/2'
'-x, -y, -z'
'x-1/2, -y-1/2, z-1/2'
loop_
_atom_site_label
_atom_site_type_symbol
_atom_site_fract_x
_atom_site_fract_y
_atom_site_fract_z
_atom_site_U_iso_or_equiv
_atom_site_adp_type
_atom_site_occupancy
_atom_site_site_symmetry_order
_atom_site_calc_flag
_atom_site_refinement_flags_posn
_atom_site_refinement_flags_adp
S8 S 0.47351(5) 0.29698(4) 0.30948(4) 0.0421(2) Uani 1 1 d . .
O19 O 0.65169(17) 0.50388(13) 0.52683(16) 0.0540(5) Uani 1 1 d . .
F21 F 0.6831(2) 0.36036(17) 0.82783(14) 0.0942(8) Uani 1 1 d . .
O24 O 0.3515(2) 0.27072(18) 0.26530(18) 0.0758(7) Uani 1 1 d . .
F22 F 0.5599(3) 0.46513(18) 0.82677(15) 0.0966(8) Uani 1 1 d . .
N9 N 0.4867(2) 0.34871(15) 0.41938(15) 0.0472(5) Uani 1 1 d . .
H9 H 0.4617 0.4021 0.4218 0.057 Uiso 1 1 calc R U
F23 F 0.7150(2) 0.4846(2) 0.76508(16) 0.1037(9) Uani 1 1 d . .
O25 O 0.5281(3) 0.34269(19) 0.2397(2) 0.0844(8) Uani 1 1 d . .
C26 C 0.7969(2) 0.40467(17) 0.49571(18) 0.0423(5) Uani 1 1 d . .
C1 C 0.5447(2) 0.29864(16) 0.51569(17) 0.0388(5) Uani 1 1 d . .
C10 C 0.6344(2) 0.36028(16) 0.59472(16) 0.0369(5) Uani 1 1 d . .
H10 H 0.6987 0.3240 0.6389 0.044 Uiso 1 1 calc R U
C18 C 0.6927(2) 0.42904(16) 0.53847(17) 0.0404(5) Uani 1 1 d . .
C11 C 0.5557(2) 0.40012(18) 0.66372(17) 0.0441(6) Uani 1 1 d . .
H11 H 0.5146 0.4526 0.6280 0.053 Uiso 1 1 calc R U
C17 C 0.4545(2) 0.27307(19) 0.57848(19) 0.0458(6) Uani 1 1 d . .
C2 C 0.5989(2) 0.21877(17) 0.47590(18) 0.0420(5) Uani 1 1 d . .
C27 C 0.8710(2) 0.3317(2) 0.5296(2) 0.0496(6) Uani 1 1 d . .
H27 H 0.8528 0.2938 0.5791 0.059 Uiso 1 1 calc R U
C12 C 0.4609(2) 0.3298(2) 0.66158(19) 0.0485(6) Uani 1 1 d . .
C7 C 0.5642(2) 0.20872(17) 0.36845(18) 0.0432(5) Uani 1 1 d . .
C31 C 0.8267(3) 0.4599(2) 0.4205(2) 0.0535(6) Uani 1 1 d . .
H31 H 0.7789 0.5092 0.3965 0.064 Uiso 1 1 calc R U
C29 C 1.0000(3) 0.3696(2) 0.4157(2) 0.0562(7) Uani 1 1 d . .
C20 C 0.6281(3) 0.4274(2) 0.7705(2) 0.0613(8) Uani 1 1 d . .
C30 C 0.9255(3) 0.4420(2) 0.3820(2) 0.0602(7) Uani 1 1 d . .
H30 H 0.9433 0.4794 0.3318 0.072 Uiso 1 1 calc R U
C6 C 0.5984(3) 0.1375(2) 0.3165(2) 0.0627(8) Uani 1 1 d . .
H6 H 0.5735 0.1325 0.2439 0.075 Uiso 1 1 calc R U
C16 C 0.3704(3) 0.2044(2) 0.5570(3) 0.0621(8) Uani 1 1 d . .
H16 H 0.3654 0.1677 0.4994 0.074 Uiso 1 1 calc R U
C3 C 0.6718(3) 0.1542(2) 0.5358(2) 0.0576(7) Uani 1 1 d . .
H3 H 0.6967 0.1590 0.6085 0.069 Uiso 1 1 calc R U
C28 C 0.9709(3) 0.3148(2) 0.4906(2) 0.0573(7) Uani 1 1 d . .
H28 H 1.0196 0.2661 0.5149 0.069 Uiso 1 1 calc R U
C13 C 0.3833(3) 0.3168(3) 0.7284(3) 0.0680(9) Uani 1 1 d . .
H13 H 0.3861 0.3543 0.7849 0.082 Uiso 1 1 calc R U
C15 C 0.2955(3) 0.1922(3) 0.6223(4) 0.0790(11) Uani 1 1 d . .
H15 H 0.2387 0.1466 0.6095 0.095 Uiso 1 1 calc R U
C32 C 1.1080(3) 0.3524(3) 0.3723(3) 0.0804(11) Uani 1 1 d . .
H32A H 1.0813 0.3275 0.3033 0.121 Uiso 1 1 calc R U
H32B H 1.1619 0.3117 0.4173 0.121 Uiso 1 1 calc R U
H32C H 1.1501 0.4068 0.3687 0.121 Uiso 1 1 calc R U
C14 C 0.3037(3) 0.2478(3) 0.7084(3) 0.0831(12) Uani 1 1 d . .
H14 H 0.2535 0.2375 0.7533 0.100 Uiso 1 1 calc R U
C5 C 0.6709(4) 0.0742(2) 0.3770(3) 0.0812(12) Uani 1 1 d . .
H5 H 0.6962 0.0253 0.3451 0.097 Uiso 1 1 calc R U
C4 C 0.7061(4) 0.0834(2) 0.4852(3) 0.0798(12) Uani 1 1 d . .
H4 H 0.7546 0.0399 0.5249 0.096 Uiso 1 1 calc R U
loop_
_atom_site_aniso_label
_atom_site_aniso_U_11
_atom_site_aniso_U_22
_atom_site_aniso_U_33
_atom_site_aniso_U_23
_atom_site_aniso_U_13
_atom_site_aniso_U_12
S8 0.0497(3) 0.0428(4) 0.0294(3) 0.0015(2) 0.0012(2) 0.0088(2)
O19 0.0529(10) 0.0408(11) 0.0663(11) 0.0023(8) 0.0112(8) 0.0090(8)
F21 0.1217(18) 0.0924(17) 0.0456(10) -0.0023(10) -0.0220(11) 0.0190(14)
O24 0.0604(12) 0.0823(17) 0.0650(13) -0.0309(12) -0.0213(10) 0.0086(12)
F22 0.140(2) 0.0976(18) 0.0553(11) -0.0290(11) 0.0308(12) 0.0127(16)
N9 0.0601(12) 0.0369(12) 0.0351(10) -0.0038(8) -0.0062(9) 0.0149(9)
F23 0.1248(19) 0.118(2) 0.0594(12) -0.0324(12) 0.0067(12) -0.0595(17)
O25 0.115(2) 0.0760(18) 0.0797(15) 0.0349(13) 0.0570(15) 0.0340(15)
C26 0.0441(12) 0.0385(13) 0.0389(11) -0.0004(9) 0.0004(9) 0.0005(10)
C1 0.0417(11) 0.0363(12) 0.0321(10) -0.0022(8) -0.0030(9) 0.0027(9)
C10 0.0379(10) 0.0376(12) 0.0307(10) -0.0046(8) 0.0002(8) 0.0015(9)
C18 0.0396(11) 0.0393(13) 0.0364(11) -0.0035(9) -0.0017(9) 0.0015(10)
C11 0.0526(13) 0.0448(14) 0.0322(11) -0.0044(9) 0.0056(10) 0.0048(11)
C17 0.0396(11) 0.0469(15) 0.0464(13) 0.0008(10) 0.0023(10) 0.0016(10)
C2 0.0481(12) 0.0376(13) 0.0348(11) -0.0029(9) -0.0001(9) 0.0036(10)
C27 0.0492(13) 0.0481(15) 0.0492(13) 0.0092(11) 0.0081(11) 0.0070(12)
C12 0.0485(13) 0.0526(16) 0.0425(12) 0.0017(10) 0.0078(10) 0.0077(12)
C7 0.0533(13) 0.0389(13) 0.0321(11) -0.0021(9) 0.0007(9) 0.0065(11)
C31 0.0566(14) 0.0482(16) 0.0537(14) 0.0109(12) 0.0102(12) 0.0040(12)
C29 0.0536(14) 0.0544(17) 0.0617(16) -0.0140(13) 0.0164(13) -0.0075(13)
C20 0.083(2) 0.0571(19) 0.0390(13) -0.0132(12) 0.0068(13) -0.0020(16)
C30 0.0699(18) 0.0580(19) 0.0565(16) 0.0058(13) 0.0228(14) -0.0046(14)
C6 0.091(2) 0.0505(17) 0.0416(13) -0.0067(11) 0.0077(14) 0.0191(16)
C16 0.0553(15) 0.0548(19) 0.0711(19) 0.0010(14) 0.0062(14) -0.0097(14)
C3 0.0750(18) 0.0475(16) 0.0410(13) 0.0016(11) -0.0031(12) 0.0142(14)
C28 0.0516(14) 0.0492(17) 0.0690(17) 0.0015(13) 0.0110(13) 0.0080(13)
C13 0.0684(18) 0.077(2) 0.0659(18) 0.0083(16) 0.0305(15) 0.0100(17)
C15 0.0536(17) 0.074(3) 0.108(3) 0.017(2) 0.0177(18) -0.0087(16)
C32 0.066(2) 0.082(3) 0.103(3) -0.017(2) 0.0409(19) -0.0073(19)
C14 0.0656(19) 0.091(3) 0.105(3) 0.032(2) 0.044(2) 0.011(2)
C5 0.123(3) 0.053(2) 0.0610(18) -0.0070(14) 0.0091(19) 0.037(2)
C4 0.113(3) 0.056(2) 0.0572(17) 0.0027(14) -0.0026(18) 0.041(2)
loop_
_atom_type_symbol
_atom_type_description
_atom_type_scat_dispersion_real
_atom_type_scat_dispersion_imag
_atom_type_scat_source
C C 0.0181 0.0091 'International Tables Vol C Tables 4.2.6.8 and 6.1.1.4'
H H 0.0000 0.0000 'International Tables Vol C Tables 4.2.6.8 and 6.1.1.4'
F F 0.0727 0.0534 'International Tables Vol C Tables 4.2.6.8 and 6.1.1.4'
N N 0.0311 0.0180 'International Tables Vol C Tables 4.2.6.8 and 6.1.1.4'
O O 0.0492 0.0322 'International Tables Vol C Tables 4.2.6.8 and 6.1.1.4'
S S 0.3331 0.5567 'International Tables Vol C Tables 4.2.6.8 and 6.1.1.4'
loop_
_geom_angle_atom_site_label_1
_geom_angle_atom_site_label_2
_geom_angle_atom_site_label_3
_geom_angle
O25 S8 O24 114.42(18)
O25 S8 N9 112.68(16)
O24 S8 N9 111.45(13)
O25 S8 C7 111.03(14)
O24 S8 C7 111.99(15)
N9 S8 C7 93.47(11)
C1 N9 S8 116.02(16)
C1 N9 H9 122.0
S8 N9 H9 122.0
C27 C26 C31 117.9(3)
C27 C26 C18 123.6(2)
C31 C26 C18 118.5(2)
N9 C1 C2 104.24(18)
N9 C1 C17 112.4(2)
C2 C1 C17 111.9(2)
N9 C1 C10 109.77(19)
C2 C1 C10 116.94(19)
C17 C1 C10 101.87(18)
C18 C10 C11 113.8(2)
C18 C10 C1 111.98(18)
C11 C10 C1 104.28(18)
C18 C10 H10 108.9
C11 C10 H10 108.9
C1 C10 H10 108.9
O19 C18 C26 120.0(2)
O19 C18 C10 119.9(2)
C26 C18 C10 120.0(2)
C20 C11 C12 115.7(2)
C20 C11 C10 113.3(2)
C12 C11 C10 103.1(2)
C20 C11 H11 108.1
C12 C11 H11 108.1
C10 C11 H11 108.1
C12 C17 C16 121.7(3)
C12 C17 C1 111.3(2)
C16 C17 C1 127.0(3)
C7 C2 C3 118.7(2)
C7 C2 C1 114.0(2)
C3 C2 C1 127.1(2)
C28 C27 C26 121.0(3)
C28 C27 H27 119.5
C26 C27 H27 119.5
C17 C12 C13 119.4(3)
C17 C12 C11 110.6(2)
C13 C12 C11 130.0(3)
C2 C7 C6 123.3(2)
C2 C7 S8 110.93(19)
C6 C7 S8 125.8(2)
C30 C31 C26 120.5(3)
C30 C31 H31 119.8
C26 C31 H31 119.8
C30 C29 C28 117.7(3)
C30 C29 C32 120.5(3)
C28 C29 C32 121.8(3)
F21 C20 F22 105.7(3)
F21 C20 F23 106.3(3)
F22 C20 F23 107.0(3)
F21 C20 C11 113.2(3)
F22 C20 C11 112.5(3)
F23 C20 C11 111.7(3)
C31 C30 C29 122.0(3)
C31 C30 H30 119.0
C29 C30 H30 119.0
C5 C6 C7 117.3(3)
C5 C6 H6 121.4
C7 C6 H6 121.4
C15 C16 C17 118.5(3)
C15 C16 H16 120.8
C17 C16 H16 120.8
C4 C3 C2 118.5(3)
C4 C3 H3 120.8
C2 C3 H3 120.8
C27 C28 C29 121.0(3)
C27 C28 H28 119.5
C29 C28 H28 119.5
C14 C13 C12 118.4(4)
C14 C13 H13 120.8
C12 C13 H13 120.8
C16 C15 C14 120.2(3)
C16 C15 H15 119.9
C14 C15 H15 119.9
C29 C32 H32A 109.5
C29 C32 H32B 109.5
H32A C32 H32B 109.5
C29 C32 H32C 109.5
H32A C32 H32C 109.5
H32B C32 H32C 109.5
C13 C14 C15 121.7(3)
C13 C14 H14 119.1
C15 C14 H14 119.1
C6 C5 C4 119.9(3)
C6 C5 H5 120.0
C4 C5 H5 120.0
C3 C4 C5 122.3(3)
C3 C4 H4 118.9
C5 C4 H4 118.9
loop_
_geom_bond_atom_site_label_1
_geom_bond_atom_site_label_2
_geom_bond_distance
S8 O25 1.410(2)
S8 O24 1.418(2)
S8 N9 1.618(2)
S8 C7 1.746(2)
O19 C18 1.220(3)
F21 C20 1.324(4)
F22 C20 1.326(4)
N9 C1 1.482(3)
N9 H9 0.8600
F23 C20 1.327(4)
C26 C27 1.392(4)
C26 C31 1.400(4)
C26 C18 1.477(3)
C1 C2 1.509(3)
C1 C17 1.516(3)
C1 C10 1.569(3)
C10 C18 1.521(3)
C10 C11 1.546(3)
C10 H10 0.9800
C11 C20 1.498(3)
C11 C12 1.509(4)
C11 H11 0.9800
C17 C12 1.378(4)
C17 C16 1.392(4)
C2 C7 1.378(3)
C2 C3 1.392(4)
C27 C28 1.379(4)
C27 H27 0.9300
C12 C13 1.404(4)
C7 C6 1.383(4)
C31 C30 1.367(4)
C31 H31 0.9300
C29 C30 1.387(5)
C29 C28 1.389(4)
C29 C32 1.498(4)
C30 H30 0.9300
C6 C5 1.379(4)
C6 H6 0.9300
C16 C15 1.363(5)
C16 H16 0.9300
C3 C4 1.368(4)
C3 H3 0.9300
C28 H28 0.9300
C13 C14 1.363(6)
C13 H13 0.9300
C15 C14 1.395(6)
C15 H15 0.9300
C32 H32A 0.9600
C32 H32B 0.9600
C32 H32C 0.9600
C14 H14 0.9300
C5 C4 1.387(5)
C5 H5 0.9300
C4 H4 0.9300
loop_
_geom_torsion_atom_site_label_1
_geom_torsion_atom_site_label_2
_geom_torsion_atom_site_label_3
_geom_torsion_atom_site_label_4
_geom_torsion
O25 S8 N9 C1 -124.1(2)
O24 S8 N9 C1 105.7(2)
C7 S8 N9 C1 -9.6(2)
S8 N9 C1 C2 12.4(3)
S8 N9 C1 C17 -109.0(2)
S8 N9 C1 C10 138.36(18)
N9 C1 C10 C18 -32.1(3)
C2 C1 C10 C18 86.3(3)
C17 C1 C10 C18 -151.4(2)
N9 C1 C10 C11 91.3(2)
C2 C1 C10 C11 -150.3(2)
C17 C1 C10 C11 -28.0(2)
C27 C26 C18 O19 160.8(2)
C31 C26 C18 O19 -16.1(3)
C27 C26 C18 C10 -20.7(3)
C31 C26 C18 C10 162.4(2)
C11 C10 C18 O19 -19.4(3)
C1 C10 C18 O19 98.5(3)
C11 C10 C18 C26 162.05(19)
C1 C10 C18 C26 -80.0(2)
C18 C10 C11 C20 -83.5(3)
C1 C10 C11 C20 154.2(2)
C18 C10 C11 C12 150.67(19)
C1 C10 C11 C12 28.4(2)
N9 C1 C17 C12 -99.7(2)
C2 C1 C17 C12 143.4(2)
C10 C1 C17 C12 17.7(3)
N9 C1 C17 C16 77.8(3)
C2 C1 C17 C16 -39.1(4)
C10 C1 C17 C16 -164.8(3)
N9 C1 C2 C7 -9.6(3)
C17 C1 C2 C7 112.1(3)
C10 C1 C2 C7 -130.9(2)
N9 C1 C2 C3 174.5(3)
C17 C1 C2 C3 -63.8(4)
C10 C1 C2 C3 53.2(4)
C31 C26 C27 C28 0.4(4)
C18 C26 C27 C28 -176.6(3)
C16 C17 C12 C13 1.9(4)
C1 C17 C12 C13 179.6(3)
C16 C17 C12 C11 -177.4(3)
C1 C17 C12 C11 0.2(3)
C20 C11 C12 C17 -142.8(3)
C10 C11 C12 C17 -18.5(3)
C20 C11 C12 C13 38.0(4)
C10 C11 C12 C13 162.3(3)
C3 C2 C7 C6 -0.1(5)
C1 C2 C7 C6 -176.4(3)
C3 C2 C7 S8 180.0(2)
C1 C2 C7 S8 3.6(3)
O25 S8 C7 C2 119.2(2)
O24 S8 C7 C2 -111.5(2)
N9 S8 C7 C2 3.3(2)
O25 S8 C7 C6 -60.7(3)
O24 S8 C7 C6 68.6(3)
N9 S8 C7 C6 -176.6(3)
C27 C26 C31 C30 0.1(4)
C18 C26 C31 C30 177.2(3)
C12 C11 C20 F21 55.6(4)
C10 C11 C20 F21 -63.2(4)
C12 C11 C20 F22 -64.1(4)
C10 C11 C20 F22 177.0(3)
C12 C11 C20 F23 175.5(3)
C10 C11 C20 F23 56.7(4)
C26 C31 C30 C29 -0.4(5)
C28 C29 C30 C31 0.1(5)
C32 C29 C30 C31 -179.6(3)
C2 C7 C6 C5 0.0(5)
S8 C7 C6 C5 179.9(3)
C12 C17 C16 C15 -2.0(5)
C1 C17 C16 C15 -179.3(3)
C7 C2 C3 C4 0.1(5)
C1 C2 C3 C4 175.8(3)
C26 C27 C28 C29 -0.7(5)
C30 C29 C28 C27 0.4(5)
C32 C29 C28 C27 -179.9(3)
C17 C12 C13 C14 0.0(5)
C11 C12 C13 C14 179.2(3)
C17 C16 C15 C14 0.1(5)
C12 C13 C14 C15 -1.9(6)
C16 C15 C14 C13 1.8(6)
C7 C6 C5 C4 0.3(6)
C2 C3 C4 C5 0.2(7)
C6 C5 C4 C3 -0.3(7)
