#------------------------------------------------------------------------------
#$Date: 2017-09-28 16:02:50 +0300 (Thu, 28 Sep 2017) $
#$Revision: 201427 $
#$URL: file:///home/coder/svn-repositories/cod/cif/1/54/74/1547425.cif $
#------------------------------------------------------------------------------
#
# This file is available in the Crystallography Open Database (COD),
# http://www.crystallography.net/
#
# All data on this site have been placed in the public domain by the
# contributors.
#
data_1547425
loop_
_publ_author_name
'Anuradha R. Pallipurath'
'Jonathan M. Skelton'
'Mark R. Warren'
'Naghmeh Kamali'
'Patrick McArdle'
'Andrea Erxleben'
_publ_section_title
;
 Sulfamerazine: Understanding the Influence of Slip Planes in the
 Polymorphic Phase Transformation through X-Ray Crystallographic Studies
 and ab Initio Lattice Dynamics
;
_journal_name_full               'Molecular Pharmaceutics'
_journal_page_first              3735
_journal_page_last               3748
_journal_paper_doi               10.1021/acs.molpharmaceut.5b00504
_journal_volume                  12
_journal_year                    2015
_chemical_absolute_configuration ad
_chemical_formula_moiety         'C11 H12 N4 O2 S'
_chemical_formula_sum            'C11 H12 N4 O2 S'
_chemical_formula_weight         264.31
_space_group_crystal_system      orthorhombic
_space_group_IT_number           33
_space_group_name_Hall           'P 2c -2n'
_space_group_name_H-M_alt        'P n a 21'
_symmetry_space_group_name_Hall  'P 2c -2n'
_symmetry_space_group_name_H-M   'P n a 21'
_atom_sites_solution_hydrogens   mixed
_cell_angle_alpha                90
_cell_angle_beta                 90
_cell_angle_gamma                90
_cell_formula_units_Z            8
_cell_length_a                   14.49500(10)
_cell_length_b                   8.20940(10)
_cell_length_c                   21.9489(3)
_cell_measurement_reflns_used    10206
_cell_measurement_temperature    270
_cell_measurement_theta_max      29.4490
_cell_measurement_theta_min      1.7990
_cell_volume                     2611.81(5)
_computing_cell_refinement
;
CrysAlisPro, Agilent Technologies,
Version 1.171.37.35 (release 13-08-2014 CrysAlis171 .NET)
(compiled Aug 13 2014,18:06:01)
;
_computing_data_collection
;
CrysAlisPro, Agilent Technologies,
Version 1.171.37.35 (release 13-08-2014 CrysAlis171 .NET)
(compiled Aug 13 2014,18:06:01)
;
_computing_data_reduction
;
CrysAlisPro, Agilent Technologies,
Version 1.171.37.35 (release 13-08-2014 CrysAlis171 .NET)
(compiled Aug 13 2014,18:06:01)
;
_computing_molecular_graphics    OSCAIL
_computing_structure_refinement  'SHELXL-2014/7 (Sheldrick, 2014)'
_computing_structure_solution    SHELXT
_diffrn_ambient_temperature      270
_diffrn_measured_fraction_theta_full 0.998
_diffrn_measured_fraction_theta_max 0.998
_diffrn_measurement_device       'CrystalLogic Kappa (3 circle)'
_diffrn_measurement_device_type  'Rigaku Saturn724+ (2x2 bin mode)'
_diffrn_measurement_method
;
omega rotation with 1 degree frames
;
_diffrn_measurement_specimen_support 'MiTeGen loop'
_diffrn_radiation_monochromator  'double crystal Silicon 111'
_diffrn_radiation_source         'Diamond Light Source Beamline I19'
_diffrn_radiation_type           Synchrotron
_diffrn_radiation_wavelength     0.68890
_diffrn_reflns_av_R_equivalents  0.0443
_diffrn_reflns_av_unetI/netI     0.0435
_diffrn_reflns_Laue_measured_fraction_full 0.998
_diffrn_reflns_Laue_measured_fraction_max 0.998
_diffrn_reflns_limit_h_max       20
_diffrn_reflns_limit_h_min       -13
_diffrn_reflns_limit_k_max       11
_diffrn_reflns_limit_k_min       -11
_diffrn_reflns_limit_l_max       27
_diffrn_reflns_limit_l_min       -31
_diffrn_reflns_number            23697
_diffrn_reflns_point_group_measured_fraction_full 0.988
_diffrn_reflns_point_group_measured_fraction_max 0.969
_diffrn_reflns_theta_full        24.415
_diffrn_reflns_theta_max         29.474
_diffrn_reflns_theta_min         2.568
_exptl_absorpt_coefficient_mu    0.248
_exptl_absorpt_correction_T_max  1.00000
_exptl_absorpt_correction_T_min  0.98336
_exptl_absorpt_correction_type   multi-scan
_exptl_absorpt_process_details
;
CrysAlisPro, Agilent Technologies,
Version 1.171.36.28 (release 01-02-2013 CrysAlis171 .NET)
Empirical absorption correction using spherical harmonics,
implemented in SCALE3 ABSPACK scaling algorithm.
;
_exptl_crystal_colour            Colourless
_exptl_crystal_density_diffrn    1.344
_exptl_crystal_description       Parallelepiped
_exptl_crystal_F_000             1104
_exptl_crystal_size_max          0.50
_exptl_crystal_size_mid          0.40
_exptl_crystal_size_min          0.20
_refine_diff_density_max         0.242
_refine_diff_density_min         -0.302
_refine_diff_density_rms         0.045
_refine_ls_abs_structure_details
;
 Flack x determined using 2102 quotients [(I+)-(I-)]/[(I+)+(I-)]
 (Parsons, Flack and Wagner, Acta Cryst. B69 (2013) 249-259).
;
_refine_ls_abs_structure_Flack   -0.01(5)
_refine_ls_extinction_coef       .
_refine_ls_extinction_method     none
_refine_ls_goodness_of_fit_ref   1.031
_refine_ls_hydrogen_treatment    mixed
_refine_ls_matrix_type           full
_refine_ls_number_parameters     344
_refine_ls_number_reflns         7736
_refine_ls_number_restraints     1
_refine_ls_restrained_S_all      1.031
_refine_ls_R_factor_all          0.0702
_refine_ls_R_factor_gt           0.0487
_refine_ls_shift/su_max          0.048
_refine_ls_shift/su_mean         0.001
_refine_ls_structure_factor_coef Fsqd
_refine_ls_weighting_details
'w=1/[\s^2^(Fo^2^)+(0.0541P)^2^+0.3587P] where P=(Fo^2^+2Fc^2^)/3'
_refine_ls_weighting_scheme      calc
_refine_ls_wR_factor_gt          0.1123
_refine_ls_wR_factor_ref         0.1292
_reflns_Friedel_coverage         0.897
_reflns_Friedel_fraction_full    0.978
_reflns_Friedel_fraction_max     0.939
_reflns_number_gt                5802
_reflns_number_total             7736
_reflns_threshold_expression     'I > 2\s(I)'
_cod_data_source_file            Exp_Form-I2FSynchrotron_Form-I_270K.cif
_cod_data_source_block           270k_smz-f1_a
_cod_database_code               1547425
_shelx_space_group_comment
;
The symmetry employed for this shelxl refinement is uniquely defined
by the following loop, which should always be used as a source of
symmetry information in preference to the above space-group names.
They are only intended as comments.
;
_shelx_estimated_absorpt_t_min   0.886
_shelx_estimated_absorpt_t_max   0.952
_shelx_res_file
;
    270k_smz-f1_a.res created by SHELXL-2014/7
TITL 270k_smz-f1_a.res in Pna2(1)
REM Old TITL 005_270K_SulfamerazineF1_ in Pna2(1)
REM SHELXT solution in Pna2(1)
REM R1 0.106,  Rweak 0.028,  Alpha 0.001,  Orientation as input
REM Flack x =  0.028 ( 0.041 ) from Parsons' quotients
REM Formula found by SHELXT:  C25 N5 O4 S2
CELL  0.68890  14.4950   8.2094  21.9489   90.000   90.000   90.000
ZERR    8.000   0.0001   0.0001   0.0003    0.000    0.000    0.000
REM SG 33 4 4 Pna21 PGmm2 Orthorhombic
LATT -1
REM SG  ASUN  1  .5 .5 1.
REM SG  ORGN  on 2(1)
SYMM -X,-Y,0.5+Z
SYMM 0.5+X,0.5-Y,Z
SYMM 0.5-X,0.5+Y,0.5+Z
SFAC C H N O S
UNIT 88.00 96.00 32.00 16.00 8.00
L.S. 10
SIZE    0.50  0.40  0.20
BOND $H
FMAP 2
PLAN 20
ACTA
CONF
EQIV $1 x, y-1, z
HTAB N5 O4_$1
EQIV $2 -x+3/2, y+1/2, z-1/2
HTAB N1 O4_$2
EQIV $3 x, y+1, z
HTAB N1 O1_$3
HTAB N2 N8
HTAB N6 N4
LIST 4
WGHT    0.054100    0.358700
FVAR       0.41452   0.35344
S1    5    0.646720    0.495834    0.344444    11.00000    0.03437    0.03939 =
         0.03776    0.00286   -0.00145   -0.00237
S2    5    0.577651    0.494984    0.652393    11.00000    0.03409    0.03999 =
         0.03586    0.00423   -0.00147   -0.00231
O1    4    0.690105    0.371785    0.309006    11.00000    0.05573    0.04083 =
         0.04770   -0.00411    0.00097   -0.00147
O2    4    0.549854    0.522621    0.337618    11.00000    0.03697    0.05959 =
         0.04650    0.00783   -0.00663   -0.00556
O3    4    0.675223    0.467239    0.658559    11.00000    0.03376    0.06146 =
         0.04394    0.00869   -0.00618   -0.00296
O4    4    0.535517    0.621981    0.686848    11.00000    0.05406    0.03929 =
         0.05071   -0.00539   -0.00223   -0.00117
N1    3    0.843135    1.115624    0.312427    11.00000    0.04880    0.04234 =
         0.07547   -0.00954    0.01975   -0.00610
N2    3    0.655983    0.449198    0.417067    11.00000    0.02905    0.05575 =
         0.04220    0.01255    0.00061    0.00082
N3    3    0.815142    0.409620    0.417881    11.00000    0.03345    0.04697 =
         0.04589    0.00357    0.00261    0.00220
N4    3    0.728229    0.428566    0.509449    11.00000    0.04095    0.09549 =
         0.04159    0.00804   -0.00214    0.01688
N5    3    0.380471   -0.119969    0.695986    11.00000    0.06164    0.04040 =
         0.11175   -0.00444    0.01973   -0.00944
AFIX  93
H5A   2    0.407554   -0.211570    0.689542    11.00000   -1.30000
H5B   2    0.324274   -0.118177    0.708534    11.00000   -1.30000
AFIX   0
N6    3    0.568192    0.535939    0.579167    11.00000    0.03294    0.06556 =
         0.03800    0.01230    0.00219    0.00368
N7    3    0.410147    0.584997    0.579726    11.00000    0.03731    0.05148 =
         0.04700    0.00585    0.00199    0.00379
N8    3    0.496521    0.566353    0.487653    11.00000    0.04326    0.08789 =
         0.04546    0.00822   -0.00116    0.01398
C1    1    0.705659    0.677854    0.334320    11.00000    0.03194    0.03619 =
         0.03265    0.00101    0.00159    0.00044
C2    1    0.795225    0.679320    0.310710    11.00000    0.03420    0.04179 =
         0.03357   -0.00072    0.00036    0.00364
AFIX  43
H2    2    0.823931    0.582233    0.299879    11.00000   -1.30000
AFIX   0
C3    1    0.840712    0.825385    0.303580    11.00000    0.03053    0.04492 =
         0.03285   -0.00218    0.00369   -0.00198
AFIX  43
H3    2    0.900637    0.826208    0.288445    11.00000   -1.30000
AFIX   0
C4    1    0.797899    0.972357    0.318818    11.00000    0.04053    0.04107 =
         0.03852   -0.00348    0.00037   -0.00105
C5    1    0.707205    0.969120    0.342542    11.00000    0.04196    0.03924 =
         0.04693   -0.00199    0.00615    0.00183
AFIX  43
H5    2    0.677961    1.065913    0.353111    11.00000   -1.30000
AFIX   0
C6    1    0.662128    0.822717    0.350016    11.00000    0.03552    0.04129 =
         0.04522   -0.00179    0.00764    0.00098
AFIX  43
H6    2    0.602469    0.820842    0.365590    11.00000   -1.30000
AFIX   0
C7    1    0.737933    0.429157    0.449258    11.00000    0.03424    0.04567 =
         0.03970    0.00690   -0.00130    0.00241
C8    1    0.806415    0.402716    0.540548    11.00000    0.05558    0.13412 =
         0.04915    0.00979   -0.00427    0.02624
AFIX  43
H8    2    0.803848    0.398346    0.582853    11.00000   -1.30000
AFIX   0
C9    1    0.889565    0.382579    0.512547    11.00000    0.04157    0.11982 =
         0.05943    0.00043   -0.01408    0.02244
AFIX  43
H9    2    0.942899    0.365402    0.535207    11.00000   -1.30000
AFIX   0
C10   1    0.892635    0.388257    0.450290    11.00000    0.03924    0.05699 =
         0.06098    0.00028   -0.00045    0.00905
C11   1    0.979720    0.371061    0.414829    11.00000    0.04279    0.08873 =
         0.08258   -0.00671    0.00654    0.01027
AFIX 137
H11A  2    0.979210    0.269300    0.393283    11.00000   -1.30000
H11B  2    1.031436    0.373719    0.442135    11.00000   -1.30000
H11C  2    0.984635    0.459083    0.386218    11.00000   -1.30000
AFIX   0
C12   1    0.519212    0.315032    0.665833    11.00000    0.03530    0.03615 =
         0.03577    0.00040    0.00061    0.00092
C13   1    0.563241    0.168135    0.655669    11.00000    0.03646    0.04293 =
         0.06641   -0.00022    0.00943    0.00529
AFIX  43
H13   2    0.623866    0.167241    0.641802    11.00000   -1.30000
AFIX   0
C14   1    0.518145    0.023377    0.665891    11.00000    0.04566    0.03639 =
         0.07849   -0.00345    0.00937    0.00590
AFIX  43
H14   2    0.548559   -0.074761    0.659213    11.00000   -1.30000
AFIX   0
C15   1    0.426826    0.023025    0.686267    11.00000    0.04727    0.04105 =
         0.04774   -0.00232    0.00525   -0.00416
C16   1    0.382884    0.172424    0.696467    11.00000    0.03774    0.04645 =
         0.04200   -0.00639    0.00562   -0.00353
AFIX  43
H16   2    0.322181    0.174088    0.710174    11.00000   -1.30000
AFIX   0
C17   1    0.428549    0.316610    0.686429    11.00000    0.03845    0.03654 =
         0.03752   -0.00161    0.00484    0.00219
AFIX  43
H17   2    0.398801    0.415229    0.693414    11.00000   -1.30000
AFIX   0
C18   1    0.487077    0.564302    0.548331    11.00000    0.03515    0.04680 =
         0.03787    0.00637   -0.00059    0.00093
C19   1    0.418766    0.599199    0.457188    11.00000    0.05752    0.14067 =
         0.04268    0.00271   -0.00879    0.03044
AFIX  43
H19   2    0.421236    0.603912    0.414885    11.00000   -1.30000
AFIX   0
C20   1    0.336497    0.625975    0.484913    11.00000    0.04876    0.13086 =
         0.05932   -0.00328   -0.01309    0.03211
AFIX  43
H20   2    0.284046    0.650936    0.462367    11.00000   -1.30000
AFIX   0
C21   1    0.333084    0.615045    0.547439    11.00000    0.04012    0.06106 =
         0.05929   -0.00251   -0.00195    0.01143
C22   1    0.245965    0.634104    0.583342    11.00000    0.03703    0.10188 =
         0.09252   -0.00223    0.00632    0.01507
AFIX 137
H22A  2    0.234338    0.747718    0.590291    11.00000   -1.30000
H22B  2    0.252227    0.579195    0.621737    11.00000   -1.30000
H22C  2    0.195451    0.587624    0.561028    11.00000   -1.30000
AFIX   0
H1N1  2    0.890865    1.121362    0.289887    11.00000    0.07307
H2N1  2    0.810388    1.199145    0.314675    11.00000    0.06484
H1N2  2    0.615359    0.484811    0.438624    11.00000    0.04444
H1N6  2    0.615668    0.504344    0.561459    11.00000    0.07274
HKLF 4
REM  270k_smz-f1_a.res in Pna2(1)
REM R1 =  0.0487 for    5802 Fo > 4sig(Fo)  and  0.0702 for all    7736 data
REM    344 parameters refined using      1 restraints
END
WGHT      0.0493      0.4368
REM Highest difference peak  0.242,  deepest hole -0.302,  1-sigma level  0.045
Q1    1   0.6939  0.5857  0.3469  11.00000  0.05    0.24
Q2    1   0.5485  0.2577  0.6685  11.00000  0.05    0.21
Q3    1   0.8049  0.7634  0.3007  11.00000  0.05    0.20
Q4    1   0.5203  0.4184  0.6517  11.00000  0.05    0.19
Q5    1   0.5910  0.5695  0.3411  11.00000  0.05    0.19
Q6    1   0.5480  0.3837  0.6627  11.00000  0.05    0.18
Q7    1   0.5408  0.6282  0.3535  11.00000  0.05    0.18
Q8    1   0.7898  0.4736  0.5898  11.00000  0.05    0.17
Q9    1   0.5739  0.7339  0.6616  11.00000  0.05    0.17
Q10   1   0.5631  0.6253  0.6687  11.00000  0.05    0.16
Q11   1   0.9105  1.0971  0.3080  11.00000  0.05    0.16
Q12   1   0.4649  0.3334  0.6647  11.00000  0.05    0.16
Q13   1   0.6893  0.3788  0.6803  11.00000  0.05    0.16
Q14   1   0.5338  0.6131  0.5694  11.00000  0.05    0.16
Q15   1   0.3475  0.5412  0.5533  11.00000  0.05    0.16
Q16   1   0.2901  0.3850  0.5110  11.00000  0.05    0.16
Q17   1   0.4840  0.5040  0.5057  11.00000  0.05    0.16
Q18   1   0.6344  0.4625  0.6659  11.00000  0.05    0.16
Q19   1   0.6859  0.7428  0.3466  11.00000  0.05    0.15
Q20   1   0.6706  0.9001  0.3311  11.00000  0.05    0.15
;
_shelx_res_checksum              79843
_shelx_hkl_file
;
   0   0 -29    1.25    1.38
   0   0 -28   86.81    9.17
   0   0 -27    0.59    0.95
   0   0 -26  280.21   15.88
   0   0 -25   -0.36    1.30
   0   0 -24   -0.69    0.99
   0   0 -23    2.15    0.87
   0   0 -22   32.76    4.93
   0   0 -21    0.87    1.22
   0   0 -20  325.89   14.92
   0   0 -19    1.47    1.30
   0   0 -18   33.80    4.60
   0   0 -17   -0.24    0.68
   0   0 -16  193.77   10.26
   0   0 -15   -0.92    0.50
   0   0 -14   40.45    4.41
   0   0 -13    0.44    0.91
   0   0 -12 2303.55   30.83
   0   0 -11    0.21    0.45
   0   0 -10  313.55   10.34
   0   0  -9    0.58    0.66
   0   0  -8 9999.00   52.54
   0   0  -7    0.90    0.66
   0   0  -5    0.60    0.55
   0   0  -4 2673.59   19.41
   0   0  -3    2.07    0.50
   0   0   4 2752.37   14.52
   0   0   5    0.09    0.12
   0   0   7   -0.21    0.31
   0   0   9    0.05    0.27
   0   0  10  324.54    7.95
   0   0  11   -0.04    0.33
   0   0  12 2371.51   23.34
   0   0  13    0.01    0.55
   0   0  14   50.89    3.77
   0   0  15   -0.09    0.47
   0   0  16  211.06    8.28
   0   0  17   -0.36    0.48
   0   0  17    0.46    1.07
   0   0  18   40.21    3.93
   0   0  19    0.00    0.72
   0  -1 -31    1.55    1.28
   0  -1 -30   -0.52    1.09
   0  -1 -29   -0.21    1.85
   0  -1 -28    1.30    2.08
   0  -1 -27    1.71    1.68
   0   1 -26    0.69    0.95
   0  -1 -26   -0.95    1.23
   0   1 -25    0.80    1.15
   0  -1 -25    3.01    2.25
   0   1 -24   -0.65    1.49
   0  -1 -24   -0.75    0.83
   0  -1 -23    4.05    2.70
   0   1 -23    0.05    0.86
   0  -1 -22    0.78    1.49
   0   1 -22   -0.28    1.39
   0  -1 -21   61.82    6.52
   0   1 -21   63.10    6.70
   0  -1 -20   -0.33    0.98
   0   1 -20    0.29    0.89
   0  -1 -19    7.66    2.40
   0   1 -19    5.63    1.88
   0  -1 -18    0.72    1.30
   0   1 -18    1.20    0.58
   0  -1 -17   10.12    2.30
   0   1 -17    7.77    2.00
   0  -1 -16   -0.55    1.07
   0   1 -16   -0.31    0.87
   0   1 -15   48.11    4.89
   0  -1 -15   57.74    5.66
   0  -1 -14    0.25    0.78
   0   1 -14    0.70    1.41
   0  -1 -13   81.87    6.21
   0   1 -13   87.19    6.01
   0   1 -12   -0.45    0.59
   0  -1 -12   -0.03    0.48
   0  -1 -11   37.96    3.95
   0   1 -11   33.49    3.48
   0  -1 -10    0.43    0.43
   0   1 -10   -0.73    0.74
   0  -1  -9 1025.82   18.91
   0   1  -9 1046.16   17.02
   0   1  -9 1060.71   10.33
   0   1  -8    0.26    0.30
   0   1  -8    0.15    0.27
   0  -1  -8    0.72    0.48
   0   1  -7  992.73    9.52
   0  -1  -7  991.38   16.51
   0   1  -7 1008.07   14.39
   0  -1  -6   -0.01    0.45
   0   1  -6   -0.19    0.27
   0   1  -6    0.03    0.29
   0   1  -5 1865.86   16.05
   0  -1  -5 1850.75   19.71
   0   1  -5 1856.86   12.64
   0  -1  -5 1815.44   17.94
   0   1  -4   -0.12    0.17
   0   1  -4    0.12    0.23
   0  -1  -4    0.82    0.39
   0  -1  -4    0.17    0.50
   0   1  -3  807.10    8.47
   0  -1  -3  811.10   10.68
   0  -1  -3  826.10   10.76
   0   1  -2    0.11    0.16
   0  -1  -2    0.11    0.16
   0  -1  -2   -0.02    0.15
   0   1  -1  351.46    5.82
   0  -1  -1  351.33    5.27
   0   1   0   -0.25    0.18
   0  -1   0    0.07    0.09
   0  -1   1  362.67    5.34
   0   1   1  359.34    6.25
   0   1   2    0.24    0.31
   0  -1   2   -0.05    0.11
   0   1   3  828.37   10.21
   0  -1   5 1855.36   10.78
   0  -1   6   -0.01    0.09
   0  -1   7  992.43    9.23
   0  -1   8   -0.01    0.23
   0   1   8    0.67    0.56
   0  -1   9 1072.66   11.17
   0   1   9 1075.75   16.63
   0  -1  10   -0.02    0.28
   0   1  10    0.17    0.25
   0  -1  11   29.73    2.10
   0   1  11   34.51    3.21
   0   1  12    0.67    0.83
   0  -1  12    0.18    0.27
   0   1  13   87.81    5.38
   0  -1  13   82.81    3.92
   0   1  14   -0.07    0.50
   0   1  14    0.17    0.45
   0  -1  14    0.24    0.35
   0  -1  15   50.61    3.38
   0   1  15   51.79    4.40
   0   1  15   43.11    3.59
   0   1  16    0.78    0.94
   0  -1  16    0.57    0.65
   0   1  16   -0.10    0.53
   0   1  17   10.32    2.17
   0  -1  17    8.95    1.57
   0   1  17    9.75    1.88
   0   1  18   -0.02    0.90
   0   1  18   -0.47    0.64
   0   1  19   10.84    2.30
   0   1  20   -0.29    0.64
   0   1  21   53.85    5.51
   0  -2 -30   51.84    7.39
   0  -2 -29    2.91    2.10
   0  -2 -28    6.49    2.70
   0  -2 -27   -0.39    1.64
   0  -2 -26   71.37    7.94
   0  -2 -25   -1.77    1.66
   0  -2 -24    3.45    2.07
   0  -2 -23    0.39    1.54
   0  -2 -22   56.06    6.43
   0  -2 -21    0.03    1.16
   0  -2 -20   91.69    7.92
   0  -2 -19    1.33    1.20
   0   2 -19   -0.37    1.12
   0   2 -18   36.64    4.74
   0  -2 -18   29.10    4.44
   0   2 -17    0.55    1.37
   0  -2 -17   -0.49    0.93
   0   2 -16  497.42   15.89
   0  -2 -16  478.07   16.86
   0   2 -15    1.33    1.28
   0  -2 -15    0.55    0.74
   0   2 -14  209.74    5.90
   0  -2 -14  227.15   11.01
   0   2 -14  207.84    9.60
   0   2 -13    0.47    0.49
   0  -2 -13   -0.07    1.14
   0   2 -13    0.71    0.48
   0   2 -12 1022.97   13.03
   0  -2 -12 1013.97   22.22
   0   2 -12 1021.35   19.15
   0  -2 -11   -0.36    0.55
   0   2 -11   -0.02    0.21
   0   2 -11   -0.23    0.35
   0   2 -10 1357.78   20.00
   0   2 -10 1392.08   15.25
   0  -2 -10 1393.36   24.07
   0   2  -9    0.99    0.68
   0  -2  -9    0.61    0.98
   0   2  -8   98.34    4.20
   0  -2  -8  101.86    6.07
   0  -2  -7    0.54    0.80
   0  -2  -7    0.40    0.26
   0   2  -7    0.41    0.51
   0  -2  -6  999.78   16.83
   0  -2  -6 1007.40   16.89
   0   2  -6 1006.46   13.43
   0  -2  -5    0.20    0.45
   0  -2  -5    0.13    0.52
   0   2  -5    0.29    0.54
   0  -2  -4 1073.09   16.37
   0  -2  -4 1079.18   15.37
   0   2  -4 1086.67   14.18
   0  -2  -3    0.62    0.51
   0   2  -3    0.04    0.31
   0  -2  -3    0.31    0.33
   0  -2  -2  425.71    8.22
   0   2  -2  421.73    9.03
   0  -2  -2  434.60    9.76
   0  -2  -1    0.15    0.17
   0   2  -1    0.27    0.49
   0  -2  -1    0.18    0.34
   0  -2   1   -0.14    0.36
   0   2   1   -0.15    0.56
   0  -2   1    1.03    0.45
   0  -2   2  427.91    5.45
   0  -2   2  434.86    8.29
   0   2   2  416.32    9.56
   0   2   3    0.18    0.49
   0  -2   3    0.10    0.33
   0   2   4 1094.86   16.25
   0  -2   4 1109.49   12.23
   0   2   5    0.00    0.23
   0  -2   5    0.04    0.28
   0   2   6 1046.66   16.48
   0  -2   6 1026.75   11.31
   0   2   7    0.79    0.99
   0  -2   7    0.26    0.21
   0  -2   8  102.30    3.45
   0   2   8   96.07    5.21
   0   2   9    1.11    1.00
   0  -2   9   -0.04    0.26
   0   2  10 1351.70   20.34
   0  -2  10 1365.90   12.94
   0  -2  11    0.38    0.25
   0   2  11   -0.07    0.66
   0   2  11    0.06    0.50
   0   2  12  982.70   18.10
   0  -2  12  938.67   11.19
   0   2  13    0.14    0.69
   0  -2  13   -0.01    0.18
   0   2  13    0.01    0.41
   0  -2  14  201.72    5.55
   0   2  14  215.55    9.88
   0   2  14  221.05    9.18
   0   2  15    0.29    0.41
   0   2  15    0.42    0.81
   0  -2  15    0.01    0.24
   0   2  16  472.76   15.22
   0   2  16  487.75   13.87
   0   2  17    0.23    0.52
   0   2  17    0.53    1.55
   0   2  18   29.62    3.50
   0   2  18   35.30    4.43
   0   2  19    0.66    1.00
   0   2  19   -0.46    0.84
   0   2  20   93.98    7.39
   0   2  21    0.92    1.50
   0   2  22   48.53    5.49
   0  -3 -30    0.42    1.83
   0  -3 -29   -3.15    2.63
   0  -3 -28    2.04    2.79
   0  -3 -27    3.59    1.69
   0  -3 -26    2.11    1.49
   0  -3 -25   -0.38    1.48
   0  -3 -24   -0.55    1.58
   0  -3 -23    2.28    1.85
   0  -3 -22    0.57    0.81
   0  -3 -21   56.37    6.31
   0  -3 -20    0.81    1.83
   0  -3 -19   58.79    6.53
   0  -3 -18    0.48    1.22
   0  -3 -17   35.67    4.95
   0  -3 -16    0.36    0.69
   0  -3 -15   74.17    6.68
   0  -3 -14    0.14    1.26
   0   3 -14   -0.54    0.39
   0   3 -13   73.93    4.40
   0  -3 -13   73.65    6.25
   0  -3 -12   -0.71    0.50
   0   3 -12    0.27    0.80
   0  -3 -11   82.48    6.23
   0   3 -11   77.44    4.55
   0   3 -10    0.39    0.73
   0  -3 -10    0.08    0.51
   0  -3  -9 1700.88   27.06
   0  -3  -9 1705.65   26.87
   0   3  -9 1760.55   21.69
   0  -3  -8    0.37    0.68
   0   3  -8    0.05    0.53
   0  -3  -8   -0.64    0.37
   0   3  -7    7.62    1.47
   0  -3  -7    4.68    1.37
   0  -3  -7    5.93    1.42
   0  -3  -6    0.36    0.35
   0  -3  -6    0.14    0.33
   0  -3  -5  400.77   11.80
   0   3  -5  386.35   10.47
   0  -3  -5  371.49   10.51
   0   3  -4   -0.10    0.26
   0  -3  -4    0.53    0.46
   0  -3  -4   -0.20    0.50
   0  -3  -3  493.25   12.54
   0  -3  -3  474.74   10.71
   0   3  -3  481.82   11.86
   0  -3  -2    0.39    0.48
   0  -3  -2    0.58    0.51
   0   3  -2   -0.40    0.44
   0   3  -1 1016.54   17.63
   0  -3  -1 1027.68   13.57
   0   3   0    0.90    1.01
   0  -3   0   -0.96    1.05
   0  -3   0    0.48    0.49
   0  -3   1 1016.29   16.53
   0   3   1  995.79   17.36
   0  -3   1 1012.93   11.44
   0  -3   2    0.11    0.32
   0   3   2   -0.03    0.45
   0  -3   2    0.28    0.45
   0  -3   3  504.09   11.01
   0  -3   3  490.89    7.13
   0  -3   4    0.33    0.24
   0  -3   4    0.06    0.39
   0   3   4    0.03    0.52
   0   3   5  386.10   11.50
   0  -3   5  405.62    9.46
   0   3   6   -0.45    0.53
   0  -3   6   -0.07    0.47
   0   3   7    7.06    1.61
   0  -3   7    8.65    1.26
   0  -3   8   -0.02    0.45
   0   3   8   -0.44    0.58
   0  -3   9 1752.60   17.55
   0   3   9 1668.16   25.56
   0  -3  10   -0.82    0.53
   0   3  10    0.17    0.62
   0   3  11   90.31    6.06
   0  -3  11   74.21    3.49
   0  -3  12    0.21    0.41
   0   3  12    0.75    0.54
   0  -3  13   68.83    3.31
   0   3  13   74.11    6.17
   0   3  13   83.91    6.10
   0  -3  14    0.13    0.27
   0   3  14    0.30    0.77
   0   3  14   -0.28    0.85
   0   3  15   68.78    5.86
   0   3  15   86.84    6.95
   0   3  16    1.26    1.26
   0   3  16   -1.34    1.04
   0   3  17   34.60    4.24
   0   3  17   29.37    4.11
   0   3  18    0.53    0.82
   0   3  18   -0.40    0.70
   0   3  19   56.81    5.62
   0   3  19   49.20    5.80
   0   3  20    1.27    1.72
   0   3  21   45.99    5.68
   0   3  22    1.22    1.33
   0   3  23    3.28    1.36
   0  -4 -29    3.03    2.74
   0  -4 -28   -0.08    1.52
   0  -4 -27    1.55    2.33
   0  -4 -26   23.79    5.27
   0  -4 -25   -0.19    1.61
   0  -4 -24    2.49    2.08
   0  -4 -23    1.15    1.42
   0  -4 -22  136.42   10.59
   0  -4 -21    0.56    1.40
   0  -4 -20   36.29    5.47
   0  -4 -19   -1.21    0.89
   0  -4 -18   84.16    7.70
   0  -4 -17    1.44    1.48
   0  -4 -16  466.63   17.76
   0  -4 -15    0.37    1.54
   0  -4 -14  126.00    8.97
   0   4 -14  102.19    6.29
   0  -4 -13   -0.05    1.44
   0   4 -13    0.99    0.91
   0  -4 -12  423.00   15.33
   0   4 -12  433.11   12.57
   0  -4 -11   -0.56    0.54
   0   4 -11    0.77    1.18
   0   4 -10 1168.92   21.07
   0  -4 -10 1208.08   24.56
   0  -4  -9   -0.61    0.92
   0  -4  -9   -0.39    1.22
   0   4  -9    0.76    0.57
   0   4  -8  313.10   10.88
   0  -4  -8  305.23   11.75
   0  -4  -8  324.72   12.44
   0   4  -7    0.04    0.58
   0  -4  -7    0.04    0.51
   0  -4  -7   -0.41    0.59
   0   4  -6  578.49   14.93
   0  -4  -6  595.50   14.88
   0  -4  -6  570.71   15.94
   0  -4  -5    1.33    1.38
   0   4  -5    0.58    1.01
   0  -4  -5    1.34    1.15
   0  -4  -4 1232.93   22.84
   0  -4  -4 1260.49   20.15
   0   4  -4 1298.50   22.57
   0   4  -3    0.68    0.40
   0  -4  -3    0.29    0.76
   0  -4  -3    0.24    0.79
   0  -4  -2  325.73    9.34
   0  -4  -2  332.62   11.49
   0   4  -2  307.75   11.10
   0   4  -1   -0.56    0.90
   0  -4  -1    0.27    0.28
   0  -4  -1   -0.94    0.91
   0   4   0  159.89    8.15
   0  -4   0  153.17    5.54
   0  -4   0  169.76    8.00
   0  -4   1    0.43    0.55
   0  -4   1    0.37    0.76
   0   4   1    0.25    0.47
   0   4   2  314.83   11.49
   0  -4   2  316.47    7.08
   0  -4   2  328.47   10.75
   0  -4   3    1.30    0.39
   0  -4   3   -0.08    0.73
   0   4   3    0.39    0.39
   0  -4   4 1281.75   12.91
   0  -4   4 1230.65   20.32
   0   4   4 1276.34   23.26
   0  -4   5   -0.70    0.64
   0   4   5   -0.59    0.73
   0  -4   5    0.54    0.54
   0  -4   6  573.78    9.02
   0  -4   6  598.13   13.54
   0  -4   7   -0.30    0.45
   0   4   7   -0.20    1.03
   0  -4   8  325.08    9.71
   0   4   8  343.72   12.65
   0  -4   9    0.69    0.32
   0   4   9    0.04    0.53
   0   4  10 1172.31   23.94
   0  -4  10 1146.77   17.49
   0  -4  11    0.30    0.63
   0   4  11   -0.12    0.61
   0  -4  12  444.03   10.18
   0   4  12  414.21   14.83
   0  -4  13    0.42    0.68
   0   4  13    0.67    1.74
   0   4  14  113.23    8.34
   0   4  14  118.96    8.08
   0   4  15    1.00    1.90
   0   4  15   -0.21    0.62
   0   4  16  421.80   16.01
   0   4  16  428.51   16.95
   0   4  17    0.01    0.82
   0   4  17   -0.68    1.04
   0   4  18   68.01    6.42
   0   4  18   83.38    7.67
   0   4  19   -1.09    1.66
   0   4  19    0.79    0.87
   0   4  20   18.33    3.75
   0   4  20   24.43    4.44
   0   4  21    0.04    0.87
   0   4  22  134.60   10.57
   0   4  23    0.42    1.34
   0   4  24    1.45    1.00
   0  -5 -28   -1.21    1.70
   0  -5 -27    2.09    2.05
   0  -5 -26   -0.95    1.55
   0  -5 -25    2.45    2.04
   0  -5 -24    0.67    1.49
   0  -5 -23    8.23    2.79
   0  -5 -22    1.78    1.90
   0  -5 -21    2.42    2.39
   0  -5 -20   -1.65    1.02
   0  -5 -19    8.34    2.38
   0  -5 -18   -0.69    1.54
   0  -5 -17    8.62    2.87
   0  -5 -16    0.02    1.15
   0  -5 -15    3.50    1.58
   0  -5 -14   -1.76    1.49
   0   5 -13   18.57    2.78
   0  -5 -13   22.06    3.96
   0   5 -12    1.35    1.53
   0  -5 -12    1.95    1.96
   0   5 -11    4.64    1.91
   0  -5 -11    6.64    2.20
   0  -5 -10    0.85    0.58
   0  -5 -10   -0.08    1.20
   0   5 -10   -0.80    0.84
   0  -5  -9    4.89    1.93
   0  -5  -9    2.47    0.80
   0   5  -9    2.30    1.39
   0  -5  -8   -0.11    0.57
   0  -5  -8    1.47    1.12
   0   5  -8    0.17    0.79
   0   5  -7   58.28    5.29
   0  -5  -7   72.89    5.78
   0  -5  -7   67.33    6.11
   0   5  -6   -0.56    0.89
   0  -5  -6    0.54    0.87
   0  -5  -6   -0.30    0.81
   0  -5  -5  120.49    6.92
   0   5  -5  113.50    7.44
   0  -5  -4    0.64    0.49
   0  -5  -4    0.79    0.69
   0   5  -4   -0.12    1.00
   0  -5  -3  131.21    8.00
   0  -5  -3  120.66    6.47
   0   5  -3  109.21    7.31
   0   5  -2   -0.35    0.56
   0  -5  -2   -0.15    0.66
   0  -5  -2   -0.07    0.52
   0  -5  -1   30.38    3.04
   0   5  -1   33.11    4.10
   0  -5  -1   34.25    4.09
   0  -5   0    0.07    0.65
   0   5   0   -0.30    0.65
   0  -5   0    0.12    0.37
   0   5   1   30.29    4.07
   0  -5   1   32.33    3.86
   0  -5   1   33.19    2.72
   0  -5   2   -0.71    0.91
   0   5   2   -0.55    1.02
   0  -5   2    0.33    0.70
   0  -5   3  112.94    4.52
   0   5   3  123.40    8.04
   0  -5   3  123.94    7.29
   0   5   4    0.71    0.97
   0  -5   4    0.28    0.42
   0  -5   4   -0.37    0.75
   0   5   5  112.46    7.76
   0  -5   5  111.42    4.20
   0  -5   5  112.08    6.73
   0  -5   6    0.24    0.46
   0   5   6    1.04    1.08
   0  -5   6    0.08    0.26
   0   5   7   66.27    5.94
   0  -5   7   79.93    5.57
   0   5   8   -0.30    0.96
   0  -5   8   -0.44    0.40
   0  -5   8   -0.40    0.55
   0   5   9    2.55    0.91
   0  -5   9    2.77    0.91
   0  -5   9    2.48    0.78
   0  -5  10    0.21    0.79
   0   5  10   -0.98    1.16
   0  -5  11    8.07    1.92
   0   5  11    7.66    2.76
   0  -5  12    1.09    1.01
   0   5  12    0.20    0.99
   0   5  13   21.06    3.77
   0   5  14    0.78    1.65
   0   5  15    7.34    2.56
   0   5  15    2.35    1.49
   0   5  16    1.80    1.56
   0   5  16    0.43    0.80
   0   5  17    3.82    1.60
   0   5  17    4.39    2.18
   0   5  18   -0.97    1.13
   0   5  18    1.26    2.24
   0   5  19    6.06    2.79
   0   5  19    4.03    1.40
   0   5  20   -0.40    1.45
   0   5  20    0.36    1.53
   0   5  21    1.85    1.48
   0   5  21    1.58    1.44
   0   5  22   -0.17    0.92
   0   5  23   12.50    3.77
   0   5  24    3.67    2.47
   0   5  25    1.91    1.36
   0  -6 -26   38.24    6.22
   0  -6 -25   -2.83    2.54
   0  -6 -24   11.83    3.92
   0  -6 -23   -3.18    2.12
   0  -6 -22   90.33    8.77
   0  -6 -21    0.02    1.02
   0  -6 -20   37.50    5.68
   0  -6 -19    0.75    0.98
   0  -6 -18    2.69    1.99
   0  -6 -17   -0.17    0.87
   0  -6 -16  118.46    9.49
   0  -6 -15   -0.98    1.50
   0  -6 -14    8.05    2.72
   0   6 -13   -0.02    0.92
   0  -6 -13    1.09    0.70
   0  -6 -12  152.14   10.11
   0   6 -12  133.06    9.00
   0   6 -11   -0.67    1.29
   0  -6 -11    0.85    1.35
   0  -6 -10  203.15   11.00
   0   6 -10  210.94   11.15
   0   6  -9   -0.19    0.97
   0  -6  -9   -1.19    0.85
   0  -6  -9   -1.05    0.74
   0   6  -8   20.09    3.46
   0  -6  -8   19.27    3.91
   0  -6  -8   19.57    3.36
   0   6  -7   -1.08    1.08
   0  -6  -7    1.95    1.72
   0  -6  -7    0.12    1.11
   0  -6  -6 1172.59   26.70
   0   6  -6 1146.44   25.88
   0  -6  -6 1114.36   23.73
   0  -6  -5    1.05    1.09
   0   6  -5    0.13    0.96
   0  -6  -5    1.89    1.34
   0  -6  -4  484.77   14.43
   0  -6  -4  513.81   17.28
   0   6  -4  503.75   17.16
   0  -6  -3    0.80    0.86
   0  -6  -3    0.10    1.21
   0  -6  -2  816.08   17.43
   0  -6  -2  787.91   21.14
   0   6  -2  824.27   22.04
   0   6  -1    1.70    1.94
   0  -6  -1    0.52    1.48
   0  -6  -1   -0.06    1.36
   0   6   0  690.56   20.27
   0  -6   0  634.76   14.42
   0  -6   0  669.31   19.15
   0   6   1    0.32    1.96
   0  -6   1   -0.18    0.72
   0  -6   1    1.05    1.57
   0  -6   2  813.51   14.18
   0   6   2  810.03   22.45
   0  -6   2  816.26   20.76
   0   6   3    0.05    1.43
   0  -6   3    0.13    0.69
   0  -6   3    0.92    0.85
   0  -6   4  461.19    9.56
   0   6   4  489.81   17.40
   0  -6   4  497.73   16.04
   0   6   5    1.36    2.33
   0  -6   5    0.42    0.57
   0  -6   5    2.31    1.73
   0   6   6 1142.43   27.64
   0  -6   6 1170.91   24.25
   0   6   7   -0.27    1.34
   0  -6   7    3.04    1.35
   0  -6   8   22.71    3.44
   0   6   8   11.52    2.82
   0   6   9   -0.61    0.83
   0  -6   9    0.90    0.99
   0  -6  10  194.63    9.52
   0   6  10  208.94   11.83
   0   6  11   -0.23    1.21
   0  -6  11   -0.54    0.74
   0   6  12  157.60   10.63
   0   6  13   -0.36    0.80
   0   6  14    5.39    2.62
   0   6  15    0.83    1.49
   0   6  15    3.18    1.75
   0   6  16  118.49    9.79
   0   6  16  132.77   10.08
   0   6  17    2.06    1.56
   0   6  17    0.41    1.22
   0   6  18    1.09    0.83
   0   6  18    0.73    1.30
   0   6  19    0.93    1.55
   0   6  19    0.55    1.34
   0   6  20   34.66    5.48
   0   6  20   46.05    6.22
   0   6  21   -0.88    2.14
   0   6  21   -0.01    1.66
   0   6  22   86.86    9.07
   0   6  23    1.66    2.36
   0   6  24   13.49    3.65
   0   6  25    1.99    2.14
   0   6  26   37.85    6.53
   0  -7 -25    4.78    1.44
   0  -7 -24   -2.85    2.96
   0  -7 -23    7.05    2.63
   0  -7 -22   -2.13    1.81
   0  -7 -21   13.79    4.00
   0  -7 -20   -3.02    1.89
   0  -7 -19    9.13    3.11
   0  -7 -18    1.23    1.74
   0  -7 -17    1.49    1.62
   0  -7 -16   -1.94    2.22
   0  -7 -15    7.89    3.24
   0  -7 -14    1.22    2.17
   0  -7 -13   19.89    3.65
   0  -7 -12    0.29    1.35
   0   7 -12   -0.71    1.12
   0  -7 -11   17.30    3.56
   0   7 -11   10.54    2.34
   0   7 -10    1.06    1.09
   0  -7 -10    1.17    0.69
   0  -7  -9   74.44    7.35
   0  -7  -9   72.67    6.73
   0   7  -9   64.73    6.79
   0   7  -8   -0.61    0.79
   0  -7  -8    0.81    0.80
   0  -7  -8   -0.18    1.43
   0  -7  -7  394.18   15.66
   0  -7  -7  420.25   16.98
   0   7  -7  403.37   16.75
   0  -7  -6    0.07    0.79
   0  -7  -6    0.34    0.93
   0   7  -6    2.36    2.14
   0  -7  -5  263.76   12.11
   0   7  -5  286.35   13.90
   0  -7  -5  272.99   13.56
   0  -7  -4    3.33    1.74
   0   7  -4    0.02    1.59
   0  -7  -4   -0.42    0.79
   0  -7  -3   30.91    3.83
   0  -7  -3   28.24    4.23
   0   7  -3   21.74    3.70
   0  -7  -2    1.04    1.67
   0  -7  -2    0.13    0.71
   0   7  -2    0.13    1.35
   0  -7  -1  789.40   17.83
   0   7  -1  771.85   23.24
   0  -7  -1  802.08   22.76
   0   7   0    2.89    2.90
   0  -7   0    3.10    2.03
   0  -7   0    0.40    1.07
   0   7   1  803.90   23.51
   0  -7   1  827.90   22.87
   0   7   2    0.02    0.87
   0  -7   2    0.05    0.67
   0   7   3   34.86    4.95
   0  -7   3   27.19    4.01
   0   7   4   -0.57    1.49
   0  -7   4    0.53    0.61
   0   7   5  247.86   13.44
   0  -7   5  268.64   12.79
   0   7   6    0.67    1.34
   0  -7   6    1.18    1.28
   0  -7   7  393.34   15.33
   0   7   7  405.29   17.35
   0   7   8   -0.01    1.55
   0  -7   8   -0.04    1.17
   0  -7   9   78.72    6.70
   0   7   9   73.15    7.31
   0   7  10    1.48    1.60
   0  -7  10    0.65    0.52
   0   7  11    6.00    2.40
   0   7  12   -0.04    1.38
   0   7  13   27.71    4.71
   0   7  14   -0.24    1.67
   0   7  15   10.43    2.75
   0   7  15   13.57    3.19
   0   7  16   -1.89    2.44
   0   7  16   -0.86    1.15
   0   7  17    6.39    2.14
   0   7  17    2.34    1.67
   0   7  18   -0.03    1.31
   0   7  18   -0.76    1.34
   0   7  19    8.42    3.00
   0   7  19   10.40    3.14
   0   7  20    1.07    1.62
   0   7  20   -0.51    1.87
   0   7  21    4.76    2.25
   0   7  21    3.46    3.28
   0   7  22    3.28    2.21
   0   7  23    1.22    1.07
   0   7  24    1.08    1.46
   0   7  25   -0.43    2.79
   0  -8 -22    6.27    2.78
   0  -8 -21    0.30    2.18
   0  -8 -20   13.91    3.60
   0  -8 -19   -0.79    2.43
   0  -8 -18   -0.05    1.59
   0  -8 -17    1.64    1.83
   0  -8 -16   21.51    4.65
   0  -8 -15    1.69    1.69
   0  -8 -14    2.44    1.66
   0  -8 -13    3.95    2.96
   0   8 -12   12.89    4.12
   0  -8 -12    8.72    2.78
   0   8 -11   -1.90    1.37
   0  -8 -11   -2.60    2.15
   0  -8 -10   25.16    4.29
   0   8 -10   26.39    4.88
   0   8  -9   -0.13    1.21
   0  -8  -9   -0.32    1.38
   0  -8  -8    1.08    2.07
   0   8  -8   -1.80    1.52
   0  -8  -7    0.82    2.22
   0  -8  -7   -0.30    1.32
   0   8  -7    1.00    1.04
   0  -8  -6   60.08    6.21
   0   8  -6   71.54    7.50
   0  -8  -6   62.12    6.74
   0  -8  -5   -2.17    1.63
   0   8  -5   -0.53    0.75
   0  -8  -5    1.49    1.52
   0  -8  -4   31.33    4.83
   0   8  -4   39.77    5.75
   0  -8  -4   33.85    4.45
   0   8  -3    2.13    1.44
   0  -8  -3   -1.16    1.79
   0  -8  -2   29.72    4.89
   0   8  -2   44.92    5.97
   0   8  -1   -0.63    1.72
   0  -8  -1    1.99    1.69
   0   8   0   69.91    7.45
   0  -8   0   78.15    7.53
   0  -8   1    0.60    1.56
   0   8   1   -0.32    1.41
   0   8   2   38.25    5.68
   0  -8   2   35.50    5.11
   0   8   3    0.88    1.31
   0  -8   3   -1.52    1.67
   0   8   4   40.63    5.65
   0  -8   4   35.01    5.08
   0   8   5    0.95    1.85
   0  -8   5    2.11    1.76
   0  -8   6   67.85    6.94
   0   8   6   64.63    6.92
   0   8   7   -0.67    0.90
   0  -8   7   -2.69    1.21
   0  -8   8    0.47    1.39
   0   8   8   -0.17    1.31
   0  -8   9    0.20    0.96
   0   8   9   -0.80    0.84
   0   8  10   33.63    5.42
   0   8  11   -2.53    1.83
   0   8  12    3.95    1.84
   0   8  13    0.09    1.39
   0   8  14    4.37    1.09
   0   8  14    5.73    2.46
   0   8  15    0.57    1.73
   0   8  15    0.79    1.01
   0   8  16   34.02    5.50
   0   8  16   20.21    4.46
   0   8  17   -1.55    1.39
   0   8  17    1.25    1.44
   0   8  18    0.55    1.22
   0   8  18    1.66    2.33
   0   8  19    0.29    1.93
   0   8  19    1.74    1.06
   0   8  20   14.05    3.77
   0   8  20   19.15    4.25
   0   8  21    1.46    1.86
   0   8  21   -2.61    2.94
   0   8  22   10.31    3.67
   0  -9 -20    1.82    2.23
   0  -9 -19    1.38    1.24
   0  -9 -18    0.12    2.42
   0  -9 -17    9.00    3.18
   0  -9 -16   -1.68    1.97
   0  -9 -15    1.83    2.10
   0  -9 -14    1.69    1.79
   0  -9 -13    1.21    1.85
   0  -9 -12   -0.14    1.67
   0   9 -11   12.26    3.60
   0  -9 -11    5.51    2.47
   0  -9 -10    1.03    1.38
   0   9 -10   -0.30    1.36
   0   9  -9   10.70    3.49
   0   9  -8   -2.71    1.80
   0   9  -7    6.64    2.11
   0   9  -6    0.45    1.06
   0   9  -5    1.24    1.58
   0  -9  -5    4.65    1.96
   0  -9  -4    0.99    2.16
   0   9  -4    1.37    1.99
   0  -9  -3   11.49    3.21
   0   9  -3   17.71    3.82
   0   9  -2    0.51    2.27
   0  -9  -2    0.27    2.41
   0  -9  -1    1.12    1.73
   0   9  -1    1.00    2.18
   0  -9   0   -0.73    1.43
   0   9   0    1.28    1.79
   0   9   1    3.21    1.48
   0  -9   1   -0.43    1.43
   0   9   2   -0.86    1.91
   0  -9   2   -0.11    1.17
   0  -9   3   16.69    4.14
   0   9   3   21.06    4.20
   0  -9   4    0.45    1.58
   0   9   4    1.44    2.29
   0  -9   5    1.42    1.61
   0   9   5   -0.82    1.44
   0   9   6    2.48    2.61
   0  -9   6    0.48    1.52
   0   9   7    4.72    2.63
   0  -9   7    6.55    2.62
   0   9   8   -0.88    1.63
   0  -9   8   -0.06    1.04
   0   9   9   10.54    3.20
   0   9  10   -2.17    1.69
   0   9  11   11.84    3.48
   0   9  12   -0.36    1.85
   0   9  13    0.48    1.81
   0   9  13    1.93    2.20
   0   9  14    2.91    2.43
   0   9  14    0.30    2.10
   0   9  15   -0.39    1.52
   0   9  15    3.10    2.26
   0   9  16   -1.27    1.14
   0   9  16   -4.34    2.65
   0   9  17    8.60    2.95
   0   9  17    4.68    1.02
   0   9  18    3.37    2.51
   0   9  18    2.18    2.13
   0   9  19    2.14    1.37
   0   9  19   -1.01    1.07
   0   9  20   -1.46    1.35
   0   9  20   -0.52    2.22
   0  10 -10   13.63    3.52
   0  10  -9    0.81    1.05
   0  10  -8    0.66    1.05
   0  10  -7    1.83    2.40
   0  10  -6   51.27    7.24
   0  10  -5    1.40    1.44
   0  10  -4   14.43    3.78
   0  10  -3    2.28    2.28
   0  10  -2   11.21    3.20
   0  10  -1    0.92    1.86
   0  10   0   68.12    7.83
   0 -10   0   48.83    6.74
   0 -10   1    2.01    2.42
   0  10   1    0.91    1.55
   0  10   2   12.19    3.66
   0 -10   2   20.85    4.41
   0  10   3    0.13    1.44
   0 -10   3    0.85    1.70
   0 -10   4   21.03    4.19
   0  10   4   15.71    4.73
   0 -10   5    2.43    2.36
   0  10   5    0.66    2.51
   0  10   6   46.26    6.83
   0 -10   6   37.12    5.97
   0  10   7    0.80    1.66
   0  10   8    0.92    1.18
   0  10   9    0.54    1.99
   0  10  10   18.01    3.86
   0  10  11   -2.88    1.26
   0  10  11    0.88    1.73
   0  10  12   10.61    2.80
   0  10  12   10.64    3.89
   0  10  13    3.28    2.89
   0  10  13    4.23    2.95
   0  10  14    4.33    2.38
   0  10  14    3.20    1.67
   0  10  15    0.23    1.97
   0  10  15   -3.10    1.87
   0  10  16    6.59    3.80
   0  10  16    5.87    2.72
   0  11  -9    1.15    1.89
   0  11  -8    0.47    1.88
   0  11  -7    1.08    1.87
   0  11  -6   -0.36    2.32
   0  11  -5   -0.99    1.60
   0  11  -4   -2.61    2.18
   0  11  -3    8.14    3.16
   0  11  -2    2.67    2.81
   0  11  -1   -0.85    1.78
   0  11   0    0.37    1.55
   0  11   1    2.90    2.06
   0  11   2   -0.58    1.43
   0  11   3    3.97    2.59
   0  11   4    0.98    1.84
   0  11   5    3.89    2.44
   0  11   6    1.18    1.84
   0  11   7   -0.28    1.62
   0  11   8    3.41    2.62
   0  11   8   -0.14    1.68
   0  11   9    9.47    3.31
   0  11   9    6.67    3.30
   0  11  10   -0.93    0.84
   0  11  10    0.76    2.23
   1   0 -31    4.17    2.58
   1   0 -30   -0.10    2.13
   1   0 -29    2.36    1.58
   1   0 -28    1.64    1.50
   1   0 -27    3.62    2.27
  -1   0 -26    1.60    1.83
   1   0 -26   -2.54    2.09
   1   0 -25   -0.43    0.86
  -1   0 -25    1.15    1.46
  -1   0 -24   -0.04    1.45
   1   0 -24   -2.28    1.68
   1   0 -23   -0.37    1.45
  -1   0 -23    0.89    1.44
  -1   0 -22   -0.12    1.30
   1   0 -22    0.01    0.84
  -1   0 -21   -0.30    1.70
   1   0 -21    1.38    1.25
   1   0 -20   -0.78    1.48
  -1   0 -20    1.97    1.67
  -1   0 -19    3.00    2.26
   1   0 -19   -1.51    1.73
  -1   0 -18   -0.56    0.72
   1   0 -18    0.09    0.72
   1   0 -17   -0.35    0.98
  -1   0 -17    2.10    1.14
   1   0 -16    1.77    1.58
  -1   0 -16    1.35    1.23
   1   0 -15   -0.93    1.26
  -1   0 -15    0.16    0.57
  -1   0 -14    0.04    0.60
   1   0 -14    0.02    0.43
   1   0 -13   -0.21    0.89
  -1   0 -13    0.72    0.60
  -1   0 -12    0.12    0.51
   1   0 -12    0.90    1.02
  -1   0 -11    0.90    0.81
   1   0 -11    0.13    0.60
   1   0 -10    1.67    0.64
  -1   0 -10    0.62    0.88
   1   0  -9   -0.39    0.46
  -1   0  -9    0.27    0.89
   1   0  -8    0.41    0.40
  -1   0  -8   -0.06    0.29
  -1   0  -7    0.00    0.39
   1   0  -7    0.01    0.40
   1   0  -6   -0.13    0.23
  -1   0  -6    0.34    0.56
   1   0  -6    0.37    0.33
   1   0  -5    0.51    0.34
   1   0  -5    0.29    0.17
  -1   0  -5   -0.24    0.20
   1   0  -4    0.04    0.09
   1   0  -4    0.25    0.27
  -1   0  -4    0.06    0.23
   1   0  -3    0.07    0.12
   1   0  -3    0.10    0.19
  -1   0  -3   -0.01    0.26
   1   0  -2   -0.03    0.12
   1   0  -2    0.17    0.16
   1   0  -1   -0.01    0.14
   1   0  -1    0.07    0.11
   1   0   1    0.11    0.15
   1   0   2    0.18    0.21
   1   0   3    0.08    0.26
   1   0   4    0.52    0.42
   1   0   5    0.11    0.24
   1   0   6    0.03    0.27
   1   0   7    0.14    0.39
  -1   0   8   -0.14    0.24
   1   0   8    0.00    0.23
  -1   0   9    0.06    0.24
   1   0   9    0.20    0.23
   1   0   9    0.66    0.33
  -1   0  10   -0.01    0.27
   1   0  10    0.04    0.15
   1   0  10    0.03    0.32
   1   0  11   -0.04    0.23
  -1   0  11   -0.05    0.28
   1   0  11    0.03    0.16
   1   0  12    0.13    0.48
  -1   0  12    0.30    0.31
   1   0  12    0.19    0.14
   1   0  13    0.12    0.28
  -1   0  13    0.57    0.44
   1   0  13   -0.20    0.26
  -1   0  14   -0.24    0.26
   1   0  14    0.02    0.18
   1   0  14   -0.26    0.34
   1   0  15   -0.03    0.14
  -1   0  15    0.22    0.49
   1   0  15    0.47    0.88
  -1   0  16   -0.02    0.36
   1   0  16    0.01    0.56
   1   0  16    0.56    0.40
   1   0  17    0.60    1.02
  -1   0  17   -0.28    0.52
  -1   0  18    0.01    0.40
   1   0  18    0.23    0.53
   1   0  19    0.78    0.86
   1   0  20   -0.09    0.63
   1  -1 -31    4.67    2.91
   1  -1 -30   11.87    3.23
   1  -1 -29   32.21    5.59
  -1  -1 -29   27.88    5.02
   1  -1 -28   17.00    3.99
   1   1 -28   13.94    3.42
  -1  -1 -28   11.59    3.50
   1   1 -27    9.05    3.29
  -1  -1 -27    8.72    3.42
   1  -1 -27    3.73    2.23
   1   1 -26   44.01    6.20
  -1  -1 -26   51.56    6.54
   1  -1 -26   59.68    7.26
   1   1 -25   40.45    6.11
  -1  -1 -25   59.30    7.22
   1  -1 -25   49.30    6.24
  -1  -1 -24    0.42    1.11
   1   1 -24    0.73    0.85
   1  -1 -23   33.15    5.12
  -1  -1 -23   36.20    5.37
   1  -1 -22   29.57    4.49
  -1   1 -22   31.25    4.73
   1   1 -22   29.98    4.88
  -1  -1 -22   27.24    4.54
   1   1 -21    6.42    2.12
   1  -1 -21    7.77    2.59
  -1   1 -21    8.15    2.96
  -1  -1 -21    5.89    2.61
  -1  -1 -20   76.49    7.32
  -1   1 -20   64.85    6.57
   1   1 -20   72.07    6.68
   1  -1 -20   79.53    7.41
  -1   1 -19   79.32    7.12
   1   1 -19   63.14    6.30
  -1  -1 -19   90.25    7.68
   1  -1 -19   86.56    7.41
  -1   1 -18   12.97    2.89
   1  -1 -18   20.89    3.85
  -1  -1 -18   19.20    3.35
   1   1 -18   14.80    3.06
   1  -1 -17   88.35    7.22
   1   1 -17   82.24    6.77
  -1   1 -17   87.78    7.14
  -1  -1 -17   92.40    7.52
  -1  -1 -16  149.23    9.17
   1  -1 -16  139.63    9.02
  -1   1 -16  150.27    8.99
   1   1 -16  138.46    8.40
   1   1 -15    3.32    1.52
  -1   1 -15   12.63    2.56
   1  -1 -15    8.13    2.26
  -1  -1 -15   10.55    2.35
   1   1 -14   80.81    5.90
  -1   1 -14   85.06    6.29
   1  -1 -14   68.53    5.84
  -1  -1 -14   72.97    6.09
  -1  -1 -13  343.74   12.80
  -1   1 -13  345.65   12.30
   1   1 -13  337.55   11.78
   1  -1 -13  374.50   13.20
   1   1 -12  746.54   16.88
  -1   1 -12  745.20   17.38
  -1  -1 -12  753.49   18.16
   1  -1 -11  267.72   10.46
  -1  -1 -11  277.28   10.57
   1   1 -11  269.69    9.70
  -1   1 -11  239.62    9.41
  -1  -1 -10  494.88   13.75
   1  -1 -10  493.59   13.64
   1   1 -10  493.72   12.25
   1   1 -10  494.84    9.24
  -1   1 -10  500.17   12.85
   1   1  -9  570.66    9.59
  -1   1  -9  561.17   12.94
   1  -1  -9  549.92   13.64
   1   1  -9  573.76   12.44
   1  -1  -9  563.04   11.81
  -1  -1  -8  343.88   10.29
   1   1  -8  338.18    8.95
  -1   1  -8  360.30    9.77
   1   1  -8  364.18    7.50
   1  -1  -8  333.60    8.80
   1  -1  -8  332.35   10.01
   1  -1  -7  497.49   10.34
   1  -1  -7  531.10   12.08
   1   1  -7  532.66   10.24
   1   1  -7  512.23    8.69
  -1  -1  -7  494.24   11.97
  -1  -1  -6 1048.49   16.16
   1   1  -6 1041.13   11.98
   1  -1  -6  999.58   16.07
   1  -1  -6 1040.59   14.22
   1   1  -6 1049.18   13.02
   1  -1  -5  542.77   11.02
   1   1  -5  541.89    8.31
  -1  -1  -5  576.95   11.10
   1  -1  -5  552.33   10.03
   1   1  -5  548.18    8.54
   1  -1  -4 1761.07   17.22
   1  -1  -4 1763.87   18.26
  -1  -1  -4 1710.43   17.85
   1   1  -4 1764.37   15.16
   1   1  -4 1772.88   13.01
  -1   1  -4 1821.25   10.92
  -1  -1  -3 1381.90   14.23
   1  -1  -3 1362.69   14.85
   1   1  -3 1376.75   13.00
   1   1  -3 1395.35    9.00
   1  -1  -3 1355.02   14.21
  -1   1  -3 1383.54   10.35
   1  -1  -2   50.54    2.63
   1   1  -2   53.68    1.82
  -1  -1  -2   54.42    2.47
   1   1  -2   50.04    2.45
   1  -1  -2   53.74    2.73
   1  -1  -1 2058.77   16.19
   1  -1  -1 2047.60   15.34
   1   1  -1 2022.73   12.87
   1   1  -1 2036.10   15.64
   1   1   1 2081.21   15.90
   1   1   1 2115.11   16.00
   1  -1   1 2116.06   15.51
   1  -1   2   45.54    2.22
   1   1   2   49.06    2.48
   1  -1   3 1342.59   12.20
   1   1   3 1363.56   14.91
   1   1   3 1380.01   13.41
   1   1   4 1759.95   15.52
   1  -1   4 1777.82   14.19
   1   1   5  538.14    8.69
   1  -1   5  544.62    8.28
   1   1   5  551.87   10.41
   1  -1   6 1043.64   11.67
   1   1   6 1052.38   15.03
   1   1   6 1013.73   12.38
   1  -1   7  552.68    8.88
   1   1   7  543.21    9.22
   1   1   7  534.64   11.23
   1  -1   8  339.70    7.37
   1   1   8  350.64    7.64
   1   1   8  335.47    9.39
   1   1   9  546.32    9.93
   1   1   9  558.42   12.37
   1  -1   9  580.83    9.96
   1   1  10  501.36   12.21
  -1  -1  10  496.97    6.37
   1  -1  10  481.33    9.55
   1   1  10  513.64    9.76
  -1   1  11  256.51    8.66
   1   1  11  264.19    9.13
   1   1  11  258.40    7.23
   1  -1  11  263.56    7.43
  -1  -1  11  256.25    5.04
   1  -1  12  747.27   12.85
  -1   1  12  719.64   15.07
   1   1  12  749.88   12.54
   1   1  12  746.76   15.85
  -1  -1  12  730.23    9.23
   1   1  13  353.78    8.89
  -1   1  13  362.99   10.98
  -1  -1  13  350.13    6.87
   1  -1  13  354.27    9.29
   1   1  13  385.20   11.71
   1   1  14   68.47    5.15
  -1  -1  14   67.69    3.19
   1   1  14   76.93    4.20
   1  -1  14   76.86    4.49
  -1   1  14   73.37    5.03
  -1  -1  15    7.41    1.14
   1   1  15    6.05    1.29
   1   1  15    9.49    1.80
  -1   1  15    8.07    1.79
   1  -1  15    8.77    1.59
  -1   1  16  144.21    7.45
   1   1  16  133.77    5.81
  -1  -1  16  136.37    5.05
   1  -1  16  149.65    6.75
   1   1  16  155.81    8.15
   1   1  17   70.45    5.67
   1  -1  17   83.46    5.27
  -1   1  17   81.01    5.83
  -1   1  18   16.39    2.66
   1   1  18   20.09    3.10
   1  -1  18   17.76    2.55
   1   1  19   78.29    6.31
  -1   1  19   82.46    6.27
   1   1  20   65.16    5.90
  -1   1  20   61.09    5.41
   1   1  21    3.25    1.71
  -1  -2 -30    4.19    2.53
   1  -2 -30    1.84    1.35
   1  -2 -29    0.14    1.56
  -1  -2 -29    1.61    1.54
   1  -2 -28    3.55    2.21
  -1  -2 -28    5.88    2.12
  -1  -2 -27    1.60    1.69
   1  -2 -27    1.78    2.30
   1  -2 -26    3.14    1.70
  -1  -2 -26    0.76    0.93
   1  -2 -25   10.55    3.33
  -1  -2 -25   10.28    2.86
   1  -2 -24    9.23    2.59
  -1  -2 -24    5.41    2.71
   1   2 -24    6.40    2.54
   1  -2 -23    3.46    2.27
  -1  -2 -23    9.34    2.52
   1   2 -23   10.03    3.07
  -1  -2 -22    5.43    2.06
   1   2 -22    5.67    2.20
   1  -2 -22    2.59    1.71
   1   2 -21    3.67    1.68
  -1  -2 -21    6.26    2.12
   1  -2 -21    6.83    2.53
   1   2 -20   31.07    4.63
  -1  -2 -20   33.18    4.79
   1  -2 -20   33.32    4.86
   1  -2 -19   11.58    3.11
   1   2 -19   14.21    3.02
  -1  -2 -19   18.64    3.73
   1  -2 -18   13.27    2.94
  -1  -2 -18   15.58    3.35
   1   2 -18    7.78    2.39
   1  -2 -17   19.65    3.72
  -1  -2 -17   20.58    3.57
   1   2 -17   19.46    3.40
   1  -2 -16   14.70    2.96
   1   2 -16   15.36    2.74
  -1  -2 -16   18.01    3.67
   1   2 -15   12.45    1.76
   1  -2 -15   10.24    2.81
  -1  -2 -15   16.94    3.10
   1   2 -15   11.73    2.36
   1  -2 -14   60.83    5.78
   1   2 -14   56.01    4.84
   1   2 -14   52.11    3.52
  -1  -2 -14   56.81    5.53
   1   2 -13    5.46    1.22
  -1   2 -13    5.05    0.72
   1  -2 -13    6.37    1.76
   1   2 -13    4.90    1.48
   1   2 -12    5.24    1.58
  -1  -2 -12    3.02    1.03
   1   2 -12    3.90    1.03
   1  -2 -12    4.03    1.67
  -1   2 -12    2.49    0.56
  -1  -2 -11    1.01    1.17
   1   2 -11    1.16    0.38
   1   2 -11    0.91    0.50
  -1   2 -11    1.45    0.46
  -1  -2 -10   34.09    3.86
   1   2 -10   34.92    2.72
   1  -2 -10   34.59    3.50
   1  -2 -10   30.30    3.60
   1   2 -10   34.16    3.07
  -1   2 -10   33.54    2.08
  -1  -2  -9  120.81    6.82
   1  -2  -9  114.21    6.60
  -1   2  -9  112.57    3.96
   1   2  -9  121.35    5.31
   1   2  -9  116.77    5.01
   1  -2  -9  125.51    6.42
   1  -2  -8   81.37    5.37
   1   2  -8   74.52    4.12
  -1   2  -8   77.47    3.36
   1   2  -8   80.37    4.02
  -1  -2  -8   72.56    5.07
   1  -2  -8   81.83    5.06
  -1  -2  -7  123.45    6.21
   1   2  -7  113.60    4.92
  -1   2  -7  104.18    4.04
   1  -2  -7  105.40    5.75
   1   2  -7  108.36    4.18
   1  -2  -7  105.58    5.72
   1   2  -6  123.73    3.93
   1  -2  -6  117.52    5.93
  -1  -2  -6  119.73    5.84
  -1   2  -6  116.09    4.32
   1   2  -6  120.85    5.06
   1  -2  -6  117.79    5.77
   1   2  -5   19.12    2.03
   1  -2  -5   20.63    2.36
  -1   2  -5   19.80    1.82
   1  -2  -5   16.14    2.15
  -1  -2  -5   25.39    2.58
   1   2  -4  112.86    4.81
  -1   2  -4  105.34    4.27
   1  -2  -4  121.21    5.44
  -1  -2  -4   98.01    4.62
   1  -2  -4  106.59    5.30
   1  -2  -3  821.14   13.29
  -1   2  -3  868.02   12.48
  -1  -2  -3  860.45   12.85
   1  -2  -3  868.85   14.55
   1   2  -3  848.22   13.30
  -1  -2  -2 2735.85   24.52
   1   2  -2 2707.31   23.90
   1  -2  -2 2743.98   25.00
   1  -2  -2 2708.53   22.43
  -1   2  -2 2721.58   23.02
   1   2  -1 2577.62   23.55
  -1  -2  -1 2672.67   23.11
  -1  -2  -1 2650.15   17.40
  -1   2  -1 2597.39   22.79
   1  -2  -1 2635.45   24.04
   1  -2  -1 2719.59   21.17
   1  -2   0 4724.81   31.07
  -1  -2   0 4711.16   29.36
   1   2   0 4665.96   32.06
  -1   2   0 4699.50   31.40
   1  -2   1 2621.51   22.96
   1  -2   1 2640.70   18.83
   1   2   1 2635.99   24.17
  -1  -2   1 2635.68   20.88
  -1  -2   2 2711.02   20.19
   1  -2   2 2671.38   18.93
  -1  -2   3  864.51   10.69
   1  -2   3  846.80   12.48
   1   2   3  867.59   14.30
  -1  -2   4  110.99    3.52
   1   2   4  109.43    5.13
  -1  -2   5   18.76    1.34
   1  -2   5   21.04    1.97
   1   2   5   20.21    2.23
   1   2   6  114.45    5.34
   1   2   6  119.42    5.94
   1  -2   6  111.05    4.44
  -1  -2   6  117.79    3.16
   1   2   7  107.13    5.87
   1   2   7  110.81    5.36
   1  -2   7  105.49    4.36
   1   2   8   73.37    4.46
   1   2   8   74.32    4.97
   1  -2   8   75.03    3.68
   1  -2   9  107.94    4.47
   1   2   9  116.34    6.49
   1   2   9   99.67    5.46
   1   2  10   36.61    3.74
   1   2  10   35.09    3.26
   1  -2  10   36.76    2.63
   1   2  11    0.32    0.33
   1   2  11    0.43    0.56
   1  -2  11    1.20    0.54
   1  -2  12    2.86    0.71
   1   2  12    3.34    1.23
   1   2  12    4.56    1.48
   1   2  13    8.92    1.81
   1  -2  13    9.38    1.35
   1   2  13    7.35    1.94
   1   2  14   60.22    4.43
   1   2  14   64.63    5.31
  -1   2  14   60.09    5.17
   1  -2  14   58.00    3.61
  -1   2  15   10.41    2.40
   1  -2  15   13.58    1.84
   1   2  15   15.02    2.61
   1   2  15   12.05    2.13
   1   2  16   15.49    2.95
   1  -2  16   19.79    2.17
  -1   2  16   13.83    2.52
   1   2  16   20.25    2.73
  -1   2  17   19.91    3.23
   1  -2  17   18.05    2.28
   1   2  17   19.17    3.25
  -1   2  17   13.66    2.48
   1   2  17   17.20    2.66
  -1   2  18   13.34    2.51
   1   2  18    7.79    2.06
  -1   2  18    9.54    2.28
   1   2  18    9.17    2.03
  -1   2  19   12.35    2.18
   1   2  19   16.82    3.17
  -1   2  19   13.64    2.88
  -1   2  20   34.73    4.73
   1   2  20   34.27    4.61
   1   2  21    4.35    1.80
  -1   2  21    7.02    1.66
   1   2  22    7.45    2.83
  -1  -3 -30   14.54    3.97
   1  -3 -30   10.41    3.18
  -1  -3 -29   14.09    3.88
   1  -3 -29   19.79    4.16
   1  -3 -28    4.10    1.85
  -1  -3 -28    7.35    2.63
  -1  -3 -27    0.09    1.53
   1  -3 -27    1.32    1.65
  -1  -3 -26   25.00    4.77
   1  -3 -26   42.53    6.45
   1  -3 -25   16.03    4.09
  -1  -3 -25   17.94    4.18
   1  -3 -24    8.14    2.90
  -1  -3 -24   15.99    3.97
   1  -3 -23   40.26    5.82
  -1  -3 -23   40.34    5.66
   1  -3 -22   73.74    7.69
  -1  -3 -22   69.11    7.52
   1  -3 -21   21.67    3.78
  -1  -3 -21   13.68    3.24
   1  -3 -20   77.56    7.65
  -1  -3 -20   78.49    7.85
   1  -3 -19   84.92    7.73
  -1  -3 -19   73.79    7.22
   1  -3 -18   36.20    5.12
  -1  -3 -18   36.22    5.15
  -1  -3 -17  114.09    8.75
   1  -3 -17  129.81    9.35
   1  -3 -16  431.53   16.46
  -1  -3 -16  437.39   16.58
   1   3 -15   33.04    3.18
   1  -3 -15   45.47    5.11
  -1  -3 -15   48.07    5.58
  -1  -3 -14  371.37   14.57
   1  -3 -14  337.62   14.10
   1   3 -14  331.77    9.99
  -1   3 -13  454.36   10.21
  -1  -3 -13  492.46   16.31
   1   3 -13  499.93   12.30
   1  -3 -12  192.17    9.68
  -1  -3 -12  202.44   10.24
   1   3 -12  181.29    7.56
   1  -3 -12  214.21   10.54
  -1   3 -12  186.17    6.45
   1  -3 -11  162.18    8.53
   1  -3 -11  157.72    8.67
  -1  -3 -11  163.50    8.82
  -1   3 -11  154.13    6.02
   1   3 -11  154.63    7.05
  -1   3 -10  812.88   13.93
   1   3 -10  806.09   15.86
   1  -3 -10  802.52   19.04
   1  -3 -10  780.71   18.37
  -1  -3 -10  843.89   19.49
   1   3  -9  185.07    7.49
   1  -3  -9  176.87    8.65
  -1   3  -9  194.60    6.91
   1  -3  -9  174.44    8.55
  -1  -3  -9  188.15    8.92
  -1  -3  -8  119.50    6.78
   1  -3  -8  123.18    7.00
   1   3  -8  131.72    6.33
  -1   3  -8  139.58    5.95
   1  -3  -8  118.11    6.87
  -1  -3  -7  340.43   11.06
   1   3  -7  327.78   10.00
   1  -3  -7  343.18   11.63
  -1   3  -7  340.77    9.60
   1  -3  -7  364.38   11.70
   1  -3  -6   41.93    3.84
  -1   3  -6   36.08    3.16
  -1  -3  -6   41.67    3.70
   1  -3  -6   42.99    4.04
   1   3  -6   43.35    3.63
   1   3  -5  199.16    7.74
   1  -3  -5  185.76    8.35
   1  -3  -5  192.41    7.89
  -1   3  -5  195.90    7.37
  -1  -3  -5  204.76    7.76
   1  -3  -4  606.90   14.60
   1  -3  -4  605.14   13.20
   1   3  -4  588.35   13.37
  -1   3  -4  580.32   12.83
  -1  -3  -4  602.52   12.58
  -1  -3  -4  591.74   14.03
   1  -3  -3  136.12    6.80
  -1  -3  -3  129.61    6.38
  -1   3  -3  141.83    6.33
  -1  -3  -3  140.29    5.66
   1   3  -3  135.85    6.47
   1  -3  -3  143.08    6.17
   1   3  -2  141.29    6.59
  -1  -3  -2  125.16    6.21
  -1  -3  -2  149.90    5.40
  -1   3  -2  146.16    6.51
   1  -3  -2  137.40    6.61
   1  -3  -2  142.37    5.82
  -1   3  -1  549.36   12.77
  -1  -3  -1  548.83    9.58
   1  -3  -1  558.19   11.05
   1  -3  -1  572.32   13.27
   1   3  -1  560.42   13.23
  -1  -3  -1  588.05   13.08
   1  -3   0 1227.88   15.59
   1   3   0 1215.49   19.53
  -1  -3   0 1192.69   12.32
  -1   3   0 1232.35   19.51
  -1  -3   0 1242.21   18.39
   1  -3   0 1255.51   19.30
  -1   3   1  576.37   13.54
  -1  -3   1  587.49    7.22
   1   3   1  574.11   13.48
   1  -3   1  593.01   12.97
  -1  -3   1  575.75   12.12
   1  -3   1  565.91   10.17
  -1   3   2  140.16    6.69
   1   3   2  133.59    6.56
   1  -3   2  133.71    4.82
   1  -3   2  130.11    5.96
  -1  -3   2  134.67    5.72
   1  -3   3  133.97    4.75
  -1   3   3  129.97    6.58
  -1  -3   3  132.99    5.44
   1  -3   3  131.77    5.98
   1   3   3  130.45    6.59
   1  -3   4  574.53   12.31
  -1  -3   4  615.48   11.29
   1   3   4  587.05   14.14
  -1   3   4  614.91   14.58
   1  -3   4  579.71    9.96
  -1   3   5  188.69    8.11
   1   3   5  201.96    8.36
   1  -3   5  199.21    7.07
  -1  -3   5  214.20    6.45
  -1  -3   6   43.67    2.78
  -1   3   6   40.04    3.78
   1   3   6   47.23    4.07
   1  -3   6   41.96    3.17
  -1   3   7  372.48   11.78
   1  -3   7  346.06    9.25
  -1  -3   7  351.76    7.62
   1   3   7  344.30   11.13
  -1  -3   8  120.83    4.28
   1   3   8  122.24    6.65
  -1   3   8  111.74    6.64
   1  -3   8  123.42    5.34
   1   3   9  178.41    8.18
  -1  -3   9  181.90    4.92
   1  -3   9  188.46    6.61
   1   3   9  193.04    9.18
  -1   3   9  183.61    8.56
  -1  -3  10  775.09    9.43
   1  -3  10  787.76   13.80
   1   3  10  803.58   19.33
  -1   3  10  773.97   17.87
   1   3  10  780.28   17.47
   1  -3  11  166.84    6.28
   1   3  11  163.58    8.09
  -1   3  11  160.42    8.42
   1   3  11  159.75    8.80
   1   3  12  203.39   10.16
   1  -3  12  190.72    6.70
  -1   3  12  186.23    9.21
   1   3  12  195.46    8.97
   1   3  13  484.93   14.42
   1   3  13  484.36   16.19
  -1   3  13  509.86   15.50
   1  -3  13  502.88   10.96
   1   3  14  345.46   13.51
   1   3  14  354.48   12.59
  -1   3  14  333.62   12.80
   1  -3  14  338.86    9.01
  -1   3  15   52.93    5.07
   1   3  15   46.54    4.65
   1   3  15   46.60    5.17
   1  -3  15   37.88    3.04
  -1   3  15   34.46    4.49
  -1   3  16  389.16   14.25
   1   3  16  395.98   15.12
  -1   3  16  405.56   15.35
   1   3  16  390.93   14.04
  -1   3  17  111.49    8.34
   1   3  17  121.35    7.90
   1   3  17  126.79    8.60
  -1   3  17  113.79    7.97
  -1   3  18   27.95    4.31
   1   3  18   36.02    4.44
   1   3  18   30.22    4.29
  -1   3  18   32.97    4.23
  -1   3  19   87.97    7.17
   1   3  19   79.66    7.12
   1   3  19   85.32    6.69
  -1   3  19   74.99    6.93
  -1   3  20   80.00    6.99
   1   3  20   90.89    7.97
  -1   3  20   87.48    7.62
  -1   3  21   13.80    3.17
   1   3  21   14.79    2.91
  -1   3  22   77.19    7.84
   1   3  22   64.89    6.86
  -1   3  23   30.38    4.91
   1   3  23   37.11    5.71
   1   3  24   11.92    3.25
  -1  -4 -29   -0.52    1.89
   1  -4 -29    0.18    1.28
  -1  -4 -28   -0.07    1.08
   1  -4 -28    1.83    1.71
   1  -4 -27    4.27    2.52
  -1  -4 -27   -0.49    1.30
   1  -4 -26    7.11    2.63
  -1  -4 -26    0.66    0.86
   1  -4 -25    5.04    2.43
  -1  -4 -25    0.08    1.22
  -1  -4 -24    1.61    1.13
   1  -4 -24   -0.05    1.52
   1  -4 -23   12.44    3.23
  -1  -4 -23    9.23    2.85
  -1  -4 -22   17.37    3.68
   1  -4 -22   17.56    4.15
   1  -4 -21   16.34    3.76
  -1  -4 -21   27.10    4.74
  -1  -4 -20    0.84    1.79
   1  -4 -20    4.94    2.62
   1  -4 -19    5.37    2.31
  -1  -4 -19    7.84    2.71
   1  -4 -18   12.54    3.52
  -1  -4 -18    6.85    2.76
   1  -4 -17   10.76    3.19
  -1  -4 -17   19.11    3.72
   1  -4 -16   14.60    3.37
  -1  -4 -16   10.56    2.83
  -1  -4 -15   25.62    4.07
   1  -4 -15   31.97    4.37
  -1  -4 -14    1.05    1.42
   1   4 -14    5.67    1.73
   1  -4 -14    3.24    1.52
  -1   4 -13    4.39    1.34
  -1  -4 -13    4.55    2.07
   1  -4 -13    3.97    1.83
   1   4 -13    5.91    1.93
  -1  -4 -12   94.97    7.07
   1  -4 -12   85.43    7.08
   1   4 -12  112.31    6.79
  -1   4 -12  100.22    6.02
   1  -4 -12   94.87    7.20
  -1  -4 -11   34.91    4.35
   1   4 -11   30.93    3.52
  -1   4 -11   27.98    3.14
   1  -4 -11   23.79    3.64
   1  -4 -11   28.98    3.79
   1  -4 -10  126.58    8.15
   1  -4 -10  139.98    8.48
  -1  -4 -10  139.71    8.31
   1   4 -10  144.09    7.55
  -1   4 -10  146.44    7.27
   1  -4  -9  249.65   11.14
  -1   4  -9  258.86    9.66
  -1  -4  -9  266.46   11.15
   1   4  -9  253.50   10.04
   1  -4  -9  256.16   10.94
  -1   4  -8  107.45    6.32
   1  -4  -8  116.72    7.52
   1   4  -8  121.37    6.95
  -1  -4  -8  107.63    6.94
   1  -4  -8  110.01    6.98
  -1  -4  -7   14.91    2.62
   1   4  -7    9.60    1.97
  -1   4  -7   15.47    2.52
   1  -4  -7    9.64    2.46
   1  -4  -7   10.54    2.14
  -1  -4  -6   70.72    5.62
  -1  -4  -6   60.68    4.81
  -1   4  -6   62.34    4.86
   1  -4  -6   75.19    5.85
   1   4  -6   57.93    4.79
   1  -4  -6   62.27    5.04
  -1  -4  -5   80.73    5.93
   1  -4  -5   84.24    5.56
   1  -4  -5   80.88    5.99
  -1  -4  -5   79.75    5.21
   1   4  -5   75.83    5.50
  -1   4  -5   79.02    5.47
  -1  -4  -4   53.40    4.80
   1  -4  -4   48.20    4.15
   1   4  -4   54.19    4.74
  -1  -4  -4   50.97    4.02
   1  -4  -4   50.65    4.81
  -1   4  -4   53.93    4.65
   1   4  -3   37.53    3.92
  -1  -4  -3   50.41    3.78
  -1   4  -3   37.67    3.91
   1  -4  -3   43.04    3.66
  -1  -4  -3   42.02    4.14
   1  -4  -3   37.76    4.04
   1  -4  -2  153.54    7.96
  -1  -4  -2  171.16    6.42
   1   4  -2  161.03    8.12
  -1   4  -2  163.70    8.04
  -1  -4  -2  144.20    7.50
   1  -4  -2  155.36    6.77
  -1   4  -1  309.10   11.19
  -1  -4  -1  353.80   11.54
   1   4  -1  339.57   11.85
   1  -4  -1  355.50    9.75
  -1  -4  -1  343.57    8.46
   1  -4  -1  338.41   11.67
   1  -4   0  895.20   14.95
  -1   4   0  926.26   19.34
   1   4   0  892.74   19.32
   1  -4   0  897.52   18.54
  -1  -4   0  876.13   17.88
  -1  -4   0  957.97   12.83
   1  -4   1  337.90    8.76
  -1  -4   1  350.16    6.90
  -1   4   1  357.44   12.15
  -1  -4   1  328.43   10.60
   1   4   1  334.83   11.89
   1  -4   1  347.22   11.40
   1  -4   2  172.07    6.09
  -1  -4   2  169.93    4.15
   1   4   2  173.11    8.50
   1  -4   2  164.20    7.77
  -1  -4   2  158.24    7.27
  -1   4   2  154.38    8.12
  -1  -4   3   41.23    1.68
  -1  -4   3   41.48    3.70
   1   4   3   33.70    3.89
  -1   4   3   46.14    4.42
   1  -4   3   46.87    4.13
   1  -4   3   48.08    3.20
  -1   4   4   46.61    4.56
   1   4   4   60.83    5.11
   1  -4   4   47.56    4.03
   1  -4   4   47.28    3.04
  -1  -4   4   50.19    3.97
  -1  -4   5   81.23    4.86
   1  -4   5   89.92    5.51
   1  -4   5   84.04    4.14
   1   4   5   85.34    6.15
  -1   4   5   69.32    5.61
   1   4   6   63.53    5.27
   1  -4   6   65.53    4.63
  -1   4   6   63.30    5.41
   1  -4   6   62.22    3.72
  -1  -4   6   67.50    4.31
   1  -4   7   11.83    2.00
  -1   4   7   12.47    2.54
  -1  -4   7    9.91    0.92
   1   4   7   14.84    2.61
  -1  -4   7    9.61    1.56
  -1  -4   8  114.05    5.29
   1   4   8  102.70    6.92
  -1   4   8  112.58    7.45
   1  -4   8  114.63    5.97
  -1   4   9  218.28   10.53
   1  -4   9  256.10    8.86
  -1  -4   9  259.12    7.78
   1   4   9  230.89   10.50
  -1  -4  10  127.06    5.23
   1   4  10  141.17    8.33
  -1   4  10  127.79    8.24
   1  -4  10  140.63    6.59
   1   4  11   33.89    4.36
   1  -4  11   26.47    2.84
   1   4  11   30.87    3.99
  -1  -4  11   26.06    2.27
  -1   4  11   28.07    4.15
  -1   4  12  100.04    7.45
   1   4  12   95.22    6.98
   1  -4  12   90.75    5.28
   1   4  12   96.78    7.63
  -1  -4  12   96.09    4.00
   1   4  13    3.39    1.75
   1  -4  13    6.47    1.43
   1   4  13    4.12    1.61
  -1   4  13    6.67    2.13
   1   4  14    1.96    1.12
   1  -4  14    5.73    1.27
  -1   4  14    7.00    2.12
   1   4  14    3.75    1.57
   1   4  15   24.76    4.00
  -1   4  15   23.37    3.71
   1   4  15   24.24    3.74
  -1   4  16   15.90    3.48
  -1   4  16    9.81    2.64
   1   4  16   14.02    2.90
   1   4  16   12.45    2.86
   1   4  17   17.08    3.28
  -1   4  17   15.26    3.05
   1   4  17   15.74    3.40
  -1   4  17   16.96    3.49
   1   4  18   13.61    3.23
  -1   4  18    9.17    2.74
   1   4  18    8.45    2.52
   1   4  19    2.28    1.61
  -1   4  19    7.81    2.55
   1   4  19    4.35    2.18
  -1   4  19    3.54    0.77
  -1   4  20    0.41    1.78
  -1   4  20    3.20    1.95
   1   4  20    2.60    0.75
   1   4  20    3.33    1.99
  -1   4  21   21.13    3.83
  -1   4  21   16.63    3.57
   1   4  21   18.33    3.75
  -1   4  22   13.14    2.82
   1   4  22   14.66    3.28
   1   4  23   11.60    3.01
  -1   4  23   11.18    3.38
   1   4  24    4.07    2.66
  -1   4  24    6.43    2.78
   1   4  25    1.97    1.47
   1  -5 -28   -0.17    1.51
  -1  -5 -28    0.41    1.50
   1  -5 -27    6.01    3.09
  -1  -5 -27    6.91    3.12
  -1  -5 -26   14.81    3.54
   1  -5 -26   13.76    3.14
  -1  -5 -25    7.23    3.09
   1  -5 -25   11.17    4.04
  -1  -5 -24    1.36    2.04
   1  -5 -24    1.76    1.71
   1  -5 -23   15.29    3.80
  -1  -5 -23   24.47    4.72
   1  -5 -22   42.32    5.95
  -1  -5 -22   40.06    5.96
  -1  -5 -21   12.92    3.37
   1  -5 -21    8.35    2.88
  -1  -5 -20   21.29    4.06
   1  -5 -20   16.54    3.69
   1  -5 -19   52.40    6.61
  -1  -5 -19   40.88    5.60
  -1  -5 -18   14.59    3.23
   1  -5 -18   10.62    3.73
   1  -5 -17   24.25    4.19
  -1  -5 -17   15.80    3.43
  -1  -5 -16  121.04    9.40
   1  -5 -16  142.40    9.92
   1  -5 -15   30.28    4.61
  -1  -5 -15   45.25    5.52
   1   5 -14   41.31    4.73
   1  -5 -14   40.90    5.38
  -1  -5 -14   54.88    5.81
   1  -5 -13  146.08    9.62
  -1   5 -13  120.60    7.46
   1   5 -13  130.21    8.13
  -1  -5 -13  131.59    8.98
   1  -5 -12   83.34    7.42
   1   5 -12   94.57    6.92
  -1   5 -12   82.84    6.26
   1  -5 -12  102.85    7.99
  -1  -5 -12  100.19    7.64
   1  -5 -11   14.40    2.67
  -1   5 -11   13.11    2.52
   1  -5 -11   13.51    2.88
  -1  -5 -11   14.65    3.11
   1   5 -11   19.93    3.41
  -1  -5 -10  276.17   12.35
  -1   5 -10  248.60   10.95
   1  -5 -10  258.14   12.35
   1  -5 -10  275.53   12.31
   1   5 -10  265.87   11.51
   1  -5  -9  142.58    8.71
   1   5  -9  146.75    8.52
  -1   5  -9  151.91    8.47
  -1  -5  -9  136.38    8.48
   1  -5  -9  137.14    8.95
   1  -5  -8   30.47    3.85
   1   5  -8   23.09    3.52
   1  -5  -8   31.75    4.34
  -1  -5  -8   25.94    3.54
  -1   5  -8   26.74    3.68
   1  -5  -7  138.03    8.05
  -1  -5  -7  155.30    8.40
   1  -5  -7  161.44    9.50
   1   5  -7  159.56    8.82
  -1   5  -7  139.65    8.17
   1   5  -6  115.41    7.50
  -1  -5  -6  119.05    8.06
  -1   5  -6  124.95    7.80
   1  -5  -6  126.90    7.52
  -1  -5  -6  128.80    7.34
   1  -5  -6  123.79    8.26
   1   5  -5   50.77    5.03
  -1  -5  -5   53.16    5.25
  -1   5  -5   41.32    4.50
   1  -5  -5   58.57    5.57
  -1  -5  -5   48.93    4.47
   1  -5  -5   50.22    4.68
  -1  -5  -4  207.90    8.66
  -1  -5  -4  189.26    9.78
   1   5  -4  196.78    9.94
   1  -5  -4  198.72    9.01
   1  -5  -4  216.67   10.57
  -1   5  -4  197.51    9.88
   1   5  -3  261.96   11.46
   1  -5  -3  257.03   11.45
  -1   5  -3  267.24   11.44
   1  -5  -3  255.35    9.97
  -1  -5  -3  265.54   11.31
  -1  -5  -3  267.06    9.32
  -1  -5  -2   34.82    4.05
   1   5  -2   31.25    3.91
  -1   5  -2   34.51    4.19
  -1  -5  -2   39.45    3.37
   1  -5  -2   37.02    4.35
   1  -5  -2   41.63    3.77
  -1  -5  -1   16.64    2.14
   1  -5  -1   18.40    2.91
  -1  -5  -1   18.94    2.89
  -1   5  -1   17.02    2.87
   1  -5  -1   17.42    2.42
   1  -5   0  168.64    7.14
   1  -5   0  146.75    8.49
  -1   5   0  173.93    9.18
  -1  -5   0  168.08    6.12
   1   5   0  159.90    8.97
  -1  -5   1   21.29    3.13
  -1   5   1   15.48    2.75
  -1  -5   1   19.10    1.94
   1  -5   1   22.01    3.08
   1  -5   1   20.96    2.46
   1   5   1   21.28    3.33
   1  -5   2   39.18    3.14
  -1  -5   2   35.75    2.38
   1  -5   2   43.54    4.58
  -1   5   2   42.85    4.67
  -1  -5   2   38.35    4.03
   1   5   2   36.93    4.28
  -1  -5   3  245.40    5.30
   1  -5   3  253.39    7.96
   1  -5   3  247.10   10.51
  -1   5   3  236.02   11.11
  -1  -5   3  254.88   10.23
   1   5   3  259.94   11.57
  -1  -5   4  224.56    9.51
   1   5   4  205.90   10.37
   1  -5   4  193.07    9.26
  -1   5   4  211.81   10.53
   1  -5   4  203.93    6.89
   1  -5   5   47.43    4.54
  -1  -5   5   54.15    4.60
   1  -5   5   49.86    3.46
  -1   5   5   43.38    4.75
   1   5   5   48.44    5.04
  -1   5   6  136.47    8.62
   1  -5   6  126.25    7.29
   1   5   6  128.14    8.50
  -1  -5   6  126.55    6.87
   1  -5   6  118.34    5.34
  -1  -5   7  154.87    7.46
   1  -5   7  151.98    8.11
   1   5   7  156.60    9.52
  -1   5   7  135.66    8.67
   1  -5   7  140.52    5.88
   1  -5   8   27.24    3.35
   1   5   8   22.37    3.65
  -1  -5   8   21.31    2.87
   1  -5   8   24.42    2.60
   1  -5   9  149.59    6.45
  -1  -5   9  145.45    7.20
   1   5   9  142.27    9.15
  -1   5   9  152.10    9.33
   1  -5   9  138.73    7.68
   1  -5  10  250.66    9.98
  -1   5  10  226.20   11.61
   1   5  10  249.57   12.12
  -1  -5  10  265.94    9.34
   1   5  11   10.12    2.52
  -1  -5  11   15.05    2.27
   1  -5  11   11.50    2.12
   1   5  12   91.44    7.73
  -1  -5  12   86.55    5.00
   1   5  12   97.96    8.06
  -1   5  12   83.11    7.26
   1  -5  12   92.65    6.02
   1   5  13  126.01    9.22
   1   5  13  120.32    8.64
   1  -5  13  107.07    6.49
  -1   5  13  132.43    9.39
   1   5  14   62.08    6.29
  -1   5  14   47.98    5.52
   1   5  14   50.41    5.82
   1   5  15   26.53    4.49
   1   5  15   37.95    4.74
  -1   5  15   25.92    4.35
   1   5  16  135.45   10.02
  -1   5  16  140.47    9.91
   1   5  16  155.56   10.31
  -1   5  17   17.09    3.74
   1   5  17   10.35    2.86
  -1   5  17   14.70    3.53
   1   5  17   23.00    3.73
  -1   5  18   17.68    3.70
   1   5  18   13.98    3.56
   1   5  18    8.02    2.50
  -1   5  18   11.95    3.17
  -1   5  19   39.25    5.67
   1   5  19   41.95    5.79
  -1   5  19   30.15    4.49
   1   5  19   34.96    5.23
   1   5  20    8.71    2.43
  -1   5  20   14.79    3.89
  -1   5  20   16.77    3.72
   1   5  20   12.78    3.49
  -1   5  21    9.61    3.24
  -1   5  21    8.06    2.64
   1   5  21   11.05    3.27
   1   5  22   45.11    6.27
  -1   5  22   44.40    6.35
   1   5  23   14.75    3.54
  -1   5  23   10.67    3.20
  -1   5  24   -0.79    2.36
   1   5  24    1.40    2.18
   1   5  25    6.26    2.34
  -1   5  25    9.98    3.39
   1   5  26   11.67    3.78
   1  -6 -26    2.89    1.82
  -1  -6 -26    0.72    1.17
   1  -6 -25   -1.09    2.45
  -1  -6 -25    2.30    2.92
  -1  -6 -24    0.44    1.73
   1  -6 -24    2.52    1.85
  -1  -6 -23   -0.46    1.62
   1  -6 -23    0.41    2.11
  -1  -6 -22    3.79    1.97
   1  -6 -22    6.12    3.00
  -1  -6 -21    1.98    1.75
   1  -6 -21    6.96    2.87
   1  -6 -20    1.90    1.72
  -1  -6 -20   -2.07    1.70
   1  -6 -19    5.59    2.62
  -1  -6 -19    1.09    1.29
   1  -6 -18    0.15    1.35
  -1  -6 -18    1.43    1.13
  -1  -6 -17    2.28    1.24
   1  -6 -17    2.98    1.75
  -1  -6 -16    1.02    1.29
   1  -6 -16    3.11    2.29
   1  -6 -15    4.40    2.32
  -1  -6 -15    4.45    2.05
  -1  -6 -14    2.09    1.35
   1  -6 -14    5.19    2.39
   1   6 -13   12.69    3.01
   1  -6 -13   12.38    3.15
  -1  -6 -13   18.20    3.77
   1  -6 -12   14.73    3.34
  -1   6 -12   10.19    2.83
   1  -6 -12   12.92    3.13
  -1  -6 -12   12.50    2.93
   1   6 -12   18.08    3.33
  -1  -6 -11    6.49    1.68
  -1   6 -11    2.57    1.32
   1  -6 -11    9.98    3.00
   1   6 -11    7.73    2.27
   1  -6 -11    5.49    2.18
   1  -6 -10   11.21    2.65
   1  -6 -10   10.66    2.96
   1   6 -10    6.87    2.16
  -1  -6 -10   10.93    2.55
  -1   6 -10    6.41    2.55
   1  -6  -9    5.98    2.60
  -1   6  -9    5.11    1.96
   1   6  -9    2.23    0.79
   1  -6  -9    8.34    2.36
  -1  -6  -9    5.79    1.94
  -1  -6  -8    0.67    0.70
   1  -6  -8    0.31    0.65
   1   6  -8   -0.37    0.77
   1  -6  -8    1.23    0.95
  -1   6  -8    2.82    0.83
  -1   6  -7   34.43    4.49
  -1  -6  -7   24.87    3.91
   1  -6  -7   37.92    4.74
   1   6  -7   37.97    4.89
   1  -6  -7   47.63    5.50
  -1  -6  -6   52.04    5.14
   1  -6  -6   52.72    5.18
   1  -6  -6   49.12    5.49
  -1   6  -6   46.28    5.28
  -1  -6  -6   54.34    5.74
   1   6  -6   51.11    5.64
  -1   6  -5   74.69    6.61
   1  -6  -5   98.73    6.92
  -1  -6  -5   82.99    6.94
   1  -6  -5   79.59    6.94
  -1  -6  -5   86.88    6.24
   1   6  -5   84.66    7.08
  -1  -6  -4   74.23    5.55
  -1  -6  -4   77.12    6.68
   1  -6  -4   76.70    6.65
   1  -6  -4   70.22    5.87
  -1   6  -4   68.86    6.35
   1   6  -4   72.96    6.65
  -1   6  -3   49.00    5.33
  -1  -6  -3   52.51    5.54
   1   6  -3   54.92    5.69
   1  -6  -3   48.08    5.41
  -1  -6  -3   46.84    4.23
   1  -6  -3   35.84    4.07
  -1  -6  -2   52.09    5.24
   1   6  -2   42.85    5.13
   1  -6  -2   54.72    4.90
  -1  -6  -2   56.85    4.36
  -1   6  -2   46.18    5.23
   1  -6  -2   41.15    4.88
  -1   6  -1   13.49    3.04
   1  -6  -1   15.29    3.06
  -1  -6  -1   19.53    2.59
  -1  -6  -1   19.34    3.37
   1  -6  -1   20.43    2.74
   1   6  -1   19.15    3.37
  -1  -6   0   30.73    2.93
  -1   6   0   32.43    4.46
   1  -6   0   31.49    4.34
   1   6   0   31.44    4.46
  -1  -6   0   26.56    3.84
   1  -6   0   28.38    3.11
   1  -6   1   19.37    3.38
  -1  -6   1   20.14    2.16
   1   6   1   26.33    3.99
  -1   6   1   14.12    2.86
   1  -6   1   18.57    2.60
  -1  -6   1   22.71    3.27
   1  -6   2   48.68    5.13
  -1   6   2   52.37    5.67
   1  -6   2   53.49    4.09
   1   6   2   49.05    5.42
  -1  -6   2   47.30    3.08
  -1  -6   2   48.81    5.04
   1  -6   3   45.45    5.03
  -1  -6   3   38.82    2.43
   1  -6   3   46.05    3.83
   1   6   3   49.78    5.44
  -1  -6   3   42.36    4.67
  -1   6   3   52.82    5.75
  -1  -6   4   59.80    5.50
   1  -6   4   77.89    6.41
  -1   6   4   65.17    6.41
   1  -6   4   64.68    4.30
   1   6   4   70.42    6.56
  -1   6   5   91.05    7.49
   1   6   5   70.68    6.52
   1  -6   5   76.49    4.58
   1  -6   5   78.43    6.39
  -1  -6   5   82.52    6.24
   1  -6   6   41.85    3.34
   1   6   6   62.32    6.27
   1  -6   6   48.31    5.06
  -1  -6   6   47.51    4.73
  -1   6   6   55.08    5.93
   1  -6   7   38.51    4.44
  -1   6   7   46.74    5.47
   1   6   7   37.02    4.73
  -1  -6   7   39.98    4.34
   1  -6   7   34.76    2.98
  -1   6   8    3.74    1.91
   1   6   8    0.46    1.65
   1  -6   8    1.18    0.56
  -1  -6   8    0.31    0.89
  -1  -6   9   10.24    2.38
  -1   6   9    5.19    2.33
   1   6   9    4.68    1.39
   1  -6   9    6.83    1.85
   1  -6  10    5.66    2.02
   1   6  10    7.54    2.08
  -1   6  10    5.57    2.18
  -1  -6  10    7.18    2.02
   1   6  11    5.24    2.47
  -1  -6  11    4.44    1.59
  -1   6  11    6.99    2.47
   1  -6  11    4.20    1.57
   1  -6  12   14.94    2.79
  -1   6  12   17.22    3.43
   1   6  12   18.39    3.58
   1   6  12   12.37    3.34
  -1   6  13   14.82    3.30
   1   6  13   12.82    3.05
   1   6  13   10.03    2.93
   1   6  14    5.35    1.95
  -1   6  14    0.98    1.26
   1   6  14    5.15    1.90
   1   6  15    1.51    1.47
  -1   6  15    3.88    1.29
   1   6  15    1.51    0.96
  -1   6  16   -0.30    1.62
   1   6  16    3.12    2.00
   1   6  17    3.33    1.56
  -1   6  17    1.41    0.88
   1   6  17    5.45    2.52
   1   6  18    3.50    1.83
  -1   6  18    0.40    1.32
  -1   6  18   -1.37    1.74
   1   6  18    3.59    2.27
   1   6  19    1.99    1.74
   1   6  19    2.51    2.12
  -1   6  19    0.60    1.18
  -1   6  19    3.88    2.17
  -1   6  20    1.01    2.15
   1   6  20    2.42    1.52
  -1   6  20    0.58    1.36
   1   6  20    1.23    1.07
  -1   6  21    6.47    2.96
   1   6  21    3.59    1.56
   1   6  21    0.77    2.40
  -1   6  21   -1.61    2.12
   1   6  22    4.53    2.23
  -1   6  22    3.90    1.87
  -1   6  23    1.86    1.63
   1   6  23    1.55    1.65
  -1   6  24   -1.04    1.68
   1   6  24   -1.31    2.30
   1   6  25    1.89    2.33
  -1   6  25    2.25    2.29
   1   6  26    1.57    1.24
  -1   6  26    0.97    1.54
   1  -7 -25    1.16    2.02
  -1  -7 -25    2.37    2.01
   1  -7 -24    6.76    2.74
  -1  -7 -24    0.88    2.07
   1  -7 -23   17.33    4.16
  -1  -7 -23   12.92    3.51
   1  -7 -22    6.15    2.52
  -1  -7 -22   11.07    3.44
   1  -7 -21    4.07    2.50
  -1  -7 -21    4.21    2.32
  -1  -7 -20   10.00    2.77
   1  -7 -20   14.78    3.60
  -1  -7 -19   10.68    3.19
   1  -7 -19    6.87    2.09
   1  -7 -18    0.78    1.94
  -1  -7 -18   -0.79    1.05
  -1  -7 -17   14.26    3.59
   1  -7 -17   12.75    3.41
   1  -7 -16   27.45    4.67
  -1  -7 -16   29.99    4.85
  -1  -7 -15    5.17    2.33
   1  -7 -15    4.14    2.32
  -1  -7 -14    9.40    3.54
   1  -7 -14   12.29    2.87
   1  -7 -13   15.80    3.67
   1   7 -13   22.21    4.02
  -1  -7 -13   22.52    4.07
  -1   7 -12   12.45    3.04
   1  -7 -12   14.80    3.71
   1  -7 -12   12.48    2.89
   1   7 -12   12.37    3.16
  -1  -7 -12   14.07    3.61
   1  -7 -11    0.90    0.84
   1   7 -11    0.18    1.01
  -1   7 -11    5.05    1.93
  -1  -7 -11    4.91    2.54
   1  -7 -11    3.95    2.20
   1  -7 -10   69.76    7.16
   1  -7 -10   65.09    6.61
  -1  -7 -10   63.51    6.91
   1   7 -10   78.65    7.52
  -1   7 -10   65.25    6.77
   1   7  -9   37.88    5.32
  -1   7  -9   47.11    5.60
   1  -7  -9   47.14    5.90
   1  -7  -9   38.35    5.36
  -1  -7  -9   45.63    5.58
  -1   7  -8    4.20    1.59
  -1  -7  -8    2.47    1.72
   1  -7  -8    8.48    3.09
   1  -7  -8    5.71    2.14
   1   7  -8    4.01    1.60
  -1  -7  -7   40.72    4.98
   1  -7  -7   51.42    5.54
  -1   7  -7   51.66    6.16
   1   7  -7   41.37    5.62
   1  -7  -7   49.46    5.93
   1  -7  -6  108.58    8.87
   1   7  -6   99.98    8.48
   1  -7  -6  101.58    7.69
  -1  -7  -6  107.10    7.64
  -1   7  -6  110.29    8.69
  -1   7  -5   38.55    5.23
   1  -7  -5   26.81    3.98
   1   7  -5   25.46    4.12
   1  -7  -5   34.53    5.22
  -1  -7  -5   28.92    3.86
  -1  -7  -4   69.40    5.95
   1  -7  -4   60.21    5.74
   1  -7  -4   70.73    6.89
  -1   7  -4   65.76    6.87
   1   7  -4   64.13    6.57
  -1  -7  -4   65.82    6.67
  -1  -7  -3  153.38   10.02
   1  -7  -3  152.74    8.79
   1   7  -3  152.91   10.39
  -1   7  -3  156.63   10.39
  -1  -7  -3  159.37    8.55
   1  -7  -3  150.69   10.16
   1   7  -2   58.64    6.33
  -1  -7  -2   58.06    4.88
   1  -7  -2   55.43    5.20
  -1  -7  -2   59.54    6.23
   1  -7  -2   57.21    6.13
  -1   7  -2   57.06    6.36
   1  -7  -1    2.93    1.21
  -1  -7  -1    2.13    0.88
   1   7  -1    0.27    0.68
  -1  -7  -1    1.29    1.24
   1  -7  -1    3.35    1.73
  -1   7  -1    3.08    1.37
   1  -7   0   30.30    4.41
   1   7   0   35.87    5.20
  -1  -7   0   38.17    4.90
   1  -7   0   33.53    3.77
  -1   7   0   31.52    4.82
   1  -7   1    2.27    1.24
  -1  -7   1    4.49    1.85
   1  -7   1    1.71    1.38
   1   7   1    4.08    1.66
  -1   7   1    3.59    1.72
  -1  -7   2   56.87    5.94
   1  -7   2   62.20    4.89
  -1   7   2   47.03    5.86
   1  -7   2   62.82    6.35
   1   7   2   66.15    6.76
  -1  -7   3  146.37    9.51
  -1   7   3  172.70   11.06
   1  -7   3  158.85    9.98
   1   7   3  156.30   10.60
   1   7   4   69.85    6.98
  -1   7   4   67.06    7.01
  -1  -7   4   67.44    6.38
   1  -7   4   69.22    6.49
  -1   7   5   40.34    5.55
  -1  -7   5   33.87    4.75
   1  -7   5   31.44    4.32
   1   7   5   24.10    4.42
   1   7   6  109.02    9.02
  -1  -7   6  106.22    7.91
  -1   7   6   99.35    8.65
   1  -7   6  104.56    8.19
  -1   7   7   50.78    6.38
   1   7   7   41.60    5.49
  -1  -7   7   54.99    5.66
   1  -7   7   41.15    5.02
  -1  -7   8    1.41    1.13
   1   7   8    3.26    2.62
   1  -7   8    1.81    1.76
  -1   7   8    4.30    2.22
  -1   7   9   40.62    5.74
  -1  -7   9   50.25    5.29
   1  -7   9   42.60    5.27
   1   7   9   55.38    6.47
   1   7  10   62.59    6.98
  -1   7  10   65.28    6.97
  -1  -7  10   74.14    6.31
   1  -7  10   63.81    6.31
  -1   7  11    3.01    1.56
   1   7  11    0.55    0.94
   1  -7  11    4.00    1.62
  -1   7  12   13.69    3.41
   1   7  12   16.41    3.63
   1   7  12    9.30    3.35
   1   7  13   17.37    4.20
   1   7  13   19.27    3.95
  -1   7  13   23.73    4.67
   1   7  14    8.99    2.87
  -1   7  14    4.52    2.29
   1   7  14    7.53    2.83
  -1   7  15    7.99    3.53
   1   7  15    6.60    2.77
   1   7  15    0.65    1.01
  -1   7  16   32.46    5.37
   1   7  16   26.42    4.98
   1   7  16   31.82    5.43
  -1   7  17   11.89    3.39
  -1   7  17   11.56    3.03
   1   7  17   12.62    3.78
   1   7  17   18.85    4.08
  -1   7  18    1.38    1.27
   1   7  18    1.08    1.46
  -1   7  18    1.45    1.88
   1   7  18    1.64    2.24
   1   7  19   11.97    3.51
  -1   7  19   10.27    3.20
   1   7  19    3.38    2.55
  -1   7  19   11.71    3.71
   1   7  20   18.52    3.99
  -1   7  20   15.32    4.32
   1   7  20    6.70    2.02
  -1   7  20    9.13    3.70
   1   7  21   -0.66    1.18
  -1   7  21    3.88    2.47
  -1   7  21   -0.91    2.38
   1   7  21    6.22    3.17
   1   7  22   14.01    3.77
  -1   7  22   14.12    3.69
  -1   7  22   14.18    4.26
  -1   7  23   11.72    3.61
   1   7  23   15.83    3.87
   1   7  24    4.83    3.15
  -1   7  24   -1.00    1.56
  -1   7  25    3.09    1.80
   1   7  25    1.83    1.39
   1  -8 -22   -0.19    2.26
  -1  -8 -22    3.11    2.36
  -1  -8 -21    1.26    2.41
   1  -8 -21   -0.45    1.76
   1  -8 -20    3.01    1.86
  -1  -8 -20    1.68    1.34
   1  -8 -19   -1.05    2.00
  -1  -8 -19   -1.02    2.44
   1  -8 -18    0.56    1.86
  -1  -8 -18    2.56    2.16
  -1  -8 -17    3.94    2.89
   1  -8 -17    3.05    1.92
   1  -8 -16    2.66    1.92
  -1  -8 -16    2.20    1.88
  -1  -8 -15    2.91    2.16
   1  -8 -15   -2.40    2.06
   1  -8 -14    6.63    3.03
  -1  -8 -14    0.48    1.33
  -1  -8 -13    8.68    2.87
   1  -8 -13    3.89    2.03
  -1  -8 -12    1.31    1.47
   1   8 -12   -1.08    1.02
   1   8 -11    2.53    1.08
  -1  -8 -11    8.49    3.01
  -1   8 -11    7.43    3.01
   1  -8 -11    3.69    1.82
  -1  -8 -10    0.06    0.95
   1   8 -10   -0.99    2.15
   1  -8 -10    1.71    1.72
   1  -8 -10    1.49    1.36
  -1   8 -10    0.01    1.49
   1  -8  -9    0.88    1.64
  -1  -8  -9   -0.28    0.87
   1   8  -9   -0.14    1.27
   1  -8  -9    0.03    0.72
  -1   8  -9    1.78    1.46
   1   8  -8    0.94    1.27
  -1   8  -8    4.50    2.96
  -1  -8  -8    4.21    2.08
   1  -8  -8    4.33    1.25
   1  -8  -8    2.68    2.09
  -1  -8  -7    2.55    1.42
  -1   8  -7    1.70    1.83
   1   8  -7    0.27    1.67
   1  -8  -7    1.00    1.03
   1  -8  -7    2.54    1.91
   1  -8  -6   37.35    5.52
   1   8  -6   38.07    5.63
  -1  -8  -6   42.94    4.97
   1  -8  -6   44.34    5.33
  -1   8  -6   47.37    6.17
   1   8  -5    9.03    2.60
  -1  -8  -5   10.88    2.67
  -1   8  -5   14.24    3.24
   1  -8  -5   15.00    3.41
   1  -8  -5   13.29    2.78
   1   8  -4    8.38    2.51
   1  -8  -4    5.61    1.88
   1  -8  -4    9.12    2.49
  -1   8  -4    3.38    2.15
   1   8  -3   14.85    3.75
   1  -8  -3    9.48    2.20
   1  -8  -3   11.24    2.46
  -1   8  -3   12.86    3.44
   1   8  -2   39.29    5.64
  -1  -8  -2   33.23    4.98
   1  -8  -2   34.92    5.01
  -1   8  -2   26.05    4.73
   1   8  -1    1.38    1.42
  -1   8  -1    2.25    1.95
  -1  -8  -1    4.95    2.43
   1  -8  -1    2.07    0.90
  -1  -8   0   16.93    3.47
   1  -8   0   16.16    3.42
   1   8   0   18.15    3.81
  -1   8   0   11.25    3.11
  -1   8   1    4.22    2.29
  -1  -8   1    3.87    2.32
   1  -8   1    1.84    1.29
   1   8   1    3.66    1.23
   1  -8   2   32.66    5.27
   1   8   2   38.52    5.57
  -1   8   2   33.56    5.28
  -1  -8   2   31.74    4.78
  -1  -8   3   15.58    3.31
   1   8   3    8.47    2.86
   1  -8   3    9.08    2.72
  -1   8   3    8.91    2.95
  -1  -8   4    6.32    1.48
  -1   8   4    3.62    2.15
   1   8   4    3.67    1.31
  -1  -8   5   11.78    2.66
  -1   8   5   11.68    2.93
   1   8   5    5.12    2.18
   1  -8   5   17.72    4.01
  -1   8   6   34.03    5.35
  -1  -8   6   39.43    5.48
   1  -8   6   47.61    5.85
   1  -8   7    1.80    1.76
  -1   8   7    2.76    1.73
  -1  -8   7    0.31    0.92
   1   8   7    1.57    1.73
  -1   8   8    2.65    2.39
  -1  -8   8    0.91    1.23
   1   8   8    2.91    2.32
   1  -8   8    1.57    1.56
  -1   8   9    2.76    1.55
   1  -8   9    1.60    1.35
   1   8   9   -1.40    1.48
   1   8  10    2.23    2.22
  -1   8  10    0.16    1.40
  -1   8  11    5.70    2.62
   1   8  11    5.44    2.75
   1   8  11    4.20    1.78
   1   8  12   -1.73    2.20
  -1   8  12    1.88    1.52
   1   8  12    0.75    1.99
   1   8  13    6.87    2.87
   1   8  13    6.29    2.67
  -1   8  13    6.69    2.53
  -1   8  14    2.18    2.41
   1   8  14    1.14    1.35
   1   8  14    2.96    2.17
   1   8  15   -1.10    1.43
  -1   8  15   -1.40    0.99
   1   8  15   -1.97    2.09
  -1   8  16    1.49    1.66
   1   8  16    0.12    1.41
   1   8  16   -0.31    1.56
  -1   8  16    1.85    2.18
   1   8  17    2.66    2.96
   1   8  17    0.03    0.97
  -1   8  17   -0.33    2.48
  -1   8  17    0.97    1.47
   1   8  18   -0.98    1.75
   1   8  18   -2.32    2.73
  -1   8  18   -2.84    2.47
  -1   8  18    1.18    2.12
  -1   8  19   -0.15    0.99
   1   8  19    3.78    2.19
  -1   8  19    0.40    1.92
   1   8  19   -1.39    1.55
  -1   8  20    2.08    2.47
   1   8  20    3.52    2.75
   1   8  20   -1.06    2.01
  -1   8  20    0.26    2.02
  -1   8  21    0.66    1.66
   1   8  21    1.07    1.71
   1   8  21    3.33    2.87
  -1   8  21    2.83    1.40
  -1   8  22    1.10    2.20
   1   8  22    0.26    1.13
  -1   8  22   -0.08    1.37
  -1  -9 -20    3.95    1.47
   1  -9 -20   11.73    4.07
   1  -9 -19    3.25    2.17
  -1  -9 -19    7.27    3.00
  -1  -9 -18   -2.61    2.29
   1  -9 -18   -0.10    1.31
   1  -9 -17    4.49    2.88
  -1  -9 -17   14.76    4.17
  -1  -9 -16   14.78    3.88
   1  -9 -16    7.25    2.67
  -1  -9 -15    3.10    1.64
   1  -9 -15    4.01    2.81
   1  -9 -14   10.13    3.77
  -1  -9 -14   14.20    3.76
   1  -9 -13   19.52    4.03
  -1  -9 -13   11.83    3.32
  -1  -9 -12    4.19    2.49
   1  -9 -12    6.59    2.51
   1  -9 -11    8.01    2.35
   1   9 -11    3.99    2.31
  -1   9 -10   19.02    4.24
   1   9 -10   25.10    4.89
   1  -9 -10   24.28    4.78
   1   9  -9    9.95    3.51
   1  -9  -9   10.79    2.66
  -1   9  -9   17.39    4.52
   1  -9  -9   12.65    3.45
  -1   9  -8    0.10    1.25
   1  -9  -8   -1.68    1.43
   1   9  -7   30.85    5.30
  -1   9  -7   19.76    4.55
   1  -9  -7   23.24    4.45
  -1   9  -6   55.97    6.85
   1   9  -6   51.40    6.79
   1  -9  -6   50.53    6.42
   1  -9  -5    4.08    2.33
   1   9  -5    1.03    1.50
  -1   9  -5    2.42    1.86
   1   9  -4   39.25    6.03
  -1   9  -4   36.57    5.62
   1  -9  -4   25.21    4.32
   1  -9  -3   37.00    5.53
  -1   9  -3   40.88    6.02
   1   9  -3   37.33    5.65
  -1   9  -2   26.09    4.71
   1  -9  -2   17.00    3.95
   1   9  -2   18.35    4.41
   1  -9  -1    7.10    2.72
  -1   9  -1    6.38    2.82
   1   9  -1    2.22    2.08
   1  -9   0   32.07    5.04
   1   9   0   31.19    5.25
  -1   9   0   30.63    5.02
   1  -9   1    6.78    2.75
   1   9   1   10.50    3.47
  -1   9   1    9.52    3.30
  -1   9   2   19.39    4.16
   1  -9   2   15.37    3.55
   1   9   2   18.43    4.03
  -1   9   3   41.89    6.37
   1   9   3   31.86    5.20
   1  -9   3   44.45    6.27
   1   9   4   28.35    5.13
   1  -9   4   32.32    5.24
  -1   9   4   29.29    5.11
   1   9   5    4.03    2.17
   1  -9   5    4.14    1.97
  -1   9   5    1.09    1.34
   1   9   6   45.91    6.36
   1  -9   6   58.14    7.04
  -1   9   6   47.76    6.15
  -1   9   7   31.30    5.43
   1   9   7   22.20    4.41
   1  -9   7   28.83    4.86
  -1   9   8    3.52    2.43
   1  -9   8   -0.77    1.16
   1   9   8    3.54    1.85
   1   9   9    5.21    2.19
   1   9   9   13.87    3.81
  -1   9   9   10.62    3.52
   1   9  10   33.16    5.58
   1   9  10   23.12    4.83
  -1   9  10   36.17    5.67
   1   9  11    5.47    2.29
   1   9  11    6.96    3.01
  -1   9  11    8.03    3.23
   1   9  12    4.85    2.32
   1   9  12    6.35    2.68
  -1   9  12   11.78    3.28
  -1   9  13   15.66    4.03
   1   9  13   21.05    4.28
   1   9  13   18.00    4.43
   1   9  14    9.11    2.73
  -1   9  14    9.03    2.87
   1   9  14   10.33    3.44
  -1   9  15    2.41    1.60
   1   9  15    2.36    3.35
  -1   9  15    8.10    2.58
   1   9  15    3.78    2.11
  -1   9  16   13.61    3.70
   1   9  16    8.74    2.98
  -1   9  16   14.81    3.06
   1   9  16   14.01    3.98
   1   9  17    5.94    2.18
  -1   9  17    7.73    2.57
  -1   9  17    9.28    3.36
   1   9  17    5.27    2.23
  -1   9  18    3.00    1.93
   1   9  18    2.31    2.10
  -1   9  18    3.52    2.69
   1   9  18    1.57    1.95
   1   9  19    8.87    3.31
  -1   9  19    3.55    2.26
  -1   9  19    6.89    2.58
   1   9  19    8.21    3.03
  -1   9  20   15.75    4.08
   1   9  20    8.18    3.53
  -1   9  20    4.86    2.66
   1   9  20    7.07    2.72
   1  10 -11   -3.05    1.48
   1  10 -10    5.15    2.07
  -1  10  -9    8.82    3.04
   1  10  -9    5.10    2.25
   1  10  -8    2.11    1.65
  -1  10  -8   -0.84    1.40
  -1  10  -7    7.88    2.99
   1  10  -7    5.59    3.14
   1  10  -6   14.53    4.22
  -1  10  -6   12.44    3.57
   1 -10  -6   13.40    3.47
  -1  10  -5    2.06    2.75
   1 -10  -5    2.08    1.69
   1  10  -5    3.86    2.59
   1 -10  -4   14.34    3.92
   1  10  -4   13.92    4.45
  -1  10  -4   12.74    3.89
   1  10  -3    3.62    0.90
   1 -10  -3    1.45    0.98
  -1  10  -2    2.12    2.07
   1 -10  -2    2.75    1.82
   1  10  -2    4.75    2.30
   1 -10  -1    3.72    2.83
   1  10  -1    5.16    2.53
  -1  10  -1    5.88    2.84
  -1  10   0    7.55    3.29
   1 -10   0    4.67    2.35
   1  10   0    6.37    2.76
  -1  10   1    1.46    2.55
   1  10   1   -1.66    1.85
   1 -10   1    2.94    2.58
  -1  10   2   -0.82    1.23
   1 -10   2    2.84    1.48
  -1  10   3    3.75    2.81
   1 -10   3    2.79    2.47
   1  10   3    4.85    2.88
  -1  10   4   16.57    4.28
   1  10   4   11.95    3.64
   1 -10   4   14.37    3.68
   1 -10   5    0.76    1.75
  -1  10   5    2.26    1.97
   1  10   5    3.02    2.59
   1 -10   6   14.71    3.93
   1  10   6   14.49    3.76
  -1  10   6   19.71    4.46
   1  10   7    5.79    3.04
   1  10   7    6.39    2.76
  -1  10   7   10.15    3.82
   1  10   8    0.55    1.04
   1  10   8    2.25    2.18
  -1  10   8   -0.83    1.45
   1  10   9    9.62    3.20
   1  10   9    9.22    2.20
  -1  10   9    5.22    2.33
   1  10  10    9.01    3.13
  -1  10  10    3.18    1.57
   1  10  10    4.80    2.18
   1  10  11    3.06    1.91
   1  10  11    7.24    2.89
  -1  10  11    4.51    2.94
  -1  10  12   10.07    3.80
   1  10  12    4.76    2.85
   1  10  12    3.94    1.45
  -1  10  13    2.26    1.47
   1  10  13    9.75    3.21
   1  10  13    7.72    3.19
   1  10  14    5.36    3.12
   1  10  14   -0.76    1.54
  -1  10  14    2.40    2.50
  -1  10  14    1.49    2.69
  -1  10  15    0.84    1.40
  -1  10  15    0.94    1.26
   1  10  15    6.59    2.13
   1  10  15    6.65    3.48
  -1  10  16   -0.79    1.86
   1  10  16    0.10    1.94
   1  10  16   -2.19    2.22
  -1  10  16   -4.18    2.61
   1  11 -10    0.48    0.85
   1  11  -9    4.47    2.08
  -1  11  -9    0.45    3.08
   1  11  -8   -2.32    2.76
  -1  11  -8    1.49    2.60
  -1  11  -7    5.12    2.70
   1  11  -7    1.41    2.28
  -1  11  -6    4.89    3.29
   1  11  -6    5.87    2.06
   1  11  -5    4.94    3.34
  -1  11  -5    0.73    1.70
   1  11  -4    7.28    2.81
  -1  11  -4    6.67    3.35
   1  11  -3   11.73    4.01
  -1  11  -3    4.43    2.36
  -1  11  -2    5.65    2.87
   1  11  -2    2.45    1.18
   1  11  -2   -0.81    2.57
   1 -11  -1    7.54    3.23
   1  11  -1    6.16    2.64
   1  11  -1    5.18    2.40
  -1  11  -1    2.20    1.54
  -1  11   0   16.29    4.42
   1  11   0    7.02    3.20
   1  11   0    8.52    3.50
   1 -11   0   12.21    3.56
   1  11   1    2.68    2.15
   1  11   1    3.60    2.08
  -1  11   1    0.96    1.67
   1 -11   2    7.35    2.82
  -1  11   2    8.84    3.28
   1  11   2    3.84    2.08
   1  11   2    2.74    2.31
   1 -11   3    4.58    1.69
   1  11   3    6.51    2.53
  -1  11   3    3.29    1.70
   1 -11   4    3.70    1.56
  -1  11   4    1.02    1.07
   1  11   4    6.88    3.09
   1  11   4    4.53    2.75
   1 -11   5   -0.87    2.21
   1  11   5    4.31    2.67
  -1  11   5    0.65    1.06
   1  11   5    1.91    2.31
   1  11   6    9.25    2.90
  -1  11   6   18.00    4.14
   1  11   6   10.98    3.66
  -1  11   7    7.82    3.23
   1  11   7    5.29    2.93
   1  11   7    6.61    2.91
   1  11   8   -2.12    2.86
  -1  11   8    0.22    2.59
   1  11   8   -0.86    0.92
   1  11   9    3.88    2.83
  -1  11   9    5.59    2.21
   1  11   9    2.39    3.21
   1  11  10    8.47    3.00
   1  11  10    7.93    3.12
  -1  11  10    4.06    2.43
   2   0 -31    7.08    2.94
   2   0 -30   15.60    4.34
   2   0 -29    7.63    3.27
   2   0 -28   17.32    4.16
   2   0 -27    6.12    2.19
   2   0 -26    1.78    1.85
   2   0 -25   46.53    6.21
   2   0 -24   40.42    5.49
   2   0 -23  104.75    9.00
  -2   0 -22   10.32    2.76
   2   0 -22   20.33    3.89
   2   0 -21   77.23    7.46
  -2   0 -21   60.05    6.90
   2   0 -20   30.50    4.53
  -2   0 -20   29.25    4.59
  -2   0 -19  404.99   16.37
   2   0 -19  409.50   16.14
  -2   0 -18    8.99    2.68
   2   0 -18    8.02    2.33
   2   0 -17  154.99    9.45
  -2   0 -17  181.97   10.49
  -2   0 -16   12.35    2.76
   2   0 -16   16.78    3.11
  -2   0 -15  352.34   13.77
   2   0 -15  342.60   13.45
  -2   0 -14   19.83    3.34
   2   0 -14   21.04    3.25
  -2   0 -13 3024.60   37.89
   2   0 -13 3068.53   36.67
  -2   0 -12   33.65    3.83
   2   0 -12   34.16    3.80
  -2   0 -11  211.34    9.34
   2   0 -11  220.14    9.18
   2   0 -10 1725.01   24.03
  -2   0 -10 1769.72   25.64
  -2   0  -9 1302.18   20.84
   2   0  -9 1269.02   13.73
   2   0  -9 1250.92   19.68
  -2   0  -8  381.46   10.74
   2   0  -8  377.68    7.11
  -2   0  -7 5558.00   39.30
   2   0  -7 5461.16   37.37
   2   0  -6  402.97    9.43
   2   0  -6  402.90    6.72
   2   0  -5 1629.01   16.52
   2   0  -5 1662.33   18.07
   2   0  -5 1654.99   13.21
   2   0  -3 4769.56   26.50
   2   0  -1  315.78    6.08
   2   0  -1  327.36    5.78
   2   0   0    3.18    0.66
   2   0   0    4.21    0.71
   2   0   1  308.57    5.47
   2   0   1  309.75    6.07
   2   0   3 4745.31   26.96
   2   0   5 1648.35   10.20
   2   0   5 1655.98   17.31
   2   0   6  389.39    9.09
   2   0   7 5605.74   34.72
   2   0   8  342.22    9.00
   2   0   9 1252.75   18.03
   2   0  10 1733.01   21.97
  -2   0  11  231.74    6.49
   2   0  11  239.59    8.36
  -2   0  12   41.20    2.84
   2   0  12   38.86    3.55
   2   0  13 2997.92   32.12
  -2   0  13 3126.92   25.89
   2   0  14   21.68    2.93
  -2   0  14   19.12    2.11
  -2   0  15  360.10    9.48
   2   0  15  363.75   11.75
  -2   0  16   12.81    1.84
   2   0  16   14.86    2.51
   2   0  17  175.34    8.78
  -2   0  17  166.57    6.91
   2   0  18    7.67    1.72
  -2   0  18    8.53    1.53
   2   0  19  372.50   13.73
   2   0  20   24.76    3.67
   2  -1 -31    4.42    2.87
   2  -1 -30    3.93    2.88
   2   1 -29   -0.01    1.38
   2  -1 -29    1.61    2.13
   2   1 -28    0.48    1.46
   2  -1 -28    3.89    2.77
   2  -1 -27    3.11    1.10
   2   1 -27    2.77    2.43
   2  -1 -26    0.81    1.45
  -2  -1 -26   -1.18    2.32
   2   1 -26   -0.86    1.54
   2   1 -25    3.81    2.08
   2  -1 -25    1.51    2.07
  -2  -1 -25    0.57    1.73
   2  -1 -24    1.39    1.85
   2   1 -24    2.09    1.71
  -2  -1 -24    2.57    1.38
   2  -1 -23    2.54    1.96
   2   1 -23    1.20    1.56
  -2  -1 -23    4.58    2.19
  -2  -1 -22    9.60    2.53
   2  -1 -22    7.13    2.67
   2   1 -22   14.37    3.78
   2   1 -21    7.52    2.27
   2  -1 -21    8.79    2.84
  -2  -1 -21    3.95    1.11
   2   1 -20   18.38    3.63
   2  -1 -20   17.63    3.51
  -2  -1 -20   25.90    4.29
  -2  -1 -19    1.97    1.49
   2  -1 -19    1.55    1.49
   2   1 -19    2.43    1.85
   2  -1 -18   28.43    4.33
   2   1 -18   29.44    4.02
  -2  -1 -18   26.23    4.21
   2   1 -17    1.82    0.74
  -2  -1 -17    1.88    1.39
   2  -1 -17    4.30    1.78
  -2  -1 -16   20.73    3.47
   2   1 -16   20.94    3.09
   2  -1 -16   18.95    3.18
  -2  -1 -15   24.48    3.54
   2  -1 -15   27.28    3.95
   2   1 -15   24.55    3.70
  -2  -1 -14   97.87    7.09
   2  -1 -14   94.36    6.92
   2   1 -14   92.37    6.49
   2   1 -13   28.20    3.34
  -2  -1 -13   30.69    3.80
   2  -1 -13   23.34    3.43
   2   1 -12  405.60   12.30
  -2  -1 -12  405.59   13.66
   2  -1 -12  395.77   13.33
   2   1 -11   18.50    2.14
   2   1 -11   19.96    2.65
   2  -1 -11   18.15    2.30
  -2  -1 -11   20.01    3.02
   2  -1 -11   18.42    2.64
   2  -1 -10   15.00    2.60
   2   1 -10   20.34    2.11
   2   1 -10   18.03    2.30
  -2  -1 -10   20.24    2.90
   2  -1 -10   22.75    2.43
   2  -1  -9   66.99    4.11
   2   1  -9   72.43    4.45
   2   1  -9   73.27    4.06
   2  -1  -9   70.55    5.03
  -2  -1  -9   68.52    4.96
   2   1  -8  112.55    4.88
   2  -1  -8  110.66    6.06
   2  -1  -8  114.90    5.37
  -2  -1  -8  117.76    6.10
   2   1  -8  115.24    5.15
   2   1  -7   65.22    3.60
   2   1  -7   65.68    3.64
  -2  -1  -7   63.67    4.29
   2  -1  -7   59.20    4.19
   2  -1  -7   63.41    3.85
   2   1  -6  582.90   10.44
   2   1  -6  590.32   10.21
   2  -1  -6  597.28   11.16
   2  -1  -6  586.26   12.66
  -2  -1  -6  613.71   12.66
   2  -1  -5   13.95    1.68
  -2  -1  -5   10.28    1.61
   2  -1  -5   17.31    2.14
   2   1  -5   13.48    1.41
   2   1  -5   15.78    1.71
  -2  -1  -4   91.75    4.35
   2   1  -4   82.07    3.04
   2  -1  -4   79.76    3.88
   2   1  -4   82.20    3.77
   2  -1  -4   84.52    4.28
   2   1  -3  789.53    7.75
   2   1  -3  760.32   11.45
   2  -1  -3  775.36   11.62
   2   1  -3  789.83    8.50
  -2  -1  -3  752.82   11.48
   2  -1  -3  769.60   12.35
   2  -1  -2   95.83    4.13
   2   1  -2   98.62    4.05
   2   1  -2  101.96    3.07
   2   1  -2   98.12    2.81
   2  -1  -2   90.34    3.89
   2   1  -1   20.12    1.82
   2  -1  -1   24.68    2.00
   2  -1  -1   20.39    1.82
   2   1  -1   20.98    1.53
   2   1   0    0.10    0.28
   2   1   0    0.69    0.32
   2  -1   0    0.79    0.44
   2  -1   0    0.59    0.41
   2   1   1   16.78    1.58
   2   1   1   21.40    1.78
   2  -1   1   20.35    1.80
   2   1   2  103.64    4.21
   2   1   2   99.72    3.90
   2  -1   2  102.45    4.00
   2   1   3  793.90   10.94
   2  -1   3  822.25   11.48
   2   1   3  784.94   12.04
   2   1   4   87.16    3.62
   2   1   4   85.71    4.21
   2  -1   4   80.33    3.70
   2   1   5   15.11    1.81
   2  -1   5   12.20    1.49
   2   1   5   17.67    1.63
   2   1   6  582.11    9.68
   2  -1   6  572.74   10.35
   2   1   6  598.00   12.08
   2   1   7   64.89    4.09
   2   1   7   70.32    3.33
   2  -1   7   65.39    3.55
   2   1   8  112.06    5.63
   2   1   8  112.54    4.38
   2  -1   8  100.85    4.66
   2   1   9   75.18    3.60
   2  -1   9   75.20    4.12
   2   1   9   70.97    4.63
   2  -1  10   20.26    2.18
   2   1  10   17.40    1.81
   2   1  10   23.33    2.75
   2   1  11   15.46    1.69
   2  -1  11   15.61    2.04
   2   1  11   15.99    2.35
   2   1  12  419.05    9.12
   2   1  12  419.01   12.41
   2  -1  12  416.03   10.71
   2   1  13   26.87    2.39
   2  -1  13   28.44    2.91
   2   1  13   24.28    3.10
  -2  -1  13   26.32    1.50
  -2  -1  14   83.75    2.90
   2   1  14   98.89    4.58
   2  -1  14   87.79    5.30
  -2   1  14   95.24    5.73
   2   1  14   93.56    6.29
   2   1  15   21.63    2.21
   2  -1  15   26.39    3.05
  -2   1  15   24.94    2.97
   2   1  15   23.53    3.33
  -2  -1  15   20.13    1.52
  -2   1  16   23.22    2.98
   2   1  16   18.46    2.02
   2  -1  16   17.11    2.52
  -2  -1  16   16.71    1.48
   2   1  16   17.78    2.99
   2  -1  17    2.58    1.40
  -2   1  17    2.16    0.87
   2   1  17    2.69    1.37
   2  -1  18   26.24    3.24
  -2   1  18   28.36    3.54
   2   1  18   34.62    4.24
   2   1  19    1.73    0.70
   2  -1  19    3.53    1.68
  -2   1  19    1.79    1.10
   2   1  20   22.71    3.63
   2   1  21    8.39    2.20
   2   1  22   14.14    3.16
   2  -2 -30    2.23    1.92
   2  -2 -29   36.62    6.22
   2  -2 -28   13.91    3.70
  -2  -2 -28   13.88    3.87
  -2  -2 -27    5.27    2.47
   2  -2 -27   12.80    3.38
  -2  -2 -26    3.15    2.14
   2  -2 -26    5.55    2.28
  -2  -2 -25   51.81    6.55
   2  -2 -25   51.53    6.69
   2   2 -25   61.30    7.79
  -2  -2 -24    0.91    1.38
   2  -2 -24    9.44    3.14
   2   2 -24    7.67    2.33
  -2  -2 -23  130.19   10.32
   2  -2 -23  119.08    9.93
   2   2 -23  113.59    9.39
   2  -2 -22    4.05    2.51
   2   2 -22    2.42    1.97
  -2  -2 -22    7.39    3.28
  -2  -2 -21   -0.15    1.05
   2  -2 -21    0.20    1.90
   2   2 -21    1.19    0.75
  -2  -2 -20   17.02    3.36
   2   2 -20   10.49    2.55
   2  -2 -20   14.67    3.49
   2  -2 -19  150.44   10.38
   2   2 -19  120.43    8.60
  -2  -2 -19  147.17   10.11
  -2  -2 -18   34.77    4.70
   2   2 -18   37.13    4.69
   2  -2 -18   31.42    4.73
   2  -2 -17  178.69   10.55
  -2  -2 -17  175.07   10.58
   2   2 -17  181.37    9.77
   2  -2 -16    4.99    2.22
   2   2 -16    4.31    1.78
  -2  -2 -16   -0.38    0.71
  -2  -2 -15   26.18    3.87
   2   2 -15   23.73    2.65
   2   2 -15   22.49    3.23
   2  -2 -15   22.84    3.40
  -2  -2 -14    6.32    2.04
   2   2 -14    6.36    1.40
   2  -2 -14    5.23    1.99
   2   2 -14    2.20    0.96
   2   2 -13  607.93   13.36
   2  -2 -13  583.21   17.10
  -2  -2 -13  566.16   17.03
   2  -2 -13  575.65   15.48
   2   2 -13  576.17   14.59
   2  -2 -12  149.32    7.61
   2   2 -12  144.38    6.89
  -2  -2 -12  135.47    7.99
   2  -2 -12  146.19    8.36
   2   2 -12  134.73    6.32
   2   2 -11    4.13    1.10
  -2  -2 -11    3.79    1.77
   2   2 -11    4.48    1.33
  -2   2 -11    2.55    0.49
   2  -2 -11    3.12    1.30
   2  -2 -11    1.09    0.73
   2  -2 -10   79.04    5.86
   2  -2 -10   91.72    5.65
  -2  -2 -10   90.47    6.17
   2   2 -10   89.33    4.83
  -2   2 -10   86.03    2.97
   2   2 -10   82.90    4.73
   2   2  -9  431.95   10.73
   2  -2  -9  459.67   12.63
  -2  -2  -9  474.90   13.53
  -2   2  -9  441.77    7.32
   2  -2  -9  439.37   13.26
   2   2  -9  440.01   10.20
  -2  -2  -8   30.35    3.20
  -2   2  -8   29.63    2.00
   2   2  -8   26.04    2.21
   2  -2  -8   32.05    3.37
   2   2  -8   27.76    2.70
   2  -2  -8   32.93    3.54
  -2  -2  -7  437.51   11.88
  -2   2  -7  456.60    8.22
   2  -2  -7  428.15   11.72
   2   2  -7  457.67    8.40
   2   2  -7  445.34   10.57
   2  -2  -7  446.68   12.41
   2   2  -6   24.01    1.75
   2   2  -6   21.81    1.31
  -2   2  -6   20.23    1.82
  -2  -2  -6   21.12    2.53
   2  -2  -6   15.81    2.27
   2  -2  -6   25.36    2.76
   2   2  -6   26.79    2.59
   2  -2  -5   56.74    4.09
   2   2  -5   57.56    2.37
   2   2  -5   57.08    2.21
   2  -2  -5   49.78    3.71
   2   2  -5   50.19    3.62
  -2  -2  -5   54.41    3.73
  -2   2  -5   53.95    3.01
  -2   2  -4  142.30    5.10
  -2  -2  -4  140.68    5.66
   2  -2  -4  138.77    6.11
   2   2  -4  139.39    4.15
   2  -2  -4  140.14    6.16
   2   2  -4  136.28    5.74
  -2  -2  -3 2079.32   20.02
   2  -2  -3 2086.68   22.86
   2   2  -3 2060.39   22.26
   2  -2  -3 2060.90   23.22
   2   2  -3 2124.55   17.49
  -2  -2  -2  290.99    6.82
   2  -2  -2  286.75    8.54
   2   2  -2  282.41    8.16
   2  -2  -2  284.75    8.09
   2   2  -2  278.37    6.76
   2   2  -1  728.62   11.55
   2   2  -1  721.20   13.22
  -2  -2  -1  752.86    9.82
   2  -2  -1  732.41   13.42
   2  -2  -1  740.83   12.60
   2   2   0  141.82    5.85
   2   2   0  119.43    4.95
   2  -2   0  109.52    5.05
   2  -2   0  134.76    5.15
   2   2   1  745.26   13.39
   2   2   1  739.48   12.82
   2  -2   1  765.12   12.01
   2  -2   1  739.51   13.11
   2  -2   2  282.36    8.00
   2   2   2  290.63    8.33
   2  -2   2  275.01    7.26
   2   2   2  280.83    8.29
   2   2   3 2076.18   23.23
   2   2   3 2097.36   22.59
   2  -2   3 2054.42   21.46
   2   2   4  149.94    6.18
   2  -2   4  136.51    5.56
   2   2   4  141.82    6.24
   2   2   5   49.02    3.77
   2   2   5   51.44    3.60
   2  -2   5   58.79    3.60
   2   2   6   20.51    2.24
   2   2   6   23.10    2.73
   2  -2   6   24.51    2.29
   2   2   7  433.89   12.00
   2  -2   7  448.12   10.05
   2   2   7  440.42   10.88
   2   2   8   25.12    2.87
   2  -2   8   29.06    2.61
   2   2   8   31.37    2.86
   2  -2   9  428.31   10.12
   2   2   9  433.29   12.69
   2  -2  10   90.57    4.71
   2   2  10   88.88    5.88
   2   2  10   94.52    5.29
   2   2  11    3.10    1.32
   2  -2  11    2.94    1.07
   2   2  11    1.97    0.64
   2  -2  12  135.45    6.09
   2   2  12  133.89    6.54
   2   2  12  126.30    7.39
   2  -2  13  577.32   13.02
   2   2  13  593.24   16.42
   2   2  13  596.02   13.76
   2   2  14    3.46    0.92
   2   2  14    2.54    1.35
   2  -2  14    3.65    1.10
   2   2  15   27.37    3.10
   2  -2  15   21.60    2.68
   2   2  15   21.88    3.35
  -2   2  16    4.08    1.44
   2  -2  16    2.67    0.98
   2   2  16    3.99    1.32
   2   2  16    3.25    1.44
   2   2  17  173.36    7.99
   2  -2  17  162.50    7.70
   2   2  17  182.95    9.97
  -2   2  17  182.29    9.80
  -2   2  18   37.36    4.49
   2   2  18   31.12    4.35
   2   2  18   35.31    3.70
  -2   2  19  139.31    8.81
   2   2  19  129.51    8.83
   2   2  20   14.85    3.16
  -2   2  20   10.11    2.58
   2   2  21    0.65    1.43
  -2   2  21   -0.24    0.75
   2   2  22    2.61    1.71
   2   2  23  128.57    9.89
  -2  -3 -30   -2.81    2.22
   2  -3 -30    1.79    2.71
   2  -3 -29    0.21    1.32
  -2  -3 -29    8.31    2.46
  -2  -3 -28   -1.94    2.04
   2  -3 -28   -0.31    1.19
   2  -3 -27   -0.14    1.38
  -2  -3 -27   -1.53    1.33
   2  -3 -26    5.12    2.88
  -2  -3 -26    3.50    2.48
   2  -3 -25    1.66    1.41
  -2  -3 -25    5.50    2.48
  -2  -3 -24    1.59    1.93
   2  -3 -24    2.36    1.72
   2  -3 -23    3.03    2.46
  -2  -3 -23    2.27    1.18
  -2  -3 -22    1.10    1.42
   2  -3 -22    0.10    1.80
  -2  -3 -21    5.14    1.83
   2  -3 -21    7.30    2.50
  -2  -3 -20    1.50    1.66
   2  -3 -20    3.65    1.65
   2  -3 -19    1.49    1.13
   2   3 -19    0.74    0.73
  -2  -3 -19    2.26    1.02
   2   3 -18    3.96    1.61
   2  -3 -18    3.33    2.07
  -2  -3 -18    3.20    1.56
   2   3 -17    0.51    0.68
  -2  -3 -17   -0.40    1.53
   2  -3 -17    0.45    1.52
   2   3 -16    6.41    1.97
   2  -3 -16    6.54    1.96
  -2  -3 -16    2.80    1.42
   2  -3 -15    5.02    2.02
   2   3 -15    3.07    0.97
  -2  -3 -15    5.73    1.81
   2   3 -15    5.69    1.62
  -2  -3 -14    9.71    2.17
   2  -3 -14    7.72    1.89
   2   3 -14   12.88    2.28
   2   3 -14    8.93    1.71
   2  -3 -14    9.00    2.29
   2  -3 -13    3.83    1.44
   2  -3 -13    4.94    1.21
  -2   3 -13    4.46    1.15
  -2  -3 -13    1.89    0.78
   2   3 -13    3.28    1.29
   2   3 -13    1.41    0.79
   2  -3 -12   38.24    4.33
  -2  -3 -12   39.38    4.59
  -2   3 -12   35.63    2.68
   2  -3 -12   28.92    3.90
   2   3 -12   31.36    3.07
   2   3 -12   34.91    3.53
   2  -3 -11   40.73    4.24
   2   3 -11   35.88    3.08
  -2   3 -11   44.40    3.06
   2  -3 -11   42.82    4.50
   2   3 -11   36.24    3.49
  -2  -3 -11   45.45    4.52
  -2  -3 -10   33.26    3.93
   2   3 -10   33.15    3.43
   2   3 -10   31.39    2.59
   2  -3 -10   28.45    3.62
  -2   3 -10   31.01    2.62
   2  -3 -10   34.20    3.87
  -2  -3  -9   41.87    4.24
   2   3  -9   41.24    2.76
  -2   3  -9   43.45    3.28
   2  -3  -9   43.74    4.50
   2   3  -9   41.75    2.02
   2  -3  -9   38.36    4.15
   2   3  -9   40.71    3.80
  -2  -3  -8    3.66    1.40
  -2   3  -8    1.99    0.85
   2   3  -8    2.34    0.59
   2  -3  -8    3.22    1.37
   2   3  -8    2.97    1.04
   2  -3  -8    2.44    0.95
  -2   3  -7   29.29    2.73
   2   3  -7   28.40    3.15
   2  -3  -7   21.16    2.94
  -2  -3  -7   26.21    2.95
   2   3  -7   25.47    1.97
   2  -3  -7   20.88    2.91
  -2   3  -6    1.83    0.73
   2  -3  -6    1.08    0.51
   2   3  -6    2.52    0.79
   2  -3  -6    2.15    1.18
  -2  -3  -6    2.06    0.75
  -2  -3  -5  156.14    6.78
   2  -3  -5  142.06    6.96
   2   3  -5  144.15    6.90
  -2   3  -5  149.71    6.50
   2  -3  -5  152.05    7.56
   2  -3  -4   13.47    2.21
   2   3  -4   14.86    2.11
  -2  -3  -4   15.20    2.07
   2  -3  -4   13.83    2.17
  -2   3  -4   13.17    1.97
   2  -3  -3   11.41    1.85
  -2   3  -3   11.77    1.86
   2  -3  -3   11.36    1.93
   2   3  -3    8.96    1.82
  -2  -3  -3   10.02    1.47
   2   3  -2   64.78    4.66
  -2  -3  -2   68.30    3.64
   2  -3  -2   66.26    4.33
   2  -3  -2   64.78    4.66
  -2   3  -2   63.41    4.42
   2  -3  -1 1035.56   16.44
   2   3  -1 1033.86   18.36
  -2   3  -1 1021.90   17.49
  -2  -3  -1 1017.84   12.74
   2  -3  -1  986.95   18.09
   2   3   0  115.62    6.09
   2  -3   0  110.77    5.97
   2  -3   0  108.85    5.21
  -2  -3   0  117.48    3.75
   2   3   1 1033.00   18.71
   2  -3   1 1007.70   15.41
   2  -3   1 1021.80   17.89
   2   3   2   60.75    4.60
   2  -3   2   66.07    3.85
   2  -3   2   64.39    4.47
   2  -3   3   12.14    1.66
   2  -3   3   11.43    1.84
   2   3   3   10.40    2.01
   2   3   3   14.21    2.26
   2   3   4   12.63    2.11
   2  -3   4   16.22    2.26
   2  -3   4   15.49    1.88
   2   3   4   14.84    2.14
   2   3   5  149.02    7.50
   2   3   5  156.15    7.34
   2  -3   5  161.45    6.88
   2   3   6    0.95    0.69
   2  -3   6    1.32    0.41
   2   3   6    2.18    0.85
   2   3   7   29.57    3.54
   2   3   7   20.88    2.74
   2  -3   7   27.15    2.80
   2  -3   8    1.76    0.76
   2   3   8    3.76    1.30
   2   3   8    1.64    1.22
   2  -3   9   42.85    3.60
   2   3   9   47.55    4.73
   2   3   9   47.01    4.24
   2  -3  10   37.54    3.35
   2   3  10   32.96    3.90
   2   3  10   33.91    3.65
   2  -3  11   37.94    3.39
   2   3  11   28.52    3.37
   2   3  11   34.24    4.18
   2   3  12   35.72    3.82
   2   3  12   36.47    4.33
   2  -3  12   33.35    3.23
   2   3  13    3.30    1.32
   2  -3  13    2.70    0.64
   2   3  13    2.25    1.12
   2   3  14    8.54    1.94
   2   3  14    8.14    2.15
   2  -3  14    5.63    1.39
   2   3  15    2.84    1.42
   2   3  15    3.87    1.57
   2  -3  15    4.15    1.14
   2  -3  16    3.95    1.26
   2   3  16    3.84    1.69
   2   3  16    3.29    1.29
   2   3  17    1.12    0.95
   2   3  17    3.13    1.57
  -2   3  17    1.70    1.10
   2   3  18    4.04    1.79
   2   3  18    4.66    1.97
  -2   3  18    1.79    0.59
   2   3  19    1.48    1.59
  -2   3  19    1.30    1.72
  -2   3  19    1.04    1.04
  -2   3  20    0.74    1.38
   2   3  20    3.14    1.49
  -2   3  20    4.42    2.19
  -2   3  21    9.79    2.65
   2   3  21   10.03    2.99
   2   3  22    0.19    1.27
  -2   3  22    2.13    1.17
   2   3  23    1.85    2.25
   2   3  24    2.10    2.26
  -2  -4 -29   23.08    4.87
   2  -4 -29   33.36    5.57
   2  -4 -28    5.38    3.18
  -2  -4 -28    2.97    2.02
  -2  -4 -27    1.17    1.23
   2  -4 -27    0.31    0.90
  -2  -4 -26    2.05    1.71
   2  -4 -26   -0.20    1.50
  -2  -4 -25   46.20    6.83
   2  -4 -25   52.23    6.76
  -2  -4 -24    6.49    2.87
   2  -4 -24    3.42    2.51
   2  -4 -23   38.39    5.68
  -2  -4 -23   36.15    5.75
   2  -4 -22    1.07    1.94
  -2  -4 -22    1.06    2.41
   2  -4 -21    0.11    1.64
  -2  -4 -21   -1.18    1.59
   2  -4 -20    5.36    1.48
  -2  -4 -20    9.46    3.10
  -2  -4 -19  129.94   10.01
   2  -4 -19  127.33    9.98
  -2  -4 -18   36.63    5.28
   2  -4 -18   33.70    5.12
  -2  -4 -17  135.28    9.63
   2  -4 -17  143.48   10.06
  -2  -4 -16    3.80    1.65
   2  -4 -16    1.74    1.75
   2   4 -15   32.21    3.72
  -2  -4 -15   35.36    4.60
   2  -4 -15   36.94    4.76
   2  -4 -15   35.48    4.71
  -2  -4 -14   65.19    6.35
   2  -4 -14   58.66    5.88
   2  -4 -14   62.00    6.04
   2   4 -14   50.38    4.80
  -2  -4 -13  352.81   14.16
   2  -4 -13  358.93   14.56
   2   4 -13  342.82   12.34
   2  -4 -13  372.37   14.49
  -2  -4 -12  105.29    7.63
   2  -4 -12  107.79    7.85
   2  -4 -12  112.90    8.04
  -2   4 -12  117.77    6.23
   2   4 -12  119.79    7.27
  -2  -4 -11   54.10    5.47
  -2   4 -11   54.79    4.28
   2  -4 -11   55.10    5.59
   2  -4 -11   62.33    5.86
   2   4 -10    1.83    0.65
  -2  -4 -10    1.21    1.29
   2  -4 -10    4.16    1.41
   2   4 -10    2.19    1.28
   2  -4 -10    3.85    1.43
  -2   4 -10    3.52    1.39
   2   4  -9  371.10   12.55
   2  -4  -9  405.55   14.27
  -2  -4  -9  370.43   13.08
   2  -4  -9  350.26   13.42
  -2   4  -9  376.25   11.62
   2  -4  -8   56.38    5.20
  -2   4  -8   57.65    4.58
   2   4  -8   51.80    4.64
  -2  -4  -8   52.52    4.89
   2  -4  -8   57.43    5.43
   2  -4  -7  107.62    7.42
  -2  -4  -7  115.54    6.83
  -2   4  -7  106.83    6.29
   2   4  -7  112.05    6.82
   2  -4  -7  108.82    6.91
   2   4  -6   49.04    4.44
   2  -4  -6   50.81    4.60
  -2   4  -6   55.24    4.54
   2  -4  -6   46.94    4.70
  -2  -4  -6   54.18    4.53
   2  -4  -5   35.01    4.01
   2   4  -5   31.88    3.65
  -2  -4  -5   33.08    3.42
  -2   4  -5   25.95    3.08
   2  -4  -5   36.85    3.82
   2  -4  -4  130.50    7.03
   2  -4  -4  128.47    7.59
  -2  -4  -4  118.94    6.04
   2   4  -4  118.77    7.00
  -2   4  -4  115.79    6.63
   2  -4  -3  317.03   11.88
   2   4  -3  312.06   11.42
   2  -4  -3  311.53   10.43
  -2  -4  -3  294.67    9.16
  -2   4  -3  304.55   10.97
   2   4  -2   42.26    4.25
  -2  -4  -2   43.37    3.25
   2  -4  -2   43.53    3.79
  -2   4  -2   33.44    3.74
   2  -4  -2   40.47    4.13
   2  -4  -1 1510.21   24.93
  -2  -4  -1 1521.42   17.19
   2  -4  -1 1558.79   22.03
  -2   4  -1 1541.34   24.86
   2   4  -1 1487.71   25.24
   2   4   0  159.37    8.21
  -2   4   0  163.11    8.22
   2  -4   0  151.60    7.80
   2  -4   0  154.82    6.69
  -2  -4   0  164.76    5.17
  -2  -4   1 1522.39   13.54
   2  -4   1 1511.03   20.60
   2  -4   1 1444.21   24.12
  -2   4   1 1557.03   25.50
   2   4   1 1481.06   25.17
   2  -4   2   42.15    3.43
   2  -4   2   40.99    3.98
   2   4   2   43.22    4.39
  -2   4   2   37.10    4.14
   2  -4   3  328.53    9.49
   2   4   3  336.89   12.03
  -2  -4   3  338.63   10.29
   2  -4   3  310.41   10.92
   2   4   4  119.10    7.26
  -2  -4   4  128.15    6.22
   2  -4   4  114.26    5.58
   2  -4   4  102.46    6.21
  -2   4   4  116.59    7.16
   2   4   5   38.87    4.25
   2  -4   5   28.64    2.81
  -2   4   5   29.83    3.75
   2  -4   5   28.17    3.27
   2  -4   6   55.01    3.94
  -2   4   6   53.29    4.89
   2   4   6   51.72    4.86
   2  -4   6   58.46    4.62
   2   4   6   61.69    5.38
   2   4   7   97.91    6.71
   2   4   7  101.36    7.14
  -2   4   7  111.50    7.24
   2  -4   7  104.46    6.21
  -2   4   8   56.89    5.28
   2  -4   8   52.27    4.42
   2   4   8   57.86    5.28
   2   4   8   68.97    6.01
  -2   4   9  395.27   14.08
   2   4   9  391.40   13.84
   2  -4   9  398.21   11.93
   2   4   9  384.51   14.40
   2   4  10    3.95    1.46
   2  -4  10    4.90    1.50
   2   4  10    2.47    1.04
  -2   4  10    2.97    1.26
  -2   4  11   47.74    5.07
   2   4  11   62.82    5.50
   2   4  11   55.13    5.60
   2  -4  11   55.30    4.43
   2   4  12  110.12    7.52
   2  -4  12  119.97    6.64
   2   4  12   96.98    7.62
  -2   4  12  105.38    7.73
   2   4  13  354.51   14.59
  -2   4  13  352.05   14.20
   2  -4  13  379.64   11.72
   2   4  13  361.79   13.94
  -2   4  14   50.59    5.48
   2  -4  14   49.25    4.17
   2   4  14   46.91    5.04
   2   4  14   57.72    6.00
  -2   4  15   27.50    4.12
   2   4  15   33.83    4.37
   2  -4  15   24.71    3.13
   2   4  15   27.23    4.16
  -2   4  16    3.72    2.02
   2   4  16    1.62    0.91
   2   4  16    2.24    1.23
  -2   4  17  135.04    9.43
   2   4  17  136.76    9.72
   2   4  17  140.53    9.15
   2   4  18   40.31    5.03
   2   4  18   45.51    5.73
  -2   4  18   37.72    5.14
  -2   4  18   32.12    4.93
   2   4  19  117.03    9.30
   2   4  19  114.36    8.62
  -2   4  19  113.69    9.30
  -2   4  20    3.71    0.91
   2   4  20    2.19    1.68
  -2   4  20    4.93    2.17
  -2   4  21    2.39    1.89
   2   4  21    0.62    1.11
  -2   4  21   -0.37    0.88
  -2   4  22    1.91    1.97
   2   4  22    2.98    2.38
  -2   4  23   26.93    4.80
   2   4  23   27.39    4.76
   2   4  24    4.43    2.28
   2   4  25   39.62    6.15
  -2  -5 -28    0.83    2.37
   2  -5 -28    2.55    2.26
   2  -5 -27    2.46    1.85
  -2  -5 -27    2.37    1.76
   2  -5 -26    4.47    2.78
  -2  -5 -26    1.10    1.78
   2  -5 -25   10.05    2.81
  -2  -5 -25    9.13    3.13
  -2  -5 -24    1.19    1.17
   2  -5 -24    4.10    2.79
  -2  -5 -23    1.41    1.08
   2  -5 -23   -1.80    1.48
   2  -5 -22    9.54    3.40
  -2  -5 -22    8.50    2.71
  -2  -5 -21    1.43    1.01
   2  -5 -21   -0.13    0.92
  -2  -5 -20    1.60    1.42
   2  -5 -20    1.14    1.28
  -2  -5 -19    7.11    2.52
   2  -5 -19    7.13    2.89
   2  -5 -18   -1.60    1.72
  -2  -5 -18   -0.66    1.80
  -2  -5 -17    3.61    1.99
   2  -5 -17    6.99    2.66
  -2  -5 -16    7.51    2.41
   2  -5 -16    3.03    1.29
  -2  -5 -15    0.58    1.33
   2  -5 -15    1.95    1.79
   2  -5 -15    1.83    0.77
  -2  -5 -14    0.72    1.35
   2  -5 -14    5.43    2.34
   2   5 -14    5.78    2.20
   2  -5 -14    5.85    1.80
   2   5 -13   56.81    5.64
   2  -5 -13   52.71    5.96
   2  -5 -13   58.36    6.00
  -2  -5 -13   54.99    5.88
   2  -5 -12   18.85    3.62
   2  -5 -12   28.22    4.54
  -2  -5 -12   25.42    3.98
   2   5 -12   30.79    3.97
  -2   5 -12   16.54    2.89
   2  -5 -11    2.43    1.33
  -2   5 -11    3.62    1.61
  -2  -5 -11    3.90    1.81
   2   5 -11    1.81    1.07
   2  -5 -11    0.24    0.88
   2   5 -10   18.77    2.94
   2  -5 -10   21.05    3.50
   2  -5 -10   17.45    3.01
  -2  -5 -10   12.60    2.84
  -2   5 -10   14.25    2.67
   2  -5  -9   21.45    3.60
   2   5  -9   16.97    3.09
   2  -5  -9   16.13    3.24
  -2  -5  -9    9.11    2.79
  -2   5  -9   12.76    2.56
  -2   5  -8    3.27    1.29
   2  -5  -8    3.25    1.18
  -2  -5  -8    3.02    1.65
   2   5  -8    4.62    1.61
   2  -5  -8    6.40    1.96
   2  -5  -7   -0.62    1.47
  -2  -5  -7    1.15    0.98
   2   5  -7    0.64    1.19
  -2   5  -7   -0.16    0.50
   2  -5  -7   -0.15    0.49
   2  -5  -6    3.70    1.74
   2   5  -6    6.68    1.65
   2  -5  -6    9.24    2.09
  -2   5  -6    7.09    1.95
  -2  -5  -6    3.57    0.88
  -2   5  -5   25.35    3.50
   2  -5  -5   18.49    3.16
   2   5  -5   16.91    2.93
  -2  -5  -5   23.28    3.19
   2  -5  -5   15.60    2.65
  -2   5  -4   80.68    6.16
   2  -5  -4   68.70    6.00
   2   5  -4   74.29    6.19
   2  -5  -4   66.80    5.38
   2  -5  -3   73.54    5.44
  -2   5  -3   74.21    6.00
  -2  -5  -3   70.09    4.68
   2   5  -3   69.02    6.06
  -2   5  -2    6.62    1.93
   2  -5  -2    4.00    1.75
   2  -5  -2    6.17    1.56
   2   5  -2    8.03    2.01
  -2  -5  -2    5.32    1.39
  -2   5  -1  276.09   11.66
   2  -5  -1  284.31   10.25
   2  -5  -1  307.64   12.42
  -2  -5  -1  289.91    8.32
   2   5  -1  274.12   11.77
   2  -5   0   38.64    4.33
   2  -5   0   34.98    3.48
   2   5   0   35.10    4.28
  -2  -5   0   33.78    2.69
  -2   5   0   33.26    4.19
   2  -5   1  291.57   11.96
  -2   5   1  306.55   12.53
  -2  -5   1  301.78   11.36
   2   5   1  272.06   11.88
  -2  -5   1  290.53    6.83
   2  -5   1  282.69    9.74
  -2  -5   2    5.15    1.68
  -2  -5   2    4.87    0.78
   2  -5   2    3.49    1.46
   2  -5   2    3.93    1.21
   2   5   2    6.41    1.99
  -2   5   2    5.65    1.73
   2   5   3   68.76    5.99
   2  -5   3   60.76    5.38
  -2  -5   3   64.92    5.18
  -2   5   3   72.52    6.25
   2  -5   3   75.76    4.91
   2  -5   4   64.30    5.38
   2   5   4   82.89    6.63
  -2  -5   4   63.02    4.97
   2  -5   4   65.76    4.47
  -2   5   4   70.12    6.18
  -2  -5   5   22.93    3.02
   2  -5   5   15.71    2.27
   2  -5   5   19.58    3.01
   2   5   5   15.72    3.14
  -2   5   5   22.59    3.81
  -2   5   6    8.07    2.51
  -2  -5   6    4.61    1.26
   2   5   6    8.75    2.62
   2  -5   6    4.87    1.23
   2  -5   6    5.77    1.44
   2   5   7    0.54    0.89
   2  -5   7   -0.05    0.57
  -2   5   7    1.48    1.58
   2  -5   7   -0.01    0.39
   2  -5   8    7.61    1.85
   2   5   8    5.21    1.90
  -2   5   8    2.96    0.69
   2   5   8    9.03    2.19
   2  -5   8    3.44    1.40
   2   5   9   13.68    2.60
   2  -5   9    8.67    2.01
   2   5   9   13.39    2.88
   2  -5   9   14.16    2.16
  -2   5   9   11.58    3.04
  -2   5  10   13.62    3.63
   2   5  10   19.51    3.54
   2  -5  10   16.66    2.68
   2   5  10   19.35    3.46
   2   5  11    1.38    0.66
   2  -5  11    0.45    0.81
  -2   5  11    2.27    1.54
   2   5  11    0.82    0.96
   2  -5  12   26.77    3.39
   2   5  12   21.35    3.86
  -2   5  12   22.13    4.01
   2   5  12   16.98    3.37
   2   5  13   54.02    5.87
   2   5  13   56.87    5.96
   2  -5  13   52.47    4.71
  -2   5  13   63.73    6.34
   2  -5  14    5.40    1.89
   2   5  14    7.27    2.38
  -2   5  14    3.92    1.41
   2   5  14    5.48    1.84
  -2   5  15    2.61    1.77
   2   5  15    3.50    1.79
   2   5  15    3.30    2.35
   2   5  16    8.58    2.46
  -2   5  16    8.21    2.54
   2   5  16   11.19    2.93
  -2   5  17    0.33    0.88
   2   5  17    2.14    1.74
   2   5  18   -0.41    1.66
  -2   5  18    0.22    1.45
   2   5  18   -1.08    1.91
   2   5  19   12.33    3.16
  -2   5  19    3.92    2.51
  -2   5  19    4.96    2.25
   2   5  19    7.07    2.62
  -2   5  20    1.15    1.41
   2   5  20   -1.79    2.03
   2   5  20    0.61    1.22
  -2   5  20    0.50    1.14
  -2   5  21    0.88    1.75
   2   5  21    1.19    0.99
  -2   5  21   -1.51    1.47
   2   5  22    9.79    3.31
  -2   5  22    8.29    2.94
   2   5  23    3.80    2.05
  -2   5  23    5.59    2.68
   2   5  24    3.70    2.77
  -2   5  24    0.31    1.54
   2   5  25    5.43    2.43
   2   5  26   -0.69    1.36
   2  -6 -26    2.47    1.95
  -2  -6 -26    1.28    1.71
   2  -6 -25   18.08    4.53
  -2  -6 -25   21.44    4.79
  -2  -6 -24   11.52    3.36
   2  -6 -24    9.53    3.04
  -2  -6 -23    9.67    2.81
   2  -6 -23   11.23    3.28
  -2  -6 -22   14.61    4.01
   2  -6 -22   11.30    3.32
  -2  -6 -21   10.68    3.12
   2  -6 -21   11.77    3.97
  -2  -6 -20    2.25    1.59
   2  -6 -20    9.61    3.16
   2  -6 -19   69.37    7.91
  -2  -6 -19  100.18    8.98
   2  -6 -18    7.34    2.53
  -2  -6 -18    4.28    2.92
   2  -6 -17   47.72    6.37
  -2  -6 -17   50.39    6.02
   2  -6 -16    0.31    1.31
  -2  -6 -16    3.02    1.74
   2  -6 -15   77.75    7.60
  -2  -6 -15   72.13    7.20
   2  -6 -15   70.91    7.32
   2  -6 -14   31.45    5.03
   2  -6 -14   34.30    5.28
   2   6 -14   22.92    3.89
  -2  -6 -14   23.54    4.25
  -2  -6 -13  371.78   15.81
   2   6 -13  354.36   15.01
   2  -6 -13  371.61   16.15
   2  -6 -13  387.40   16.63
  -2  -6 -12    6.44    2.30
   2  -6 -12    3.73    2.12
   2   6 -12    7.41    2.52
  -2   6 -12    3.41    1.84
   2  -6 -12    5.65    2.19
   2   6 -11   51.05    5.67
  -2   6 -11   45.73    5.32
   2  -6 -11   53.01    6.11
   2  -6 -11   66.13    6.92
  -2  -6 -11   65.23    6.60
  -2   6 -10   23.39    3.73
   2  -6 -10   28.30    4.06
  -2  -6 -10   26.88    4.05
   2   6 -10   16.16    3.26
   2  -6 -10   26.75    4.27
   2  -6  -9  314.36   14.06
  -2   6  -9  289.63   13.04
   2  -6  -9  300.50   14.02
  -2  -6  -9  285.58   12.76
  -2   6  -8  166.22    9.92
   2   6  -8  143.76    9.48
   2  -6  -8  170.81   10.45
   2  -6  -8  157.40    9.58
  -2  -6  -8  170.90    9.82
  -2   6  -7  271.23   12.58
   2  -6  -7  254.93   12.10
   2  -6  -7  277.09   13.38
   2   6  -7  237.27   12.03
   2  -6  -6    8.91    2.36
  -2   6  -6    6.03    2.25
   2   6  -6    3.58    1.62
   2  -6  -6    8.27    2.67
  -2  -6  -6    8.79    2.06
   2  -6  -5   36.14    5.05
   2   6  -5   42.81    5.13
  -2   6  -5   34.48    4.64
  -2  -6  -5   31.28    3.79
   2  -6  -5   43.83    4.87
  -2   6  -4  302.66   13.47
   2   6  -4  332.18   14.20
   2  -6  -4  304.74   12.33
   2  -6  -4  303.61   13.87
   2   6  -3  244.43   12.07
  -2  -6  -3  225.30    9.16
   2  -6  -3  241.57   12.30
   2  -6  -3  229.25   10.45
  -2   6  -3  211.45   11.20
   2  -6  -2  148.76    9.60
  -2   6  -2  120.68    8.50
   2   6  -2  127.91    8.92
   2  -6  -2  137.07    7.91
  -2  -6  -2  142.98    6.86
  -2  -6  -1  260.75    8.67
   2  -6  -1  232.75   11.71
   2   6  -1  259.56   12.49
  -2   6  -1  224.23   11.39
   2  -6  -1  264.90   10.70
  -2   6   0   20.68    3.55
   2  -6   0   18.18    2.70
   2   6   0   21.91    3.81
   2  -6   0   22.24    3.73
  -2  -6   0   22.58    2.40
  -2   6   1  258.26   12.48
   2   6   1  249.66   12.33
   2  -6   1  280.80   12.72
  -2  -6   1  243.01    7.04
   2  -6   1  254.55   10.02
  -2   6   2  147.34    9.40
  -2  -6   2  124.07    4.27
   2  -6   2  145.16    7.43
   2   6   2  130.77    8.89
   2  -6   2  153.55    9.38
  -2  -6   3  214.23   10.42
   2   6   3  242.13   12.18
   2  -6   3  215.86   10.97
  -2   6   3  227.18   11.85
   2  -6   3  218.22    8.99
  -2  -6   4  337.22   12.78
   2  -6   4  342.15   13.83
  -2   6   4  310.25   13.90
   2  -6   4  313.31   10.62
   2   6   4  325.51   14.30
  -2   6   5   40.46    4.99
   2   6   5   32.71    4.62
   2  -6   5   36.41    3.66
   2  -6   5   40.99    4.76
  -2   6   6    4.26    2.31
   2   6   6    7.65    2.18
   2  -6   6    5.02    1.60
   2  -6   6    4.28    1.68
  -2   6   7  298.68   13.92
   2  -6   7  278.61   12.27
   2  -6   7  256.31    9.49
   2   6   7  258.01   12.96
   2  -6   8  175.11    9.62
  -2   6   8  174.66   10.59
   2   6   8  177.25   10.83
   2   6   8  155.12   10.16
   2  -6   8  169.55    7.95
  -2   6   9  287.00   14.02
   2   6   9  298.45   14.24
   2  -6   9  284.97   12.47
   2  -6   9  253.39   10.00
   2   6   9  326.07   14.79
  -2   6  10   22.04    4.15
   2  -6  10   23.54    3.67
   2   6  10   23.91    4.05
   2   6  10   29.81    4.49
   2   6  11   64.16    6.90
   2   6  11   72.33    7.23
  -2   6  11   65.00    6.82
   2  -6  11   63.59    5.87
   2  -6  12    8.41    2.16
   2   6  12    5.78    2.43
  -2   6  12    5.38    2.44
   2   6  12    5.86    2.25
  -2   6  13  364.90   16.57
   2   6  13  372.21   16.26
   2   6  13  366.23   16.65
   2   6  14   37.48    5.38
  -2   6  14   25.58    4.35
   2   6  14   28.39    4.75
   2   6  15   65.26    7.12
  -2   6  15   74.05    7.49
   2   6  15   64.48    7.15
   2   6  16    8.78    2.70
  -2   6  16    4.18    2.11
   2   6  16    7.35    2.83
  -2   6  17   53.59    7.03
   2   6  17   60.79    7.07
   2   6  17   41.69    5.98
  -2   6  18    4.20    2.48
   2   6  18    1.82    1.98
   2   6  18    6.29    2.46
  -2   6  19   86.25    8.63
   2   6  19   85.92    8.30
   2   6  19   96.43    9.01
  -2   6  19   90.99    9.03
  -2   6  20   13.53    3.29
   2   6  20    8.77    3.39
   2   6  20    5.78    2.11
  -2   6  20   11.14    3.84
  -2   6  21    5.02    2.87
   2   6  21    8.34    2.95
  -2   6  21    3.31    1.37
  -2   6  22    5.02    2.28
  -2   6  22   18.38    4.91
   2   6  22   12.43    3.71
  -2   6  23    7.75    2.85
   2   6  23   11.76    3.40
  -2   6  24   10.37    3.32
   2   6  24    2.88    2.31
  -2   6  25   15.87    4.41
   2   6  25   12.56    3.32
   2   6  26    0.68    2.58
  -2  -7 -24    0.87    1.78
   2  -7 -24   -0.25    1.42
  -2  -7 -23    4.17    2.56
   2  -7 -23    0.54    1.47
  -2  -7 -22    1.22    2.75
   2  -7 -22   -2.63    2.40
   2  -7 -21    6.82    3.33
  -2  -7 -21    0.99    1.58
   2  -7 -20   26.80    5.18
  -2  -7 -20   25.78    4.98
   2  -7 -19    2.68    1.55
  -2  -7 -19    1.78    1.54
   2  -7 -18   10.63    3.48
  -2  -7 -18   12.57    2.97
  -2  -7 -17    4.22    2.69
   2  -7 -17    7.67    2.90
  -2  -7 -16    5.46    2.31
   2  -7 -16    9.15    2.84
   2  -7 -15    4.38    2.13
  -2  -7 -15   -1.09    2.08
   2  -7 -14   38.41    5.80
   2  -7 -14   47.23    6.07
  -2  -7 -14   45.37    6.18
   2  -7 -13    7.65    2.91
   2   7 -13    5.28    2.50
   2  -7 -13    8.45    3.04
  -2  -7 -13    3.02    1.85
   2  -7 -12   49.94    6.34
  -2  -7 -12   50.99    6.29
   2  -7 -12   58.15    6.81
   2   7 -12   54.30    6.04
  -2   7 -11   37.38    5.05
   2  -7 -11   37.92    5.35
   2   7 -11   45.69    5.89
  -2  -7 -11   39.38    5.34
   2  -7 -11   42.15    5.65
   2   7 -10   27.24    4.16
   2  -7 -10   27.46    4.78
  -2   7 -10   28.32    4.59
  -2  -7 -10   35.36    5.08
   2  -7 -10   28.88    4.54
   2  -7  -9   40.46    5.64
   2   7  -9   34.00    4.90
  -2   7  -9   33.51    4.96
  -2  -7  -9   41.19    5.27
   2  -7  -9   35.44    4.86
   2  -7  -8   78.92    7.15
   2   7  -8   89.90    7.92
  -2   7  -8   87.64    7.84
  -2  -7  -8   86.34    7.18
   2  -7  -8   88.71    8.00
   2  -7  -7    2.15    1.27
  -2   7  -7    3.07    2.13
  -2  -7  -7    0.94    1.29
   2  -7  -7    1.42    0.64
   2   7  -7    1.80    2.02
   2  -7  -6  116.20    8.39
  -2  -7  -6  103.95    7.48
  -2   7  -6  108.02    8.67
   2   7  -6  110.07    8.57
   2  -7  -6  102.71    8.63
  -2   7  -5   79.23    7.45
  -2  -7  -5   96.87    7.05
   2  -7  -5  103.56    8.53
   2   7  -5   97.83    8.31
   2  -7  -5   93.00    7.45
  -2  -7  -4    8.61    2.14
  -2   7  -4    5.52    1.82
   2  -7  -4    5.81    2.20
   2   7  -4    8.20    2.39
   2  -7  -4    5.91    2.04
   2  -7  -3  225.46   11.09
  -2   7  -3  204.04   11.79
   2  -7  -3  198.98   11.69
  -2  -7  -3  197.88    9.22
   2   7  -3  214.01   12.15
   2  -7  -2   10.53    2.19
   2  -7  -2   14.58    3.21
   2   7  -2   11.32    3.00
  -2  -7  -2    9.26    2.05
  -2   7  -2   13.80    3.16
   2   7  -1   23.49    4.15
   2  -7  -1   18.02    3.29
  -2   7  -1   19.19    3.93
   2  -7  -1   18.82    3.06
   2  -7   0    2.79    1.81
   2  -7   0    2.57    1.01
  -2   7   0    1.93    1.03
   2   7   0    4.50    2.02
  -2   7   1   21.04    4.00
   2   7   1   20.61    3.89
   2  -7   1   19.68    3.60
   2  -7   1   16.63    2.78
  -2   7   2   10.16    3.03
   2   7   2   13.73    3.24
   2  -7   2   15.41    3.16
   2  -7   2   12.32    2.48
  -2   7   3  207.46   12.07
   2   7   3  227.40   12.56
   2  -7   3  193.34    8.90
   2  -7   3  223.42   12.14
   2  -7   4    5.97    2.08
  -2   7   4    6.90    2.03
   2  -7   5   84.41    7.46
   2   7   5   97.01    8.25
  -2   7   5   80.52    7.72
  -2   7   6  106.67    8.68
   2  -7   6  104.61    8.28
   2   7   6  112.60    8.95
   2  -7   7    2.94    1.84
   2   7   7    1.45    1.76
  -2   7   7    2.23    1.37
   2   7   8   93.10    8.40
   2   7   8   84.25    7.87
  -2   7   8   82.74    7.96
   2  -7   8   85.60    7.58
   2   7   9   34.53    5.37
   2  -7   9   35.49    4.58
   2   7   9   38.14    5.40
  -2   7   9   40.78    5.61
   2   7  10   28.22    4.63
  -2   7  10   43.87    6.05
   2  -7  10   39.32    5.09
   2   7  10   28.27    4.87
   2   7  11   37.02    5.39
   2   7  11   41.97    5.62
   2  -7  11   42.65    5.39
  -2   7  11   42.64    6.19
   2   7  12   48.07    6.33
   2   7  12   53.21    6.84
  -2   7  12   41.70    5.81
   2   7  13    7.19    2.96
  -2   7  13    5.18    2.48
   2   7  13    9.66    3.41
   2   7  14   43.27    5.55
   2   7  14   45.48    6.08
  -2   7  14   47.28    6.32
   2   7  15   -0.67    0.89
  -2   7  15    1.75    1.94
   2   7  15    0.40    1.63
   2   7  16    3.49    1.95
  -2   7  16    2.06    1.77
  -2   7  17    5.11    2.59
   2   7  17    5.93    2.64
   2   7  17    5.28    2.60
   2   7  18    8.59    3.46
  -2   7  18   13.88    3.97
   2   7  18   12.35    3.71
   2   7  19    8.19    3.12
   2   7  19    2.84    2.48
  -2   7  19    1.19    1.74
  -2   7  19    3.85    2.51
  -2   7  20   25.58    5.67
  -2   7  20   14.32    4.09
   2   7  20   18.54    4.14
   2   7  20   18.77    4.27
   2   7  21    2.44    0.92
  -2   7  21    2.11    1.91
  -2   7  21    0.88    1.56
  -2   7  22   -1.05    2.00
   2   7  22    0.04    1.44
  -2   7  22    0.39    1.15
   2   7  23   -1.02    1.25
  -2   7  23    1.22    2.06
  -2   7  24    0.21    1.70
   2   7  24    0.72    1.54
  -2  -8 -22    9.94    3.42
   2  -8 -22    5.67    2.31
   2  -8 -21    1.25    1.46
  -2  -8 -21    0.09    2.26
   2  -8 -20    3.37    2.50
  -2  -8 -20    2.48    1.74
  -2  -8 -19    9.55    3.35
   2  -8 -19    5.20    1.75
  -2  -8 -18   -0.26    1.04
   2  -8 -18    2.53    1.25
   2  -8 -17    6.89    3.14
  -2  -8 -17   18.11    4.17
  -2  -8 -16   13.26    3.40
   2  -8 -16   10.67    2.78
  -2  -8 -15    4.18    2.82
   2  -8 -15    1.44    2.05
  -2  -8 -14    3.50    1.31
   2  -8 -14    4.95    2.86
   2  -8 -13   19.58    4.02
  -2  -8 -13   17.43    3.19
   2   8 -13   22.90    5.06
   2  -8 -13   16.87    4.09
  -2  -8 -12    0.28    1.41
   2  -8 -12    1.02    1.58
   2   8 -12    0.36    1.01
   2  -8 -12    0.12    0.82
   2  -8 -11   -0.06    1.20
   2  -8 -11    0.83    1.15
  -2  -8 -11    1.64    2.22
   2   8 -11    2.99    1.86
  -2   8 -11    4.37    3.16
   2  -8 -10    9.93    2.85
  -2   8 -10    5.39    3.05
   2   8 -10    6.77    2.61
   2  -8 -10    4.66    2.43
  -2  -8 -10    3.37    1.88
   2  -8  -9   25.67    4.09
  -2  -8  -9   34.00    4.93
  -2   8  -9   37.04    5.63
   2  -8  -9   23.78    4.34
   2   8  -9   26.82    4.76
   2   8  -8    6.15    2.54
   2  -8  -8    4.82    1.56
   2  -8  -8    2.60    1.46
  -2  -8  -8    0.68    1.27
  -2   8  -8    0.22    1.48
   2  -8  -7   38.17    5.16
  -2  -8  -7   34.07    4.69
   2  -8  -7   32.28    5.24
   2   8  -7   24.20    4.84
  -2   8  -7   27.05    4.51
   2  -8  -6    8.79    2.83
   2   8  -6    6.29    2.40
  -2   8  -6    8.16    2.76
   2  -8  -6    9.69    2.48
  -2   8  -5   11.26    3.03
   2  -8  -5   10.75    2.76
   2   8  -5    9.18    2.89
   2  -8  -5   12.52    3.04
  -2   8  -4   45.20    5.80
   2  -8  -4   25.68    4.09
   2  -8  -4   37.90    5.15
   2   8  -4   35.91    5.36
   2   8  -3  110.29    9.04
   2  -8  -3  100.63    7.93
  -2   8  -3  134.03   10.45
   2  -8  -3  130.26   10.20
   2   8  -2    1.55    1.10
   2  -8  -2    1.52    0.87
   2  -8  -2    0.87    1.12
   2   8  -1    8.41    3.04
   2  -8  -1    7.07    2.52
  -2   8  -1   10.08    3.15
   2  -8   0    7.47    2.69
  -2   8   0    7.74    3.04
   2   8   0   11.92    3.11
   2  -8   1    9.33    2.71
  -2   8   1   10.21    3.53
   2   8   1   12.74    3.64
   2   8   2    4.49    1.98
  -2   8   2    3.13    2.05
   2  -8   2    5.00    2.55
   2   8   3  115.98    9.64
  -2   8   3  120.36    9.80
   2  -8   3  105.60    8.91
  -2   8   4   41.25    5.76
   2   8   4   33.36    5.41
   2  -8   4   44.06    5.75
   2   8   5   11.36    2.65
   2  -8   5   10.01    3.07
  -2   8   5   12.81    3.58
   2   8   6    3.00    2.02
   2   8   6    9.33    2.70
   2  -8   6    6.92    2.63
   2   8   7   37.68    5.46
  -2   8   7   30.99    5.32
   2   8   7   32.87    5.05
   2  -8   7   32.14    5.03
   2  -8   8    4.02    2.16
  -2   8   8    1.31    0.92
   2   8   8    6.22    2.14
   2   8   8   -0.98    1.67
   2   8   9   32.57    5.00
   2  -8   9   28.03    4.72
  -2   8   9   23.70    4.48
   2   8   9   36.19    5.52
   2   8  10    2.11    1.66
   2  -8  10    2.17    1.67
  -2   8  10    0.75    1.11
   2   8  10    1.49    0.93
   2   8  11    0.32    1.22
   2   8  11    1.35    2.00
  -2   8  11    1.20    1.95
   2   8  12    2.00    1.59
  -2   8  12    2.32    1.53
   2   8  12    2.71    1.61
  -2   8  13   25.04    4.88
   2   8  13   18.02    4.17
   2   8  13   16.42    4.15
  -2   8  14    1.34    1.88
   2   8  14    4.44    1.91
   2   8  14    0.13    1.35
   2   8  15   -0.16    1.72
   2   8  15   -1.44    1.12
  -2   8  15    3.00    1.07
   2   8  16   12.76    3.47
   2   8  16    8.23    2.34
  -2   8  16    9.56    3.32
   2   8  17    9.06    2.87
  -2   8  17    7.95    2.69
   2   8  17   12.16    2.85
  -2   8  18   -0.75    1.62
   2   8  18    1.61    2.04
  -2   8  18   -1.57    1.51
   2   8  18    1.74    2.26
   2   8  19    4.76    2.19
  -2   8  19    5.45    3.18
  -2   8  19    0.52    1.39
  -2   8  20    0.52    1.28
   2   8  20    0.83    1.30
   2   8  20   -0.60    0.96
  -2   8  20   -0.15    1.90
   2   8  21    1.23    2.40
  -2   8  21   -1.35    1.96
   2   8  21   -1.97    1.05
  -2   8  21   -0.94    2.68
  -2   8  22   12.42    3.70
  -2   8  22    7.25    2.75
   2   8  22    6.10    3.07
   2  -9 -19    3.20    2.20
  -2  -9 -19    2.30    1.75
  -2  -9 -18    0.97    1.43
   2  -9 -18    3.85    2.61
  -2  -9 -17    0.41    1.15
   2  -9 -17   -3.39    1.35
   2  -9 -16    1.74    2.06
  -2  -9 -16    0.36    2.06
   2  -9 -15   -1.65    2.07
  -2  -9 -15   -0.10    2.12
   2  -9 -14    5.31    1.27
  -2  -9 -14    2.86    2.35
   2  -9 -13    2.78    2.62
  -2  -9 -13    2.11    2.16
   2   9 -12    0.34    1.08
   2  -9 -12    1.79    1.24
   2  -9 -12   -0.93    1.70
   2  -9 -11    2.80    0.79
   2   9 -11    1.47    1.31
   2  -9 -11    1.16    0.99
  -2   9 -10   10.34    3.44
   2  -9 -10    7.51    2.52
   2  -9 -10    9.00    2.69
   2   9 -10   13.46    3.90
  -2   9  -9    2.01    1.91
   2   9  -9    0.64    1.23
   2  -9  -9    0.18    1.14
   2  -9  -9    2.13    1.37
  -2   9  -8    2.11    2.06
   2   9  -8    1.71    1.40
   2  -9  -8   -0.53    1.25
   2  -9  -8    2.54    2.04
  -2   9  -7   -0.16    1.56
   2  -9  -7    1.42    1.30
   2   9  -7    1.00    1.90
  -2   9  -6   11.49    3.07
   2   9  -6   11.98    3.58
   2  -9  -6    6.08    2.59
   2  -9  -5    5.91    2.30
  -2   9  -5    8.98    2.56
   2   9  -5    5.22    2.03
   2   9  -4    6.84    3.53
  -2   9  -4    3.06    1.80
   2  -9  -4   11.01    2.96
   2   9  -3    8.02    2.93
   2  -9  -3   12.83    3.57
  -2   9  -3    6.44    2.68
   2   9  -2    2.31    1.58
  -2   9  -2    0.63    1.28
   2  -9  -2    1.66    1.78
   2   9  -1    1.83    0.96
  -2   9  -1    1.11    1.20
   2  -9  -1    1.23    0.87
   2   9   0    9.11    3.32
   2  -9   0    6.30    2.41
  -2   9   0    8.02    2.78
  -2   9   1    2.83    1.19
   2   9   1    3.96    1.59
   2  -9   1   -0.23    1.35
   2   9   2    7.43    2.85
  -2   9   2    3.61    2.31
   2  -9   2    1.45    2.02
   2  -9   3    7.16    1.55
  -2   9   3   13.90    3.76
   2   9   3   15.63    4.02
   2   9   4    6.94    1.53
  -2   9   4    5.83    1.79
   2   9   4    6.72    2.79
   2   9   5   11.34    3.95
   2   9   5   10.08    3.19
  -2   9   5    8.77    3.10
   2  -9   5    5.89    1.90
   2  -9   6   11.09    3.55
   2   9   6    6.41    2.78
  -2   9   6   10.22    3.06
   2   9   6   10.12    3.17
   2   9   7    0.43    1.52
  -2   9   7    0.14    1.88
   2   9   7   -0.94    2.24
   2  -9   7   -0.87    1.15
   2   9   8    0.93    1.74
   2   9   8    0.46    1.24
   2  -9   8    1.08    1.00
  -2   9   8   -0.63    1.08
   2   9   9    3.01    1.83
   2  -9   9    1.20    1.96
   2   9   9   -2.38    1.38
  -2   9   9   -2.78    2.62
   2   9  10   10.48    3.41
   2   9  10    6.30    2.19
  -2   9  10    9.04    3.27
  -2   9  11    3.34    3.04
   2   9  11    3.27    1.89
   2   9  11    4.44    2.37
  -2   9  12   -0.78    1.83
   2   9  12   -0.70    1.02
   2   9  13    0.11    1.67
   2   9  13    1.61    2.67
  -2   9  13    2.72    1.67
   2   9  14   -0.43    2.04
   2   9  14   -0.64    0.99
   2   9  15    0.21    1.78
   2   9  15    3.68    2.66
  -2   9  15   -0.09    2.15
  -2   9  16    3.34    1.67
   2   9  16    1.45    1.53
   2   9  16    3.47    2.46
  -2   9  17   -0.51    2.32
   2   9  17   -0.55    0.82
  -2   9  17   -0.88    1.85
   2   9  17    3.89    2.90
  -2   9  18    3.88    2.55
  -2   9  18    3.28    1.43
   2   9  18   -0.37    2.16
   2   9  18    3.56    1.75
  -2   9  19    2.11    2.02
  -2   9  19    2.28    1.88
   2   9  19    1.31    1.68
   2   9  19   -3.40    2.16
   2 -10 -16   -1.01    2.42
   2  10 -11   10.71    3.74
   2  10 -10    0.04    1.43
   2 -10  -9    8.26    3.10
  -2  10  -9    5.54    2.59
   2  10  -9   11.99    3.74
  -2  10  -8    4.38    2.00
   2  10  -8    3.43    2.18
   2 -10  -8    2.08    1.01
  -2  10  -7   28.72    4.81
   2  10  -7   34.43    6.08
   2 -10  -7   44.13    6.26
  -2  10  -6    1.74    1.24
   2  10  -6    2.67    0.89
   2 -10  -5    5.15    2.84
  -2  10  -5   -0.47    1.78
   2  10  -5    1.75    1.41
   2 -10  -4    7.66    2.82
   2  10  -4    4.33    1.61
  -2  10  -3   22.00    4.49
   2  10  -3   15.02    3.88
   2  10  -3   14.44    3.69
   2 -10  -3   19.06    4.11
   2 -10  -2   11.20    3.31
   2  10  -2   11.15    3.23
  -2  10  -2   15.27    4.00
   2  10  -2   11.16    3.65
   2 -10  -1    5.51    3.10
  -2  10  -1    1.24    1.23
   2  10  -1    1.05    1.01
   2  10  -1    1.69    1.63
  -2  10   0    2.89    2.46
   2 -10   0    2.68    0.96
   2  10   0    2.40    2.29
   2  10   0    3.96    2.61
   2  10   1    2.79    2.25
   2  10   1    6.85    2.99
  -2  10   1    0.87    1.47
   2 -10   1    3.48    2.28
   2 -10   2    8.11    2.87
  -2  10   2    5.41    2.79
   2  10   2    8.02    2.65
   2  10   2   11.22    3.29
   2  10   3   28.88    5.63
   2 -10   3   21.74    4.70
  -2  10   3   23.96    5.11
   2  10   3   17.18    4.06
   2  10   4   17.70    4.46
   2  10   4   12.59    3.95
  -2  10   4    9.50    3.49
   2 -10   4    7.93    2.36
   2  10   5    2.67    2.60
   2 -10   5    4.18    2.37
   2  10   5    3.82    2.27
  -2  10   5    0.03    1.79
   2  10   6    4.54    1.25
   2  10   6    2.72    1.25
  -2  10   6    6.79    3.06
   2 -10   7   34.58    6.07
   2  10   7   40.10    6.39
  -2  10   7   28.84    5.28
   2  10   7   28.96    5.39
   2  10   8    3.32    2.20
   2  10   8    7.86    3.04
  -2  10   8    8.99    3.82
   2  10   9   10.84    3.37
  -2  10   9    3.30    2.12
   2  10   9    8.00    2.60
  -2  10  10    0.83    0.89
   2  10  10    0.37    1.36
   2  10  11    5.85    3.11
   2  10  11    9.21    2.52
  -2  10  11   11.25    3.54
  -2  10  12    1.96    1.19
   2  10  12    0.70    1.32
   2  10  12    0.39    2.44
   2  10  13   14.08    3.56
  -2  10  13   15.51    3.87
   2  10  13   14.81    4.16
   2  10  14    2.59    1.57
   2  10  14    1.23    2.20
  -2  10  14    1.51    2.13
   2  10  15    0.24    1.96
  -2  10  15    4.99    1.50
   2  10  15    2.66    1.90
   2  10  16    3.36    2.61
  -2  10  16   -1.38    1.83
  -2  10  16    0.26    2.21
   2  10  16   -0.40    1.16
   2  11 -10    0.15    1.60
   2  11  -9    0.23    1.39
   2  11  -8    3.16    2.78
  -2  11  -8    2.43    2.73
  -2  11  -7    0.69    1.76
   2  11  -7   -1.42    1.23
   2 -11  -6   -0.10    1.50
   2  11  -6    1.19    1.52
  -2  11  -6    3.58    2.39
  -2  11  -5   -0.07    1.15
   2 -11  -5    0.64    2.05
   2  11  -5   -0.20    1.53
   2 -11  -4    2.44    1.75
   2  11  -4    1.79    1.36
  -2  11  -4    3.01    1.67
   2  11  -3    3.77    2.37
  -2  11  -3    2.11    2.29
   2 -11  -3    0.19    1.55
   2  11  -2    6.64    3.72
   2  11  -2   -1.92    2.15
   2 -11  -2    4.06    2.77
  -2  11  -2    6.38    2.13
   2  11  -1    1.09    1.70
   2  11  -1    2.89    2.68
  -2  11  -1    0.11    1.16
   2 -11  -1    0.10    1.10
   2  11   0    0.80    1.68
  -2  11   0    0.84    1.32
   2 -11   0    2.17    2.50
   2  11   0    0.56    2.16
   2  11   1    2.48    1.34
   2 -11   1    1.69    1.42
  -2  11   1    3.94    2.63
   2  11   1    3.70    1.92
   2 -11   2    1.71    2.29
  -2  11   2    3.19    2.54
   2  11   2    1.67    1.11
   2  11   2   -1.72    1.34
   2  11   3    0.39    1.33
   2 -11   3    1.22    2.69
   2  11   3    0.40    1.62
  -2  11   3    0.39    1.78
   2  11   4    2.61    2.51
   2 -11   4    4.57    3.07
   2  11   4   -0.53    1.27
  -2  11   4   -1.44    1.15
   2  11   5   -1.22    1.42
   2  11   5    2.77    1.20
   2 -11   5    4.97    2.64
  -2  11   5    2.50    1.82
   2  11   6   -0.18    1.20
  -2  11   6    1.25    1.22
   2  11   6    1.30    2.02
  -2  11   7   -0.80    1.13
   2  11   7    1.58    1.72
   2  11   7    4.21    2.59
   2  11   8   -2.33    1.90
   2  11   8   -2.27    1.79
  -2  11   9   -2.48    2.10
   2  11   9    0.59    1.65
   2  11  10    1.97    2.24
  -2  11  10   -0.11    1.89
   2  11  10    0.30    1.95
   3   0 -31    0.03    1.18
   3   0 -30   -0.07    1.78
   3   0 -29    0.91    1.55
   3   0 -28    7.45    3.12
   3   0 -27    0.58    1.52
   3   0 -26   -1.76    1.77
   3   0 -25    0.31    0.97
   3   0 -24   -2.58    1.31
   3   0 -23   -1.09    1.31
   3   0 -22    2.89    1.96
   3   0 -21    1.04    1.07
   3   0 -20    0.05    0.91
   3   0 -19    0.24    0.65
   3   0 -18   -0.29    1.07
   3   0 -17    0.27    1.07
   3   0 -16    0.51    1.18
   3   0 -15    0.16    0.55
   3   0 -14    1.94    1.33
   3   0 -13   -0.66    0.76
   3   0 -12    0.88    0.86
   3   0 -12   -0.64    0.31
   3   0 -11   -0.25    0.47
   3   0 -11    0.64    0.62
   3   0 -10    0.10    0.23
   3   0 -10    0.46    0.98
   3   0  -9   -0.01    0.71
   3   0  -9   -0.12    0.39
   3   0  -8   -0.01    0.27
   3   0  -8    0.00    0.37
   3   0  -7   -0.11    0.32
   3   0  -7    0.18    0.46
   3   0  -6    0.17    0.28
   3   0  -6    0.32    0.24
   3   0  -6    0.07    0.33
   3   0  -5    0.16    0.35
   3   0  -5   -0.12    0.42
   3   0  -5   -0.09    0.40
   3   0  -4   -0.03    0.51
   3   0  -4    0.47    0.45
   3   0  -4   -0.06    0.35
   3   0  -3   -0.23    0.32
   3   0  -3    0.52    0.40
   3   0  -3    0.18    0.64
   3   0  -2   -0.12    0.33
   3   0  -2    0.02    0.31
   3   0  -2   -0.36    0.21
   3   0  -1    0.65    0.45
   3   0  -1   -0.09    0.33
   3   0  -1   -0.25    0.24
   3   0   0   -0.04    0.35
   3   0   0    0.54    0.49
   3   0   1   -0.03    0.37
   3   0   1    0.40    0.42
   3   0   2   -0.03    0.22
   3   0   2    0.08    0.25
   3   0   3    0.64    0.48
   3   0   3    0.45    0.39
   3   0   4   -0.16    0.29
   3   0   4    0.24    0.30
   3   0   5    0.46    0.41
   3   0   5   -0.03    0.39
   3   0   6    0.13    0.17
   3   0   6    0.04    0.37
   3   0   7   -0.13    0.12
   3   0   7   -0.25    0.30
   3   0   8    0.15    0.22
   3   0   8    0.04    0.42
   3   0   9    0.06    0.17
   3   0   9   -0.17    0.47
   3   0  10   -0.19    0.51
   3   0  10   -0.01    0.13
   3   0  11    0.08    0.58
   3   0  12    0.83    0.67
   3   0  13   -0.16    0.65
  -3   0  14    0.40    0.65
   3   0  14   -0.25    0.85
  -3   0  15    0.12    0.30
   3   0  15   -0.08    0.63
   3   0  16   -0.10    0.70
  -3   0  16   -0.43    0.67
   3   0  17   -0.44    0.59
  -3   0  17    0.69    0.79
   3   0  18    0.03    0.64
   3   0  19   -0.09    0.71
   3   0  20    0.39    0.65
   3   0  21   -0.46    1.18
   3  -1 -30    1.88    2.30
   3  -1 -29   11.83    3.64
   3   1 -28    9.26    3.29
   3  -1 -28   11.04    3.64
   3  -1 -27   13.82    3.80
   3   1 -27   15.75    4.37
   3   1 -26    6.37    2.60
   3  -1 -26   10.93    2.94
   3   1 -25   15.73    3.45
   3  -1 -25   16.04    3.75
   3  -1 -24   17.19    3.46
   3   1 -24   11.93    3.37
   3   1 -23   61.88    7.10
   3  -1 -23   74.31    7.73
   3   1 -22   22.60    4.08
  -3  -1 -22   27.40    4.90
   3  -1 -22   22.02    4.01
  -3  -1 -21    4.67    2.41
   3   1 -21    3.46    1.98
   3  -1 -21    1.26    1.16
   3   1 -20   26.67    4.19
   3  -1 -20   34.71    5.11
  -3  -1 -20   31.61    4.79
   3   1 -19   93.66    7.71
  -3  -1 -19   78.94    7.44
   3  -1 -19   83.81    7.73
   3  -1 -18    9.97    2.56
  -3  -1 -18    9.36    2.62
   3   1 -18    9.05    2.18
  -3  -1 -17  107.32    8.28
   3   1 -17  111.51    7.90
   3  -1 -17  115.34    8.46
  -3  -1 -16   44.67    5.16
   3  -1 -16   39.08    4.65
   3   1 -16   36.25    4.59
   3  -1 -15   15.99    2.96
   3   1 -15   14.20    2.62
  -3  -1 -15   11.26    2.47
   3   1 -14   53.23    4.79
   3  -1 -14   43.37    3.83
  -3  -1 -14   42.20    4.85
   3  -1 -14   42.20    4.72
  -3  -1 -13  333.35   13.05
   3  -1 -13  315.98   10.12
   3   1 -13  330.50   11.71
   3  -1 -13  340.55   12.77
  -3  -1 -12  205.35   10.01
   3   1 -12  219.33    9.28
   3  -1 -12  217.35    8.50
   3  -1 -12  233.97   10.48
   3   1 -12  225.10    8.34
   3   1 -11   41.07    3.76
   3   1 -11   42.50    3.61
   3  -1 -11   40.68    4.25
   3  -1 -11   38.18    3.39
  -3  -1 -11   46.15    4.49
   3  -1 -10  160.32    8.03
   3  -1 -10  158.16    6.74
   3   1 -10  144.37    6.72
  -3  -1 -10  144.90    7.83
   3   1 -10  142.58    6.34
   3   1  -9  405.31   10.59
  -3  -1  -9  391.36   12.39
   3   1  -9  425.46   11.00
   3  -1  -9  411.84   10.56
   3  -1  -9  413.12   12.64
   3  -1  -8  125.00    6.63
  -3  -1  -8  118.54    6.50
   3  -1  -8  115.61    5.46
   3   1  -8  121.91    5.73
   3   1  -8  117.35    5.53
   3   1  -7  264.60    4.52
   3   1  -7  257.05    7.75
   3   1  -7  275.32    8.31
   3  -1  -7  284.27    9.68
   3  -1  -7  272.09    8.20
   3   1  -6  750.48    8.06
   3   1  -6  769.07   12.41
   3   1  -6  754.37   13.45
   3  -1  -6  739.07   15.04
   3  -1  -6  729.91   13.19
   3   1  -5   47.44    2.89
   3   1  -5   42.77    2.07
   3  -1  -5   43.39    3.49
   3  -1  -5   43.24    3.11
   3   1  -5   51.31    3.39
   3   1  -4  531.05    7.74
   3  -1  -4  519.98   11.64
   3   1  -4  512.42   10.76
   3   1  -4  533.41    9.15
   3  -1  -4  539.02   10.83
   3   1  -3 2508.12   18.97
   3  -1  -3 2479.96   22.84
   3  -1  -3 2513.21   24.57
   3   1  -3 2495.56   23.03
   3   1  -3 2487.59   17.91
   3   1  -2 1043.36   12.27
   3   1  -2 1033.44   14.69
   3  -1  -2 1014.63   15.27
   3   1  -2 1017.76   11.74
   3  -1  -1  573.64   10.90
   3   1  -1  566.15   11.04
   3   1  -1  562.26    9.44
   3  -1  -1  589.20   11.28
   3  -1   0  562.74   10.67
   3   1   0  559.69    9.83
   3  -1   0  558.63   10.83
   3   1   0  527.93   10.34
   3   1   1  566.59   10.42
   3   1   1  544.94   10.67
   3  -1   1  568.61   10.81
   3   1   2 1006.54   14.37
   3  -1   2  978.14   14.35
   3   1   2  971.75   13.70
   3  -1   3 2484.49   23.45
   3   1   3 2517.06   21.76
   3   1   4  520.52    9.95
   3   1   4  535.23   11.50
   3  -1   4  541.12   11.08
   3   1   5   46.31    2.90
   3  -1   5   45.13    3.23
   3   1   5   51.97    3.67
   3  -1   6  729.44   13.39
   3   1   6  751.94   11.75
   3   1   6  711.94   14.33
   3  -1   7  263.13    8.24
   3   1   7  275.76    9.11
   3   1   7  283.07    7.27
   3   1   8  110.68    5.90
   3  -1   8  112.09    5.55
   3   1   8  113.29    4.60
   3   1   9  436.95   12.19
   3  -1   9  428.35   11.05
   3   1   9  416.33    8.84
   3  -1  10  149.37    6.63
   3   1  10  143.32    5.29
   3   1  10  154.54    7.46
   3  -1  11   35.63    3.38
   3   1  11   42.33    2.84
   3   1  11   37.93    3.63
   3   1  12  228.64    6.67
   3   1  12  225.20    9.52
   3  -1  12  212.80    8.48
   3   1  13  313.56    7.89
   3  -1  13  309.23   10.53
   3   1  13  332.12   11.94
   3   1  14   44.53    2.97
   3  -1  14   50.81    4.28
   3   1  14   38.89    4.14
   3   1  15   15.46    1.77
   3   1  15   11.82    2.33
   3  -1  15   13.18    2.36
   3   1  16   32.02    3.97
   3  -1  16   34.69    3.76
   3   1  16   31.66    2.58
  -3   1  16   34.87    3.64
   3   1  17   97.23    7.24
  -3   1  17  103.97    6.60
   3  -1  17  111.56    7.10
   3   1  18   10.97    2.37
  -3   1  18    5.07    1.26
   3  -1  18    9.71    2.19
   3   1  19   73.22    6.54
   3  -1  19   78.81    6.21
  -3   1  19   85.25    6.12
   3   1  20   33.38    4.47
   3   1  21    2.68    1.30
   3   1  22   22.74    4.01
   3  -2 -30    0.64    1.04
   3  -2 -29    2.95    2.50
   3  -2 -28    4.18    3.19
   3  -2 -27    7.94    2.78
   3  -2 -26   -0.11    1.94
  -3  -2 -25    1.76    1.79
   3  -2 -25    6.70    2.58
  -3  -2 -24    3.15    1.11
   3  -2 -24    1.75    1.27
   3  -2 -23    6.96    2.55
  -3  -2 -23    5.49    2.19
   3   2 -23    9.75    3.18
  -3  -2 -22    1.00    1.34
   3   2 -22    0.04    0.98
   3  -2 -22    0.74    1.66
   3  -2 -21   22.93    4.36
   3   2 -21   22.38    4.13
  -3  -2 -21   15.03    3.44
   3   2 -20    6.69    2.03
  -3  -2 -20    6.51    1.91
   3  -2 -20    9.04    2.80
  -3  -2 -19   14.76    3.18
   3   2 -19    4.34    1.84
   3  -2 -19   14.71    3.45
   3   2 -18    0.81    0.92
   3  -2 -18    2.94    1.90
  -3  -2 -18    0.17    1.38
  -3  -2 -17   -0.48    1.51
   3   2 -17   -0.09    1.15
   3  -2 -17    1.34    0.85
   3   2 -16   10.53    1.93
   3  -2 -16   17.93    3.40
  -3  -2 -16   13.52    3.12
   3   2 -16   14.50    2.47
   3  -2 -15   22.95    3.35
  -3  -2 -15   22.60    3.51
   3   2 -15   26.61    3.47
   3  -2 -15   24.48    3.81
   3   2 -15   29.89    3.21
   3   2 -14    0.22    0.34
   3  -2 -14    1.07    0.61
   3  -2 -14   -0.84    1.04
   3   2 -14    1.11    0.66
  -3  -2 -14    2.08    1.89
   3   2 -13    0.31    0.53
   3   2 -13    2.16    1.25
   3  -2 -13    0.16    0.78
  -3  -2 -13   -0.74    1.40
   3  -2 -13    1.22    0.99
   3   2 -12   28.53    3.14
   3   2 -12   31.04    3.29
   3  -2 -12   25.67    3.71
   3  -2 -12   29.12    3.54
   3   2 -11  159.43    7.16
   3   2 -11  151.48    6.74
   3  -2 -11  145.13    7.71
   3  -2 -11  133.49    8.24
  -3  -2 -11  153.20    8.45
  -3   2 -10   41.56    2.12
   3   2 -10   49.94    3.74
  -3  -2 -10   44.61    4.37
   3  -2 -10   45.41    4.40
   3   2 -10   37.69    3.56
   3  -2 -10   41.29    3.98
   3   2  -9   15.25    2.22
   3  -2  -9   11.50    2.22
  -3   2  -9   12.45    1.27
  -3  -2  -9   14.34    2.37
   3  -2  -9   10.14    2.07
   3   2  -9   14.43    1.83
  -3   2  -8   49.25    2.73
   3  -2  -8   45.53    4.28
   3   2  -8   46.83    3.73
   3  -2  -8   47.64    4.11
  -3  -2  -8   52.49    4.45
   3   2  -8   47.68    3.16
  -3   2  -7   26.27    2.05
   3  -2  -7   32.43    3.49
  -3  -2  -7   29.94    3.28
   3  -2  -7   30.02    3.15
   3   2  -7   30.47    2.30
   3   2  -7   28.92    2.91
   3   2  -7   26.41    1.46
   3   2  -6  152.30    3.99
   3   2  -6  150.12    4.65
   3  -2  -6  145.37    6.94
   3   2  -6  150.43    6.59
  -3  -2  -6  137.93    6.58
   3  -2  -6  146.35    7.18
   3   2  -5  161.71    6.84
   3   2  -5  176.15    4.54
   3  -2  -5  163.53    7.34
   3   2  -5  173.39    4.68
   3  -2  -5  176.16    7.38
  -3  -2  -5  172.60    7.00
   3   2  -4   33.45    1.88
   3   2  -4   29.26    2.11
   3  -2  -4   29.91    2.98
   3  -2  -4   29.01    2.93
   3   2  -3 1086.97   17.23
   3   2  -3 1061.73   13.41
   3  -2  -3 1021.38   17.44
   3  -2  -3 1015.68   17.29
   3   2  -3 1049.37   10.00
   3   2  -2  484.80   11.62
   3   2  -2  489.05    9.69
   3  -2  -2  500.88   12.11
   3  -2  -2  503.28   11.84
   3  -2  -1  224.31    7.97
   3   2  -1  231.10    7.93
   3  -2  -1  227.51    7.75
   3   2  -1  219.98    6.82
   3  -2   0  220.55    7.79
   3   2   0  219.49    7.69
   3  -2   0  204.80    7.25
   3   2   0  215.59    7.04
   3  -2   1  231.88    7.56
   3   2   1  235.31    7.64
   3   2   1  219.74    7.69
   3  -2   1  240.01    8.09
   3   2   2  498.67   11.51
   3  -2   2  495.92   11.06
   3   2   2  481.97   11.48
   3  -2   2  505.85   11.75
   3   2   3 1062.44   16.94
   3  -2   3 1103.51   17.04
   3   2   4   28.22    2.73
   3   2   4   34.55    3.15
   3  -2   4   28.92    2.76
   3   2   5  175.34    7.50
   3   2   5  173.72    6.92
   3  -2   5  169.30    6.81
   3   2   6  142.33    6.93
   3   2   6  143.47    6.31
   3  -2   6  141.89    6.30
   3   2   7   27.68    2.73
   3   2   7   25.15    3.06
   3  -2   7   24.02    2.62
   3   2   8   47.71    3.69
   3   2   8   46.30    4.12
   3  -2   8   45.54    3.60
   3   2   9   12.13    1.96
   3   2   9   14.37    2.34
   3  -2   9   13.70    2.04
   3   2  10   42.10    3.53
   3  -2  10   42.07    3.73
   3   2  10   44.42    4.23
   3  -2  11  143.07    6.78
   3   2  11  141.39    6.65
   3   2  11  154.17    8.19
   3   2  12   31.70    3.18
   3  -2  12   31.89    3.29
   3   2  12   28.62    3.64
   3   2  13    1.52    0.80
   3  -2  13    0.67    0.70
   3   2  13    0.13    0.73
   3   2  14    1.53    0.96
   3  -2  14    0.45    0.80
   3   2  14    1.24    0.89
   3   2  15   27.96    3.04
   3  -2  15   23.60    3.01
   3   2  15   27.17    3.82
   3   2  16   15.39    2.30
   3   2  16   12.34    2.57
   3  -2  16   10.72    2.09
   3   2  17   -0.01    0.48
   3   2  17    1.43    0.91
   3  -2  17    0.68    1.10
  -3   2  18    0.91    0.94
   3   2  18    1.04    0.70
   3  -2  18    0.36    0.60
   3   2  19   10.66    2.69
  -3   2  19   12.42    2.87
  -3   2  20    8.84    2.40
   3   2  20    3.57    1.83
   3   2  21   18.59    3.69
   3   2  22    1.52    0.91
   3   2  23    5.96    2.25
   3  -3 -29   23.93    4.75
   3  -3 -28   20.54    4.48
  -3  -3 -27   29.65    5.27
   3  -3 -27   22.87    4.72
   3  -3 -26   19.48    4.77
  -3  -3 -26    8.58    3.48
   3  -3 -25   19.56    4.48
  -3  -3 -25   26.30    5.20
   3  -3 -24    0.45    0.96
  -3  -3 -24    5.21    2.58
  -3  -3 -23   50.30    6.71
   3  -3 -23   49.91    6.58
  -3  -3 -22    9.19    2.76
   3  -3 -22    2.88    1.76
   3  -3 -21    2.81    2.10
  -3  -3 -21    1.21    1.16
   3  -3 -20    4.10    2.08
  -3  -3 -20    6.99    2.57
  -3  -3 -19   39.46    5.45
   3  -3 -19   43.11    5.43
   3   3 -18   54.21    5.68
   3  -3 -18   57.16    6.19
  -3  -3 -18   40.65    5.29
   3  -3 -17   49.05    5.84
  -3  -3 -17   41.48    5.29
   3   3 -17   42.77    4.68
   3  -3 -16   33.41    4.61
  -3  -3 -16   44.35    5.43
   3  -3 -16   33.88    4.43
   3   3 -16   43.46    4.31
   3   3 -15   61.57    5.07
   3   3 -15   60.27    5.09
   3  -3 -15   54.74    5.41
   3  -3 -15   66.14    6.21
  -3  -3 -15   58.76    6.05
   3  -3 -14   16.77    3.07
   3   3 -14   17.14    2.47
  -3  -3 -14   15.46    3.21
   3  -3 -14   13.42    2.76
   3   3 -14   11.17    2.30
   3  -3 -13  258.17   11.48
   3   3 -13  251.13   10.05
   3   3 -13  256.51    9.27
  -3  -3 -13  234.11   11.56
   3  -3 -13  271.10   12.36
   3   3 -12  459.47   13.38
  -3   3 -12  435.84    9.11
   3  -3 -12  473.92   16.17
   3   3 -12  455.51   11.62
   3  -3 -12  402.91   14.30
  -3  -3 -12  424.24   15.11
  -3   3 -11   37.73    2.86
   3   3 -11   38.90    3.20
   3  -3 -11   43.27    4.98
  -3  -3 -11   42.23    4.73
   3   3 -11   49.56    4.33
   3  -3 -11   47.47    4.76
   3   3 -10  170.14    7.97
  -3   3 -10  144.34    5.80
   3   3 -10  144.08    5.64
  -3  -3 -10  153.52    8.41
   3  -3 -10  128.20    7.93
   3  -3 -10  153.70    8.46
  -3  -3  -9  704.68   17.60
   3  -3  -9  720.39   18.46
   3   3  -9  725.67   11.30
  -3   3  -9  687.62   13.23
   3  -3  -9  723.26   18.15
   3   3  -9  743.75   17.10
  -3  -3  -8   24.13    3.06
   3   3  -8   23.35    1.79
  -3   3  -8   23.67    2.46
   3   3  -8   26.82    1.87
   3  -3  -8   21.91    3.14
   3  -3  -8   24.83    3.28
   3   3  -8   25.88    3.17
   3  -3  -7  525.59   14.91
  -3   3  -7  560.31   12.19
   3   3  -7  535.23    7.38
   3  -3  -7  539.66   15.13
   3   3  -7  545.80   14.18
   3   3  -7  525.02    9.15
  -3  -3  -7  545.62   14.38
   3   3  -6  623.19   10.72
   3   3  -6  564.96    6.36
   3  -3  -6  619.39   15.88
  -3  -3  -6  605.26   14.44
   3  -3  -6  629.89   15.91
   3   3  -6  607.37   14.90
  -3   3  -6  624.92   13.23
   3   3  -5   77.20    5.34
   3  -3  -5   75.88    5.38
  -3  -3  -5   72.08    4.79
  -3   3  -5   73.96    4.61
   3   3  -5   76.38    3.95
   3  -3  -5   71.76    5.29
   3   3  -4 1059.32   15.63
  -3  -3  -4 1061.82   17.41
   3   3  -4 1072.93   19.52
   3  -3  -4 1093.35   19.93
   3  -3  -4 1105.39   20.62
   3   3  -3 2122.57   27.36
  -3  -3  -3 2128.94   23.40
   3   3  -3 2082.26   22.85
   3  -3  -3 2131.60   26.98
   3  -3  -3 2170.49   28.34
   3  -3  -2  371.79   11.57
   3   3  -2  378.80   11.57
   3  -3  -2  373.62   11.02
   3   3  -2  373.03    9.89
   3   3  -1  612.25   14.56
   3  -3  -1  594.54   14.63
   3  -3  -1  602.62   13.68
   3   3  -1  595.31   13.02
   3  -3   0  457.25   11.70
   3   3   0  470.75   12.91
   3   3   0  455.54   11.71
   3  -3   0  457.40   12.91
   3  -3   1  614.24   14.65
   3  -3   1  606.54   13.25
   3   3   1  574.03   13.55
   3   3   1  573.55   14.31
   3   3   2  356.75   11.31
   3   3   2  354.36   11.06
   3  -3   2  355.88   10.16
   3  -3   2  342.57   10.91
   3   3   3 2173.55   27.93
   3  -3   3 2119.49   26.98
   3   3   3 2187.39   27.80
   3  -3   3 2173.24   25.21
   3   3   4 1157.58   20.40
   3  -3   4 1122.96   19.39
   3   3   4 1106.78   20.38
   3  -3   4 1118.56   18.01
   3   3   5   77.42    5.34
   3   3   5   75.42    5.42
   3  -3   5   78.33    5.11
   3   3   6  622.54   15.21
   3   3   6  623.98   15.98
   3  -3   6  639.40   14.67
   3  -3   7  536.94   13.53
   3   3   7  512.36   13.93
   3  -3   8   20.22    2.70
   3   3   8   20.12    2.64
   3   3   8   19.72    3.12
   3  -3   9  706.05   15.78
   3   3   9  708.94   18.04
   3   3   9  742.85   17.10
   3   3  10  151.67    7.82
   3  -3  10  141.22    7.03
   3   3  10  150.14    8.53
   3   3  11   41.89    4.11
   3  -3  11   43.41    4.12
   3   3  11   40.77    4.50
   3   3  12  444.78   15.21
   3  -3  12  457.53   13.14
   3   3  12  461.75   14.13
   3  -3  13  260.60   10.05
   3   3  13  261.32   10.64
   3   3  13  266.40   12.14
   3   3  14   14.69    2.58
   3   3  14   14.53    2.88
   3  -3  14   13.74    2.23
   3  -3  15   67.15    5.43
   3   3  15   66.47    5.53
   3   3  15   70.96    6.40
   3   3  16   33.89    4.13
   3  -3  16   33.21    3.78
   3   3  16   44.73    5.20
   3   3  17   43.78    4.67
   3  -3  17   39.49    4.06
   3   3  17   50.51    5.78
   3   3  18   55.35    5.29
   3   3  18   59.26    6.18
  -3   3  19   33.79    4.79
   3   3  19   39.33    4.95
  -3   3  20    6.43    1.67
   3   3  20    5.52    2.02
  -3   3  21    1.88    0.84
  -3   3  21    2.13    0.98
   3   3  21    0.37    1.06
  -3   3  22    7.90    2.49
   3   3  22    9.27    2.93
   3   3  23   46.13    6.08
   3   3  24    0.55    1.61
   3   3  25   19.16    4.15
   3  -4 -29    4.23    2.73
  -3  -4 -28    7.39    2.19
   3  -4 -28    7.12    3.16
   3  -4 -27   18.96    4.68
  -3  -4 -27   21.24    4.87
  -3  -4 -26    6.87    3.20
   3  -4 -26    3.62    2.46
  -3  -4 -25   23.49    4.64
   3  -4 -25   12.69    3.72
   3  -4 -24    2.21    1.35
  -3  -4 -24    4.77    2.30
   3  -4 -23    3.19    2.42
  -3  -4 -23    2.65    1.16
  -3  -4 -22    4.89    2.51
   3  -4 -22    2.68    1.47
  -3  -4 -21   10.67    2.93
   3  -4 -21    8.52    3.25
  -3  -4 -20    0.09    1.59
   3  -4 -20    1.95    1.89
   3  -4 -19   29.26    4.80
  -3  -4 -19   21.21    4.34
   3  -4 -18    8.52    2.84
  -3  -4 -18    7.69    2.48
  -3  -4 -17   -0.59    1.51
   3  -4 -17    1.47    1.33
  -3  -4 -16    3.36    0.73
   3  -4 -16    3.81    2.06
   3  -4 -16    5.16    1.99
   3  -4 -15   13.14    2.77
  -3  -4 -15   17.88    3.39
   3  -4 -15   20.79    3.86
   3   4 -15   14.51    2.61
   3   4 -14    0.46    0.90
  -3  -4 -14   -0.25    0.89
   3  -4 -14    1.03    0.77
   3  -4 -14    0.63    1.46
   3  -4 -13   14.42    3.11
  -3  -4 -13   12.68    2.50
   3   4 -13   14.85    2.86
   3  -4 -13   13.77    3.10
   3   4 -12    4.41    1.54
  -3   4 -12    6.47    1.40
  -3  -4 -12   13.54    2.62
   3  -4 -12   13.60    2.76
   3  -4 -12    8.15    2.44
   3  -4 -11   35.70    4.54
   3   4 -11   37.10    4.12
  -3   4 -11   39.37    3.69
   3  -4 -11   41.34    4.82
  -3  -4 -11   41.54    4.92
   3  -4 -10   73.37    6.36
  -3   4 -10   74.59    5.17
   3   4 -10   72.78    3.58
  -3  -4 -10   69.49    5.89
   3  -4 -10   64.78    5.95
   3   4  -9   38.55    2.80
  -3  -4  -9   36.65    4.11
   3  -4  -9   34.33    4.31
   3  -4  -9   40.81    4.65
   3   4  -9   35.60    4.11
  -3   4  -9   32.48    3.47
   3   4  -8   48.47    3.36
  -3   4  -8   48.14    4.31
   3   4  -8   46.69    4.63
   3  -4  -8   50.93    5.00
   3  -4  -8   46.21    4.83
  -3  -4  -8   47.35    4.74
   3   4  -7   37.27    3.12
   3   4  -7   37.95    4.23
   3  -4  -7   36.96    4.40
   3  -4  -7   45.43    4.66
  -3  -4  -7   43.56    4.26
  -3   4  -7   41.43    4.04
   3   4  -6   52.68    3.92
   3  -4  -6   44.63    4.64
  -3   4  -6   45.50    4.15
  -3  -4  -6   48.83    4.25
   3  -4  -6   46.91    4.58
   3   4  -6   53.62    4.84
   3  -4  -5  225.29   10.34
   3   4  -5  217.75    8.12
  -3   4  -5  225.98    9.40
  -3  -4  -5  205.88    8.54
   3   4  -5  213.51    9.81
   3  -4  -5  221.42    9.80
  -3   4  -4  141.73    7.57
  -3  -4  -4  121.01    6.15
   3  -4  -4  141.01    8.13
   3   4  -4  142.68    6.80
   3  -4  -4  123.72    7.16
   3   4  -4  145.61    8.07
   3  -4  -3   89.94    6.41
   3   4  -3  101.50    6.79
   3  -4  -3   96.58    6.21
   3   4  -3   92.80    5.63
  -3  -4  -3   96.58    5.24
  -3   4  -3  101.78    6.40
   3   4  -2  277.48    9.98
  -3   4  -2  257.62   10.34
   3   4  -2  283.12   11.19
  -3  -4  -2  264.75    8.11
   3  -4  -2  259.69    9.95
   3  -4  -2  251.43   10.69
   3   4  -1  305.07   11.55
   3  -4  -1  294.61   11.37
  -3  -4  -1  299.39    8.11
   3  -4  -1  329.96   10.97
  -3   4  -1  312.89   11.44
   3   4  -1  312.36   10.74
   3  -4   0  101.39    6.57
   3   4   0   94.67    6.07
   3   4   0   91.43    6.35
   3  -4   0  106.23    6.04
   3  -4   1  302.55   10.12
   3   4   1  292.52   11.45
   3   4   1  303.72   11.15
   3  -4   1  302.80   11.43
   3   4   2  255.67   10.77
   3  -4   2  264.64    9.41
   3   4   2  275.87   10.69
   3  -4   2  267.85   10.56
   3  -4   3  102.14    6.45
   3  -4   3   93.90    5.59
   3   4   3   99.58    6.60
   3   4   3   93.33    6.39
   3   4   4  121.48    7.48
   3  -4   4  133.82    6.62
   3   4   4  126.36    7.64
   3  -4   4  136.28    7.49
   3   4   5  208.87    9.76
   3   4   5  207.54    9.93
   3  -4   5  224.22    8.72
   3  -4   5  216.19    9.42
   3   4   6   45.62    4.79
   3  -4   6   44.44    4.41
   3   4   6   45.14    4.57
   3  -4   6   49.30    4.13
   3   4   7   43.18    4.47
   3  -4   7   42.08    4.15
   3   4   7   38.79    4.44
   3   4   8   54.36    5.22
   3   4   8   51.72    5.19
   3  -4   8   47.09    4.40
   3   4   9   41.07    4.64
   3   4   9   35.42    4.07
   3  -4   9   38.23    4.13
   3   4  10   76.83    6.40
   3   4  10   75.32    6.49
   3  -4  10   86.66    5.93
   3   4  11   32.83    4.21
   3   4  11   41.71    4.70
   3  -4  11   45.64    4.28
   3  -4  12   10.58    2.30
   3   4  12    7.74    2.22
   3   4  12    8.62    2.10
   3  -4  13   18.68    2.89
   3   4  13   19.09    3.27
   3   4  13   15.23    2.94
   3   4  14    0.47    0.72
   3  -4  14    0.83    0.95
   3   4  14   -0.25    0.65
   3   4  15   12.36    2.93
   3  -4  15   18.47    2.99
   3   4  15   20.56    3.38
   3   4  16    7.58    2.37
   3   4  16    6.39    2.86
   3   4  17    0.31    1.09
  -3   4  17    1.69    1.81
   3   4  17   -0.18    0.96
  -3   4  18    5.62    2.07
   3   4  18    5.31    2.00
   3   4  18    7.42    2.40
   3   4  19   16.12    3.80
  -3   4  19   25.95    4.12
   3   4  19   22.98    3.74
   3   4  20    4.27    2.01
  -3   4  20    2.70    1.44
  -3   4  20    1.59    1.38
  -3   4  21    8.13    2.29
   3   4  21    7.49    2.78
  -3   4  21    8.49    2.32
  -3   4  22    5.56    2.94
   3   4  22    4.00    1.00
   3   4  23    0.86    1.21
  -3   4  23    1.29    1.55
   3   4  24    2.93    1.82
   3   4  25    7.45    3.69
   3   4  26    1.53    1.24
  -3  -5 -27    7.51    2.83
   3  -5 -27   10.61    3.24
  -3  -5 -26    4.04    3.15
   3  -5 -26    7.22    3.26
   3  -5 -25   17.90    4.43
  -3  -5 -25   13.00    3.55
   3  -5 -24   10.21    2.59
  -3  -5 -24    7.14    2.63
  -3  -5 -23   11.76    3.71
   3  -5 -23   11.42    2.67
  -3  -5 -22    7.35    2.67
   3  -5 -22    5.81    2.48
   3  -5 -21    5.87    2.27
  -3  -5 -21    0.97    1.16
  -3  -5 -20   24.45    4.71
   3  -5 -20   18.21    4.25
  -3  -5 -19   39.93    5.79
   3  -5 -19   35.92    5.63
  -3  -5 -18   18.19    3.83
   3  -5 -18   15.75    2.98
  -3  -5 -17   38.96    5.60
   3  -5 -17   46.45    5.91
   3  -5 -17   33.94    5.21
   3  -5 -16   26.85    4.26
   3  -5 -16   30.77    4.81
  -3  -5 -16   22.99    4.29
   3   5 -15   35.48    4.65
   3  -5 -15   46.59    5.77
   3  -5 -15   38.29    5.38
  -3  -5 -15   41.19    5.77
   3   5 -14   50.75    5.56
   3  -5 -14   52.27    5.97
  -3  -5 -14   55.44    6.32
   3  -5 -14   46.50    5.54
  -3  -5 -13  156.04   10.19
   3  -5 -13  172.30   10.65
   3  -5 -13  163.73   10.40
   3   5 -13  171.60    9.90
  -3   5 -12   81.32    6.23
   3   5 -12   79.25    6.79
   3  -5 -12   86.18    7.51
  -3  -5 -12   88.78    7.34
   3  -5 -12   81.82    7.28
   3  -5 -11   33.69    4.85
  -3   5 -11   32.12    3.83
   3  -5 -11   33.97    4.68
   3   5 -11   30.80    4.09
  -3  -5 -11   38.40    4.78
   3  -5 -10   37.07    4.99
  -3   5 -10   33.71    4.00
   3   5 -10   34.71    4.44
   3  -5 -10   41.44    5.16
  -3  -5 -10   38.54    4.78
   3  -5  -9  140.92    9.32
  -3   5  -9  127.80    7.83
   3   5  -9  146.62    8.90
   3   5  -9  136.21    6.74
  -3  -5  -9  133.47    8.41
   3  -5  -9  134.40    8.69
   3   5  -8   19.29    3.33
  -3   5  -8   23.15    3.35
  -3  -5  -8   20.92    3.17
   3  -5  -8   18.13    3.28
   3  -5  -8   23.71    3.85
   3   5  -8   18.97    2.49
   3   5  -7   66.44    5.87
  -3   5  -7   75.95    5.97
  -3  -5  -7   70.63    5.69
   3  -5  -7   75.76    6.32
   3  -5  -7   61.63    6.09
   3   5  -7   67.05    4.97
  -3  -5  -6   56.39    5.00
   3   5  -6   50.09    5.12
   3  -5  -6   52.66    5.13
  -3   5  -6   56.93    5.16
   3  -5  -6   51.93    5.51
   3   5  -6   51.57    4.53
  -3  -5  -5    7.31    1.58
   3   5  -5    4.42    1.62
   3   5  -5    8.19    2.01
   3  -5  -5    9.47    2.21
  -3   5  -5    8.99    2.27
   3  -5  -5    8.39    2.52
  -3   5  -4   52.30    4.92
   3  -5  -4   48.85    4.79
   3   5  -4   53.80    4.68
   3   5  -4   39.33    4.60
   3  -5  -4   46.34    5.16
  -3  -5  -4   39.22    3.81
  -3   5  -3  159.95    8.91
  -3  -5  -3  148.61    6.89
   3   5  -3  143.38    8.69
   3  -5  -3  175.23    9.69
   3   5  -3  163.58    8.42
   3  -5  -3  142.68    7.96
   3   5  -2   13.09    2.49
  -3  -5  -2   10.11    1.81
   3   5  -2   13.29    2.62
   3  -5  -2    9.12    2.08
   3  -5  -2    8.54    1.94
  -3   5  -2    9.16    2.29
   3  -5  -1  181.66    9.81
   3   5  -1  184.43    9.20
  -3   5  -1  169.08    9.37
   3   5  -1  179.51    9.66
  -3  -5  -1  191.18    6.95
   3  -5  -1  189.14    8.89
   3   5   0  100.58    6.97
   3   5   0  101.88    7.35
  -3   5   0   99.19    7.15
   3  -5   0   85.61    6.67
   3  -5   0   93.11    6.20
   3   5   1  171.92    9.47
  -3   5   1  155.60    9.21
   3  -5   1  170.14    8.21
   3   5   1  184.63    9.58
   3  -5   1  190.19    9.72
   3  -5   2   12.11    2.52
   3   5   2    8.69    2.25
   3   5   2   10.63    2.56
  -3   5   2    8.46    2.32
   3  -5   2   12.60    2.27
   3   5   3  138.19    8.69
   3  -5   3  154.51    7.75
  -3   5   3  153.98    9.08
   3  -5   3  151.96    8.62
   3   5   3  152.99    8.90
   3  -5   4   43.80    4.64
   3   5   4   55.94    5.57
   3  -5   4   53.68    4.49
   3   5   4   50.44    5.20
  -3   5   4   40.15    4.70
   3   5   5    4.63    2.24
   3   5   5    5.20    2.06
  -3   5   5    5.43    2.36
   3  -5   5    4.72    1.36
   3  -5   5    9.04    2.14
   3  -5   6   50.27    4.27
  -3   5   6   54.01    5.54
   3   5   6   58.87    5.70
   3   5   6   47.61    5.31
   3  -5   6   47.00    4.86
   3   5   7   65.76    6.15
   3  -5   7   70.73    5.99
   3   5   7   70.65    6.44
   3  -5   7   72.71    5.28
  -3   5   7   69.03    6.30
   3   5   8   19.36    3.45
   3  -5   8   19.37    2.98
  -3   5   8   24.95    3.95
   3  -5   8   20.37    2.87
   3   5   8   25.69    3.89
   3   5   9  134.81    9.19
   3   5   9  142.92    9.13
  -3   5   9  146.95    9.53
   3  -5   9  141.39    7.71
   3  -5   9  127.35    7.90
   3  -5  10   37.67    4.50
   3   5  10   41.88    4.70
  -3   5  10   45.82    5.45
   3   5  10   38.45    4.93
   3   5  11   35.32    4.58
  -3   5  11   35.85    4.92
   3   5  11   31.79    4.67
   3  -5  11   34.99    4.27
   3   5  12   92.93    7.71
  -3   5  12   97.00    7.99
   3   5  12   80.99    7.42
   3  -5  12   84.23    6.56
   3   5  13  180.91   10.87
   3   5  13  150.13   10.00
  -3   5  13  169.83   10.83
   3  -5  13  163.45    8.95
   3   5  14   53.60    5.84
  -3   5  14   57.74    6.30
   3   5  14   46.15    5.84
   3  -5  14   49.93    4.89
  -3   5  15   47.42    5.72
   3   5  15   34.12    4.93
   3   5  15   34.08    4.76
   3   5  16   35.39    4.88
  -3   5  16   24.39    4.67
   3   5  16   23.37    4.41
  -3   5  17   39.98    5.70
   3   5  17   47.32    5.62
   3   5  17   44.61    5.86
   3   5  18   13.60    3.87
   3   5  18   19.56    3.73
  -3   5  18   17.58    3.92
   3   5  19   35.08    5.41
   3   5  19   32.90    5.25
  -3   5  19   30.85    4.92
  -3   5  20   14.25    3.72
   3   5  20   22.55    4.62
  -3   5  21    4.33    2.57
   3   5  21    3.16    1.67
  -3   5  21    1.15    1.97
  -3   5  22    7.63    2.83
   3   5  22    9.42    3.04
  -3   5  22   11.07    3.18
   3   5  23   10.23    2.28
  -3   5  23   17.32    4.19
  -3   5  24    3.77    2.35
   3   5  24    9.65    2.77
   3   5  25   13.15    3.57
   3   5  26    8.27    2.85
   3  -6 -26    0.18    1.66
  -3  -6 -26    0.51    1.67
  -3  -6 -25    4.42    1.84
   3  -6 -25    1.89    1.02
   3  -6 -24    2.98    2.18
  -3  -6 -24    3.62    2.11
   3  -6 -23   -0.98    1.13
  -3  -6 -23    2.42    1.39
  -3  -6 -22    5.89    2.62
   3  -6 -22    4.21    2.45
  -3  -6 -21    1.87    1.52
   3  -6 -21    7.80    2.56
  -3  -6 -20   -0.99    2.25
   3  -6 -20   -1.16    0.96
  -3  -6 -19   21.73    4.40
   3  -6 -19   17.18    3.83
  -3  -6 -18   16.50    4.02
   3  -6 -18   15.77    4.17
   3  -6 -17    6.38    2.45
  -3  -6 -17    3.36    1.06
   3  -6 -16    9.04    2.82
   3  -6 -16   13.84    3.10
  -3  -6 -16    7.87    2.53
  -3  -6 -15   40.17    5.55
   3  -6 -15   42.52    5.90
   3  -6 -15   45.33    5.89
   3  -6 -14    3.73    1.49
   3   6 -14    4.19    1.82
  -3  -6 -14    4.95    2.17
   3  -6 -13   81.43    7.57
   3  -6 -13   72.87    7.24
  -3  -6 -13   72.29    7.14
   3   6 -13   86.65    7.71
  -3  -6 -12   10.79    3.00
   3   6 -12    4.74    2.46
   3  -6 -12    3.10    1.46
   3  -6 -12    8.73    2.54
  -3   6 -11   45.14    5.17
   3  -6 -11   49.72    6.00
  -3  -6 -11   52.19    5.61
   3   6 -11   59.50    6.09
   3  -6 -11   56.79    6.32
  -3  -6 -10   13.17    3.22
   3  -6 -10   18.80    3.86
   3   6 -10   11.20    2.97
  -3   6 -10   15.61    3.18
   3  -6 -10   16.76    3.50
   3   6  -9   12.68    2.89
  -3   6  -9   15.61    3.11
  -3  -6  -9   18.41    3.20
   3  -6  -9   18.71    3.90
   3  -6  -9   13.59    3.30
  -3  -6  -8   25.53    3.72
   3  -6  -8   23.82    3.90
  -3   6  -8   27.08    3.99
   3  -6  -8   24.03    4.43
   3   6  -8   26.44    4.18
   3   6  -8   29.86    3.76
   3   6  -7   50.47    4.89
   3   6  -7   50.56    5.65
  -3   6  -7   55.15    5.67
  -3  -6  -7   61.33    5.66
   3  -6  -7   52.60    6.05
   3  -6  -7   43.82    5.05
   3   6  -6    9.02    2.23
   3  -6  -6    9.94    3.11
  -3   6  -6   12.01    3.14
   3   6  -6   14.13    3.26
  -3  -6  -6   10.31    2.26
   3  -6  -6    9.39    2.49
   3   6  -5   54.12    5.27
   3  -6  -5   58.49    6.08
   3   6  -5   57.18    5.91
  -3   6  -5   66.16    6.32
   3  -6  -5   53.94    5.50
  -3  -6  -5   59.14    5.09
   3   6  -4    7.98    2.42
  -3   6  -4   12.62    2.89
   3  -6  -4    8.09    2.68
  -3  -6  -4    9.61    1.81
   3   6  -4    9.06    2.17
   3  -6  -4   12.40    2.92
   3   6  -3   54.87    5.80
  -3  -6  -3   55.67    4.58
   3  -6  -3   63.23    5.59
   3  -6  -3   71.00    6.65
   3   6  -3   61.27    5.64
  -3   6  -3   75.36    6.56
   3   6  -2   96.11    7.27
   3   6  -2   92.65    7.58
  -3   6  -2   69.34    6.31
   3  -6  -2   89.72    6.58
  -3  -6  -2   73.69    4.96
   3  -6  -2   76.02    6.83
   3  -6  -1   64.20    6.36
   3   6  -1   63.20    6.17
  -3   6  -1   53.70    5.53
   3   6  -1   57.22    5.54
  -3  -6  -1   51.69    3.93
   3  -6  -1   57.20    5.21
  -3   6   0    1.39    1.39
   3   6   0    1.60    1.63
   3   6   0    1.34    1.11
   3  -6   0    2.53    1.83
   3  -6   0    0.29    0.51
   3   6   1   62.82    6.26
   3   6   1   62.73    6.05
  -3   6   1   56.48    5.92
   3  -6   1   59.42    5.24
   3  -6   1   53.60    5.52
   3   6   2   81.74    7.10
  -3   6   2   84.28    7.28
   3  -6   2   80.24    6.00
   3   6   2   73.52    6.62
   3  -6   2   81.95    6.98
   3   6   3   66.57    6.56
  -3   6   3   80.09    7.04
   3  -6   3   73.51    5.60
   3   6   3   52.89    5.94
   3  -6   3   74.57    6.65
   3   6   4    8.11    2.07
   3   6   4    9.94    2.76
   3  -6   4    8.20    1.74
  -3   6   4   12.88    2.93
   3  -6   4    9.71    2.83
   3  -6   5   61.33    5.14
  -3   6   5   57.57    6.10
   3  -6   5   48.69    5.21
   3   6   5   47.42    5.53
   3   6   5   65.46    6.53
   3  -6   6   10.36    2.52
  -3   6   6   11.98    2.87
   3  -6   6   14.92    2.51
   3   6   6   11.86    2.92
   3   6   6   13.28    2.99
  -3   6   7   54.72    6.01
   3   6   7   53.97    6.15
   3  -6   7   56.52    5.58
   3   6   7   62.84    6.40
   3  -6   7   63.80    5.22
   3   6   8   26.71    3.91
  -3   6   8   27.13    4.20
   3   6   8   21.39    4.01
   3  -6   8   24.25    3.88
   3  -6   8   24.22    3.28
  -3   6   9   21.78    4.01
   3  -6   9   18.40    3.21
   3   6   9   17.36    3.64
   3   6   9   17.29    3.38
   3  -6   9   17.77    3.09
  -3   6  10   17.38    3.31
   3   6  10   18.50    3.47
   3   6  10   14.14    3.19
   3  -6  10   21.60    3.41
   3  -6  10   14.45    2.69
  -3   6  11   54.42    6.34
   3   6  11   47.07    5.96
   3  -6  11   52.65    5.49
   3   6  11   49.01    5.82
   3  -6  12    6.18    2.10
   3   6  12    7.78    2.64
   3   6  12    6.99    2.37
  -3   6  12    5.00    2.09
   3   6  13   85.37    7.88
  -3   6  13   67.46    7.16
   3  -6  13   82.87    6.88
   3   6  13   88.50    8.13
   3   6  14    3.88    2.23
  -3   6  14    5.40    1.99
   3   6  14    8.55    3.18
   3   6  15   30.91    4.93
   3   6  15   34.64    5.18
  -3   6  15   34.00    5.18
   3   6  16   12.01    3.48
   3   6  16   21.51    4.19
  -3   6  16   18.26    3.78
   3   6  17    9.66    2.57
  -3   6  17    5.70    3.12
  -3   6  18   14.32    3.00
   3   6  18   19.21    3.96
   3   6  18    7.39    2.92
   3   6  19   29.04    5.19
  -3   6  19   27.52    4.98
   3   6  19   20.26    4.41
   3   6  20    2.42    2.45
   3   6  20    1.34    2.05
  -3   6  20   -0.61    2.07
  -3   6  21    4.85    2.87
  -3   6  21    0.65    1.50
   3   6  21    5.55    2.54
   3   6  22   -0.65    1.81
  -3   6  22   -0.60    2.68
  -3   6  22    0.36    1.44
  -3   6  23   -0.61    1.39
   3   6  23    0.54    1.71
   3   6  24    2.74    2.79
  -3   6  24    1.93    1.68
  -3   6  25    3.20    2.22
   3   6  25    6.36    2.49
   3   6  26    0.30    1.50
  -3  -7 -24    9.11    3.09
   3  -7 -24   12.91    4.22
   3  -7 -23   13.49    3.94
  -3  -7 -23    7.54    3.04
  -3  -7 -22   15.24    4.34
   3  -7 -22    7.16    2.76
  -3  -7 -21    1.52    2.35
   3  -7 -21    7.35    2.77
  -3  -7 -20   10.89    3.16
   3  -7 -20    6.26    2.00
  -3  -7 -19   12.99    2.97
   3  -7 -19   14.18    3.41
   3  -7 -18    2.96    1.33
  -3  -7 -18    5.10    2.95
  -3  -7 -17   14.02    3.93
   3  -7 -17   24.69    4.79
   3  -7 -16   29.17    5.13
   3  -7 -16   33.30    5.50
  -3  -7 -16   17.14    3.79
   3  -7 -15   10.88    2.63
   3  -7 -15    8.22    2.70
  -3  -7 -15    7.37    2.07
   3  -7 -14    9.92    2.81
   3   7 -14    8.15    2.81
   3  -7 -14   14.74    3.61
  -3  -7 -14    5.16    2.15
   3   7 -13   45.83    5.94
  -3  -7 -13   37.03    5.49
   3  -7 -13   35.74    5.43
   3  -7 -13   39.86    5.59
   3   7 -12    4.81    2.35
  -3  -7 -12   13.67    3.29
   3  -7 -12   11.91    3.17
   3  -7 -12   11.45    2.38
   3   7 -11   -0.09    1.24
  -3   7 -11    1.13    1.54
  -3  -7 -11    3.95    1.50
   3  -7 -11    1.14    1.45
   3  -7 -11    2.02    1.64
  -3  -7 -10   25.77    4.08
   3  -7 -10   21.39    4.01
  -3   7 -10   29.05    4.56
   3   7 -10   22.29    4.33
   3  -7 -10   18.86    3.68
  -3   7  -9   58.61    6.44
  -3  -7  -9   58.55    6.22
   3  -7  -9   50.86    6.10
   3  -7  -9   59.58    6.35
   3   7  -9   59.77    6.56
   3  -7  -8   12.36    3.32
  -3   7  -8    9.24    2.21
   3   7  -8    9.40    2.76
   3  -7  -8   10.18    2.68
  -3  -7  -8   11.87    2.18
   3   7  -7   17.10    3.61
  -3   7  -7   16.17    3.36
  -3  -7  -7   22.24    3.64
   3   7  -7   21.20    3.66
   3  -7  -7   27.68    4.57
   3  -7  -7   19.69    3.80
   3   7  -6   45.69    5.84
   3  -7  -6   50.02    5.70
  -3  -7  -6   36.88    4.85
  -3   7  -6   39.09    5.40
   3  -7  -6   39.67    5.27
   3   7  -6   41.44    4.96
  -3  -7  -5   13.69    2.59
   3  -7  -5   13.37    2.87
   3   7  -5   19.96    3.51
  -3   7  -5   15.07    3.13
   3   7  -5   18.79    3.73
   3  -7  -5   11.55    3.23
   3   7  -4   82.21    7.15
  -3   7  -4   80.37    7.60
  -3  -7  -4   66.60    5.56
   3  -7  -4   78.57    6.85
   3   7  -4   85.54    7.82
   3  -7  -4   75.23    7.42
   3   7  -3   64.72    6.88
  -3   7  -3   63.18    6.93
  -3  -7  -3   75.23    5.68
   3   7  -3   79.61    7.15
   3  -7  -3   73.26    7.30
   3  -7  -3   71.90    6.63
   3   7  -2   53.92    6.10
  -3   7  -2   44.26    5.79
   3  -7  -2   51.91    5.43
   3  -7  -2   54.93    6.56
   3   7  -2   61.02    6.45
   3  -7  -1  170.77   11.09
   3   7  -1  160.58   10.36
  -3   7  -1  151.46   10.18
   3  -7  -1  165.05    9.51
   3   7  -1  171.02   11.18
  -3   7   0  134.94    9.64
   3  -7   0  118.50    7.87
   3   7   0  122.44    9.00
   3  -7   0  123.67    9.25
   3   7   0  122.25    9.32
   3  -7   1  160.85    9.09
   3   7   1  159.88   10.58
  -3   7   1  189.40   11.68
   3  -7   1  158.66   10.72
   3   7   1  166.11   10.47
   3   7   2   64.94    6.75
   3  -7   2   63.59    6.67
   3   7   2   59.51    6.44
  -3   7   2   57.95    6.40
   3  -7   2   56.25    5.33
   3   7   3   85.86    7.75
   3   7   3  100.02    8.52
  -3   7   3   85.20    7.91
   3  -7   3   67.50    5.96
   3  -7   3   86.60    7.63
   3  -7   4   64.80    5.70
  -3   7   4   62.56    6.91
   3   7   4   66.78    7.14
   3   7   4   78.00    7.43
  -3   7   5   16.34    3.56
   3   7   5   12.93    3.52
   3   7   5   12.74    3.03
   3  -7   5   20.57    3.51
   3  -7   5   12.19    2.44
   3   7   6   35.74    5.09
  -3   7   6   30.83    5.08
   3   7   6   42.00    5.55
   3   7   7   17.49    3.90
   3   7   7   18.40    3.80
  -3   7   7   17.13    3.82
   3  -7   7   20.59    3.89
   3   7   8    7.28    2.24
   3   7   8   11.86    2.93
  -3   7   8   13.01    3.05
   3  -7   8    9.31    2.80
  -3   7   9   57.36    6.87
   3   7   9   62.34    6.70
   3  -7   9   63.09    6.50
   3   7   9   48.68    6.10
   3  -7  10   22.77    3.98
   3   7  10   10.10    2.72
  -3   7  10   19.22    4.12
   3   7  10   19.53    3.91
   3   7  11    1.44    1.26
  -3   7  11    2.64    2.79
   3   7  11    1.82    1.21
   3  -7  11    3.79    2.11
   3  -7  12    1.98    1.55
   3   7  12    5.60    1.77
   3   7  12    6.80    2.24
  -3   7  12    4.42    1.87
   3   7  13   44.42    6.21
  -3   7  13   31.15    5.06
   3   7  13   42.50    5.93
  -3   7  14    9.95    3.02
   3   7  14   10.01    2.79
   3   7  14   13.19    3.28
   3   7  15    7.90    2.71
  -3   7  15    7.71    2.68
   3   7  15   13.09    3.00
   3   7  16   32.06    5.77
   3   7  16   31.25    5.30
  -3   7  16   36.44    6.06
  -3   7  17   12.26    3.53
   3   7  17   18.10    4.13
   3   7  17   15.58    3.81
  -3   7  18    1.58    1.41
   3   7  18    1.49    1.38
   3   7  18    2.85    1.96
  -3   7  19   20.64    4.95
   3   7  19   26.57    5.28
   3   7  19   16.73    4.05
   3   7  20    4.20    2.72
   3   7  20    2.38    1.56
   3   7  21    0.76    1.23
  -3   7  21    6.88    3.19
  -3   7  21    4.43    2.78
  -3   7  22   10.09    3.50
   3   7  22   11.41    3.88
  -3   7  22    8.26    3.57
  -3   7  23    7.31    2.45
   3   7  23    6.69    1.91
   3   7  24    6.07    2.69
  -3   7  24    8.72    3.94
   3  -8 -22    6.57    3.65
  -3  -8 -22    1.96    3.06
  -3  -8 -21   -1.95    2.26
   3  -8 -21    0.12    1.85
  -3  -8 -20    2.79    2.04
   3  -8 -20   -0.53    1.26
   3  -8 -19    4.22    2.38
  -3  -8 -19    2.27    1.14
  -3  -8 -18    3.55    1.26
   3  -8 -18    7.13    2.96
  -3  -8 -17    3.71    1.95
   3  -8 -17    2.60    0.97
  -3  -8 -16    3.52    2.35
   3  -8 -16    2.28    2.41
  -3  -8 -15   10.54    3.26
   3  -8 -15   10.87    2.95
   3  -8 -15   14.69    3.50
  -3  -8 -14    4.17    2.39
   3  -8 -14    2.42    2.17
   3  -8 -14    2.05    1.94
  -3  -8 -13   26.25    4.59
   3  -8 -13   32.09    5.24
   3  -8 -13   25.97    4.88
   3   8 -13   26.11    5.66
   3   8 -12    9.84    2.99
  -3  -8 -12   10.52    2.99
   3  -8 -12    8.40    2.67
   3  -8 -12   12.48    3.25
   3   8 -11    3.64    1.59
   3  -8 -11    1.17    1.87
  -3  -8 -11    5.24    2.54
   3  -8 -11   -0.50    1.07
   3   8 -10    4.31    2.11
  -3  -8 -10    0.17    1.50
   3  -8 -10    2.71    1.38
   3  -8 -10    0.66    1.28
   3  -8  -9   25.36    4.43
  -3  -8  -9   16.35    3.84
  -3   8  -9   17.18    3.55
   3   8  -9   24.98    4.59
   3  -8  -9   14.54    3.52
  -3  -8  -8    4.90    1.04
   3   8  -8    7.63    2.56
   3  -8  -8    7.59    2.27
   3  -8  -8    8.35    2.55
  -3   8  -8    8.99    3.17
   3  -8  -7   11.52    2.97
   3   8  -7   14.20    3.34
  -3   8  -7    8.48    2.87
   3  -8  -7   12.44    3.50
   3   8  -6    2.53    1.83
   3  -8  -6    3.03    1.97
  -3   8  -6    0.56    1.19
   3   8  -6    1.23    1.61
   3  -8  -6    1.84    0.91
   3   8  -5    5.46    1.46
   3   8  -5    9.90    3.43
   3  -8  -5   11.26    2.86
   3  -8  -5   10.83    3.25
  -3   8  -5    8.42    2.48
   3  -8  -4   25.26    4.37
  -3   8  -4   28.74    4.87
   3  -8  -4   17.51    3.61
   3   8  -4   28.96    4.67
   3   8  -4   24.76    4.48
  -3   8  -3    9.80    2.71
   3   8  -3   15.92    3.69
   3   8  -3    8.82    2.84
   3  -8  -3   11.07    2.90
   3  -8  -3   15.41    3.64
  -3   8  -2    6.33    2.28
   3   8  -2    2.96    1.97
   3  -8  -2    0.12    1.00
   3   8  -2    1.13    2.10
   3  -8  -2    5.10    2.35
   3   8  -1   17.86    3.63
   3  -8  -1   15.84    2.96
   3   8  -1   13.25    3.30
  -3   8  -1   14.34    3.49
   3  -8  -1   12.96    3.32
   3   8   0    1.48    1.74
   3   8   0    1.12    1.33
  -3   8   0    1.56    2.01
   3  -8   0   -0.60    1.52
  -3   8   1   14.69    3.64
   3   8   1   15.68    3.57
   3  -8   1   16.23    3.56
   3   8   1   13.91    3.82
   3   8   2    2.21    0.93
   3   8   2    2.91    1.71
  -3   8   2    2.05    2.12
   3  -8   2    4.53    2.33
   3   8   3    6.87    2.49
   3   8   3    8.52    2.81
  -3   8   3    7.05    2.51
   3  -8   3   12.05    2.99
   3   8   4   25.80    4.82
  -3   8   4   25.54    4.80
   3   8   4   22.61    4.40
   3  -8   4   24.17    4.42
   3   8   5    7.62    2.97
   3  -8   5   15.15    3.78
   3   8   5   14.28    3.33
  -3   8   5    9.39    2.40
   3   8   6    0.63    0.74
  -3   8   6    2.49    2.33
   3   8   6    0.16    2.04
   3  -8   6    0.95    1.39
   3   8   7    7.91    2.37
  -3   8   7   10.93    3.28
   3   8   7   10.74    2.75
   3  -8   7    4.08    2.01
  -3   8   8    7.87    2.48
   3   8   8    8.63    2.72
   3  -8   8    8.14    2.83
   3   8   8    5.62    2.74
   3   8   9   19.69    4.21
   3  -8   9   25.76    4.50
  -3   8   9   19.36    3.82
   3   8   9   21.35    4.58
  -3   8  10    2.33    1.61
   3   8  10    2.60    1.96
   3  -8  10    1.98    1.23
  -3   8  11    1.14    1.60
   3   8  11    0.16    1.57
   3   8  11    3.17    2.56
   3   8  12   10.87    3.06
   3   8  12   10.45    3.44
  -3   8  12    5.17    0.94
   3   8  13   24.58    4.96
  -3   8  13   36.41    5.89
   3   8  13   33.42    5.58
  -3   8  14    1.13    1.17
   3   8  14    1.26    0.95
  -3   8  15   10.22    3.42
   3   8  15   12.24    3.65
   3   8  15    9.28    3.05
   3   8  16    3.93    1.50
   3   8  16    1.78    1.01
   3   8  17    9.12    3.67
  -3   8  17    6.10    2.41
   3   8  17    4.38    2.09
  -3   8  18    1.19    2.59
   3   8  18    3.16    2.62
   3   8  18    0.09    2.08
  -3   8  19    3.10    1.87
   3   8  19    0.54    2.88
   3   8  19    0.16    1.21
   3   8  20    2.29    1.47
  -3   8  20    4.34    3.20
  -3   8  20   -0.61    2.90
   3   8  20    3.24    2.11
   3   8  21    5.16    3.17
  -3   8  21    1.28    2.29
  -3   8  21   -1.19    1.83
  -3   8  22   -1.42    2.10
  -3   8  22    6.11    2.99
   3   8  22    6.37    1.83
   3  -9 -19   10.16    3.07
  -3  -9 -19    4.68    2.33
   3  -9 -18    4.40    2.64
  -3  -9 -18    4.35    2.29
  -3  -9 -17    2.46    1.85
   3  -9 -17    0.68    1.42
  -3  -9 -16    7.10    1.88
   3  -9 -16    5.43    1.97
  -3  -9 -15   -0.06    1.32
   3  -9 -15    6.35    2.24
   3  -9 -14    4.81    2.41
   3  -9 -14    3.41    2.30
   3  -9 -13   16.26    3.95
   3  -9 -13   10.39    3.56
   3  -9 -12    1.64    1.58
   3   9 -12    3.50    2.74
   3  -9 -12    4.39    2.51
   3   9 -11    6.10    2.95
   3  -9 -11    5.09    2.56
   3  -9 -11    6.80    2.94
   3  -9 -10   11.78    3.55
  -3   9 -10    0.67    0.94
   3  -9 -10   10.11    3.18
   3   9 -10   12.15    3.25
   3  -9  -9   36.05    5.70
   3   9  -9   45.34    6.54
  -3   9  -9   39.22    5.78
   3  -9  -9   36.13    5.59
   3  -9  -8   13.76    3.22
   3   9  -8   17.66    3.86
  -3   9  -8   21.94    4.32
   3  -9  -8   22.76    4.50
  -3   9  -7   30.34    5.08
   3  -9  -7   28.85    5.11
   3  -9  -7   24.32    4.69
   3   9  -7   37.25    5.99
  -3   9  -6   23.48    4.42
   3   9  -6   30.17    5.20
   3  -9  -6   26.83    4.73
  -3   9  -5   31.99    5.39
   3   9  -5   21.56    4.32
   3  -9  -5   33.57    5.33
   3  -9  -4   49.14    6.50
  -3   9  -4   41.47    5.99
   3   9  -4   32.51    5.23
   3   9  -4   45.79    6.61
  -3   9  -3   57.05    7.16
   3   9  -3   51.28    6.71
   3  -9  -3   44.99    6.25
   3   9  -3   51.97    6.49
   3   9  -2   18.28    3.91
  -3   9  -2   17.44    4.29
   3  -9  -2   12.99    3.39
   3   9  -2   17.29    3.83
  -3   9  -1   44.97    6.34
   3   9  -1   38.83    5.70
   3  -9  -1   43.91    6.15
   3   9  -1   46.05    6.33
  -3   9   0   18.34    4.12
   3   9   0   24.33    4.94
   3  -9   0   18.12    3.77
   3   9   0   23.57    4.61
   3  -9   1   35.63    5.53
   3   9   1   46.23    6.52
  -3   9   1   33.85    5.61
   3   9   1   42.10    6.16
   3   9   2   14.94    3.54
   3  -9   2   15.75    3.81
  -3   9   2   19.18    4.24
   3   9   2   12.13    3.17
   3   9   3   58.52    7.02
  -3   9   3   58.82    7.25
   3  -9   3   66.13    7.57
   3   9   3   46.92    6.53
   3  -9   4   41.46    5.94
   3   9   4   43.49    6.21
  -3   9   4   50.46    6.68
   3   9   4   58.21    7.22
   3   9   5   20.64    4.40
  -3   9   5   27.66    5.03
   3   9   5   28.24    4.92
   3  -9   5   25.42    4.61
   3   9   6   32.29    5.25
  -3   9   6   25.62    5.02
   3   9   6   30.95    5.19
   3  -9   6   30.52    5.07
  -3   9   7   34.41    6.01
   3   9   7   32.78    5.76
   3  -9   7   26.65    4.87
   3   9   7   21.41    4.50
   3  -9   8   16.95    3.64
   3   9   8   17.81    4.40
  -3   9   8   14.29    4.08
   3   9   8   19.90    4.35
   3   9   9   45.50    6.55
  -3   9   9   45.33    6.67
   3   9   9   35.67    5.35
   3  -9   9   36.37    5.73
   3   9  10    8.39    3.33
   3   9  10   17.09    3.88
  -3   9  10   14.52    3.96
   3   9  11    5.32    3.01
   3   9  11    2.78    2.52
  -3   9  11    2.33    1.90
   3   9  12   -1.20    1.22
   3   9  12    0.67    0.79
  -3   9  12   -0.34    1.95
   3   9  13   10.78    3.63
   3   9  13    5.25    2.62
  -3   9  13   11.65    4.27
   3   9  14    2.70    2.40
   3   9  14    4.01    2.21
  -3   9  14    1.34    2.12
  -3   9  15    3.13    1.36
   3   9  15    4.78    2.42
   3   9  16    0.94    1.49
  -3   9  16    4.39    2.15
   3   9  16    5.24    2.47
   3   9  17    3.12    2.53
   3   9  17    2.25    1.95
  -3   9  17    0.14    1.15
   3   9  18    0.87    1.25
   3   9  18    5.15    2.10
  -3   9  18    4.84    2.33
  -3   9  19    6.04    3.09
   3   9  19    6.07    2.01
  -3   9  19    5.98    2.44
   3   9  19    9.14    3.30
   3 -10 -15    5.15    3.00
   3 -10 -12    0.38    1.07
   3  10 -11   10.56    3.86
   3 -10 -11   13.87    3.82
   3  10 -10    3.68    2.62
   3 -10 -10    7.73    2.76
   3 -10  -9    9.25    2.99
   3  10  -9    6.78    3.19
  -3  10  -8   10.88    4.09
   3  10  -8   14.67    3.81
   3 -10  -8   17.78    4.40
   3 -10  -7   -1.28    1.10
  -3  10  -7   -0.54    1.54
  -3  10  -6    1.73    2.27
   3 -10  -6    3.83    2.57
   3  10  -6    4.01    2.71
   3  10  -5   21.00    4.84
  -3  10  -5   15.92    4.14
   3 -10  -5   15.12    4.09
   3  10  -4   15.22    4.01
   3 -10  -4   15.64    4.24
  -3  10  -4   28.56    5.32
   3 -10  -3   39.12    6.11
   3  10  -3   41.93    6.38
   3  10  -3   38.52    6.06
  -3  10  -3   27.87    5.21
   3  10  -2    9.34    2.53
   3  10  -2    9.99    3.31
  -3  10  -2   15.18    3.99
   3 -10  -2    4.23    2.12
   3  10  -1    3.15    1.61
  -3  10  -1    5.07    1.85
   3 -10  -1    2.12    1.13
  -3  10   0    3.88    2.38
   3  10   0    3.67    2.06
   3  10   0    4.06    2.43
   3 -10   0    3.18    1.01
   3  10   1    3.69    2.22
   3  10   1    3.69    2.25
  -3  10   1    3.35    1.72
   3 -10   1    7.99    2.84
   3  10   2    6.18    2.20
   3  10   2    8.51    3.32
  -3  10   2    3.79    1.98
   3 -10   2   10.47    3.24
   3 -10   3   47.45    6.95
   3  10   3   50.66    6.93
  -3  10   3   58.24    7.27
   3  10   3   50.33    7.14
   3  10   4   14.05    3.66
  -3  10   4   23.76    5.00
   3 -10   4   15.19    4.19
   3  10   5   11.61    3.70
  -3  10   5   14.69    3.42
   3  10   5    8.64    3.22
   3 -10   5   17.15    4.03
   3  10   6   -0.10    1.75
   3 -10   6    0.95    1.12
   3  10   6    1.75    1.48
  -3  10   6    1.27    1.70
   3  10   7   -0.78    1.59
  -3  10   7    0.21    1.72
   3 -10   7   -2.55    1.88
   3  10   7    0.56    1.55
  -3  10   8   21.95    4.95
   3  10   8   13.16    3.41
  -3  10   9    8.09    3.15
   3  10   9    6.61    3.51
   3  10   9    8.32    2.94
  -3  10  10   -0.37    1.58
   3  10  10    2.50    1.88
  -3  10  11   17.72    4.65
   3  10  11    9.91    3.51
   3  10  11   11.55    3.26
   3  10  12    4.96    2.49
   3  10  12   -0.28    2.23
  -3  10  12    1.65    2.09
   3  10  13   -0.39    1.21
  -3  10  13    2.81    1.16
   3  10  13    1.29    1.74
   3  10  14    0.93    0.76
   3  10  14    0.91    1.93
  -3  10  14   -1.89    1.92
   3  10  15    1.15    1.50
  -3  10  15   -2.46    2.73
   3  10  15   -0.54    1.55
   3  11  -9    1.72    1.88
   3 -11  -9    0.55    1.94
  -3  11  -8   11.07    4.43
   3  11  -8    7.19    3.00
   3 -11  -8   19.85    4.57
   3  11  -7   15.83    3.94
  -3  11  -7    7.74    3.22
   3 -11  -7    8.71    2.32
   3 -11  -6    0.88    1.63
  -3  11  -6    1.34    2.29
   3  11  -5    2.59    2.40
  -3  11  -5   -1.32    3.15
   3 -11  -5    8.29    3.16
   3  11  -4    7.96    2.75
  -3  11  -4    7.03    2.89
   3 -11  -4    4.45    2.03
   3  11  -3   -2.77    3.32
  -3  11  -3    1.79    1.75
   3 -11  -3   -1.00    0.87
   3 -11  -2    5.11    2.58
   3  11  -2    9.65    3.13
  -3  11  -1    0.85    0.85
   3  11  -1   -0.27    1.38
   3  11  -1   -0.16    1.59
   3 -11  -1    4.26    2.74
   3  11   0   -0.59    1.72
   3 -11   0   -0.30    2.22
  -3  11   0   -0.79    2.01
   3  11   0   -0.97    2.17
   3  11   1   -1.45    1.75
   3  11   1    2.66    2.61
  -3  11   1    4.29    2.48
   3 -11   1    5.04    2.98
   3  11   2    2.56    2.04
  -3  11   2    5.70    2.73
   3  11   2    0.60    2.14
   3 -11   2    1.68    1.18
   3  11   3    2.16    2.48
  -3  11   3   -1.56    2.26
   3  11   3    0.82    0.95
   3 -11   3    1.00    2.09
   3  11   4    5.74    2.99
  -3  11   4    2.57    1.63
   3  11   4    2.74    1.69
   3 -11   4    7.56    2.53
   3  11   5    0.96    1.28
   3  11   5    2.88    1.93
  -3  11   5    4.58    2.69
   3  11   6    5.18    2.46
   3 -11   6    5.97    2.57
   3  11   6    3.80    1.91
  -3  11   6    2.27    1.68
   3  11   7    5.73    2.66
   3  11   7    7.44    2.50
  -3  11   7   10.79    3.35
   3  11   8   11.19    4.06
   3  11   8   10.59    3.61
  -3  11   8    8.82    3.01
   3  11   9    3.31    2.31
   3  11   9    2.83    2.02
  -3  11   9    7.66    2.87
   4   0 -30    6.19    2.74
   4   0 -29    3.80    2.07
   4   0 -28    0.20    1.67
   4   0 -27   24.24    4.78
   4   0 -26   50.03    6.51
   4   0 -25    8.55    3.11
   4   0 -24   16.35    3.98
   4   0 -23   23.76    4.17
   4   0 -22   41.10    5.72
   4   0 -21   51.89    6.31
   4   0 -20   48.83    5.74
   4   0 -19   85.82    7.65
   4   0 -18   96.90    7.82
   4   0 -17  411.07   15.72
   4   0 -16  102.96    7.57
   4   0 -15  173.62    9.49
   4   0 -14  123.17    7.69
   4   0 -14  126.48    5.69
   4   0 -13   75.39    6.08
   4   0 -13   73.26    4.23
   4   0 -12   56.82    3.68
   4   0 -11  826.79   18.60
   4   0 -11  823.55   13.45
   4   0 -10   55.94    4.62
   4   0 -10   56.62    3.54
   4   0  -9  764.50   16.82
   4   0  -9  786.25   12.82
   4   0  -8  194.72    8.11
   4   0  -8  181.38    6.07
   4   0  -7   38.77    3.44
   4   0  -7   35.50    3.34
   4   0  -7   33.31    2.57
   4   0  -6   85.97    5.01
   4   0  -6   86.97    4.20
   4   0  -6   95.39    5.13
   4   0  -5  258.61    8.39
   4   0  -5  245.48    8.19
   4   0  -5  248.11    7.05
   4   0  -4   93.13    4.91
   4   0  -4   92.28    4.23
   4   0  -4   84.77    4.70
   4   0  -3 1043.37   16.02
   4   0  -3 1063.78   16.13
   4   0  -3 1052.21   14.44
   4   0  -2  724.62   12.20
   4   0  -2  700.28   12.75
   4   0  -1  384.98    9.50
   4   0  -1  402.32    9.52
   4   0  -1  382.22    9.12
   4   0   0  476.46   10.31
   4   0   0  446.01    9.95
   4   0   1  396.10    8.97
   4   0   1  388.45    9.43
   4   0   2  698.23   12.98
   4   0   2  684.80   11.59
   4   0   3 1056.11   16.36
   4   0   3 1051.99   13.81
   4   0   4   95.23    4.06
   4   0   4   91.20    4.96
   4   0   5  253.42    8.63
   4   0   5  266.58    6.67
   4   0   6   99.59    5.52
   4   0   6   90.11    3.78
   4   0   7   40.60    3.63
   4   0   7   39.05    2.41
   4   0   8  196.61    8.16
   4   0   8  178.40    4.95
   4   0   9  809.80   16.90
   4   0   9  786.57   10.07
   4   0  10   51.48    2.45
   4   0  10   50.98    4.48
   4   0  11  766.05   17.44
   4   0  11  747.64    8.86
   4   0  12   69.32    5.38
   4   0  12   58.56    2.14
   4   0  14  140.53    8.01
   4   0  15  174.24    9.15
  -4   0  16   89.71    5.03
   4   0  16   85.13    6.54
   4   0  17  409.85   14.91
   4   0  18   93.92    7.29
   4   0  19   79.38    6.92
   4   0  20   46.83    5.51
   4   0  21   46.17    5.42
   4  -1 -30   -1.75    2.60
   4  -1 -29   -0.41    1.40
   4   1 -28   -6.04    2.41
   4  -1 -28   -1.83    1.49
   4   1 -27    3.80    2.83
   4  -1 -27    4.26    2.00
   4   1 -26   -0.59    1.29
   4  -1 -26    1.40    1.16
   4  -1 -25    8.94    3.24
   4   1 -25    4.23    1.95
   4   1 -24   30.76    5.01
   4  -1 -24   28.24    4.91
   4   1 -23    2.51    1.59
   4  -1 -23    2.23    1.88
   4   1 -22   11.97    2.68
   4  -1 -22    7.88    2.82
   4   1 -21    4.15    2.29
   4  -1 -21    4.57    2.09
   4   1 -20    0.99    1.92
   4  -1 -20    1.72    0.85
   4   1 -19   24.82    3.90
   4  -1 -19   19.61    3.76
   4  -1 -18   33.23    4.81
   4   1 -18   24.33    4.03
   4   1 -17   14.76    3.01
   4  -1 -17   20.07    3.46
   4   1 -16  170.39    9.47
   4  -1 -16  161.91    9.79
   4  -1 -15    1.82    0.74
   4   1 -15    1.84    1.32
   4  -1 -14   37.57    4.53
   4   1 -14   30.23    3.73
   4  -1 -14   30.33    3.33
   4  -1 -13   33.74    3.40
   4   1 -13   36.87    4.09
   4  -1 -13   26.43    3.76
   4   1 -12   27.89    3.41
   4  -1 -12   32.65    4.13
   4  -1 -12   35.18    3.50
   4   1 -12   39.34    3.80
   4   1 -11   68.64    4.86
   4   1 -11   75.61    5.22
   4  -1 -11   65.87    4.63
   4  -1 -11   64.80    5.45
   4   1 -11   59.98    2.57
   4  -1 -10  421.83   11.52
   4  -1 -10  440.81   13.85
   4   1 -10  421.52    6.81
   4   1 -10  443.12   12.27
   4   1 -10  454.97   12.60
   4  -1  -9    7.78    1.59
   4  -1  -9    4.31    1.34
   4   1  -9    5.79    0.81
   4   1  -9    5.93    1.49
   4   1  -9    9.16    1.91
   4   1  -8  134.42    4.15
   4   1  -8  128.54    6.07
   4  -1  -8  130.50    7.20
   4   1  -8  137.99    6.65
   4  -1  -8  138.00    6.27
   4   1  -7   22.69    2.41
   4   1  -7   23.41    1.78
   4  -1  -7   21.26    2.46
   4  -1  -7   22.87    2.92
   4   1  -7   21.53    2.52
   4   1  -6   91.46    5.20
   4   1  -6   86.64    3.57
   4  -1  -6   95.90    5.73
   4  -1  -6   95.68    5.12
   4   1  -6   89.94    4.65
   4  -1  -5   54.09    4.17
   4   1  -5   66.24    3.85
   4   1  -5   55.96    2.98
   4   1  -5   59.56    4.06
   4  -1  -5   59.47    3.97
   4  -1  -4  262.56    8.34
   4   1  -4  256.85    6.67
   4   1  -4  234.65    7.20
   4  -1  -4  244.38    8.71
   4   1  -4  259.16    8.37
   4   1  -3   33.54    2.64
   4   1  -3   27.40    2.24
   4  -1  -3   31.85    2.98
   4   1  -3   30.29    2.84
   4  -1  -3   30.54    2.82
   4   1  -2   58.78    3.43
   4  -1  -2   52.07    3.65
   4  -1  -2   50.22    3.70
   4   1  -2   56.07    3.33
   4   1  -2   54.50    3.71
   4  -1  -1   18.17    2.18
   4   1  -1   14.07    1.75
   4  -1  -1   14.23    2.00
   4   1  -1   18.83    2.16
   4  -1   0  155.89    6.43
   4  -1   0  144.85    6.05
   4   1   0  150.56    5.93
   4   1   1   16.47    1.99
   4   1   1   14.66    1.89
   4  -1   1   15.66    2.02
   4   1   2   50.23    3.46
   4   1   2   48.20    3.53
   4   1   3   30.55    2.66
   4   1   3   25.38    2.68
   4  -1   3   28.79    2.95
   4   1   4  250.73    8.50
   4   1   4  256.76    7.70
   4  -1   4  249.26    8.39
   4  -1   5   62.04    4.20
   4   1   5   58.69    3.60
   4   1   5   54.87    4.05
   4   1   6   91.62    4.55
   4   1   6   98.30    5.65
   4  -1   6  100.56    5.46
   4  -1   7   23.22    2.69
   4   1   7   20.28    2.73
   4   1   7   24.94    2.29
   4  -1   8  127.31    6.42
   4   1   8  120.76    5.13
   4   1   8  123.74    6.65
   4   1   9    9.39    1.40
   4   1   9    6.53    1.71
   4  -1   9    8.84    1.68
   4   1  10  439.82    9.76
   4   1  10  453.23   13.39
   4  -1  10  440.69   12.52
   4   1  11   61.89    3.63
   4   1  11   74.27    5.56
   4  -1  11   65.77    4.83
   4   1  12   34.02    2.70
   4   1  12   31.80    3.69
   4  -1  12   31.60    3.59
   4  -1  13   33.56    3.74
   4   1  13   31.14    3.77
   4   1  13   29.80    2.50
  -4  -1  13   21.79    1.41
   4   1  14   33.47    2.65
   4   1  14   32.79    3.96
   4   1  15    1.03    0.49
   4   1  15    2.61    0.85
   4  -1  15    3.66    1.34
   4   1  16  172.63    9.58
   4  -1  16  171.42    9.03
   4  -1  17   12.72    2.41
   4   1  17   22.38    3.61
   4   1  18   26.34    4.06
   4  -1  18   28.82    4.01
  -4   1  18   29.87    3.73
   4   1  19   21.98    3.45
   4  -1  19   16.65    2.96
   4  -1  20    1.05    0.85
   4   1  20    1.40    0.81
   4   1  21    5.57    2.08
   4   1  22    8.14    2.53
   4   1  23    3.45    2.21
   4  -2 -30   -3.31    3.08
   4  -2 -29   -0.16    1.27
   4  -2 -28    2.50    2.77
   4  -2 -27   33.78    5.98
   4  -2 -26   21.43    4.59
   4  -2 -25   32.34    5.32
   4  -2 -24    4.25    2.50
   4  -2 -23   -1.15    1.61
   4  -2 -22   27.07    4.82
   4   2 -22   27.68    4.19
   4   2 -21   30.90    4.54
   4  -2 -21   32.72    5.15
   4   2 -20    0.83    1.08
   4  -2 -20    1.21    1.89
   4  -2 -19   75.69    7.32
   4   2 -19   61.51    6.22
  -4  -2 -19   74.65    7.51
   4  -2 -18    7.23    2.52
   4   2 -18    7.93    2.39
  -4  -2 -18    7.55    2.18
   4  -2 -17    4.50    1.66
   4   2 -17    2.28    1.62
   4  -2 -17    6.05    1.82
  -4  -2 -17    3.81    1.47
   4   2 -16  125.78    8.01
  -4  -2 -16  138.75    9.54
   4   2 -16  139.40    7.96
   4  -2 -16  135.70    9.05
   4  -2 -16  130.65    7.99
  -4  -2 -15   83.12    7.10
   4   2 -15   88.15    6.45
   4   2 -15   87.61    6.17
   4  -2 -15   82.39    6.24
   4  -2 -15   82.45    6.99
   4  -2 -14   33.85    4.54
   4   2 -14   34.08    3.84
  -4  -2 -14   36.89    4.53
   4   2 -14   35.08    3.80
   4  -2 -14   32.53    3.87
   4  -2 -13   72.78    5.64
   4   2 -13   74.92    5.48
   4   2 -13   66.81    5.08
   4  -2 -13   72.02    6.34
  -4  -2 -13   62.76    5.79
   4  -2 -12  143.44    8.73
   4   2 -12  133.04    6.92
   4  -2 -12  144.76    8.00
  -4  -2 -12  137.17    8.53
   4   2 -12  166.82    8.12
  -4  -2 -11   32.19    4.04
  -4   2 -11   29.83    1.83
   4   2 -11   37.10    3.30
   4  -2 -11   35.63    4.37
   4  -2 -11   32.22    3.84
   4   2 -11   34.27    3.56
   4  -2 -10  161.99    8.20
   4  -2 -10  188.23    9.43
   4   2 -10  192.09    8.32
  -4   2 -10  173.48    4.91
   4   2 -10  182.42    7.26
  -4  -2 -10  189.55    9.41
   4   2  -9   62.26    4.05
   4  -2  -9   49.33    4.30
   4  -2  -9   57.96    5.14
   4   2  -9   59.96    4.55
   4  -2  -8   10.12    2.19
   4   2  -8    9.04    1.48
   4   2  -8   11.86    1.07
   4   2  -8   12.92    2.01
   4  -2  -8    9.76    1.91
   4   2  -7    2.35    0.59
   4   2  -7    3.28    1.33
   4  -2  -7    2.88    1.00
   4   2  -7    4.32    1.01
   4  -2  -7    4.72    1.23
   4  -2  -6    2.63    1.05
   4   2  -6    2.80    1.13
   4   2  -6    4.38    0.85
   4   2  -6    4.78    0.99
   4  -2  -6    2.40    1.18
   4   2  -5   21.95    2.00
   4  -2  -5   18.87    2.57
   4   2  -5   23.57    2.05
   4   2  -5   15.25    2.33
   4  -2  -5   19.21    2.59
   4   2  -4  574.13   13.58
   4   2  -4  575.43   10.54
   4  -2  -4  559.53   13.81
   4   2  -4  563.56    9.51
   4  -2  -4  575.96   14.19
   4   2  -3  164.35    7.34
   4   2  -3  168.36    5.18
   4  -2  -3  157.30    7.24
   4  -2  -3  167.63    7.40
   4   2  -2   77.66    4.96
   4  -2  -2   82.31    5.20
   4   2  -2   74.52    4.12
   4  -2  -2   86.84    5.27
   4   2  -1   53.45    3.66
   4  -2  -1   60.74    4.41
   4   2  -1   50.93    3.97
   4  -2  -1   55.28    4.17
   4  -2   0   63.03    4.48
   4   2   0   64.10    4.07
   4  -2   0   56.01    4.19
   4   2   0   59.53    4.24
   4   2   1   58.19    4.29
   4  -2   1   45.53    3.81
   4   2   1   58.42    4.01
   4  -2   1   59.40    4.27
   4   2   2   80.77    4.96
   4   2   2   72.93    4.64
   4  -2   2   76.93    4.84
   4  -2   2   70.18    4.70
   4  -2   3  163.93    7.18
   4   2   3  177.10    7.54
   4   2   3  158.44    6.90
   4  -2   4  568.90   13.49
   4   2   4  589.04   13.32
   4   2   4  577.58   13.78
   4  -2   5   16.60    2.32
   4   2   5   17.07    2.31
   4   2   5   14.35    2.25
   4   2   6    2.40    1.10
   4   2   6    3.09    0.81
   4  -2   6    3.42    1.18
   4   2   7    1.56    0.69
   4  -2   7    2.47    1.00
   4   2   7    2.81    1.30
   4   2   8   11.54    1.93
   4  -2   8    8.63    1.65
   4   2   8    9.10    2.03
   4  -2   9   49.47    4.20
   4   2   9   49.76    4.63
   4   2   9   60.69    4.31
   4   2  10  180.16    8.99
   4   2  10  184.89    7.72
   4  -2  10  180.64    8.22
   4  -2  11   35.75    3.67
   4   2  11   33.44    3.34
   4   2  12  150.57    7.09
   4   2  12  127.38    7.91
   4  -2  12  138.70    7.44
   4   2  13   78.32    5.08
   4  -2  13   67.93    5.25
   4   2  13   74.03    6.15
   4   2  14   34.58    3.48
   4  -2  14   30.38    3.56
   4   2  14   30.23    4.01
   4  -2  15   82.95    6.14
   4   2  15   82.88    5.34
   4   2  15   80.25    6.59
   4   2  16  127.06    6.62
   4   2  16  146.17    9.28
   4  -2  16  126.98    7.84
   4   2  17    5.07    1.82
   4  -2  17    5.63    1.63
   4   2  18    5.67    2.24
   4  -2  18    8.76    2.27
   4   2  19   69.99    6.90
   4  -2  19   73.26    6.38
   4   2  20    3.17    1.23
  -4   2  20    1.80    0.62
   4   2  21   31.29    4.96
   4   2  22   21.16    4.26
   4   2  23    1.13    0.91
   4   2  24    0.56    1.23
   4  -3 -29    1.26    0.96
   4  -3 -28   -0.42    1.04
   4  -3 -27   -1.03    1.49
   4  -3 -26    3.88    1.97
   4  -3 -25   -2.62    0.92
   4  -3 -24    1.18    1.68
  -4  -3 -23    1.59    1.73
   4  -3 -23    4.97    2.68
  -4  -3 -22    1.74    1.63
   4  -3 -22    0.84    1.21
  -4  -3 -21    0.24    0.91
   4  -3 -21    0.24    0.80
  -4  -3 -20   -0.56    0.83
   4  -3 -20    1.49    0.98
   4  -3 -19    7.33    2.45
  -4  -3 -19    4.74    1.90
  -4  -3 -18    5.84    2.14
   4  -3 -18    9.65    2.60
   4  -3 -18    5.19    1.99
   4   3 -17   16.54    3.18
  -4  -3 -17   16.19    3.43
   4  -3 -17   19.42    3.69
   4  -3 -17   17.13    3.21
  -4  -3 -16    6.20    2.28
   4   3 -16    5.00    1.74
   4  -3 -16    6.30    2.16
   4  -3 -16   10.38    2.69
   4   3 -16   11.03    2.58
   4  -3 -15   37.74    4.83
   4  -3 -15   29.71    4.08
  -4  -3 -15   30.64    4.56
   4   3 -15   36.21    3.82
   4   3 -15   31.62    3.83
   4   3 -14    2.02    1.30
   4   3 -14    0.76    1.11
  -4  -3 -14    3.22    1.99
   4  -3 -14    0.93    1.35
   4  -3 -14    0.67    1.11
   4  -3 -13   14.14    3.35
  -4  -3 -13   22.88    3.74
   4   3 -13   12.77    2.12
   4  -3 -13   17.86    3.18
   4   3 -13   16.79    2.76
  -4   3 -12   21.37    2.24
   4   3 -12   24.93    2.74
  -4  -3 -12   28.78    3.91
   4  -3 -12   25.72    3.56
   4  -3 -12   22.70    3.81
   4   3 -12   26.99    3.44
   4   3 -11    6.91    1.37
   4   3 -11    5.93    1.63
   4  -3 -11    6.08    1.76
   4  -3 -11    6.33    2.16
  -4   3 -11    6.11    1.11
  -4  -3 -11    9.17    2.04
   4  -3 -10   12.12    2.65
   4   3 -10   11.59    1.77
  -4  -3 -10   10.17    2.12
  -4   3 -10   12.21    1.75
   4  -3 -10   12.61    2.69
   4   3 -10   13.64    2.42
  -4   3  -9   32.52    2.97
   4   3  -9   27.88    2.37
   4  -3  -9   25.74    3.57
   4   3  -9   23.47    3.11
   4  -3  -9   32.55    4.03
  -4  -3  -9   22.39    3.40
   4   3  -9   25.65    1.82
   4   3  -8    2.44    0.65
   4   3  -8    1.83    1.41
  -4   3  -8    3.49    0.89
   4  -3  -8    1.10    0.52
   4   3  -8    2.33    0.66
  -4  -3  -8    4.04    1.35
   4  -3  -8    3.19    1.61
   4   3  -7   36.57    3.85
  -4   3  -7   31.69    3.04
  -4  -3  -7   32.00    3.44
   4   3  -7   31.35    2.43
   4  -3  -7   24.50    3.35
   4  -3  -7   33.63    3.94
   4   3  -7   30.26    2.02
   4   3  -6  256.68   10.14
   4  -3  -6  278.42   11.00
   4   3  -6  269.20    5.58
   4  -3  -6  265.50   10.75
   4   3  -6  246.55    7.29
   4   3  -5   35.45    3.82
   4  -3  -5   39.87    4.05
   4   3  -5   35.26    1.89
   4  -3  -5   30.96    3.72
   4   3  -5   32.58    2.76
   4   3  -4    9.67    1.60
   4   3  -4    8.89    2.13
   4   3  -4   10.24    1.07
   4  -3  -4   11.47    2.31
   4  -3  -4    8.46    1.82
   4   3  -3   51.62    4.50
   4   3  -3   50.49    3.71
   4  -3  -3   56.79    4.60
   4   3  -3   45.65    2.34
   4  -3  -3   53.75    4.76
   4   3  -2   40.30    3.93
   4  -3  -2   38.54    3.83
   4  -3  -2   36.33    3.87
   4   3  -2   40.63    3.41
   4   3  -1   72.51    5.33
   4  -3  -1   86.60    5.58
   4  -3  -1   76.89    5.47
   4   3  -1   70.90    4.66
   4  -3   0  261.12   10.05
   4   3   0  239.96    9.64
   4   3   0  226.31    8.63
   4  -3   0  240.77    9.20
   4   3   1   73.82    5.01
   4  -3   1   72.70    5.04
   4   3   1   79.84    5.66
   4  -3   1   72.53    5.22
   4   3   2   39.45    3.84
   4   3   2   35.95    3.77
   4  -3   2   38.34    3.88
   4  -3   2   40.10    3.72
   4   3   3   57.17    4.60
   4  -3   3   53.07    4.43
   4  -3   3   49.62    4.12
   4  -3   4    9.63    1.97
   4   3   4   10.08    2.07
   4  -3   4   10.81    1.96
   4   3   4    8.50    1.84
   4  -3   5   32.47    3.51
   4   3   5   33.87    3.72
   4   3   5   26.38    3.31
   4  -3   6  281.08   10.35
   4   3   6  270.34   10.38
   4   3   6  269.71   10.83
   4   3   7   31.79    3.54
   4  -3   7   30.97    3.43
   4   3   7   36.11    4.01
   4   3   8    3.88    1.16
   4  -3   8    1.73    0.79
   4   3   8    1.98    0.94
   4   3   9   28.66    3.40
   4  -3   9   26.79    3.31
   4   3   9   27.92    3.52
   4   3  10   11.45    2.42
   4  -3  10   10.01    2.16
   4   3  10   13.18    2.58
   4   3  11    4.62    1.62
   4   3  11    6.87    1.63
   4  -3  11    4.97    1.50
   4   3  12   22.26    2.99
   4   3  12   17.93    3.15
   4  -3  12   18.28    2.91
   4   3  13   10.15    2.40
   4   3  13   15.00    2.58
   4  -3  13   18.21    2.90
   4   3  14    1.22    0.89
   4  -3  14   -0.17    0.67
   4   3  14    1.74    0.82
   4   3  15   30.91    3.64
   4  -3  15   34.11    3.91
   4   3  15   30.61    4.42
   4  -3  16    5.22    1.61
   4   3  16    6.24    1.89
   4   3  16    7.13    2.01
   4   3  17   14.71    2.50
   4  -3  17   15.09    2.70
   4   3  17   17.07    3.49
   4   3  18    6.27    2.34
   4   3  19    1.50    0.70
   4   3  20   -0.81    1.31
  -4   3  21    2.00    2.00
   4   3  21    0.75    0.81
   4   3  22   -0.65    1.22
   4   3  23    1.85    1.48
   4   3  24    3.68    2.75
   4   3  25   -0.17    1.15
   4  -4 -28    1.43    2.95
   4  -4 -27    6.27    2.40
   4  -4 -26   13.88    4.03
   4  -4 -25   10.24    3.09
  -4  -4 -25   10.19    3.01
  -4  -4 -24    5.28    2.43
   4  -4 -24    4.26    2.12
   4  -4 -23    8.21    3.28
  -4  -4 -23   14.37    3.63
  -4  -4 -22   12.17    3.54
   4  -4 -22    8.57    2.96
   4  -4 -21   43.70    6.29
  -4  -4 -21   51.70    6.57
   4  -4 -20   22.49    4.46
  -4  -4 -20   28.29    4.98
   4  -4 -19    7.88    2.49
  -4  -4 -19    1.47    1.28
  -4  -4 -18    3.73    1.43
   4  -4 -18    3.35    1.02
   4  -4 -18    4.67    1.84
   4  -4 -17    5.08    2.18
   4  -4 -17    6.52    2.03
  -4  -4 -17    4.16    1.41
  -4  -4 -16   75.41    7.17
   4  -4 -16   62.58    6.34
   4   4 -16   60.03    5.78
   4  -4 -16   56.21    6.33
  -4  -4 -15  357.99   15.67
   4  -4 -15  362.58   15.38
   4  -4 -15  370.36   16.06
   4   4 -15  351.34   13.80
   4  -4 -14   53.69    6.03
  -4  -4 -14   69.71    7.01
   4   4 -14   61.60    5.77
   4  -4 -14   63.76    6.39
  -4  -4 -13   25.90    4.22
   4  -4 -13   34.48    5.18
   4  -4 -13   23.34    3.81
   4   4 -13   33.18    4.17
  -4  -4 -12  120.49    8.49
   4   4 -12  104.89    7.18
   4  -4 -12   91.22    7.37
   4  -4 -12  119.53    8.58
  -4   4 -11  103.17    6.10
   4  -4 -11  111.82    8.14
  -4  -4 -11  104.56    7.61
   4  -4 -11  109.26    8.02
   4   4 -11  118.66    7.70
   4   4 -10  102.81    7.17
   4  -4 -10   94.82    7.41
   4  -4 -10  105.29    7.67
  -4   4 -10  108.18    6.25
  -4  -4 -10  101.67    7.25
  -4  -4  -9   75.01    6.15
   4  -4  -9   71.12    6.21
   4   4  -9   71.67    5.91
  -4   4  -9   64.07    4.90
   4   4  -9   60.18    3.61
   4  -4  -9   61.91    5.89
   4   4  -8   11.43    2.42
  -4  -4  -8   12.55    2.53
   4  -4  -8   13.35    2.65
   4   4  -8   10.37    1.55
  -4   4  -8   10.78    1.91
   4  -4  -8   11.29    2.29
   4  -4  -7  116.11    7.63
  -4  -4  -7  125.72    7.44
  -4   4  -7  118.24    6.78
   4  -4  -7  123.72    8.08
   4   4  -7  126.95    5.82
   4   4  -7  119.39    7.53
   4   4  -6    9.64    2.16
   4   4  -6    9.46    1.65
  -4  -4  -6   14.96    2.48
  -4   4  -6   13.66    2.46
   4  -4  -6   14.10    2.59
   4  -4  -6   12.66    2.64
   4   4  -5   62.15    4.39
   4  -4  -5   67.60    5.68
   4   4  -5   66.49    5.54
  -4  -4  -5   61.98    4.91
  -4   4  -5   57.53    4.78
   4  -4  -5   59.71    5.55
   4  -4  -4  220.19    9.94
   4   4  -4  244.68   10.86
   4  -4  -4  237.26   10.78
  -4   4  -4  233.02    9.78
   4   4  -4  224.21    8.62
   4   4  -3   96.84    6.69
   4   4  -3   82.91    5.38
   4  -4  -3   87.84    6.25
   4  -4  -3   82.28    6.30
   4  -4  -2    5.65    1.92
   4   4  -2    7.30    1.93
   4  -4  -2    7.72    1.82
   4   4  -2    6.59    1.61
   4   4  -1    6.29    1.90
   4  -4  -1    6.86    1.83
   4  -4  -1    7.42    2.15
   4   4  -1    5.27    1.58
   4  -4   0   15.50    2.57
   4  -4   0    9.43    2.21
   4   4   0   11.86    2.46
   4   4   0   10.13    1.91
   4  -4   1    3.29    1.56
   4   4   1    3.69    1.36
   4   4   1    5.21    1.77
   4  -4   1    0.93    0.50
   4  -4   2    5.44    1.83
   4   4   2    6.26    1.94
   4   4   2    8.34    2.08
   4  -4   2    8.50    1.84
   4  -4   3   82.00    5.65
   4   4   3   83.08    6.21
   4   4   3   85.09    6.17
   4  -4   3   94.86    6.54
   4   4   4  227.30   10.37
   4   4   4  205.02    9.75
   4  -4   4  215.31    9.14
   4  -4   4  225.17   10.14
   4   4   5   65.42    5.64
   4  -4   5   56.73    4.75
   4  -4   5   67.35    5.57
   4   4   5   70.74    5.80
   4   4   6   14.50    2.70
   4   4   6   10.67    2.35
   4  -4   6   11.38    2.13
   4  -4   6   12.45    2.27
   4   4   7  110.78    7.33
   4   4   7  115.40    7.72
   4  -4   7  129.69    7.56
   4  -4   8   13.08    2.59
   4   4   8   12.56    2.85
   4   4   8   10.09    2.36
   4  -4   9   61.72    5.31
   4   4   9   68.02    6.13
   4   4   9   63.45    5.66
   4  -4  10  110.87    7.10
   4   4  10  103.95    7.36
   4   4  10   89.81    7.33
   4  -4  11  119.07    7.46
   4   4  11  115.54    8.26
   4   4  11  103.58    7.29
   4  -4  12  109.63    7.31
   4   4  12  106.99    7.54
   4   4  12   99.77    7.91
   4   4  13   37.39    4.53
   4  -4  13   24.71    3.61
   4   4  13   27.33    4.26
   4  -4  14   59.89    5.52
   4   4  14   59.04    5.76
   4   4  14   67.34    6.67
   4  -4  15  339.49   13.24
   4   4  15  368.93   14.45
   4   4  15  337.73   15.11
   4  -4  16   53.19    5.20
   4   4  16   58.90    5.87
   4   4  17    4.41    2.20
   4   4  17    3.98    1.66
   4   4  18    8.35    2.59
   4   4  18    8.23    2.75
   4   4  19    5.40    2.28
   4   4  20   24.72    4.34
  -4   4  21   45.83    6.63
   4   4  21   40.07    5.71
  -4   4  22    7.27    2.14
  -4   4  22    3.86    2.24
   4   4  22   10.37    2.97
   4   4  23   10.04    3.01
   4   4  24    6.26    2.46
   4   4  25    9.07    2.55
   4   4  26   20.74    4.39
   4  -5 -27    1.34    1.70
   4  -5 -26    2.37    3.04
   4  -5 -25    1.30    0.93
  -4  -5 -25   -0.46    2.07
   4  -5 -24   14.19    4.32
  -4  -5 -24   12.84    3.52
  -4  -5 -23    0.78    1.96
   4  -5 -23    0.38    1.57
  -4  -5 -22    8.61    2.83
   4  -5 -22   -0.15    1.93
  -4  -5 -21   -0.47    1.12
   4  -5 -21    0.63    1.25
   4  -5 -20    3.93    1.96
  -4  -5 -20    5.23    2.63
  -4  -5 -19    2.78    1.23
   4  -5 -19    2.70    1.79
   4  -5 -18    8.53    2.66
   4  -5 -18   11.22    3.29
  -4  -5 -18    9.18    3.14
   4  -5 -17   47.38    6.02
   4  -5 -17   39.84    5.82
  -4  -5 -17   44.19    6.10
  -4  -5 -16   38.08    5.47
   4  -5 -16   42.04    5.49
   4  -5 -16   39.28    5.16
  -4  -5 -15   74.97    7.16
   4   5 -15   75.96    6.99
   4  -5 -15   78.50    7.48
   4  -5 -15   62.48    6.90
   4   5 -14    4.06    1.72
   4  -5 -14    4.81    2.01
   4  -5 -14    2.63    1.49
  -4  -5 -14    4.41    1.85
   4   5 -13   50.38    5.55
  -4  -5 -13   56.75    6.14
   4  -5 -13   57.53    6.31
   4  -5 -13   48.04    5.75
   4   5 -12   52.82    5.64
  -4  -5 -12   58.56    6.12
   4  -5 -12   65.80    6.75
   4  -5 -12   53.11    6.10
   4   5 -11    1.97    1.39
  -4   5 -11    0.46    1.05
   4  -5 -11    0.72    1.19
  -4  -5 -11    3.19    1.32
   4  -5 -11    0.40    0.65
   4   5 -10   30.09    4.29
  -4   5 -10   30.80    3.98
   4  -5 -10   25.27    4.36
   4  -5 -10   31.36    4.38
  -4  -5 -10   26.00    3.95
   4  -5  -9   25.08    4.08
   4   5  -9   19.61    3.29
   4   5  -9   18.98    2.60
  -4   5  -9   27.43    3.56
   4  -5  -9   22.94    4.08
  -4  -5  -9   20.16    3.12
   4   5  -8   14.15    2.27
  -4   5  -8   14.17    2.60
  -4  -5  -8   10.81    2.57
   4   5  -8   13.23    2.63
   4  -5  -8    8.50    2.13
   4  -5  -8   10.73    2.71
   4   5  -7   16.55    2.45
  -4   5  -7   14.33    2.64
  -4  -5  -7   23.26    3.22
   4  -5  -7   14.35    3.02
   4  -5  -7   17.29    3.35
   4   5  -7   17.14    3.10
   4   5  -6    3.70    1.01
   4   5  -6    5.70    1.66
  -4  -5  -6    2.81    1.27
   4  -5  -6    6.15    2.19
  -4   5  -6    4.24    1.87
   4  -5  -6    6.03    1.84
  -4  -5  -5   10.47    2.23
  -4   5  -5    6.79    1.98
   4   5  -5    9.37    2.32
   4  -5  -5    7.57    2.25
   4   5  -5    7.88    1.83
   4  -5  -5    9.97    2.23
   4  -5  -4   50.01    5.46
   4   5  -4   47.12    4.45
  -4  -5  -4   45.59    4.11
  -4   5  -4   44.57    4.82
   4  -5  -4   45.80    4.77
   4   5  -4   47.52    5.12
   4   5  -3   12.99    2.72
   4   5  -3   17.41    2.83
   4  -5  -3   13.73    2.52
  -4   5  -3   11.68    2.23
   4  -5  -3   11.64    2.70
   4   5  -2   -1.17    0.90
   4   5  -2    1.52    1.49
  -4   5  -2    2.02    1.46
   4  -5  -2    0.21    1.00
   4  -5  -2    1.36    0.95
   4  -5  -1   41.41    4.38
   4   5  -1   32.64    4.20
   4  -5  -1   28.08    3.94
  -4   5  -1   35.98    4.42
   4   5  -1   37.05    4.12
   4   5   0   11.63    2.42
  -4   5   0   19.57    3.25
   4  -5   0   21.15    3.40
   4  -5   0   16.95    2.82
   4   5   0   20.68    3.01
   4   5   1   44.43    4.60
   4   5   1   37.34    4.55
   4  -5   1   36.67    4.03
  -4   5   1   39.91    4.70
   4  -5   1   36.86    4.55
   4   5   2    2.64    1.23
   4   5   2    0.61    0.74
   4  -5   2    0.01    0.82
   4  -5   2    0.04    0.88
   4  -5   3   14.05    2.55
   4   5   3    8.48    2.13
   4   5   3   10.68    2.65
   4  -5   3   10.70    2.40
   4   5   4   51.28    5.31
   4  -5   4   54.29    4.89
   4   5   4   56.67    5.61
   4  -5   4   48.28    5.08
   4  -5   5   14.06    2.62
   4   5   5   13.73    2.85
   4   5   5   10.59    2.62
   4  -5   5   12.29    2.46
   4  -5   6    5.90    1.76
   4  -5   6    6.53    1.89
   4   5   6    7.48    2.15
   4   5   6    6.88    2.11
   4   5   7   16.10    3.11
   4   5   7   20.65    3.75
   4  -5   7   16.51    2.89
   4  -5   7   16.19    2.98
   4   5   8   14.04    2.78
   4  -5   8   12.28    2.31
   4   5   8   10.72    2.42
   4  -5   8    9.80    2.03
   4   5   9   14.72    2.60
   4  -5   9   29.12    3.72
   4   5   9   21.85    3.84
   4  -5   9   26.22    3.85
   4   5  10   34.21    4.55
   4   5  10   30.09    4.42
   4  -5  10   35.33    4.38
   4  -5  11    1.68    0.66
   4   5  11    3.52    1.85
   4   5  11    2.90    2.02
   4  -5  12   65.50    6.10
   4   5  12   55.70    5.90
   4   5  12   55.39    6.13
   4   5  13   49.92    5.92
   4   5  13   55.03    5.87
   4  -5  13   54.17    5.42
   4  -5  14    2.74    1.64
   4   5  14    1.75    1.55
   4   5  14    3.56    1.16
   4   5  15   67.45    6.77
   4   5  15   67.85    7.03
   4  -5  15   63.80    6.08
   4   5  16   34.75    5.03
  -4   5  16   51.97    6.14
   4   5  16   48.67    5.97
   4   5  17   38.70    5.41
  -4   5  17   39.51    5.74
   4   5  17   39.36    5.52
  -4   5  18   14.26    3.55
   4   5  18   17.48    3.73
   4   5  18   11.44    3.39
   4   5  19    3.72    2.57
   4   5  19    1.46    1.47
   4   5  20    8.03    2.88
  -4   5  20    3.33    1.87
  -4   5  21    0.85    1.41
   4   5  21   -0.78    1.82
   4   5  22    5.97    2.33
  -4   5  22    2.88    1.79
  -4   5  22    5.68    2.42
   4   5  23    0.86    1.01
  -4   5  23    3.91    1.86
   4   5  24    6.52    3.16
   4   5  25    1.72    2.46
   4   5  26   -1.42    2.18
   4   5  27    3.34    1.77
   4  -6 -26    9.21    2.95
  -4  -6 -26    6.42    3.02
  -4  -6 -25    1.74    1.04
   4  -6 -25    2.00    1.56
  -4  -6 -24    6.27    3.11
   4  -6 -24    8.83    3.08
  -4  -6 -23   20.17    4.73
   4  -6 -23   13.98    3.68
  -4  -6 -22   13.08    4.01
   4  -6 -22   10.30    3.10
   4  -6 -21   33.35    5.57
  -4  -6 -21   28.72    5.29
  -4  -6 -20   57.60    7.17
   4  -6 -20   54.81    7.17
   4  -6 -19    2.27    2.31
  -4  -6 -19    5.48    2.27
  -4  -6 -18    1.80    1.15
   4  -6 -18    4.25    1.77
   4  -6 -18    6.61    2.67
  -4  -6 -17   42.68    6.06
   4  -6 -17   44.26    5.86
   4  -6 -17   32.24    5.21
   4  -6 -16   11.79    3.55
   4  -6 -16    8.32    2.49
  -4  -6 -16    8.44    2.78
   4  -6 -15  227.91   13.26
  -4  -6 -15  220.17   12.93
   4  -6 -15  198.79   12.39
   4   6 -15  198.77   11.96
   4  -6 -14   58.80    6.58
   4  -6 -14   60.28    6.93
  -4  -6 -14   48.15    6.15
   4   6 -14   58.32    6.60
   4  -6 -13    5.66    2.40
  -4  -6 -13   13.76    3.43
   4   6 -13   10.77    2.86
   4  -6 -13    8.14    2.90
  -4  -6 -12   16.11    3.54
   4   6 -12   16.55    3.66
   4  -6 -12   21.08    4.21
   4  -6 -12   12.34    3.33
   4   6 -11  229.22   12.34
  -4  -6 -11  228.71   12.38
   4  -6 -11  239.77   12.99
   4  -6 -11  243.12   13.43
   4   6 -10   45.64    5.76
  -4   6 -10   52.36    5.74
  -4  -6 -10   58.78    6.08
   4  -6 -10   47.36    5.62
   4  -6 -10   58.73    6.71
   4   6  -9   93.74    7.88
  -4   6  -9   89.54    7.40
  -4  -6  -9  103.58    7.81
   4  -6  -9   96.88    7.91
   4  -6  -9   95.45    8.41
   4   6  -8   24.59    3.62
  -4   6  -8   20.99    3.68
  -4  -6  -8   26.46    3.82
   4  -6  -8   29.21    4.44
   4  -6  -8   23.39    3.87
   4   6  -8   22.74    4.04
   4   6  -7    5.73    1.93
   4   6  -7    8.19    2.43
   4  -6  -7   10.21    2.52
  -4  -6  -7   10.84    2.52
   4  -6  -7    7.47    2.11
  -4   6  -7   11.90    2.89
   4   6  -6   98.10    7.91
  -4   6  -6   78.56    6.91
  -4  -6  -6   99.75    6.98
   4  -6  -6   85.71    7.78
   4  -6  -6   85.52    7.21
   4   6  -6   83.40    6.36
   4   6  -5  143.97    9.61
  -4  -6  -5  139.92    8.03
   4   6  -5  137.92    8.36
   4  -6  -5  145.36    9.90
  -4   6  -5  142.18    9.23
   4  -6  -5  134.24    8.90
   4  -6  -4    3.84    2.14
   4   6  -4    4.35    1.93
  -4  -6  -4    3.25    1.20
   4   6  -4    3.03    1.27
  -4   6  -4    6.94    2.17
   4  -6  -4    4.48    2.18
   4  -6  -3   81.58    7.40
   4   6  -3   79.92    6.95
  -4   6  -3   80.64    7.05
   4  -6  -3   72.89    6.41
   4   6  -3   69.34    6.00
  -4   6  -2   10.51    2.58
   4   6  -2   12.51    2.34
   4  -6  -2   16.21    2.98
   4   6  -2   10.24    2.77
   4  -6  -2    9.69    2.65
  -4   6  -1   94.67    7.66
   4   6  -1   83.16    7.14
   4   6  -1   91.44    7.15
   4  -6  -1   84.65    6.55
   4  -6  -1   88.12    7.39
   4   6   0  116.54    8.56
  -4   6   0  102.62    7.84
   4  -6   0  130.06    8.15
   4   6   0  118.74    8.30
   4  -6   0  106.45    8.18
  -4   6   1   89.21    7.55
   4   6   1   81.47    7.27
   4   6   1   74.78    6.56
   4  -6   1   85.05    6.53
   4  -6   1   90.41    7.47
   4  -6   2    8.84    2.37
  -4   6   2   12.65    3.12
   4   6   2   16.86    3.12
   4  -6   2   12.19    2.57
   4   6   2    9.85    2.23
   4   6   3   89.10    7.68
  -4   6   3   75.82    7.00
   4   6   3   76.46    6.92
   4  -6   3   81.96    7.21
   4  -6   3   71.67    6.04
   4   6   4   -0.18    0.75
   4  -6   4    5.48    2.28
  -4   6   4    8.43    2.48
   4   6   4    1.57    1.38
   4  -6   4    3.45    1.07
   4   6   5  155.94   10.07
   4   6   5  142.47    9.39
  -4   6   5  153.56   10.07
   4  -6   5  135.44    8.25
   4  -6   5  166.34    9.83
   4   6   6   76.99    7.16
  -4   6   6   80.01    7.23
   4  -6   6   90.00    6.80
   4   6   6   97.01    7.98
   4  -6   6   88.15    7.28
  -4   6   7    8.85    2.82
   4   6   7    6.23    2.67
   4   6   7   11.78    3.01
   4  -6   7    6.45    2.19
   4  -6   7    3.98    1.60
  -4   6   8   25.91    4.18
   4   6   8   25.51    4.12
   4   6   8   20.81    3.51
   4  -6   8   20.26    3.23
   4  -6   8   26.25    3.90
   4  -6   9   97.52    7.75
   4   6   9   93.43    8.18
   4   6   9  100.38    8.47
  -4   6   9  104.81    8.65
   4  -6   9   82.25    6.71
   4   6  10   43.50    5.58
   4   6  10   47.51    5.60
   4  -6  10   47.33    5.21
  -4   6  10   47.20    5.81
   4  -6  10   43.35    4.87
   4   6  11  221.47   12.63
   4   6  11  217.38   12.64
   4  -6  11  215.24   11.00
  -4   6  11  228.11   12.96
   4  -6  11  223.56   11.79
   4  -6  12   22.78    3.56
   4   6  12   17.37    3.75
  -4   6  12   12.88    3.13
   4  -6  12   17.63    3.49
   4   6  12   17.74    3.69
   4  -6  13    4.50    1.69
   4   6  13   10.89    2.84
  -4   6  13    8.22    2.13
   4   6  13   10.56    3.02
   4   6  14   51.96    6.39
   4   6  14   53.20    6.55
  -4   6  14   53.61    6.47
   4  -6  14   42.92    5.59
   4   6  15  231.13   13.55
  -4   6  15  229.93   13.47
   4   6  15  208.48   12.83
   4   6  16    9.93    2.51
  -4   6  16   10.46    3.08
   4   6  16   11.65    2.92
   4   6  17   39.98    5.86
   4   6  17   37.65    5.64
  -4   6  17   29.45    5.74
  -4   6  18    3.88    2.27
   4   6  18    4.37    1.82
   4   6  18    7.15    2.41
  -4   6  19    5.41    2.96
   4   6  19    2.07    1.20
   4   6  19    3.00    2.19
  -4   6  20   59.37    7.34
   4   6  20   65.48    7.46
   4   6  21   23.44    4.90
  -4   6  21   21.74    4.97
   4   6  22    7.91    2.37
  -4   6  22   10.47    3.33
  -4   6  22    6.84    2.52
   4   6  23   14.46    3.72
  -4   6  23   18.39    5.23
  -4   6  23   18.40    4.75
   4   6  24   11.56    3.47
  -4   6  24    9.98    3.76
   4   6  25    1.42    1.55
   4   6  26    6.58    3.35
  -4  -7 -24    0.40    2.07
   4  -7 -24   -0.04    1.54
  -4  -7 -23   -0.15    1.57
   4  -7 -23    3.06    1.89
   4  -7 -22    2.42    2.16
  -4  -7 -22    2.78    2.34
  -4  -7 -21   -0.47    1.41
   4  -7 -21    2.57    2.29
   4  -7 -20    9.39    3.11
  -4  -7 -20    8.09    2.93
  -4  -7 -19   11.96    3.19
   4  -7 -19    9.15    3.29
   4  -7 -18   14.40    3.64
  -4  -7 -18   13.44    3.22
   4  -7 -18   19.36    4.63
  -4  -7 -17    5.93    2.92
   4  -7 -17    3.59    1.76
   4  -7 -17    9.47    3.23
  -4  -7 -16   13.27    3.67
   4  -7 -16    5.64    1.47
   4  -7 -16   11.81    3.00
  -4  -7 -15    8.54    2.71
   4  -7 -15   10.44    3.47
   4  -7 -15    4.35    2.21
   4   7 -14    4.44    2.10
  -4  -7 -14    2.22    2.66
   4  -7 -14    3.31    1.46
   4   7 -13   13.20    3.58
  -4  -7 -13   20.17    4.12
   4  -7 -13   30.86    5.25
   4  -7 -13   26.11    4.64
   4   7 -12    5.76    2.57
  -4  -7 -12    3.32    1.14
   4  -7 -12    1.91    1.25
   4  -7 -12    4.01    2.17
   4  -7 -11   20.59    3.97
   4   7 -11   17.72    3.93
  -4  -7 -11   22.32    4.08
   4  -7 -11   13.66    3.86
   4  -7 -10   55.50    6.62
  -4   7 -10   52.16    6.15
  -4  -7 -10   48.39    5.73
   4  -7 -10   51.38    6.13
   4   7 -10   55.13    6.67
   4  -7  -9    1.83    1.63
   4   7  -9    1.60    1.20
  -4  -7  -9    2.42    1.67
  -4   7  -9    0.90    1.44
   4  -7  -9    2.16    1.70
   4   7  -8   35.69    4.91
  -4   7  -8   42.03    5.53
  -4  -7  -8   37.40    4.63
   4  -7  -8   35.35    5.19
   4  -7  -8   42.80    5.77
   4  -7  -7   -0.43    0.75
  -4  -7  -7   -0.70    1.37
  -4   7  -7    0.55    0.77
   4   7  -7    2.24    1.98
   4  -7  -7    1.45    1.47
   4   7  -6   19.18    3.46
   4  -7  -6    9.60    2.50
   4  -7  -6   11.74    2.92
  -4  -7  -6   10.07    2.34
  -4   7  -6   13.50    2.81
   4   7  -6   19.04    3.66
  -4  -7  -5    8.52    2.14
   4   7  -5   12.82    2.64
   4  -7  -5    7.62    2.58
   4  -7  -5    9.19    3.09
  -4   7  -5   12.85    3.12
   4   7  -5   11.93    3.07
   4   7  -4    2.59    2.00
   4  -7  -4    5.99    2.47
  -4   7  -4    5.36    2.20
   4  -7  -4    3.76    1.87
   4   7  -4    5.38    2.19
  -4   7  -3    6.03    2.25
   4   7  -3    9.86    2.83
   4   7  -3    5.28    1.80
   4  -7  -3    4.27    2.32
   4  -7  -3   11.17    2.76
   4   7  -2    5.64    2.28
   4   7  -2    5.08    1.59
   4  -7  -2    6.98    2.37
   4  -7  -2    6.21    2.11
  -4   7  -2    3.28    0.63
  -4   7  -1    8.43    2.69
   4   7  -1    5.99    2.57
   4  -7  -1    2.84    1.82
   4   7  -1    5.93    2.00
   4  -7  -1    6.03    2.37
   4  -7   0   11.75    2.96
   4   7   0   16.04    3.60
   4  -7   0    8.36    2.55
  -4   7   0   11.11    2.90
   4   7   0    9.83    2.81
   4  -7   1    4.02    1.61
   4   7   1    5.35    1.99
   4  -7   1    4.19    1.86
  -4   7   1    5.62    2.44
   4   7   1    4.49    1.62
   4   7   2    9.08    2.19
   4  -7   2    7.54    2.34
   4   7   2    2.33    1.55
  -4   7   2    3.41    1.55
   4  -7   2    6.41    2.76
   4   7   3    4.23    1.81
   4   7   3    9.21    2.40
   4  -7   3    5.76    2.02
  -4   7   3    4.38    2.65
   4  -7   3    6.19    1.89
  -4   7   4    7.04    2.50
   4   7   4    1.75    1.43
   4  -7   4    3.31    1.65
   4   7   4    2.88    1.44
   4  -7   4    5.49    2.28
   4   7   5   13.57    3.23
   4  -7   5   14.29    2.80
   4   7   5   11.45    3.44
  -4   7   5    9.78    3.04
   4  -7   5   13.26    3.00
   4   7   6   24.69    4.42
  -4   7   6   11.13    2.65
   4  -7   6    7.08    2.19
   4  -7   6   12.07    2.96
   4   7   6   19.27    3.64
   4   7   7    1.15    1.07
   4   7   7   -0.82    0.81
  -4   7   7    1.70    1.01
   4  -7   7    1.33    1.26
   4   7   8   40.87    5.56
   4   7   8   47.83    6.10
  -4   7   8   46.26    5.88
   4  -7   8   41.11    5.42
   4   7   9    1.97    2.01
   4   7   9   -0.52    1.08
  -4   7   9    3.02    2.14
   4  -7   9    1.33    1.37
   4   7  10   41.24    5.91
   4   7  10   48.07    6.12
  -4   7  10   50.69    6.39
   4  -7  10   56.39    6.05
   4  -7  11   15.53    3.29
   4   7  11   16.67    4.21
  -4   7  11   18.61    3.88
   4  -7  12    1.06    0.89
   4   7  12    1.12    0.64
   4   7  12    3.19    2.49
  -4   7  12    1.62    1.22
   4   7  13   28.30    4.95
  -4   7  13   26.98    4.46
   4   7  13   22.84    4.07
   4   7  14    2.52    1.34
   4   7  14    4.00    1.32
   4   7  15    3.47    2.07
   4   7  15    4.94    2.80
  -4   7  15    0.15    1.46
   4   7  16    9.51    2.63
  -4   7  16   11.76    3.38
   4   7  16    3.95    2.87
   4   7  17    6.83    3.13
  -4   7  17    1.54    1.33
   4   7  17    5.37    2.38
   4   7  18   21.20    4.81
   4   7  18   13.90    3.39
  -4   7  18   17.14    4.33
  -4   7  19   19.67    4.70
   4   7  19   15.33    3.83
   4   7  19   11.73    3.45
  -4   7  20   10.46    3.32
   4   7  20    8.06    2.99
   4   7  21   -0.17    1.04
  -4   7  21    0.45    1.39
   4   7  22    1.17    0.98
  -4   7  22    3.09    2.79
  -4   7  22   -0.01    1.98
  -4   7  23    2.89    2.72
  -4   7  23    1.95    1.58
   4   7  23    3.99    2.32
  -4   7  24   -0.66    1.74
   4   7  24    1.43    1.32
  -4  -8 -22    4.09    2.24
   4  -8 -22    3.66    2.08
  -4  -8 -21   10.80    3.76
   4  -8 -21    3.31    1.16
  -4  -8 -20    2.86    2.07
   4  -8 -20    7.94    2.93
  -4  -8 -19   10.21    3.52
   4  -8 -19   14.20    3.53
   4  -8 -18   13.66    3.40
  -4  -8 -18   17.85    4.55
   4  -8 -17    1.43    1.00
  -4  -8 -17    0.81    2.19
   4  -8 -17    1.05    1.30
   4  -8 -16   13.94    3.59
  -4  -8 -16    6.83    2.71
   4  -8 -16   10.95    3.81
   4  -8 -15    0.79    1.83
  -4  -8 -15    1.06    1.70
   4  -8 -15    2.18    0.79
  -4  -8 -14   -1.58    2.52
   4  -8 -14   -0.82    1.82
   4  -8 -14   -0.55    1.45
   4   8 -13    6.64    2.86
  -4  -8 -13   10.38    3.41
   4  -8 -13   14.39    3.76
   4  -8 -13   16.59    3.61
   4   8 -12    0.53    2.02
   4  -8 -12    1.73    1.15
  -4  -8 -12    1.03    1.08
   4  -8 -12   -0.94    1.53
   4   8 -11    4.54    1.97
  -4  -8 -11    3.91    1.63
   4  -8 -11    8.22    2.92
   4  -8 -11    5.55    2.47
   4   8 -10   71.94    7.86
  -4   8 -10   66.32    7.60
  -4  -8 -10   75.04    7.82
   4  -8 -10   58.06    7.09
   4  -8 -10   71.81    7.63
   4  -8  -9    9.41    2.93
  -4  -8  -9    7.61    2.27
   4  -8  -9    5.35    2.40
  -4   8  -9    8.13    2.54
   4   8  -8   10.34    3.10
  -4   8  -8    9.63    3.18
   4  -8  -8    8.10    3.19
   4  -8  -8    5.00    1.78
   4   8  -7   50.55    6.38
   4  -8  -7   35.88    5.44
  -4   8  -7   44.27    6.19
   4  -8  -7   43.69    5.88
  -4   8  -6   59.14    6.87
   4  -8  -6   54.67    6.98
   4  -8  -6   65.55    6.99
   4   8  -6   59.14    7.03
   4   8  -5   18.83    3.76
  -4   8  -5   20.86    4.10
   4   8  -5   22.86    4.14
   4  -8  -5   14.06    3.43
   4  -8  -5   21.92    4.28
   4  -8  -4    7.66    2.60
   4   8  -4    7.41    2.34
   4  -8  -4    5.26    0.81
   4   8  -4   12.77    3.23
  -4   8  -4   11.13    2.71
   4  -8  -3    4.19    2.41
   4   8  -3    2.52    1.11
   4   8  -3    7.66    2.67
   4  -8  -3    6.13    2.13
  -4   8  -3    5.99    2.89
   4   8  -2    4.61    2.03
  -4   8  -2    3.99    2.80
   4   8  -2    9.58    2.59
   4  -8  -2    5.87    1.92
   4  -8  -2    6.69    2.16
   4  -8  -1   75.56    7.75
   4   8  -1   69.80    7.60
  -4   8  -1   63.22    7.22
   4   8  -1   72.50    7.40
   4  -8  -1   73.20    6.80
  -4   8   0   82.55    7.97
   4   8   0   83.13    8.08
   4   8   0   86.30    8.44
   4  -8   0   74.92    7.90
   4  -8   0   78.97    7.23
  -4   8   1   77.11    7.71
   4   8   1   64.33    7.10
   4   8   1   66.56    7.30
   4  -8   1   67.57    7.24
  -4   8   2    4.83    2.43
   4  -8   2    7.92    3.34
   4   8   2    4.90    2.17
   4   8   2    5.07    2.67
   4   8   3    6.26    2.71
  -4   8   3    7.96    3.40
   4   8   3    3.95    2.02
   4  -8   3    7.26    2.38
  -4   8   4   10.75    2.87
   4   8   4    6.52    2.86
   4   8   4    7.61    2.57
   4  -8   4    9.14    3.21
   4   8   5   29.04    5.14
   4   8   5   17.77    3.87
  -4   8   5   13.96    3.56
   4  -8   5   21.37    4.09
   4   8   6   62.27    7.29
  -4   8   6   52.11    6.69
   4   8   6   57.45    6.80
   4  -8   6   45.22    6.01
   4   8   7   44.34    5.88
  -4   8   7   34.28    5.61
   4   8   7   44.06    6.01
   4  -8   7   33.23    5.12
   4   8   8    8.19    2.94
  -4   8   8    2.47    1.67
   4  -8   8    3.90    2.21
   4   8   9   11.42    3.13
   4   8   9   12.50    2.86
  -4   8   9   14.18    3.13
   4  -8   9    9.70    3.03
   4   8  10   55.55    7.09
   4   8  10   65.17    7.30
  -4   8  10   63.49    7.46
   4  -8  10   62.07    7.00
   4   8  11    4.57    2.21
   4   8  11    2.95    1.78
  -4   8  11    7.39    2.57
   4  -8  11    5.21    2.28
   4   8  12    3.75    2.44
  -4   8  12    2.11    1.21
   4   8  12    4.36    2.90
   4   8  13   10.05    2.64
  -4   8  13    5.91    2.58
   4   8  13    6.75    2.36
  -4   8  14    0.40    1.10
   4   8  14    3.41    2.35
   4   8  14    1.41    1.47
  -4   8  15    3.40    2.44
   4   8  15   -2.02    2.02
   4   8  15   -1.19    1.53
  -4   8  16   10.34    2.97
   4   8  16   10.65    3.83
   4   8  16    5.74    2.51
  -4   8  17   -0.10    1.43
   4   8  17   -0.18    1.73
   4   8  17   -0.19    1.56
   4   8  18   13.68    3.80
  -4   8  18   15.07    3.96
   4   8  18   20.88    4.78
   4   8  19   12.21    3.82
   4   8  19   12.67    3.71
  -4   8  19   14.91    4.28
  -4   8  20   10.31    2.94
   4   8  20   14.04    3.62
   4   8  20    7.74    2.53
  -4   8  21   11.09    3.25
   4   8  21    3.59    2.60
   4   8  22    1.63    1.36
  -4   8  22    4.08    1.72
  -4   8  22    0.02    1.60
  -4  -9 -19   -1.50    2.57
   4  -9 -19    5.06    2.11
  -4  -9 -18    0.03    2.07
   4  -9 -18    1.44    2.12
   4  -9 -17    3.59    2.40
  -4  -9 -17    1.04    1.62
   4  -9 -16   -1.57    2.43
   4  -9 -16   -1.71    2.37
   4  -9 -15    3.07    1.48
   4  -9 -15    3.53    2.27
   4  -9 -14    0.60    1.28
   4  -9 -14   -0.65    0.97
   4  -9 -13    5.20    2.38
   4  -9 -13    2.28    1.20
   4   9 -12    9.56    3.13
   4  -9 -12   14.05    3.78
   4  -9 -12    6.55    2.08
   4  -9 -11   -0.43    1.70
   4   9 -11    0.66    0.88
   4  -9 -11    2.12    1.92
   4  -9 -10    2.45    2.51
   4  -9 -10    0.33    1.96
   4   9 -10    3.17    2.50
   4  -9  -9    9.33    3.23
   4   9  -9    1.10    0.91
  -4   9  -9    3.37    0.95
   4  -9  -9    7.55    2.62
   4  -9  -8   15.59    4.12
   4   9  -8   18.51    4.18
  -4   9  -8   16.45    4.28
   4  -9  -8   13.33    3.63
   4   9  -7    4.62    2.38
  -4   9  -7    7.57    2.50
   4  -9  -7   10.49    3.76
   4  -9  -7    4.94    1.61
   4   9  -6    4.14    2.42
  -4   9  -6    2.50    2.02
   4  -9  -6    2.52    1.90
   4  -9  -6   -0.35    1.13
  -4   9  -5   -0.43    1.92
   4   9  -5    0.71    1.78
   4  -9  -5    0.49    1.04
   4   9  -4    2.76    1.84
   4   9  -4    5.34    2.74
  -4   9  -4    4.29    2.02
   4  -9  -4    4.48    2.23
   4  -9  -3   11.68    3.74
  -4   9  -3    5.49    2.96
   4   9  -3    6.54    2.42
   4   9  -3    2.54    2.24
   4   9  -2    1.98    1.91
   4  -9  -2    0.48    1.01
   4   9  -2    3.26    1.62
  -4   9  -2    4.81    2.45
   4   9  -1    6.39    2.48
  -4   9  -1    7.73    2.70
   4   9  -1    7.43    2.45
   4  -9  -1    8.39    3.05
   4   9   0   20.29    4.19
  -4   9   0   17.61    4.38
   4   9   0   21.02    4.03
   4  -9   0   14.15    3.27
   4  -9   1    8.19    3.12
   4   9   1   10.68    4.03
  -4   9   1   10.91    3.85
   4   9   1    4.91    1.74
   4   9   2    4.97    2.31
  -4   9   2    3.92    1.62
   4   9   2    0.86    0.77
   4  -9   2    6.35    3.11
   4   9   3    5.40    2.21
   4   9   3    6.46    2.54
  -4   9   3    7.36    2.87
  -4   9   4    9.68    2.72
   4   9   4    6.00    2.53
   4   9   4    7.90    2.92
   4  -9   4    6.30    2.34
  -4   9   5    1.84    2.15
   4   9   5   -0.49    1.30
   4   9   5    0.20    1.30
   4  -9   5   -0.99    1.70
   4   9   6    1.92    2.12
   4   9   6    2.01    1.83
  -4   9   6    6.70    2.89
   4  -9   6    1.51    1.80
   4   9   7   11.74    3.37
   4   9   7    7.31    2.57
  -4   9   7    1.18    1.13
   4  -9   7    5.66    2.63
  -4   9   8    9.91    3.42
   4   9   8   10.37    2.92
   4  -9   8   15.86    3.48
   4   9   8   13.36    2.97
   4   9   9    1.42    1.50
   4   9   9    8.31    3.11
   4  -9   9    3.47    1.27
  -4   9   9    7.72    2.70
   4   9  10    0.88    2.38
   4   9  10    1.33    1.04
  -4   9  10    1.43    1.63
   4  -9  10   -2.89    2.24
   4   9  11    0.19    1.41
   4   9  11   -1.20    1.75
  -4   9  11   -1.66    2.29
   4   9  12   13.96    4.31
  -4   9  12   15.23    3.94
   4   9  12   10.40    3.52
   4   9  13    6.35    2.72
  -4   9  13   11.45    3.39
   4   9  13    4.87    2.21
   4   9  14   -2.21    1.65
  -4   9  14    0.43    1.24
   4   9  14    0.86    0.88
  -4   9  15    3.98    2.46
   4   9  15   -0.45    1.53
   4   9  15    1.23    0.91
  -4   9  16   -2.91    1.76
   4   9  16    1.04    1.74
   4   9  16   -0.21    0.90
   4   9  17    0.60    1.95
   4   9  17   -2.01    2.34
  -4   9  17    0.85    1.62
   4   9  18   -0.07    1.03
   4   9  18    1.48    2.48
  -4   9  18   -0.11    1.63
   4   9  19   -0.45    1.85
   4   9  19    2.12    1.98
  -4   9  19    4.64    2.53
   4 -10 -15    0.43    1.45
   4 -10 -14    1.69    1.24
   4 -10 -14    2.72    1.99
   4 -10 -13    8.40    3.85
   4 -10 -13    6.14    3.35
   4  10 -12    5.70    3.72
   4 -10 -12   -2.23    1.89
   4  10 -11   12.82    4.13
   4 -10 -11    9.87    3.37
   4  10 -10   14.21    4.18
   4 -10 -10    7.36    3.04
   4  10  -9   19.39    4.45
   4 -10  -9   20.94    4.63
   4  10  -8    7.00    3.11
  -4  10  -8    1.54    1.92
   4 -10  -8    6.26    2.84
   4  10  -7   12.94    3.72
  -4  10  -7   13.98    4.20
   4 -10  -7    3.99    2.32
   4 -10  -6   10.40    3.66
   4  10  -6   16.04    4.14
  -4  10  -6   13.13    4.34
   4  10  -5   17.18    4.30
  -4  10  -5   21.49    4.92
   4 -10  -5   18.17    4.26
   4  10  -4    8.42    3.60
  -4  10  -4    6.74    2.86
   4  10  -3   -0.92    1.15
   4 -10  -3    0.34    1.81
   4  10  -2    2.21    1.96
   4  10  -2    1.65    1.09
  -4  10  -2    2.52    1.73
   4 -10  -2    5.01    2.19
   4  10  -1    6.42    3.29
   4  10  -1    9.17    2.91
  -4  10  -1    7.63    3.07
   4 -10  -1    5.67    3.12
   4  10   0   22.39    4.52
  -4  10   0   26.45    5.05
   4  10   0   17.63    4.10
   4 -10   0   21.54    4.72
   4  10   1    3.60    1.81
   4  10   1    2.98    1.44
   4 -10   1    6.54    2.85
  -4  10   1    6.14    2.24
   4  10   2    6.04    2.45
  -4  10   2    1.38    2.35
   4 -10   2    3.31    1.56
   4  10   2    2.50    1.08
   4  10   3    2.93    1.76
   4  10   3    3.81    2.14
  -4  10   3    5.40    2.67
   4 -10   3   -0.55    1.61
   4  10   4   15.59    4.14
   4  10   4    8.73    3.30
   4 -10   4    6.89    2.83
  -4  10   4    9.10    3.06
  -4  10   5   13.41    3.79
   4  10   5   11.16    3.15
   4  10   5   14.14    3.93
   4 -10   5   18.79    3.54
   4  10   6    9.14    2.58
   4  10   6    5.50    2.85
  -4  10   6   12.50    3.87
   4 -10   6   10.48    3.71
   4  10   7    6.86    2.85
   4  10   7    3.56    1.73
  -4  10   7    0.17    2.18
   4 -10   7    7.01    2.92
   4  10   8    4.44    2.36
   4  10   8    6.62    2.34
  -4  10   8    7.95    3.53
   4 -10   8   10.46    3.60
   4  10   9   22.05    4.81
   4  10   9   26.16    5.22
  -4  10   9   22.31    5.11
   4  10  10    8.97    3.32
   4  10  10   10.33    3.16
  -4  10  10    9.73    3.90
   4  10  11    7.69    3.26
  -4  10  11   11.54    3.66
   4  10  11   11.76    3.42
   4  10  12    2.15    1.76
  -4  10  12    6.77    3.04
   4  10  12    1.80    2.36
   4  10  13    2.72    2.07
  -4  10  13    2.85    1.84
   4  10  13    3.13    1.72
   4  10  14    1.31    0.77
   4  10  14    0.38    2.43
  -4  10  14    0.66    1.57
   4  10  15    6.43    2.85
   4  10  15    1.45    1.36
  -4  10  15    6.00    3.61
   4  11  -9    0.26    1.71
   4 -11  -9    1.50    2.07
   4  11  -8    4.38    1.98
   4 -11  -8    7.16    3.06
  -4  11  -7    4.89    1.69
   4  11  -7    5.61    2.35
   4 -11  -7    8.68    2.50
   4  11  -6    3.05    2.93
  -4  11  -6    5.22    3.29
   4 -11  -6    5.62    3.16
  -4  11  -5   -1.41    1.12
   4 -11  -5    1.17    2.42
   4  11  -5    0.60    1.59
  -4  11  -4    1.36    1.75
   4  11  -4    2.15    2.58
   4 -11  -4    2.32    2.59
   4  11  -3    0.24    0.92
  -4  11  -3    2.74    1.95
   4 -11  -3    2.51    2.16
   4  11  -2   -0.11    1.30
  -4  11  -2    1.19    2.17
   4 -11  -2    1.08    1.47
  -4  11  -1    9.45    3.44
   4  11  -1    7.78    2.78
   4 -11  -1    6.68    2.36
   4  11   0    2.58    2.05
   4  11   0    2.30    2.42
  -4  11   0    2.69    1.55
   4 -11   0    2.90    2.12
   4  11   1    0.12    0.91
   4  11   1    3.15    2.55
  -4  11   1    8.25    3.50
   4 -11   1    6.55    2.21
  -4  11   2   -0.26    1.04
   4  11   2   -1.85    1.47
   4 -11   2    2.88    2.30
   4  11   2   -1.18    2.08
   4  11   3   -0.07    1.57
  -4  11   3    1.37    1.08
   4  11   3    2.54    2.67
   4 -11   3    3.48    2.20
   4  11   4    1.73    1.56
  -4  11   4   -1.26    1.00
   4 -11   4    0.48    1.56
   4  11   4    2.59    2.22
   4  11   5    0.11    1.08
   4  11   5   -1.44    1.31
  -4  11   5   -0.57    1.50
   4 -11   5    0.69    1.91
   4 -11   6    0.13    1.60
   4  11   6    1.56    1.66
   4  11   6    3.15    2.23
  -4  11   6    3.22    1.92
   4  11   7    5.65    2.17
   4  11   7    4.04    2.57
  -4  11   7    3.67    1.82
   4  11   8   12.06    4.11
  -4  11   8    1.58    1.00
   4  11   8    7.61    3.13
  -4  11   9   -0.25    1.06
   4  11   9    0.52    1.35
   5   0 -30    0.99    2.26
   5   0 -29   -0.28    1.47
   5   0 -28    4.40    2.52
   5   0 -27    3.09    2.34
   5   0 -26    1.09    1.51
   5   0 -25    0.46    2.01
   5   0 -24   -0.17    1.10
   5   0 -23   -0.09    0.98
   5   0 -22   -0.80    1.55
   5   0 -21   -1.20    2.12
   5   0 -20    1.41    2.01
   5   0 -19   -0.50    1.69
   5   0 -18    0.72    0.89
   5   0 -17   -0.98    1.23
   5   0 -16   -0.07    1.16
   5   0 -15    0.05    0.61
   5   0 -14   -0.57    0.69
   5   0 -14    0.18    0.65
   5   0 -13    0.04    0.85
   5   0 -13    0.14    0.54
   5   0 -12    0.19    0.97
   5   0 -12    0.89    0.64
   5   0 -11   -0.42    0.63
   5   0 -11    0.18    0.64
   5   0 -10    0.03    0.29
   5   0 -10    0.54    0.43
   5   0  -9    0.20    0.76
   5   0  -9    0.78    0.75
   5   0  -8   -0.18    0.34
   5   0  -8    0.35    0.77
   5   0  -7   -0.09    0.22
   5   0  -7   -0.37    0.66
   5   0  -7   -0.59    0.62
   5   0  -6    0.50    0.47
   5   0  -6    0.03    0.63
   5   0  -6    0.68    1.17
   5   0  -5   -0.41    0.51
   5   0  -5   -0.06    0.60
   5   0  -5    0.17    0.57
   5   0  -4    0.31    0.67
   5   0  -4    0.43    0.87
   5   0  -4   -0.17    0.66
   5   0  -3    0.33    0.52
   5   0  -3   -0.30    0.44
   5   0  -3   -0.35    0.43
   5   0  -2   -0.04    0.62
   5   0  -2    0.05    0.28
   5   0  -2    0.13    0.70
   5   0  -1    0.10    0.47
   5   0  -1   -0.17    0.67
   5   0  -1    0.23    0.49
   5   0   0    0.35    0.35
   5   0   0   -0.55    0.64
   5   0   1    0.01    0.60
   5   0   1   -0.03    0.47
   5   0   2    0.69    0.55
   5   0   2    0.05    0.59
   5   0   3   -0.10    0.63
   5   0   3   -0.12    0.54
   5   0   4    0.14    0.33
   5   0   4    0.15    0.55
   5   0   5    0.66    0.37
   5   0   5   -0.24    0.28
   5   0   6   -0.09    0.71
   5   0   6   -0.37    0.50
   5   0   7    0.01    0.88
   5   0   7    0.01    0.57
   5   0   8   -0.04    0.31
   5   0   8    0.00    0.31
   5   0   9    0.05    0.73
   5   0   9   -0.18    0.49
   5   0  10    0.03    0.22
   5   0  10    0.28    0.74
   5   0  11    0.05    0.60
   5   0  11    0.37    0.44
   5   0  12   -0.12    0.80
   5   0  12    0.43    0.49
   5   0  13   -0.26    0.60
   5   0  13    0.02    0.29
   5   0  14   -0.46    1.13
   5   0  15    1.36    1.05
   5   0  16    0.29    0.46
   5   0  17   -0.81    1.48
   5   0  18    0.11    0.96
   5   0  19    0.11    0.70
   5   0  20    1.77    2.08
   5   0  21    0.45    0.67
   5   0  22    1.79    0.94
   5  -1 -30    1.49    1.58
   5  -1 -29    2.09    2.05
   5  -1 -28    5.10    2.42
   5   1 -27   -1.51    1.28
   5  -1 -27   24.65    4.90
   5   1 -26   25.74    4.77
   5  -1 -26   26.88    5.06
   5  -1 -25   42.17    6.12
   5   1 -25   27.83    4.92
   5   1 -24    5.05    2.26
   5  -1 -24    3.59    1.76
   5   1 -23   -0.58    1.25
   5  -1 -23    1.94    1.88
   5   1 -22   17.15    3.94
   5  -1 -22   17.22    4.14
   5   1 -21   25.75    4.40
   5  -1 -21   22.88    4.11
   5   1 -20    1.05    0.77
   5  -1 -20    1.00    0.78
   5   1 -19   23.64    3.87
   5  -1 -19   25.05    4.44
   5   1 -18   25.07    3.85
   5  -1 -18   35.03    4.79
   5  -1 -17   34.55    4.73
   5   1 -17   34.44    4.29
   5   1 -16  270.43   12.10
   5  -1 -16  273.14   12.96
   5  -1 -16  256.38   10.34
   5   1 -15  182.66    9.74
   5  -1 -15  180.57    8.60
   5  -1 -15  178.54   10.40
   5   1 -14  130.73    7.92
   5  -1 -14  133.65    8.62
   5  -1 -14  124.10    6.94
   5  -1 -13   56.80    4.77
   5  -1 -13   61.67    5.84
   5   1 -13   61.69    5.29
   5   1 -13   64.76    5.33
   5  -1 -12   84.23    6.55
   5   1 -12   84.60    6.06
   5   1 -12   70.18    3.29
   5  -1 -12   80.95    5.43
   5   1 -12   79.43    5.74
   5   1 -11  151.05    4.93
   5   1 -11  153.34    7.97
   5  -1 -11  151.75    7.31
   5   1 -11  145.86    7.77
   5  -1 -11  142.27    8.36
   5   1 -10  308.36    7.35
   5  -1 -10  313.21   10.31
   5   1 -10  306.77   10.88
   5  -1 -10  311.29   12.15
   5   1 -10  326.47   11.22
   5   1  -9   20.91    2.61
   5   1  -9   21.40    1.98
   5  -1  -9   19.05    2.98
   5  -1  -9   18.50    2.43
   5   1  -9   21.69    2.92
   5   1  -8   15.11    1.70
   5  -1  -8   14.16    2.44
   5   1  -8   17.42    2.50
   5   1  -8   15.77    2.24
   5  -1  -8   19.62    2.59
   5  -1  -7   12.92    2.06
   5   1  -7   14.17    1.69
   5   1  -7   12.12    1.94
   5  -1  -7   11.43    2.24
   5   1  -7   11.64    2.06
   5  -1  -6  733.71   15.19
   5   1  -6  718.96   12.23
   5   1  -6  731.04   14.49
   5  -1  -6  712.82   16.47
   5   1  -6  730.11   15.85
   5  -1  -5  252.81    8.87
   5   1  -5  254.22    7.49
   5   1  -5  260.45    9.31
   5   1  -5  257.10    8.40
   5  -1  -5  259.56    9.83
   5  -1  -4 1207.77   19.38
   5   1  -4 1218.39   19.75
   5   1  -4 1226.94   16.77
   5  -1  -4 1208.57   20.68
   5   1  -4 1209.66   17.94
   5   1  -3  186.00    6.61
   5  -1  -3  187.37    7.54
   5   1  -3  175.73    7.47
   5  -1  -3  178.63    7.80
   5   1  -3  168.04    6.62
   5  -1  -2   24.14    2.74
   5  -1  -2   27.32    3.06
   5   1  -2   24.74    2.81
   5   1  -2   23.41    2.34
   5   1  -2   21.94    2.34
   5   1  -1   35.07    3.21
   5   1  -1   31.63    2.90
   5  -1  -1   29.37    3.06
   5  -1  -1   31.19    3.16
   5   1   0   26.12    2.76
   5  -1   0   28.09    2.91
   5  -1   0   25.91    2.88
   5   1   1   28.25    2.76
   5   1   1   35.50    3.17
   5  -1   1   30.51    3.10
   5   1   2   25.87    2.87
   5  -1   2   23.39    2.68
   5   1   2   24.57    2.79
   5   1   3  194.91    7.91
   5  -1   3  179.63    7.68
   5   1   3  180.56    6.96
   5   1   4 1168.39   18.08
   5   1   4 1194.15   19.87
   5  -1   4 1196.48   20.15
   5   1   5  266.41    8.44
   5  -1   5  269.25    9.64
   5   1   5  270.10    9.73
   5   1   6  727.34   13.93
   5   1   6  737.37   16.28
   5  -1   6  725.39   16.01
   5   1   7   14.28    2.43
   5   1   7   12.10    1.88
   5  -1   7   14.36    2.37
   5   1   8   16.78    2.13
   5   1   8   15.14    2.60
   5  -1   8   10.99    2.01
   5   1   9   19.14    2.22
   5   1   9   22.69    3.06
   5  -1   9   14.86    2.42
   5   1  10  330.55   12.25
   5  -1  10  331.36   11.52
   5   1  10  323.16    9.08
   5   1  11  156.49    6.29
   5   1  11  147.94    8.36
   5  -1  11  134.39    7.61
   5  -1  12   87.80    6.20
   5   1  12   77.08    6.16
   5   1  12   79.28    4.39
   5   1  13   55.56    5.38
   5  -1  13   60.54    5.39
   5   1  13   58.31    3.69
   5   1  14  127.20    8.23
   5  -1  14  121.21    7.69
   5   1  14  123.15    5.37
   5  -1  15  183.49    9.72
   5   1  15  179.95   10.04
   5   1  15  173.90    6.30
   5  -1  16  254.94   11.55
   5   1  16  265.79   12.34
   5   1  17   34.65    4.39
   5  -1  17   24.73    3.63
   5   1  18   22.63    3.96
   5  -1  18   23.43    3.59
   5  -1  19   22.45    3.66
   5   1  19   25.88    4.28
   5  -1  20    1.30    0.58
   5   1  20    0.91    1.59
   5  -1  21   23.11    3.70
   5   1  21   17.46    3.53
   5   1  22   15.79    3.99
   5   1  23    2.33    2.00
   5  -2 -29   -1.40    1.41
   5  -2 -28    1.74    1.73
   5  -2 -27    0.83    1.09
   5  -2 -26   10.68    3.53
   5  -2 -25   12.45    3.33
   5  -2 -24    7.82    2.15
   5  -2 -23   16.14    3.50
   5  -2 -22    5.87    2.55
   5   2 -22    1.75    2.30
   5   2 -21    3.30    1.86
   5  -2 -21    0.97    0.97
   5  -2 -20    8.08    2.49
   5   2 -20    8.03    2.22
   5   2 -19   80.25    7.53
   5  -2 -19   83.03    7.68
   5   2 -18   14.90    3.00
   5  -2 -18   19.06    3.78
   5  -2 -18   24.85    4.34
   5  -2 -17   25.47    3.68
   5   2 -17   22.44    3.49
   5  -2 -17   22.45    3.85
   5   2 -17   24.55    3.63
   5  -2 -16   37.97    4.57
   5   2 -16   55.74    5.34
   5  -2 -16   56.48    6.01
   5   2 -16   53.61    5.29
   5  -2 -15  379.16   13.71
   5   2 -15  375.27   13.45
   5   2 -15  363.17   13.36
   5  -2 -15  369.73   15.29
   5   2 -14   71.70    5.84
   5   2 -14   68.55    5.55
   5  -2 -14   73.97    6.57
   5  -2 -14   66.87    5.81
   5   2 -13  175.29    8.97
   5   2 -13  168.51    8.37
   5  -2 -13  159.91    8.90
   5  -2 -13  188.72   10.34
   5   2 -12    9.81    1.95
   5  -2 -12    9.46    2.40
   5   2 -12   14.85    2.64
   5  -2 -12    9.93    2.19
   5   2 -11   51.85    4.65
   5  -2 -11   51.58    4.85
   5   2 -11   58.30    4.58
   5  -2 -11   47.77    5.05
   5   2 -10    1.14    0.36
   5   2 -10    0.85    0.79
   5  -2 -10    1.74    0.78
   5   2 -10    2.16    1.11
   5  -2 -10    0.44    0.43
   5   2  -9    6.98    1.75
   5  -2  -9    3.79    1.37
   5   2  -9    4.91    0.88
   5  -2  -9    5.95    1.67
   5   2  -9    6.51    1.51
   5  -2  -8   57.07    4.88
   5   2  -8   60.83    4.06
   5  -2  -8   55.22    5.06
   5   2  -8   59.56    4.85
   5   2  -8   57.57    3.11
   5   2  -7  347.06   11.52
   5   2  -7  345.15    9.38
   5  -2  -7  349.75   11.86
   5   2  -7  334.94    7.95
   5  -2  -7  346.77   12.36
   5  -2  -6  219.95    9.33
   5   2  -6  220.84    7.27
   5  -2  -6  242.20   10.18
   5   2  -6  229.92    6.92
   5   2  -6  218.67    9.12
   5  -2  -5   52.66    4.65
   5   2  -5   55.83    3.63
   5   2  -5   60.74    3.70
   5   2  -5   54.16    4.69
   5  -2  -5   51.72    4.52
   5  -2  -4   47.79    4.17
   5  -2  -4   41.92    4.15
   5   2  -4   51.96    3.52
   5   2  -4   48.47    3.27
   5   2  -4   45.03    4.10
   5  -2  -3  185.92    8.27
   5   2  -3  173.23    6.68
   5  -2  -3  181.48    8.34
   5   2  -3  179.57    6.33
   5   2  -3  187.17    8.30
   5   2  -2   85.15    5.45
   5   2  -2  102.91    5.28
   5   2  -2   84.39    4.32
   5  -2  -2   84.52    5.62
   5  -2  -2   86.97    5.67
   5   2  -1   50.54    4.20
   5  -2  -1   53.06    4.39
   5   2  -1   47.42    3.69
   5  -2  -1   45.03    4.00
   5   2   0  252.64    9.35
   5  -2   0  255.77    9.54
   5   2   0  230.35    8.36
   5  -2   0  258.60    9.62
   5   2   1   52.74    4.35
   5  -2   1   43.75    3.96
   5   2   1   44.84    3.70
   5  -2   1   41.03    3.89
   5   2   2   90.85    5.58
   5  -2   2   83.63    5.41
   5   2   2   81.66    5.23
   5  -2   2   94.09    5.76
   5   2   3  190.62    8.20
   5   2   3  172.24    7.57
   5  -2   3  169.55    7.84
   5  -2   4   46.17    4.11
   5   2   4   50.64    4.17
   5   2   4   44.38    4.09
   5   2   5   55.69    4.36
   5  -2   5   61.05    4.76
   5   2   5   59.89    4.78
   5   2   6  229.04    8.86
   5  -2   6  234.50    9.42
   5  -2   7  353.30   11.70
   5   2   7  358.28   11.00
   5   2   7  349.99   12.10
   5   2   8   51.63    4.19
   5  -2   8   61.59    5.03
   5   2   8   58.02    5.04
   5   2   9    6.93    1.59
   5   2   9    4.89    1.86
   5  -2   9    5.95    1.61
   5   2  10    0.66    0.86
   5   2  10    1.19    1.13
   5  -2  10    1.86    1.58
   5   2  11   45.97    4.73
   5   2  11   49.43    4.11
   5  -2  11   56.80    4.98
   5   2  12   15.01    2.29
   5   2  12   10.69    2.33
   5  -2  12    7.76    1.89
   5   2  13  170.57    7.94
   5   2  13  168.03    9.58
   5  -2  13  178.06    9.04
   5   2  14   66.82    6.14
   5   2  14   68.97    4.93
   5  -2  14   68.13    5.79
   5   2  15  369.87   11.66
   5  -2  15  370.32   13.74
   5   2  15  359.89   14.61
   5   2  16   57.78    4.60
   5  -2  16   47.43    5.10
   5   2  16   44.84    5.22
   5   2  17   24.20    3.72
   5  -2  17   24.85    3.55
   5   2  18   15.58    3.27
   5  -2  18   15.24    2.96
   5   2  19   65.94    6.78
   5  -2  19   86.33    7.26
   5   2  20   17.67    3.68
   5   2  21    4.47    2.27
   5   2  22    7.00    2.61
   5   2  23   17.12    3.82
   5   2  24    7.37    2.47
   5  -3 -29    3.24    2.68
   5  -3 -28    8.74    3.55
   5  -3 -27   36.96    5.91
   5  -3 -26    7.17    2.56
   5  -3 -25   55.45    7.14
   5  -3 -24    1.79    1.27
   5  -3 -23    1.13    1.94
   5  -3 -22   60.92    7.03
   5  -3 -21   78.32    8.03
   5  -3 -20   43.32    5.85
   5  -3 -19   77.03    7.72
   5  -3 -19   65.68    6.61
   5  -3 -18   10.53    3.02
   5  -3 -18    8.94    2.77
   5  -3 -17   11.38    2.56
   5  -3 -17   13.69    3.15
   5   3 -17   16.91    2.98
   5  -3 -16   93.35    7.49
   5   3 -16  100.25    7.51
   5  -3 -16   93.17    8.07
   5  -3 -15  294.58   14.24
   5   3 -15  272.14   11.04
   5  -3 -15  291.90   13.10
   5   3 -15  311.30   12.70
   5  -3 -14   64.03    6.36
   5   3 -14   60.71    4.92
   5  -3 -14   61.34    6.04
   5   3 -14   67.52    5.82
   5   3 -13   12.50    2.75
   5   3 -13   11.04    2.19
   5  -3 -13   13.88    3.10
   5  -3 -13   12.26    2.78
   5   3 -12   38.32    3.61
   5  -3 -12   48.95    5.38
   5  -3 -12   37.84    4.53
  -5   3 -11   76.22    4.46
   5   3 -11   77.89    4.65
   5  -3 -11   82.32    6.92
   5  -3 -11   75.85    6.30
   5   3 -11   79.21    6.15
   5  -3 -10  130.04    8.53
  -5   3 -10  128.46    5.91
   5   3 -10  123.59    5.62
   5   3 -10  123.85    4.11
   5   3 -10  120.02    7.38
   5  -3 -10  114.97    7.64
   5   3  -9   37.91    4.14
   5   3  -9   32.27    2.81
   5  -3  -9   35.94    4.35
   5   3  -9   32.66    2.35
   5  -3  -9   30.34    3.83
   5  -3  -8    6.96    1.96
   5   3  -8    5.35    1.50
   5  -3  -8   11.86    2.81
   5   3  -8    7.91    1.38
   5   3  -8    8.10    1.27
   5   3  -7   80.34    4.26
   5   3  -7   84.95    4.04
   5   3  -7   83.35    6.02
   5  -3  -7   84.11    6.49
   5  -3  -7   86.37    6.26
   5   3  -6  321.99    8.96
   5  -3  -6  318.22   12.29
   5   3  -6  359.22   12.46
   5  -3  -6  318.97   12.17
   5   3  -6  329.87    7.71
   5   3  -5  338.18   12.14
   5   3  -5  328.55    7.48
   5  -3  -5  323.01   12.16
   5  -3  -5  330.45   12.31
   5  -3  -4  156.31    8.34
   5   3  -4  153.13    8.12
   5   3  -4  158.75    5.26
   5  -3  -4  143.49    7.98
   5   3  -4  158.40    6.81
   5   3  -3  102.35    6.65
   5   3  -3  106.24    5.73
   5  -3  -3  116.56    7.15
   5   3  -3  105.75    4.48
   5  -3  -3  106.03    6.94
   5  -3  -2  274.01   10.76
   5   3  -2  267.32    9.32
   5   3  -2  272.34   10.70
   5  -3  -2  263.13   10.76
   5  -3  -1  921.89   20.02
   5   3  -1  878.85   19.31
   5   3  -1  882.32   17.42
   5  -3  -1  893.94   19.15
   5  -3   0  640.94   16.75
   5  -3   0  639.93   16.20
   5   3   0  637.51   15.08
   5   3   0  591.14   15.94
   5  -3   1  884.94   19.49
   5  -3   1  927.91   19.32
   5   3   1  882.10   19.42
   5   3   1  864.07   18.03
   5  -3   2  277.13   10.90
   5   3   2  269.59   10.68
   5  -3   2  292.36   10.80
   5   3   2  268.79   10.28
   5   3   3  121.51    7.23
   5  -3   3  112.92    6.83
   5   3   3  103.73    6.55
   5  -3   3  112.83    6.66
   5   3   4  149.19    7.94
   5  -3   4  162.26    8.38
   5   3   4  154.41    8.17
   5  -3   4  154.03    7.87
   5   3   5  333.33   11.72
   5  -3   5  338.15   12.05
   5   3   5  317.18   11.85
   5  -3   6  341.31   12.00
   5   3   6  324.44   12.16
   5   3   6  331.58   11.78
   5  -3   7   84.27    6.07
   5   3   7   86.13    6.06
   5   3   7   91.37    6.56
   5   3   8   12.38    2.43
   5  -3   8   15.00    2.55
   5   3   8   10.58    2.49
   5   3   9   28.95    3.54
   5  -3   9   31.57    3.70
   5   3   9   26.50    3.69
   5  -3  10  127.55    7.61
   5   3  10  129.49    7.52
   5   3  10  119.19    8.00
   5   3  11   72.45    5.65
   5  -3  11   72.46    5.90
   5   3  11   72.68    6.35
   5  -3  12   43.93    4.58
   5   3  12   34.28    4.38
   5   3  12   44.19    4.39
   5  -3  13   14.47    2.48
   5   3  13   10.49    2.28
   5   3  13   11.35    2.63
   5   3  14   59.98    5.29
   5  -3  14   67.43    5.81
   5   3  14   60.43    5.94
   5   3  15  308.51   12.32
   5  -3  15  279.38   12.08
   5   3  15  307.60   14.20
   5   3  16   84.04    7.34
   5   3  16   88.92    6.53
   5  -3  16   83.20    6.71
   5   3  17   11.42    2.34
   5  -3  17   16.72    3.17
   5   3  17   17.73    3.67
   5  -3  18   11.53    2.49
   5   3  18   19.24    3.53
   5   3  19   85.07    7.88
   5   3  20   32.65    5.04
   5   3  21   74.41    7.72
   5   3  22   51.59    6.54
   5   3  23    2.23    1.89
   5   3  24    8.05    2.70
   5   3  25   67.98    7.82
   5  -4 -28    0.04    1.22
   5  -4 -27   -0.07    1.55
   5  -4 -26    5.32    2.74
   5  -4 -25    5.88    2.41
   5  -4 -24   20.16    4.45
   5  -4 -23   10.88    3.48
   5  -4 -22    4.97    2.91
   5  -4 -21   21.34    4.26
   5  -4 -20   36.60    5.73
   5  -4 -20   30.89    5.10
   5  -4 -19    1.12    0.93
   5  -4 -19    2.74    1.52
  -5  -4 -18    4.65    0.82
   5  -4 -18    2.63    1.44
  -5  -4 -17  116.52    9.37
   5  -4 -17  131.99    9.97
   5  -4 -17  134.17    9.64
   5  -4 -16   48.41    5.70
  -5  -4 -16   54.09    6.39
   5  -4 -16   54.03    6.17
   5   4 -16   47.66    5.42
   5  -4 -15   19.65    3.71
   5   4 -15   20.98    3.57
  -5  -4 -15   19.59    3.79
   5  -4 -15   27.26    4.43
   5   4 -14    8.96    2.41
   5  -4 -14   10.13    3.44
   5  -4 -14   10.96    2.80
  -5  -4 -14   10.22    2.54
  -5  -4 -13   45.18    5.48
   5  -4 -13   62.75    6.40
   5  -4 -13   58.05    6.22
   5   4 -13   56.80    5.53
   5  -4 -12   83.20    7.42
   5   4 -12   80.44    6.58
   5  -4 -12   82.98    7.30
  -5  -4 -12   77.86    7.05
   5  -4 -11   18.31    3.39
  -5   4 -11   24.80    3.04
   5  -4 -11   17.93    3.60
   5   4 -11   15.38    3.07
   5   4 -10    9.35    2.34
   5  -4 -10    7.73    2.34
  -5   4 -10    8.06    1.70
   5  -4 -10    5.30    1.92
   5   4  -9   81.20    6.54
  -5   4  -9   65.92    5.20
   5  -4  -9   72.76    6.56
   5  -4  -9   74.63    6.42
   5   4  -8   17.80    3.07
  -5   4  -8   17.13    2.77
   5  -4  -8   18.45    3.32
   5  -4  -8   15.90    3.01
   5   4  -7   46.49    4.93
  -5   4  -7   35.11    3.83
   5   4  -7   31.60    3.04
   5  -4  -7   46.66    4.92
   5  -4  -7   40.13    4.66
   5   4  -6  126.10    8.11
   5   4  -6  118.89    6.16
   5  -4  -6  135.49    8.38
   5  -4  -6  114.92    7.91
   5   4  -5   38.51    1.85
   5  -4  -5   41.91    4.55
   5  -4  -5   52.86    5.38
   5   4  -5   48.66    4.16
   5   4  -4   53.74    5.25
   5  -4  -4   62.00    5.64
   5  -4  -4   59.91    5.44
   5   4  -4   58.06    4.54
   5  -4  -3    4.84    1.80
   5   4  -3    6.55    1.84
   5   4  -3    5.38    1.45
   5  -4  -3    3.79    1.51
   5   4  -3    4.22    0.72
   5  -4  -2   18.90    3.16
   5  -4  -2   18.39    2.99
   5   4  -2   16.52    2.83
   5   4  -2   15.94    2.60
   5  -4  -1    3.12    1.56
   5   4  -1    4.36    1.51
   5   4  -1    4.72    1.48
   5  -4  -1    5.77    1.71
   5   4   0   77.28    6.20
   5  -4   0   71.48    5.65
   5  -4   0   69.85    5.94
   5   4   0   73.47    5.54
   5  -4   1    2.74    1.21
   5   4   1    4.75    1.94
   5   4   1    3.54    1.46
   5  -4   1    3.24    1.45
   5   4   2   21.18    3.32
   5  -4   2   22.34    3.16
   5  -4   2   13.64    2.75
   5   4   2   17.56    2.93
   5  -4   3    5.10    1.77
   5   4   3    4.79    1.56
   5   4   3    5.18    1.70
   5  -4   3    4.38    1.68
   5  -4   4   53.28    5.12
   5   4   4   64.43    5.64
   5   4   4   46.78    4.92
   5  -4   4   59.73    5.05
   5   4   5   46.08    4.94
   5  -4   5   51.75    5.04
   5   4   5   43.80    4.71
   5  -4   5   50.31    4.80
   5  -4   6  129.92    8.01
   5   4   6  125.43    7.93
   5  -4   6  126.61    7.64
   5   4   6  117.96    7.81
   5  -4   7   38.67    4.56
   5   4   7   36.88    4.29
   5   4   7   39.58    4.66
   5   4   8   16.67    3.07
   5  -4   8   20.13    3.17
   5   4   8   18.20    3.29
   5  -4   9   84.44    6.72
   5   4   9   78.37    6.41
   5   4   9   79.84    6.75
   5   4  10    9.91    2.49
   5   4  10    4.92    1.77
   5  -4  10   11.54    2.54
   5   4  11   23.07    3.72
   5   4  11   22.73    3.56
   5  -4  11   24.53    3.75
   5  -4  12   78.27    6.49
   5   4  12   96.11    7.45
   5   4  12   85.39    7.30
   5  -4  13   45.98    5.21
   5   4  13   57.34    5.81
   5   4  13   54.49    6.09
   5   4  14    6.90    2.13
   5  -4  14   11.06    2.63
   5   4  14    9.41    2.37
   5   4  15   22.02    3.64
   5  -4  15   12.87    3.04
   5   4  15   20.87    3.65
   5   4  16   51.05    6.06
   5  -4  16   37.82    4.93
   5   4  16   50.10    5.57
   5   4  17  137.69    9.29
   5   4  17  133.58    9.90
   5  -4  17  121.87    8.70
   5   4  18    7.31    2.30
   5   4  18    5.81    2.50
   5   4  19    2.52    2.18
   5   4  20   26.68    4.31
   5   4  21   11.79    3.39
   5   4  22    4.24    2.03
   5   4  23   11.52    2.71
   5   4  24   13.60    3.69
   5   4  25    7.72    2.68
   5   4  26   -0.57    0.91
   5  -5 -27    1.59    1.88
   5  -5 -26    5.50    2.16
   5  -5 -25    5.09    2.29
   5  -5 -24   27.60    4.96
   5  -5 -23    3.54    2.89
   5  -5 -22   -1.02    1.63
   5  -5 -21   29.95    5.18
   5  -5 -20   60.14    6.99
  -5  -5 -20   50.81    6.72
   5  -5 -20   54.57    6.97
   5  -5 -19    2.17    1.46
  -5  -5 -19   -0.82    2.12
   5  -5 -19    1.63    1.59
  -5  -5 -18    1.99    1.15
   5  -5 -18    3.81    1.94
   5  -5 -18    1.57    2.32
   5  -5 -17   30.15    4.85
   5  -5 -17   32.69    5.30
  -5  -5 -17   25.02    4.49
   5   5 -16    3.41    1.67
   5  -5 -16    1.84    1.04
   5  -5 -16   -0.49    0.87
  -5  -5 -16    0.80    1.05
   5  -5 -15   71.39    7.47
  -5  -5 -15   82.16    7.78
   5  -5 -15   76.92    7.58
   5   5 -15   82.01    7.41
  -5  -5 -14   31.60    4.89
   5  -5 -14   27.97    4.49
   5  -5 -14   37.85    5.27
   5   5 -14   29.64    4.41
   5  -5 -13    2.38    1.50
   5   5 -13    2.44    1.45
  -5  -5 -13    5.12    2.07
   5  -5 -13    1.48    1.63
   5  -5 -12   16.80    3.80
   5  -5 -12   12.79    3.19
  -5  -5 -12   18.71    3.40
   5   5 -12   14.16    3.06
   5   5 -11   99.98    7.63
   5  -5 -11  107.70    8.47
  -5   5 -11   90.67    6.71
  -5  -5 -11   95.21    7.64
   5  -5 -11   96.79    8.26
   5   5 -10   18.47    3.39
   5  -5 -10   24.37    4.10
  -5   5 -10   25.73    3.68
  -5  -5 -10   26.03    3.61
   5  -5 -10   28.33    4.37
   5  -5  -9   65.10    6.35
   5   5  -9   60.11    6.23
  -5   5  -9   60.58    5.63
   5  -5  -9   71.25    6.84
   5   5  -8   15.42    2.27
   5   5  -8    8.59    2.33
  -5   5  -8   11.57    2.67
   5  -5  -8   15.34    3.37
   5  -5  -8   17.91    3.58
   5   5  -7   13.99    2.46
   5   5  -7   18.05    3.12
  -5   5  -7   17.75    2.93
   5  -5  -7   11.72    2.76
   5  -5  -7   17.24    3.63
   5   5  -6  175.64   10.06
  -5   5  -6  162.82    9.36
   5  -5  -6  184.70   10.67
   5  -5  -6  186.26   10.36
   5   5  -6  165.02    8.11
   5  -5  -5  108.73    7.75
   5   5  -5   99.77    7.61
   5   5  -5  106.59    6.79
  -5   5  -5  105.89    7.32
   5  -5  -5   96.42    7.77
   5  -5  -4    3.01    1.27
   5   5  -4    1.62    0.91
   5   5  -4    7.07    2.01
  -5   5  -4    4.72    1.81
   5  -5  -4    5.01    1.42
   5   5  -3   27.92    3.63
   5  -5  -3   16.27    3.10
   5   5  -3   28.28    4.13
  -5   5  -3   25.01    3.59
   5  -5  -3   28.78    3.99
   5   5  -2   25.30    3.39
   5   5  -2   18.66    3.23
   5  -5  -2   14.02    2.83
   5  -5  -2   22.61    3.46
   5   5  -1   39.90    4.53
   5   5  -1   41.81    4.85
   5  -5  -1   37.54    4.48
   5  -5  -1   36.98    4.81
   5  -5   0  119.89    7.84
   5   5   0  108.29    7.91
   5   5   0  117.56    7.64
   5  -5   0  120.40    8.29
   5  -5   1   44.42    4.85
   5   5   1   35.59    4.38
   5   5   1   32.64    4.07
   5  -5   1   39.43    4.46
   5  -5   2   18.55    2.97
   5   5   2   19.60    3.21
   5   5   2   20.57    3.26
   5  -5   2   19.63    3.38
   5   5   3   26.15    3.72
   5  -5   3   21.28    3.16
   5  -5   3   31.21    4.05
   5   5   3   25.32    3.58
   5  -5   4    8.96    2.46
   5   5   4    5.16    1.12
   5   5   4    6.29    2.01
   5  -5   4    9.77    2.44
   5   5   5   95.77    7.48
   5   5   5   92.24    7.29
   5  -5   5   83.27    6.45
   5  -5   5   99.72    7.67
   5   5   6  178.89   10.28
   5   5   6  175.07   10.06
   5  -5   6  172.70    9.31
   5  -5   6  183.97   10.19
   5   5   7   16.83    3.05
   5   5   7   18.01    3.46
   5  -5   7   11.44    2.47
   5  -5   7   15.58    2.91
   5  -5   8    9.64    2.68
   5   5   8   12.81    2.86
   5   5   8   14.44    3.01
   5  -5   8   11.48    2.38
   5   5   9   74.23    6.87
   5   5   9   68.64    6.48
   5  -5   9   65.24    5.91
   5  -5   9   64.25    6.06
   5   5  10   26.58    4.49
   5   5  10   32.64    4.56
   5  -5  10   22.58    3.76
   5   5  11  100.40    8.27
   5   5  11  112.17    8.48
   5  -5  11   91.95    7.56
   5   5  12   17.92    3.20
   5  -5  12   12.81    2.66
   5   5  12   15.27    3.10
   5  -5  13    0.60    1.26
   5   5  13    1.89    1.42
   5   5  13    0.99    1.68
   5  -5  14   31.62    4.22
   5   5  14   34.62    4.79
   5   5  14   29.20    4.60
   5  -5  15   76.59    7.12
   5   5  15   83.18    7.46
   5   5  15   79.42    7.70
   5   5  16   -0.61    1.08
   5   5  16    3.11    1.78
   5   5  17   21.69    3.85
   5   5  17   28.64    4.72
   5   5  18    8.41    2.94
   5   5  18    3.64    1.60
   5   5  19    1.59    1.33
   5   5  20   56.30    6.79
  -5   5  20   34.27    5.61
  -5   5  21   26.77    5.20
   5   5  21   21.07    4.15
  -5   5  22   -0.71    2.09
   5   5  22    1.35    1.40
  -5   5  23    0.95    1.42
  -5   5  23    1.51    1.27
   5   5  23    4.74    2.47
   5   5  24   19.81    4.33
   5   5  25    6.50    1.88
   5   5  26    9.14    3.94
   5   5  27    6.82    2.62
   5  -6 -25   -0.60    1.56
   5  -6 -24    7.23    3.26
   5  -6 -23    1.81    2.55
   5  -6 -22    2.57    2.32
   5  -6 -21    4.06    3.08
  -5  -6 -20    0.72    1.22
   5  -6 -20   -0.49    2.38
   5  -6 -20    1.88    2.01
  -5  -6 -19    0.34    1.42
   5  -6 -19   -0.31    1.73
   5  -6 -19    3.19    2.05
   5  -6 -18    1.11    0.85
  -5  -6 -18   -0.83    1.86
  -5  -6 -17    6.94    2.24
   5  -6 -17    6.02    2.09
   5  -6 -17    3.87    2.46
  -5  -6 -16   10.07    2.51
   5  -6 -16   12.44    2.86
   5  -6 -16    7.11    2.16
   5   6 -15   22.25    4.26
   5  -6 -15   21.51    4.31
   5  -6 -15   11.46    3.12
  -5  -6 -15   24.94    4.41
   5   6 -14    3.82    1.51
  -5  -6 -14    1.99    1.66
   5  -6 -14    2.67    0.86
   5  -6 -14    7.01    2.38
   5   6 -13   10.69    3.22
  -5  -6 -13    5.31    1.98
   5  -6 -13    7.82    2.37
   5  -6 -13    8.54    2.77
  -5  -6 -12   34.77    5.15
   5  -6 -12   29.28    4.60
   5   6 -12   35.38    4.85
   5  -6 -12   29.39    4.68
   5   6 -11    8.48    2.74
  -5  -6 -11    9.79    2.93
   5  -6 -11    6.38    2.81
   5  -6 -11    7.24    2.49
   5   6 -10    1.02    0.61
  -5  -6 -10    4.03    1.56
  -5   6 -10    6.10    2.36
   5  -6 -10    2.71    1.27
   5  -6 -10    3.88    2.30
   5   6  -9   22.39    3.83
   5  -6  -9   23.84    4.20
  -5   6  -9   16.76    3.19
   5  -6  -9   21.53    4.03
   5   6  -8   19.46    3.74
  -5   6  -8   19.04    3.70
   5  -6  -8   18.24    3.65
   5  -6  -8   18.05    3.52
   5  -6  -7   45.70    5.78
  -5   6  -7   51.33    5.54
   5  -6  -7   44.42    5.66
   5   6  -7   48.50    4.86
   5   6  -7   62.10    6.51
   5   6  -6    3.06    1.69
   5   6  -6    5.27    1.99
  -5   6  -6    5.61    2.21
   5  -6  -6    1.86    0.86
   5  -6  -6    3.24    1.58
   5  -6  -5    8.55    2.66
   5   6  -5    5.09    2.21
   5   6  -5    4.76    1.41
   5  -6  -5    5.35    2.18
  -5   6  -5    9.43    2.44
   5   6  -4   57.33    6.07
   5   6  -4   57.49    5.49
  -5   6  -4   53.12    5.73
   5  -6  -4   54.80    5.76
   5  -6  -4   69.97    6.92
   5   6  -3   15.62    2.97
   5   6  -3   13.76    2.99
  -5   6  -3   23.20    3.80
   5  -6  -3   13.00    2.67
   5  -6  -3   13.99    2.81
   5   6  -2   35.45    4.74
   5   6  -2   35.59    4.35
  -5   6  -2   36.68    4.78
   5  -6  -2   32.02    4.36
   5  -6  -2   27.99    4.30
  -5   6  -1   33.18    4.71
   5   6  -1   38.70    4.81
   5   6  -1   43.36    4.92
   5  -6  -1   28.73    3.79
   5  -6  -1   26.80    4.26
   5  -6   0   27.51    3.98
   5   6   0   38.43    5.10
  -5   6   0   41.27    5.17
   5   6   0   30.20    4.04
   5  -6   0   34.06    4.73
   5   6   1   31.48    4.42
   5   6   1   32.52    4.49
  -5   6   1   28.62    4.47
   5  -6   1   30.86    4.19
   5  -6   1   35.31    4.74
   5   6   2   38.85    5.17
   5   6   2   39.12    4.72
   5  -6   2   41.94    4.61
  -5   6   2   34.98    4.81
   5  -6   2   36.78    4.97
   5  -6   3   15.32    3.18
   5   6   3   10.42    2.43
   5   6   3   15.25    3.35
  -5   6   3   14.48    3.35
   5  -6   3   16.26    3.20
   5  -6   4   71.22    6.78
   5   6   4   55.68    5.98
  -5   6   4   60.59    6.22
   5   6   4   55.04    6.08
   5  -6   4   64.78    5.95
   5  -6   5    6.78    1.85
   5   6   5    5.45    2.46
  -5   6   5    6.36    1.95
   5  -6   5    2.53    1.25
   5   6   5    6.86    2.21
   5  -6   6    2.60    1.30
   5   6   6    6.03    2.35
   5  -6   6    3.64    1.06
   5   6   6    4.13    1.58
   5   6   7   53.01    6.10
   5  -6   7   35.52    4.38
   5  -6   7   51.64    5.89
   5   6   7   52.61    6.02
   5  -6   8   19.26    3.35
   5   6   8   21.81    4.38
   5   6   8   23.13    4.07
   5  -6   8   24.48    4.16
   5   6   9   19.65    3.76
   5   6   9   19.39    3.85
   5  -6   9   23.53    3.75
   5  -6   9   21.55    3.97
   5  -6  10    0.16    1.13
   5   6  10    4.69    2.38
   5   6  10    4.16    2.00
   5  -6  10    5.92    2.47
   5  -6  11    4.67    2.06
   5   6  11    6.83    2.62
   5   6  11   12.26    2.61
   5  -6  11    4.20    1.67
  -5   6  11    6.80    2.58
   5   6  12   27.66    4.61
   5   6  12   38.88    5.39
  -5   6  12   34.21    5.19
   5  -6  12   35.19    4.75
   5  -6  12   40.67    5.26
  -5   6  13   10.66    3.11
   5  -6  13    9.09    2.71
   5   6  13    5.53    1.81
   5   6  13    6.37    1.81
   5  -6  13    8.68    2.52
   5   6  14    6.13    1.90
   5   6  14    2.81    1.64
   5  -6  14    6.39    2.49
  -5   6  14    7.24    2.20
   5   6  15   22.47    4.07
   5   6  15   21.42    4.03
  -5   6  15   18.43    4.30
   5   6  16   10.68    3.11
  -5   6  16   10.50    3.40
   5   6  16   16.36    3.88
   5   6  17    3.71    1.42
   5   6  17    8.25    2.98
  -5   6  17    7.06    2.62
   5   6  18    2.22    2.03
   5   6  18    3.46    2.24
  -5   6  18    1.44    1.71
   5   6  19    0.94    0.94
   5   6  19    2.97    1.17
  -5   6  19    0.97    1.69
  -5   6  20    3.69    2.63
   5   6  20   -0.38    1.29
  -5   6  21    2.71    2.12
   5   6  21    1.25    1.53
  -5   6  22    3.11    1.33
   5   6  22    4.83    2.23
  -5   6  23   -0.13    1.56
   5   6  23    1.09    1.69
  -5   6  24    3.29    1.75
   5   6  24    1.44    1.63
   5   6  25    0.56    1.69
   5  -7 -23    2.61    2.43
   5  -7 -22    4.79    1.88
   5  -7 -21   11.91    3.97
   5  -7 -20    9.01    3.22
   5  -7 -19   15.09    3.87
  -5  -7 -19   17.64    4.05
   5  -7 -19   14.58    3.88
  -5  -7 -18   20.68    4.51
   5  -7 -18   15.05    3.64
   5  -7 -18   13.35    3.60
  -5  -7 -17   13.72    3.51
   5  -7 -17   14.68    3.70
   5  -7 -17   17.19    4.65
   5  -7 -16   25.02    4.86
  -5  -7 -16   27.20    5.07
   5  -7 -16   27.43    5.29
  -5  -7 -15    3.39    1.88
   5  -7 -15    9.15    2.82
   5  -7 -15    4.72    2.51
   5   7 -14    9.51    3.51
  -5  -7 -14   12.42    3.18
   5  -7 -14   11.11    3.28
   5  -7 -14   12.40    3.71
   5   7 -13    9.21    2.84
   5  -7 -13    6.75    2.70
  -5  -7 -13   11.72    3.17
   5  -7 -13   11.24    3.32
   5  -7 -12   14.25    3.71
   5   7 -12   16.44    3.56
  -5  -7 -12   15.05    3.53
   5  -7 -12    9.69    2.77
   5   7 -11   62.36    6.86
  -5  -7 -11   46.98    6.08
   5  -7 -11   56.72    6.88
   5   7 -10   69.15    7.27
  -5   7 -10   69.62    7.33
   5  -7 -10   77.84    7.68
   5  -7 -10   81.57    8.14
   5   7  -9   44.19    5.88
  -5   7  -9   46.98    5.77
   5  -7  -9   47.56    5.89
   5  -7  -9   49.24    6.38
   5   7  -8   55.64    6.45
   5  -7  -8   54.82    6.29
  -5   7  -8   49.75    6.06
   5  -7  -8   53.45    6.56
   5   7  -7   59.22    6.62
  -5   7  -7   56.07    6.40
   5  -7  -7   63.27    6.72
   5  -7  -7   57.61    6.74
   5   7  -6   28.36    4.52
   5  -7  -6   26.34    4.33
   5  -7  -6   21.64    4.49
   5   7  -6   22.81    3.85
  -5   7  -6   25.49    4.20
   5   7  -5   51.78    5.76
  -5   7  -5   46.43    5.76
   5   7  -5   50.82    6.23
   5  -7  -5   67.72    6.87
   5  -7  -5   47.08    5.91
   5   7  -4   23.50    4.32
   5   7  -4   20.34    3.49
  -5   7  -4   16.24    3.50
   5  -7  -4   17.94    3.84
   5  -7  -4   21.88    4.19
   5  -7  -3    4.10    2.29
  -5   7  -3    6.00    2.15
   5   7  -3    2.42    1.51
   5   7  -3    2.22    1.66
   5  -7  -3    7.52    2.96
  -5   7  -2   28.53    4.68
   5  -7  -2   25.25    4.31
   5   7  -2   23.03    4.11
   5  -7  -2   30.48    4.39
   5   7  -2   16.71    3.30
   5  -7  -1   50.01    5.81
   5   7  -1   61.53    6.73
   5   7  -1   46.48    5.68
  -5   7  -1   43.81    5.75
   5  -7  -1   55.34    5.79
   5   7   0   10.51    2.97
   5   7   0    8.00    2.56
   5  -7   0    6.57    2.32
  -5   7   0    6.19    2.17
   5  -7   0    4.62    2.56
   5   7   1   58.40    6.38
   5   7   1   51.65    5.97
  -5   7   1   48.99    6.01
   5  -7   1   49.33    5.55
   5  -7   1   52.14    6.15
   5   7   2   22.60    4.15
  -5   7   2   15.69    3.38
   5  -7   2   16.34    3.38
   5   7   2   17.52    3.37
   5  -7   2   20.94    4.07
   5   7   3    2.49    1.82
  -5   7   3    2.56    1.59
   5  -7   3    2.85    2.02
   5   7   3    2.39    1.51
   5  -7   3    4.65    1.67
   5  -7   4   19.28    3.93
   5   7   4   13.52    3.26
   5   7   4   22.29    4.31
  -5   7   4   16.79    3.94
   5  -7   4   11.27    2.63
   5   7   5   57.49    6.68
   5   7   5   63.94    6.76
  -5   7   5   50.68    6.07
   5  -7   5   43.26    5.24
   5  -7   5   67.41    6.86
   5  -7   6   34.47    4.92
   5   7   6   24.83    4.33
   5   7   6   20.33    3.86
  -5   7   6   25.13    4.36
   5  -7   6   22.25    3.74
   5   7   7   58.34    6.64
   5   7   7   58.24    6.44
  -5   7   7   55.08    6.45
   5  -7   7   57.41    6.12
   5  -7   7   59.82    6.79
   5   7   8   35.52    5.29
   5   7   8   38.59    5.49
  -5   7   8   47.84    6.29
   5  -7   8   51.91    6.24
   5   7   9   64.13    6.79
   5   7   9   48.21    5.98
  -5   7   9   55.14    6.49
   5  -7   9   47.36    5.87
   5   7  10   73.07    7.75
   5   7  10   74.96    7.47
  -5   7  10   91.72    8.75
   5  -7  10   77.01    7.64
   5   7  11   55.83    6.81
   5   7  11   59.90    7.02
  -5   7  11   47.07    6.49
   5  -7  11   54.07    6.57
  -5   7  12   12.49    2.57
   5  -7  12   11.37    3.14
   5   7  12   15.15    3.63
   5   7  12   11.08    3.40
  -5   7  13   11.28    3.44
   5   7  13   17.58    3.90
   5   7  13   11.29    3.09
   5  -7  13   15.85    3.47
  -5   7  14    8.36    2.82
   5   7  14    7.23    2.92
   5   7  15    1.41    1.53
   5   7  15    4.12    1.88
   5   7  16   28.18    5.31
   5   7  16   22.78    4.40
   5   7  17   22.32    4.23
   5   7  17   21.50    4.43
  -5   7  17   27.27    5.25
   5   7  18   12.38    3.90
   5   7  18   11.56    3.87
  -5   7  18   19.24    4.38
   5   7  19   19.26    4.07
   5   7  19   10.59    3.89
  -5   7  19   21.39    4.62
   5   7  20    9.67    3.39
  -5   7  20    8.10    3.19
  -5   7  21   27.05    5.59
   5   7  21   16.43    4.55
  -5   7  22    3.54    1.50
   5   7  22   10.61    3.49
  -5   7  23    0.19    2.90
   5   7  23    2.53    2.14
  -5   7  23    1.64    1.78
   5  -8 -21   -1.45    1.90
   5  -8 -20   -1.28    2.30
   5  -8 -19    1.03    2.02
   5  -8 -18    2.16    1.76
   5  -8 -18    1.30    1.51
   5  -8 -17    3.65    2.75
   5  -8 -17    6.93    3.67
   5  -8 -16    1.91    1.41
   5  -8 -16    2.33    1.30
   5  -8 -15   12.73    3.24
   5  -8 -15   13.96    4.24
   5   8 -14    1.04    1.47
   5  -8 -14    2.20    1.81
   5  -8 -14    1.02    1.06
   5   8 -13    2.92    2.68
   5  -8 -13   -2.42    1.88
   5  -8 -13    0.10    1.78
   5  -8 -12    7.90    2.79
   5   8 -12   12.48    3.88
   5  -8 -12    7.63    2.82
   5   8 -11    2.12    1.19
   5  -8 -11    3.66    2.66
   5  -8 -11    2.96    2.03
   5   8 -10    4.23    2.27
   5  -8 -10   -0.73    1.63
   5  -8 -10    0.51    1.72
   5   8  -9    2.84    2.11
  -5   8  -9   -1.34    1.16
   5  -8  -9    1.12    1.42
   5  -8  -9   -0.69    1.64
   5   8  -8    7.11    2.76
  -5   8  -8    8.90    2.88
   5  -8  -8    8.57    2.96
   5  -8  -8    8.19    2.51
   5   8  -7    5.89    2.18
   5  -8  -7    6.49    2.35
  -5   8  -7    8.34    2.69
   5  -8  -7   12.42    3.62
   5   8  -6    9.05    2.51
  -5   8  -6   11.98    3.75
   5  -8  -6   14.28    3.86
  -5   8  -5   -0.17    1.10
   5   8  -5    2.78    2.23
   5   8  -5    1.93    2.25
   5  -8  -5    1.27    1.45
   5  -8  -5    1.33    1.72
   5  -8  -4    5.66    2.07
   5   8  -4   12.84    2.68
  -5   8  -4   12.25    3.40
   5  -8  -4    4.07    2.41
   5   8  -4    9.22    2.49
   5   8  -3    6.54    2.77
  -5   8  -3    6.33    2.24
   5  -8  -3    5.58    2.57
   5   8  -3    4.01    1.87
   5  -8  -3    5.96    2.40
  -5   8  -2   10.91    2.92
   5   8  -2    4.66    2.58
   5  -8  -2    5.79    2.62
   5  -8  -2    9.13    3.24
   5   8  -2   10.14    2.82
   5   8  -1    1.51    1.01
   5   8  -1    0.63    1.79
  -5   8  -1    1.07    1.40
   5  -8  -1    2.43    1.88
   5  -8  -1    2.18    1.68
   5   8   0   45.85    6.15
   5   8   0   42.30    5.54
  -5   8   0   57.75    6.93
   5  -8   0   42.55    6.00
   5  -8   0   46.75    5.93
   5   8   1   -0.57    0.67
  -5   8   1    0.16    1.22
   5  -8   1    2.14    1.63
   5   8   1    0.22    0.93
   5  -8   1    0.48    1.58
   5   8   2    7.29    1.82
   5   8   2    5.59    2.35
   5  -8   2    5.36    1.57
   5  -8   2    8.14    2.77
  -5   8   2    8.41    2.66
   5   8   3    3.01    1.18
   5   8   3    2.75    1.44
  -5   8   3    1.61    1.40
   5   8   4    4.87    2.76
  -5   8   4    7.34    2.39
   5  -8   4   10.03    3.26
   5   8   5    0.28    1.03
   5   8   5    1.34    1.44
   5  -8   5    1.49    2.08
   5   8   6   13.64    3.29
  -5   8   6   14.53    3.74
   5   8   6   12.44    3.40
   5  -8   6   17.65    3.63
  -5   8   7    6.85    2.70
   5   8   7    7.30    2.64
   5   8   7    8.30    2.83
   5  -8   7   10.19    3.05
   5   8   8   11.70    3.67
   5   8   8    9.75    2.60
  -5   8   8   16.01    3.85
   5  -8   8    8.88    3.08
   5   8   9   -2.07    2.21
  -5   8   9   -0.82    1.00
   5   8   9   -0.47    0.61
   5   8  10    1.80    1.97
  -5   8  10    0.94    1.82
   5   8  10   -0.11    0.89
   5  -8  10    2.74    2.16
   5   8  11    5.49    2.12
   5   8  11    0.93    1.89
  -5   8  11    2.71    1.57
   5  -8  11    2.38    2.37
   5   8  12    5.82    2.51
   5   8  12    6.36    3.08
  -5   8  12    6.49    3.29
   5   8  13    0.59    1.65
  -5   8  13   -2.54    2.57
   5   8  13    0.53    1.74
   5   8  14   -0.75    2.03
   5   8  14   -0.22    1.26
  -5   8  15   12.44    3.75
   5   8  15   10.49    3.78
   5   8  15   16.78    3.83
   5   8  16    0.79    0.90
  -5   8  16   -0.61    0.95
   5   8  17    1.16    1.99
   5   8  17   -0.63    0.96
  -5   8  17    0.29    1.47
   5   8  18    2.57    0.91
   5   8  18   -0.87    1.53
  -5   8  18    1.19    2.31
   5   8  19    0.82    1.48
  -5   8  19    1.56    1.98
   5   8  19   -1.47    1.59
   5   8  20   -0.43    1.27
  -5   8  20   -1.01    2.30
   5   8  21    1.38    1.54
  -5   8  21    0.45    1.18
   5  -9 -18   16.26    4.64
   5  -9 -17    4.91    2.43
   5  -9 -17    2.49    1.52
   5  -9 -16   12.84    3.77
   5  -9 -16   16.06    3.76
   5  -9 -15    7.86    3.43
   5  -9 -15    4.58    2.02
   5  -9 -14    2.67    1.04
   5  -9 -14    4.64    2.70
   5  -9 -13    3.48    2.36
   5   9 -13    6.61    2.77
   5  -9 -13    6.41    3.16
   5   9 -12   15.10    4.48
   5  -9 -12    5.78    2.49
   5  -9 -12   14.17    4.10
   5  -9 -11   23.93    4.97
   5   9 -11   21.88    4.55
   5  -9 -11   24.30    4.94
   5   9 -10   15.63    4.42
   5  -9 -10   23.41    4.54
   5  -9 -10   16.38    4.24
   5   9  -9   17.94    4.25
   5  -9  -9   19.43    4.01
   5  -9  -9   16.85    4.63
   5   9  -8   14.14    3.40
  -5   9  -8   10.27    3.94
   5  -9  -8   14.54    3.26
   5  -9  -8   18.32    4.41
   5   9  -7   45.19    6.30
  -5   9  -7   35.10    5.77
   5  -9  -7   31.35    5.33
   5  -9  -7   52.71    7.23
   5  -9  -6   13.11    4.04
   5  -9  -6    8.32    2.46
   5   9  -6    9.56    2.42
  -5   9  -6    7.18    2.33
   5   9  -5   39.00    6.07
  -5   9  -5   43.62    6.51
   5  -9  -5   39.51    6.30
   5  -9  -5   43.61    5.67
   5   9  -4   18.67    3.78
  -5   9  -4   18.01    4.36
   5  -9  -4   21.12    4.37
   5  -9  -4   14.63    4.00
   5   9  -3    3.85    2.63
  -5   9  -3    2.91    2.32
   5  -9  -3    0.96    1.04
   5   9  -3    0.59    1.53
   5   9  -2   14.86    3.68
  -5   9  -2    6.07    3.07
   5  -9  -2    7.25    3.10
   5   9  -2    8.54    3.01
   5   9  -1   50.43    6.81
   5   9  -1   58.20    7.15
  -5   9  -1   49.13    6.65
   5  -9  -1   63.16    7.30
   5   9   0    9.53    2.87
  -5   9   0    7.72    2.84
   5   9   0   13.57    3.66
   5  -9   0   18.45    4.31
   5   9   1   59.06    7.13
   5   9   1   60.10    7.15
  -5   9   1   66.90    7.96
   5  -9   1   64.75    7.69
  -5   9   2   10.91    3.20
   5   9   2   16.95    3.86
   5   9   2    9.71    3.15
   5  -9   2   13.37    3.44
   5   9   3    0.96    1.63
  -5   9   3   -0.75    1.58
   5   9   3    2.01    1.54
   5  -9   3    1.41    1.93
   5  -9   4   24.60    4.84
   5   9   4   19.78    4.49
  -5   9   4   14.44    4.01
   5   9   4   23.24    4.22
   5  -9   5   57.82    7.23
   5   9   5   61.35    7.15
   5   9   5   44.67    6.07
  -5   9   5   38.82    6.08
   5   9   6   10.54    3.34
  -5   9   6    5.01    2.37
   5  -9   6   12.00    3.35
   5   9   6    9.38    2.87
   5   9   7   38.98    6.02
   5   9   7   28.38    4.94
  -5   9   7   44.25    6.06
   5  -9   7   39.47    6.56
  -5   9   8   21.21    4.64
   5   9   8   17.06    4.53
   5  -9   8    9.67    3.20
   5   9   8   14.61    3.92
   5   9   9    9.64    3.13
  -5   9   9   18.59    4.45
   5   9   9   21.36    4.45
   5  -9   9   18.09    3.97
   5   9  10   28.78    5.26
   5   9  10   13.63    3.51
  -5   9  10   20.88    4.53
   5  -9  10   24.21    4.73
   5   9  11   25.22    5.19
   5   9  11   23.39    5.27
  -5   9  11   16.14    4.24
   5   9  12   16.49    3.81
   5   9  12   13.66    3.93
  -5   9  12   16.71    4.20
   5   9  13    7.01    3.25
  -5   9  13    2.15    2.99
   5   9  13    6.99    2.26
   5   9  14   -2.92    2.75
   5   9  14    3.29    2.17
  -5   9  14    3.94    3.05
  -5   9  15    5.52    2.95
   5   9  15    2.51    3.12
   5   9  15    4.87    2.42
   5   9  16   16.63    4.33
   5   9  16   17.53    4.19
  -5   9  16   19.22    4.38
   5   9  17    5.96    1.72
   5   9  17   11.60    3.83
  -5   9  17    5.58    2.57
   5   9  18    6.03    2.46
  -5   9  18    3.06    1.29
   5   9  18    2.00    2.23
   5 -10 -14    3.00    2.13
   5 -10 -14   -2.06    1.75
   5 -10 -13    1.54    2.05
   5 -10 -13   -0.14    0.87
   5 -10 -12    4.80    3.27
   5  10 -12    3.81    3.13
   5 -10 -12    7.35    3.02
   5  10 -11    0.65    1.48
   5 -10 -11    3.81    2.27
   5  10 -10    4.83    2.68
   5 -10 -10    4.80    1.92
   5  10  -9    3.35    3.04
   5 -10  -9    1.01    1.27
   5  10  -8    0.90    1.87
  -5  10  -8    2.50    3.12
   5 -10  -8    3.86    3.14
   5  10  -7   -2.15    2.33
  -5  10  -7    2.90    2.33
   5 -10  -7    3.48    1.50
   5  10  -6   -1.65    1.91
  -5  10  -6    2.65    2.60
   5 -10  -6   -1.39    1.59
  -5  10  -5    6.99    3.74
   5  10  -5    0.40    0.86
   5 -10  -5    5.39    2.63
  -5  10  -4    1.65    1.08
   5  10  -4   -0.32    0.97
   5 -10  -4    0.96    1.26
  -5  10  -3    4.46    2.70
   5  10  -3    5.66    2.67
   5 -10  -3    1.60    1.59
   5  10  -2    6.38    2.22
  -5  10  -2    9.04    3.11
   5  10  -2    9.85    4.02
   5 -10  -2    3.37    2.13
   5  10  -1    8.52    3.48
  -5  10  -1   11.07    3.15
   5  10  -1    9.76    3.09
   5 -10  -1    5.26    2.62
   5  10   0    0.37    1.45
  -5  10   0    0.56    1.18
   5 -10   0    1.78    1.91
   5  10   0   -0.06    1.27
   5  10   1   10.51    3.56
  -5  10   1   12.84    3.68
   5 -10   1    5.22    1.28
   5  10   1   15.40    3.83
   5  10   2    3.47    1.41
  -5  10   2    2.45    1.51
   5 -10   2    3.76    2.73
   5  10   2    6.65    2.43
   5  10   3    2.34    1.67
  -5  10   3    7.40    3.63
   5 -10   3    2.45    1.40
   5  10   3    2.18    2.02
   5  10   4    0.46    1.12
  -5  10   4    0.01    1.08
   5  10   4   -0.86    1.07
   5  10   5    4.35    2.40
  -5  10   5    8.67    2.45
   5  10   5    2.95    1.77
   5 -10   5    8.42    3.34
   5  10   6   -0.46    1.97
  -5  10   6    3.36    2.60
   5  10   6    3.05    2.17
   5 -10   6    1.23    1.50
   5  10   7    0.02    1.92
  -5  10   7    0.88    1.48
   5  10   7    5.60    2.60
   5 -10   7    0.33    1.74
   5  10   8    0.08    1.39
   5  10   8    3.55    1.99
   5 -10   8    0.67    2.00
  -5  10   8    1.69    2.17
   5  10   9    0.44    2.07
   5  10   9    1.49    1.91
  -5  10   9   -0.14    1.04
   5  10  10    3.48    2.53
   5  10  10    4.56    2.42
  -5  10  10    5.50    3.44
   5  10  11    6.20    2.80
  -5  10  11   -0.25    1.04
   5  10  11    3.04    1.80
   5  10  12    1.96    2.12
   5  10  12    4.00    2.23
  -5  10  12    1.22    1.12
   5  10  13   -0.85    1.60
  -5  10  13   -2.85    2.34
   5  10  13   -0.71    1.24
  -5  10  14    1.62    1.55
   5  10  14    0.25    1.13
   5  10  14   -0.41    1.23
   5  11  -7   -0.04    1.36
   5 -11  -7   -0.13    1.87
   5  11  -6    2.29    1.36
  -5  11  -6   -0.90    1.45
   5 -11  -6    2.60    2.11
   5 -11  -5    9.04    3.40
   5  11  -5    7.32    2.96
  -5  11  -5    5.38    2.08
   5  11  -4    0.98    1.51
  -5  11  -4   -2.92    1.78
   5 -11  -4    0.06    1.35
  -5  11  -3   -1.62    2.05
   5  11  -3    0.17    1.00
   5 -11  -3    3.08    2.19
   5  11  -2    2.47    1.57
  -5  11  -2    5.11    2.90
   5 -11  -2    1.64    1.34
  -5  11  -1   -0.14    1.47
   5  11  -1    0.64    1.81
   5 -11  -1   -0.51    1.95
   5 -11   0   10.22    3.03
   5  11   0    8.27    3.63
  -5  11   0    7.13    2.38
   5  11   0    9.30    3.02
   5  11   1    1.64    3.44
   5  11   1    2.67    1.83
   5 -11   1   -0.25    1.40
  -5  11   1    2.06    1.83
   5  11   2    2.23    2.31
  -5  11   2    1.83    2.15
   5  11   2   -0.75    1.77
   5 -11   2    4.86    2.53
   5  11   3   -0.94    2.15
  -5  11   3    5.28    3.00
   5 -11   3    2.38    2.30
   5  11   3    2.63    1.88
   5  11   4   -1.88    2.41
  -5  11   4   -1.11    0.87
   5  11   4    1.79    1.99
   5  11   5    4.65    2.27
  -5  11   5    5.21    2.65
   5  11   5    5.14    2.96
   5 -11   5    7.81    4.23
   5  11   6    2.78    2.33
  -5  11   6    0.36    1.87
   5  11   6    0.90    1.85
   5  11   7    1.91    1.98
  -5  11   7    2.31    2.45
   5  11   7   -1.37    1.59
   5 -11   7    1.68    2.93
   6   0 -30   -1.60    2.28
   6   0 -29    0.88    1.31
   6   0 -28   69.44    8.53
   6   0 -27   24.81    4.93
   6   0 -26    2.71    2.55
   6   0 -25   12.02    3.37
   6   0 -24   77.93    8.11
   6   0 -23    2.62    1.71
   6   0 -22   70.00    7.69
   6   0 -21   17.14    3.47
   6   0 -20    3.66    1.43
   6   0 -19   10.98    3.19
   6   0 -18   13.17    2.89
   6   0 -17   74.22    6.74
   6   0 -16  953.76   24.41
   6   0 -15  203.68   10.86
   6   0 -14  530.91   17.15
   6   0 -14  505.84   12.89
   6   0 -13   79.79    6.37
   6   0 -13   87.88    5.40
   6   0 -12   63.32    5.63
   6   0 -12   70.01    4.66
   6   0 -11   94.13    6.69
   6   0 -11   87.52    5.26
   6   0 -10  408.47   13.67
   6   0 -10  407.71   11.18
   6   0  -9  265.46    9.03
   6   0  -9  300.30   11.49
   6   0  -8  107.13    6.75
   6   0  -8  113.34    5.95
   6   0  -7   97.78    6.27
   6   0  -7  109.82    5.77
   6   0  -7  102.64    6.55
   6   0  -6  388.28   10.95
   6   0  -6  394.15   12.37
   6   0  -6  398.74   12.37
   6   0  -5 1153.84   18.66
   6   0  -5 1126.65   20.66
   6   0  -5 1135.40   20.51
   6   0  -4  631.51   13.86
   6   0  -4  634.38   15.09
   6   0  -4  611.03   14.92
   6   0  -3  665.78   14.23
   6   0  -3  661.04   15.30
   6   0  -3  658.48   15.10
   6   0  -2 3160.60   32.47
   6   0  -2 3110.52   32.85
   6   0  -1 1105.47   18.99
   6   0  -1 1090.73   19.66
   6   0  -1 1050.94   18.67
   6   0   0  358.64   11.00
   6   0   0  357.54   10.75
   6   0   1 1073.10   18.28
   6   0   1 1093.44   19.25
   6   0   2 3135.56   33.01
   6   0   2 3017.47   30.45
   6   0   3  674.41   15.69
   6   0   3  685.29   14.17
   6   0   4  638.27   15.51
   6   0   4  611.58   13.25
   6   0   5 1180.56   18.22
   6   0   5 1094.49   20.88
   6   0   6  395.62   12.64
   6   0   6  386.82   10.13
   6   0   7   90.07    6.15
   6   0   7   93.68    4.96
   6   0   8  106.03    5.09
   6   0   8  107.63    6.86
   6   0   9  263.59    8.01
   6   0   9  269.50   11.04
   6   0  10  432.00    9.87
   6   0  10  410.71   13.88
   6   0  11   98.51    6.88
   6   0  11   99.94    4.58
   6   0  12   68.45    3.68
   6   0  12   67.63    5.85
   6   0  13   92.80    6.88
   6   0  13   88.91    3.98
   6   0  14  534.58   17.21
   6   0  15  187.85   10.41
   6   0  16  876.21   23.20
   6   0  17   93.46    7.46
   6   0  18    6.87    2.12
   6   0  19   13.78    2.99
   6   0  20    3.33    1.75
   6   0  21   26.34    4.57
   6   0  22   85.34    8.10
   6   0  23    6.29    2.60
   6  -1 -29    0.74    1.49
   6  -1 -28   10.93    3.35
   6  -1 -27    2.15    2.08
   6  -1 -26   10.54    3.46
   6   1 -26   -2.43    1.55
   6   1 -25    6.43    2.73
   6  -1 -25    5.63    3.06
   6   1 -24    5.78    1.80
   6  -1 -24    3.23    1.08
   6   1 -23   11.74    3.11
   6  -1 -23   15.89    3.35
   6  -1 -22    4.37    2.28
   6   1 -22    8.04    2.78
   6  -1 -21   26.48    4.44
   6   1 -21   18.07    3.68
   6   1 -20   50.84    6.08
   6  -1 -20   54.00    6.32
   6  -1 -19   16.70    3.53
   6   1 -19   19.46    3.69
   6   1 -18    6.21    2.13
   6  -1 -18   13.60    3.05
   6   1 -17    7.29    2.19
   6  -1 -17    8.22    2.37
   6   1 -16   21.27    3.37
   6  -1 -16   19.94    3.50
   6  -1 -16   24.17    3.64
   6  -1 -15   58.08    6.05
   6  -1 -15   58.89    5.17
   6   1 -15   57.78    5.51
   6   1 -14  188.38    9.88
   6  -1 -14  184.96   10.46
   6  -1 -14  171.83    8.53
   6  -1 -13   26.35    3.81
   6  -1 -13   19.72    2.85
   6   1 -13   26.04    3.57
   6   1 -13   22.90    3.42
   6   1 -12   42.95    4.46
   6  -1 -12   46.51    4.95
   6   1 -12   45.45    3.28
   6   1 -12   52.66    4.99
   6  -1 -12   42.67    4.14
   6   1 -11   49.04    4.75
   6  -1 -11   37.82    3.92
   6  -1 -11   36.65    4.32
   6   1 -11   49.74    4.73
   6   1 -11   44.92    3.28
   6  -1 -10    2.26    0.59
   6  -1 -10    2.84    1.25
   6   1 -10    1.86    0.65
   6   1 -10    0.37    0.51
   6   1 -10    3.02    1.25
   6   1  -9   30.18    2.76
   6  -1  -9   24.11    2.94
   6  -1  -9   30.71    3.84
   6   1  -9   26.91    3.49
   6   1  -9   29.58    3.37
   6  -1  -8   24.24    3.43
   6   1  -8   28.16    2.60
   6   1  -8   21.91    2.96
   6   1  -8   25.09    3.40
   6  -1  -8   21.65    2.89
   6  -1  -7  206.43    8.67
   6   1  -7  194.42    8.29
   6   1  -7  195.64    7.08
   6   1  -7  195.85    8.85
   6  -1  -7  207.29    9.66
   6  -1  -6  302.10   10.51
   6   1  -6  306.18    8.98
   6  -1  -6  324.45   11.68
   6   1  -6  303.63   10.22
   6   1  -6  300.27   10.80
   6   1  -5  432.18   11.96
   6  -1  -5  432.43   12.51
   6   1  -5  443.56   11.09
   6  -1  -5  417.04   13.21
   6   1  -5  430.65   12.93
   6   1  -4   67.68    4.73
   6  -1  -4   68.67    4.88
   6   1  -4   72.21    4.52
   6  -1  -4   70.17    5.36
   6   1  -4   67.29    4.95
   6  -1  -3   55.29    4.38
   6   1  -3   53.35    3.94
   6  -1  -3   55.10    4.62
   6   1  -3   52.42    4.08
   6   1  -3   59.19    4.62
   6   1  -2    0.56    0.87
   6   1  -2    1.91    0.90
   6  -1  -2    2.04    0.85
   6   1  -2    1.87    1.02
   6  -1  -2    0.88    0.66
   6   1  -1    8.35    1.70
   6  -1  -1    8.21    1.64
   6  -1  -1    8.36    1.75
   6   1  -1   10.16    1.89
   6   1   0    1.03    1.06
   6   1   0    2.30    1.11
   6  -1   0    3.21    1.27
   6  -1   0    1.65    0.93
   6  -1   1   13.60    2.31
   6   1   1    9.34    1.76
   6  -1   1   11.61    1.98
   6   1   1   12.01    2.17
   6   1   2    2.17    1.11
   6   1   2    2.25    0.69
   6  -1   2   -0.12    0.78
   6   1   3   63.35    4.86
   6   1   3   54.59    4.26
   6  -1   3   55.93    4.61
   6   1   4   70.46    5.30
   6  -1   4   75.69    5.39
   6   1   4   72.17    4.86
   6   1   5  447.40   13.44
   6  -1   5  417.19   12.95
   6   1   5  416.80   11.43
   6   1   6  317.48    9.89
   6  -1   6  327.49   11.49
   6   1   7  184.41    9.05
   6  -1   7  177.58    8.67
   6   1   8   26.89    3.51
   6  -1   8   26.68    3.44
   6   1   8   22.80    2.61
   6   1   9   31.88    3.96
   6  -1   9   30.41    3.73
   6   1   9   32.54    3.09
   6   1  10    2.44    0.91
   6   1  10    3.61    1.56
   6  -1  10    1.58    0.86
   6   1  11   39.30    4.55
   6  -1  11   42.45    4.46
   6   1  11   44.32    3.54
   6   1  12   51.89    5.29
   6  -1  12   44.50    4.73
   6   1  12   44.24    3.60
   6   1  13   25.76    3.82
   6  -1  13   22.52    3.53
   6   1  13   22.03    2.43
   6   1  14  171.29    9.95
   6  -1  14  171.57    9.57
   6   1  14  170.06    6.89
   6   1  15   62.48    5.90
   6   1  15   60.73    4.00
   6  -1  15   55.30    5.61
   6  -1  16   15.72    3.05
   6   1  16   16.50    3.36
   6  -1  17   11.32    2.84
   6   1  17    8.54    1.92
   6   1  18    8.64    2.46
   6  -1  18    7.34    2.25
   6   1  19   18.65    4.04
   6  -1  19   13.89    3.20
   6   1  20   61.22    6.72
   6  -1  20   64.55    6.67
   6  -1  21   17.53    3.57
   6   1  21   22.76    4.17
   6   1  22    5.60    2.18
   6   1  23   16.36    3.62
   6   1  24    3.42    1.69
   6  -2 -29    2.60    1.93
   6  -2 -28   15.95    3.74
   6  -2 -27    2.18    1.87
   6  -2 -26    4.23    2.87
   6  -2 -25    6.64    3.13
   6  -2 -24   40.55    6.11
   6  -2 -23    0.85    0.84
   6  -2 -22    2.30    1.03
   6   2 -21   -1.15    0.96
   6  -2 -21    3.30    1.13
   6   2 -20   20.33    3.83
   6  -2 -20   14.66    3.51
   6   2 -19    2.91    1.52
   6  -2 -19    0.54    1.05
   6   2 -18   13.11    3.01
   6  -2 -18   13.95    3.57
   6   2 -17    0.20    1.07
   6  -2 -17    1.70    1.46
   6  -2 -17   -0.56    1.01
   6   2 -17    1.95    0.74
   6   2 -16  133.15    8.56
   6  -2 -16  131.27    9.64
   6  -2 -16  127.93    8.56
   6   2 -16  131.77    8.52
   6   2 -15   85.66    6.76
   6   2 -15   75.32    6.20
   6  -2 -15   87.52    7.71
   6  -2 -15   81.50    6.60
   6  -2 -14  292.62   12.55
   6   2 -14  315.61   12.25
   6  -2 -14  322.79   14.25
   6   2 -14  312.41   12.83
   6   2 -13   20.83    3.10
   6  -2 -13   17.78    3.36
   6  -2 -13   25.09    3.66
   6   2 -13   19.29    3.14
   6   2 -12   55.51    4.88
   6  -2 -12   63.71    6.03
   6  -2 -12   59.54    5.45
   6   2 -12   69.33    5.81
   6   2 -11   43.79    4.20
   6  -2 -11   40.47    4.83
   6  -2 -11   38.77    4.40
   6   2 -11   49.48    4.87
   6  -2 -10   31.07    3.82
   6  -2 -10   40.42    4.71
   6   2 -10   37.13    2.66
   6   2 -10   37.10    3.67
   6   2 -10   34.10    4.10
   6   2  -9    0.96    1.04
   6  -2  -9    3.16    1.31
   6  -2  -9    1.19    1.17
   6   2  -9    3.17    1.15
   6   2  -9    1.31    0.52
   6   2  -8    6.97    2.02
   6  -2  -8    8.82    2.07
   6   2  -8    9.37    1.50
   6   2  -8    6.42    1.54
   6  -2  -8   11.06    2.46
   6   2  -7    8.20    1.30
   6   2  -7    8.87    1.94
   6  -2  -7    7.27    1.79
   6  -2  -7    5.19    1.87
   6   2  -7    7.69    1.62
   6  -2  -6  131.76    7.83
   6   2  -6  141.73    6.54
   6   2  -6  150.53    6.25
   6  -2  -6  149.27    8.08
   6   2  -6  148.94    7.91
   6  -2  -5   32.07    3.63
   6  -2  -5   33.56    3.93
   6   2  -5   36.94    3.29
   6   2  -5   36.62    3.20
   6   2  -5   39.33    4.03
   6   2  -4    3.49    1.28
   6  -2  -4    2.81    0.97
   6   2  -4    2.11    0.74
   6  -2  -4    4.82    1.99
   6   2  -4    0.73    0.48
   6   2  -3   28.49    2.99
   6  -2  -3   34.29    3.77
   6  -2  -3   32.92    3.82
   6   2  -3   32.29    3.00
   6   2  -3   32.60    3.55
   6   2  -2  297.73    9.75
   6  -2  -2  282.85   10.86
   6   2  -2  280.13   10.45
   6  -2  -2  262.96   10.95
   6   2  -2  288.12    9.05
   6   2  -1   41.66    4.16
   6  -2  -1   43.85    4.16
   6   2  -1   51.73    4.17
   6  -2  -1   50.16    4.56
   6   2   0    1.70    1.11
   6  -2   0    0.65    0.42
   6  -2   0    0.39    0.50
   6   2   0   -0.09    0.64
   6   2   1   40.42    3.98
   6  -2   1   39.49    3.94
   6   2   1   47.39    4.20
   6  -2   1   41.34    4.14
   6   2   2  280.91   10.45
   6  -2   2  274.98   10.63
   6   2   2  276.02   10.22
   6  -2   2  279.69   10.66
   6   2   3   28.23    3.27
   6  -2   3   33.41    3.71
   6   2   3   27.75    3.31
   6   2   4    0.39    0.44
   6   2   4    2.99    1.16
   6  -2   4    0.96    1.11
   6   2   5   35.22    3.59
   6   2   5   36.50    4.00
   6  -2   5   42.51    4.21
   6   2   6  132.67    7.70
   6  -2   6  137.94    7.68
   6   2   6  150.49    7.59
   6   2   7    6.30    1.45
   6   2   7   10.31    2.61
   6  -2   7    8.76    2.10
   6   2   8    6.82    2.14
   6  -2   8   12.20    2.41
   6   2   8    9.80    2.00
   6   2   9    1.07    1.29
   6   2   9    1.72    0.96
   6  -2   9    1.93    0.93
   6   2  10   39.02    3.88
   6   2  10   36.67    4.34
   6  -2  10   34.70    4.02
   6   2  11   41.84    3.90
   6   2  11   41.13    4.82
   6  -2  11   35.43    4.21
   6   2  12   60.06    4.84
   6   2  12   57.40    5.54
   6  -2  12   51.34    5.17
   6   2  13   18.26    2.87
   6   2  13   15.91    2.97
   6  -2  13   19.09    3.18
   6   2  14  312.95   11.28
   6  -2  14  315.98   13.30
   6   2  14  329.54   14.11
   6   2  15   86.73    7.37
   6  -2  15  103.84    7.63
   6   2  15   85.50    5.80
   6   2  16  136.17    9.41
   6  -2  16  132.39    8.81
   6   2  16  123.82    7.08
   6  -2  17    1.31    0.71
   6   2  17    2.59    1.59
   6   2  18   10.23    2.63
   6  -2  18    8.12    2.30
   6  -2  19    0.99    0.96
   6   2  19    0.67    0.86
   6  -2  20    7.57    1.97
   6   2  20   16.11    3.94
   6   2  21    2.28    1.90
   6   2  22    6.51    2.83
   6   2  23    2.28    2.43
   6   2  24   28.32    5.39
   6   2  25    3.50    1.76
   6  -3 -28    2.57    2.58
   6  -3 -27    4.70    1.70
   6  -3 -26    7.77    3.40
   6  -3 -25   19.41    4.25
   6  -3 -24    0.06    1.95
   6  -3 -23    3.31    1.76
   6  -3 -22    1.55    1.17
   6  -3 -21    7.60    2.90
   6  -3 -20   16.35    4.03
   6  -3 -19   58.02    6.73
   6  -3 -18   21.52    3.95
   6  -3 -18   26.34    4.60
   6  -3 -17   61.59    6.41
   6  -3 -17   67.27    7.24
   6   3 -17   67.80    6.35
   6  -3 -16   31.75    5.06
   6   3 -16   28.21    4.05
   6  -3 -16   19.30    3.51
   6   3 -15   15.82    3.14
   6  -3 -15   16.96    3.56
   6  -3 -15   15.06    3.35
   6   3 -14  109.48    7.01
   6  -3 -14   97.28    7.86
   6  -3 -14  106.19    8.41
   6   3 -14   97.26    7.39
   6   3 -13   36.16    4.46
   6  -3 -13   38.51    4.85
   6   3 -13   35.49    3.63
   6  -3 -13   34.70    4.45
   6   3 -12   43.01    3.93
   6  -3 -12   51.96    5.70
   6  -3 -12   45.20    5.04
   6   3 -12   37.47    4.53
   6   3 -11   99.74    7.26
   6   3 -11   99.32    5.69
  -6   3 -11   91.83    5.14
   6  -3 -11   95.20    7.55
   6  -3 -11   97.61    7.35
   6  -3 -10   12.13    2.60
   6   3 -10   18.39    2.30
   6   3 -10   18.05    2.01
   6  -3 -10   11.14    2.95
   6   3 -10   18.77    3.08
   6   3  -9   30.10    3.02
   6   3  -9   29.63    2.57
   6  -3  -9   28.54    4.13
   6  -3  -9   33.35    4.23
   6   3  -9   37.71    4.31
   6  -3  -8   32.62    4.29
   6   3  -8   33.82    3.08
   6   3  -8   28.21    3.80
   6   3  -8   29.38    2.74
   6  -3  -8   32.27    4.18
   6  -3  -7  201.03   10.12
   6   3  -7  205.21    7.20
   6   3  -7  211.27    7.73
   6   3  -6  191.69    6.81
   6   3  -6  187.84    7.56
   6  -3  -6  196.53   10.03
   6  -3  -6  193.07    9.89
   6   3  -6  208.61    9.87
   6   3  -5  278.62    8.09
   6   3  -5  266.69    9.23
   6  -3  -5  260.58   11.49
   6   3  -5  266.30   11.25
   6  -3  -5  274.32   11.77
   6   3  -4  168.54    8.88
   6   3  -4  169.40    7.44
   6   3  -4  171.54    6.47
   6  -3  -4  163.38    8.95
   6  -3  -4  162.48    8.81
   6   3  -3  418.00   14.09
   6   3  -3  407.02   12.04
   6   3  -3  406.78   10.22
   6  -3  -3  394.24   13.84
   6  -3  -3  389.60   13.75
   6  -3  -2   45.80    4.72
   6   3  -2   45.42    4.58
   6   3  -2   52.07    4.29
   6  -3  -2   47.17    4.85
   6   3  -1   47.55    4.74
   6  -3  -1   43.17    4.48
   6   3  -1   51.15    4.35
   6  -3  -1   52.72    4.91
   6   3   0   25.15    3.41
   6  -3   0   15.28    2.74
   6   3   0   22.55    3.02
   6  -3   0   19.41    3.06
   6  -3   1   55.09    5.10
   6   3   1   49.09    4.68
   6   3   1   47.28    4.42
   6  -3   1   48.46    4.68
   6   3   2   43.45    4.45
   6  -3   2   48.76    4.78
   6   3   2   47.30    4.51
   6  -3   2   48.54    4.71
   6   3   3  408.77   13.71
   6  -3   3  387.25   13.45
   6   3   3  399.75   13.32
   6  -3   3  402.04   13.56
   6   3   4  149.05    8.27
   6   3   4  176.24    9.08
   6  -3   4  176.21    9.10
   6  -3   4  167.83    8.75
   6   3   5  266.10   11.12
   6  -3   5  256.95   11.05
   6   3   5  273.22   11.35
   6   3   6  192.67    9.35
   6  -3   6  201.91    9.79
   6   3   6  193.63    9.75
   6   3   7  204.38    9.71
   6  -3   7  206.81    9.99
   6   3   7  206.51   10.19
   6   3   8   32.34    3.83
   6   3   8   29.66    3.95
   6  -3   8   27.64    3.80
   6   3   9   37.79    4.15
   6  -3   9   32.38    3.97
   6   3   9   33.28    4.23
   6   3  10   18.18    2.94
   6  -3  10   14.96    2.60
   6   3  10   16.01    2.73
   6   3  11   94.05    6.77
   6  -3  11   92.58    6.97
   6   3  11   84.56    6.94
   6  -3  12   40.25    4.57
   6   3  12   40.75    4.48
   6   3  12   40.43    5.00
   6   3  13   35.98    4.69
   6   3  13   36.45    4.21
   6  -3  13   36.96    4.47
   6   3  14   97.94    6.91
   6  -3  14   89.75    7.08
   6   3  14  101.95    8.11
   6  -3  15   11.95    2.92
   6   3  15   14.42    2.70
   6   3  15    7.14    1.83
   6   3  16   26.97    3.64
   6  -3  16   33.16    4.35
   6   3  16   36.68    4.99
   6  -3  17   71.36    6.65
   6   3  17   56.84    6.40
   6   3  18   19.04    3.68
   6  -3  18   27.19    4.41
   6  -3  19   52.90    5.84
   6   3  19   52.65    6.48
   6   3  20   18.55    3.64
   6   3  21    8.90    2.72
   6   3  22    1.63    1.45
   6   3  23   -0.43    1.36
   6   3  24    2.61    2.00
   6   3  25   14.40    3.87
   6   3  26    4.33    1.78
   6  -4 -28   12.63    3.41
   6  -4 -27   -0.51    1.64
   6  -4 -26    3.50    2.04
   6  -4 -25    1.97    1.20
   6  -4 -24   23.09    4.88
   6  -4 -23    7.54    2.47
   6  -4 -22   19.55    4.24
   6  -4 -21   16.08    3.87
   6  -4 -20   11.63    3.22
   6  -4 -20    9.02    2.87
   6  -4 -19    2.03    2.07
   6  -4 -19    0.84    0.80
   6  -4 -18  110.53    9.16
   6  -4 -18  112.59    9.39
   6  -4 -17   27.63    4.73
   6  -4 -17   28.43    4.83
   6   4 -17   26.78    4.17
   6   4 -16   18.26    3.28
   6  -4 -16   13.08    3.17
   6  -4 -16   13.27    3.26
   6   4 -15   16.34    3.26
   6  -4 -15   14.58    3.83
   6  -4 -15   22.75    4.01
   6   4 -14    8.67    2.80
   6  -4 -14    7.14    1.98
   6  -4 -14    4.99    1.90
   6  -4 -13   34.31    4.81
   6  -4 -13   43.32    5.28
   6   4 -13   24.89    4.01
   6  -4 -12  203.86   11.47
   6   4 -12  214.17   11.07
   6  -4 -12  202.05   11.66
  -6   4 -11   68.81    5.40
   6  -4 -11   66.94    6.60
   6  -4 -11   72.54    6.74
   6   4 -11   70.17    6.31
   6  -4 -10   15.54    3.29
  -6   4 -10   19.44    2.87
   6  -4 -10   21.62    3.88
   6   4 -10   17.14    3.14
   6   4  -9   53.64    5.38
   6   4  -9   52.86    3.99
  -6   4  -9   62.12    5.10
   6  -4  -9   51.38    5.64
   6  -4  -9   48.47    5.50
   6   4  -8  264.70   12.22
   6   4  -8  255.95    9.02
   6  -4  -8  264.14   12.53
   6  -4  -8  266.83   12.66
   6  -4  -7   19.37    3.29
   6   4  -7   14.75    2.86
   6   4  -7   17.51    2.43
   6  -4  -7   17.77    3.26
   6   4  -6   41.23    2.64
   6   4  -6   38.74    4.61
   6  -4  -6   43.02    4.89
   6  -4  -6   40.04    4.64
   6   4  -5  301.13   12.68
   6   4  -5  286.57   10.38
   6  -4  -5  307.92   13.11
   6   4  -5  285.35    7.01
   6  -4  -5  281.65   12.62
   6  -4  -4    1.92    1.43
   6   4  -4   -0.55    0.66
   6   4  -4    1.31    0.52
   6  -4  -4    1.17    0.61
   6   4  -4    0.54    0.58
   6   4  -3  115.42    7.80
   6  -4  -3  114.40    7.96
   6   4  -3  118.37    5.02
   6  -4  -3  115.39    8.11
   6   4  -3  107.80    6.67
   6   4  -2   68.63    5.90
   6  -4  -2   68.99    6.10
   6  -4  -2   66.84    5.93
   6   4  -2   64.09    5.21
   6  -4  -1   46.32    4.89
   6   4  -1   49.47    4.93
   6   4  -1   48.87    4.69
   6  -4  -1   44.86    5.02
   6   4   0   72.02    6.16
   6  -4   0   68.47    5.83
   6   4   0   67.47    5.52
   6  -4   0   68.50    6.13
   6  -4   1   52.93    5.22
   6   4   1   57.40    5.44
   6  -4   1   52.31    5.04
   6   4   1   50.19    4.88
   6  -4   2   59.31    5.63
   6   4   2   68.61    6.03
   6  -4   2   65.95    5.69
   6   4   2   65.90    5.60
   6  -4   3  121.37    7.97
   6   4   3  112.30    7.72
   6  -4   3  120.08    7.78
   6   4   3  119.40    7.77
   6   4   4    0.82    1.21
   6  -4   4   -0.18    0.88
   6  -4   4    1.24    0.99
   6   4   4    2.19    1.41
   6   4   5  268.73   11.97
   6  -4   5  275.22   12.22
   6  -4   5  296.00   12.38
   6   4   5  275.11   12.01
   6  -4   6   48.72    5.16
   6   4   6   40.76    4.64
   6  -4   6   42.62    4.69
   6   4   6   41.83    4.72
   6  -4   7   17.10    3.11
   6   4   7   12.12    2.47
   6  -4   8  268.91   12.31
   6   4   8  284.57   12.40
   6   4   8  296.46   13.03
   6   4   9   58.50    5.73
   6  -4   9   55.94    5.61
   6   4   9   73.45    6.60
   6   4  10   20.79    3.46
   6  -4  10   21.19    3.52
   6   4  10   15.85    3.17
   6   4  11   71.01    6.81
   6   4  11   82.67    6.91
   6  -4  11   77.12    6.61
   6   4  12  201.75   10.82
   6  -4  12  196.88   10.79
   6   4  12  220.66   12.14
   6   4  13   35.21    4.44
   6  -4  13   44.36    5.18
   6   4  13   39.78    5.18
   6   4  14    6.45    1.89
   6  -4  14    4.43    1.77
   6   4  15   19.77    3.51
   6  -4  15   17.54    3.34
   6   4  15   20.31    3.63
   6   4  16   13.02    3.00
   6   4  16   17.86    3.45
   6  -4  16   18.96    3.44
   6   4  17   28.58    4.37
   6  -4  17   23.08    3.89
   6   4  17   22.99    4.15
   6   4  18  124.28    9.86
   6   4  19    1.27    1.49
   6   4  20   10.07    2.81
   6   4  21   19.82    4.15
   6   4  22   12.22    3.47
   6   4  23    7.80    3.31
   6   4  24   21.47    4.20
   6   4  25    2.02    1.75
   6   4  26    2.90    1.91
   6   4  27    4.38    3.37
   6  -5 -26    3.78    2.14
   6  -5 -25    7.41    3.48
   6  -5 -24    1.58    2.10
   6  -5 -23    0.46    1.69
   6  -5 -22   10.16    2.70
   6  -5 -21    6.20    2.67
   6  -5 -21    4.00    1.91
   6  -5 -20    1.34    1.99
   6  -5 -20   -1.65    2.04
   6  -5 -19   -0.13    1.62
   6  -5 -19    2.41    1.95
   6  -5 -18    2.35    1.07
   6  -5 -18    8.34    3.18
   6  -5 -17    7.56    2.84
   6  -5 -17   14.15    3.28
   6   5 -16    7.34    2.45
   6  -5 -16    4.85    2.43
   6  -5 -16    2.35    1.67
   6   5 -15   11.16    2.89
   6  -5 -15   11.77    3.24
   6  -5 -15    7.82    2.54
   6   5 -14    4.66    2.10
   6  -5 -14    9.60    2.94
   6  -5 -14   10.48    2.95
   6  -5 -13   36.92    5.47
   6  -5 -13   34.69    5.20
   6   5 -13   31.55    4.36
   6   5 -12    5.19    2.38
   6  -5 -12    3.79    2.61
   6  -5 -12    3.31    1.92
   6   5 -11    2.60    1.36
   6  -5 -11    2.69    1.64
   6  -5 -11    5.60    2.23
   6   5 -10    4.85    1.72
  -6   5 -10    3.69    1.37
   6  -5 -10    3.43    1.59
   6  -5 -10    3.27    1.59
   6  -5  -9   16.73    3.53
  -6   5  -9   18.40    3.03
   6   5  -9   17.16    3.20
   6  -5  -9   17.16    3.34
   6   5  -8   16.72    3.27
   6  -5  -8   14.04    3.23
   6   5  -8   16.97    2.77
   6  -5  -8   12.44    2.96
  -6   5  -8   10.81    2.59
  -6   5  -7   11.66    2.77
   6   5  -7    6.00    2.23
   6   5  -7    8.28    1.95
   6  -5  -7    9.97    2.65
   6  -5  -7    8.33    2.50
   6  -5  -6    3.65    0.99
   6   5  -6    4.60    1.93
   6  -5  -6    4.20    1.62
   6   5  -6    5.62    1.61
  -6   5  -6    5.50    1.77
   6   5  -5   20.16    3.76
   6  -5  -5   15.22    3.23
   6   5  -5   16.56    2.81
   6   5  -4   42.95    5.21
   6  -5  -4   40.57    4.85
   6   5  -4   41.74    4.55
   6  -5  -4   44.58    5.19
   6   5  -3   48.82    5.49
   6  -5  -3   53.33    5.54
   6   5  -3   42.74    4.67
   6  -5  -3   39.26    4.84
   6   5  -2   28.21    4.08
   6  -5  -2   29.21    4.05
   6   5  -2   32.47    4.02
   6  -5  -2   36.02    4.61
   6  -5  -1   14.82    3.31
   6  -5  -1    7.47    2.14
   6   5  -1    9.01    2.26
   6   5  -1    9.16    2.41
   6  -5   0    9.76    2.68
   6   5   0    7.51    1.87
   6   5   0   15.35    3.08
   6  -5   0   10.81    2.56
   6  -5   1   11.08    3.12
   6   5   1    7.76    2.27
   6   5   1    8.41    2.17
   6  -5   1   10.10    2.44
   6   5   2   38.08    4.77
   6   5   2   25.23    3.78
   6  -5   2   32.19    4.25
   6  -5   2   35.95    4.70
   6   5   3   50.47    5.41
   6   5   3   46.30    5.15
   6  -5   3   40.36    4.82
   6  -5   3   48.79    5.29
   6  -5   4   38.50    4.83
   6   5   4   38.69    5.02
   6  -5   4   38.88    4.67
   6   5   4   32.86    4.26
   6   5   5   20.90    3.49
   6  -5   5   26.16    3.90
   6   5   5   28.42    4.15
   6  -5   5   24.57    3.72
   6  -5   6    2.24    0.78
   6   5   6    6.41    2.18
   6   5   6    6.57    1.81
   6  -5   6    7.85    2.17
   6   5   7   10.34    2.54
   6  -5   7    5.31    1.93
   6   5   7   11.44    2.99
   6  -5   7    6.23    2.12
   6  -5   8   15.31    3.16
   6   5   8   15.21    3.42
   6  -5   8   14.03    2.89
   6   5   8   16.99    3.37
   6  -5   9   12.50    2.36
   6   5   9   19.74    3.63
   6  -5   9   15.67    3.42
   6   5   9   18.89    3.58
   6   5  10    3.29    1.71
   6  -5  10    5.54    1.12
   6   5  10    4.49    1.72
   6   5  11    1.77    0.77
   6  -5  11    5.47    2.03
   6   5  11    9.13    2.94
   6   5  12    2.92    1.50
   6   5  12    3.53    1.89
   6  -5  12    3.94    1.88
   6  -5  13   41.53    5.32
   6   5  13   40.43    5.03
   6   5  13   29.50    4.45
   6   5  14   11.40    2.52
   6  -5  14    7.98    2.71
   6   5  14   10.41    2.89
   6   5  15    5.67    1.98
   6   5  15    6.72    2.37
   6  -5  15    9.26    3.03
   6   5  16    4.43    1.63
   6  -5  16    4.52    2.02
   6   5  16    7.35    2.97
   6   5  17   16.94    3.70
   6   5  17   11.47    3.24
   6   5  18    3.56    1.67
   6   5  18    5.95    1.77
   6   5  19    1.19    1.59
   6   5  20    2.92    1.08
   6   5  21    8.25    3.10
   6   5  22    3.57    1.87
  -6   5  22    3.24    1.61
   6   5  23    1.17    1.95
  -6   5  23    0.03    1.62
   6   5  24    0.36    1.74
   6   5  25    9.71    3.57
   6   5  26    5.58    3.35
   6  -6 -25    9.32    3.89
   6  -6 -24   21.95    4.82
   6  -6 -23   -0.40    1.06
   6  -6 -22   37.67    6.06
   6  -6 -21   20.45    4.56
   6  -6 -21   17.31    4.12
   6  -6 -20   -0.29    1.15
   6  -6 -20   -0.68    1.24
   6  -6 -19    7.79    3.28
   6  -6 -19    5.13    2.60
   6  -6 -18   72.25    8.19
   6  -6 -18   83.52    8.56
   6  -6 -17   10.02    3.15
   6  -6 -17   14.98    3.86
   6   6 -16    1.33    1.80
   6  -6 -16   -1.95    2.07
   6  -6 -16   -0.60    0.77
   6   6 -15    6.75    2.69
   6  -6 -15    3.90    2.16
   6  -6 -15    1.07    1.49
   6   6 -14   -0.11    1.47
   6  -6 -14    0.45    1.67
   6  -6 -14   -0.90    1.47
   6   6 -13    5.50    2.34
   6  -6 -13   10.42    3.19
   6  -6 -13    4.43    1.96
   6   6 -12   77.97    7.50
   6  -6 -12   66.12    7.19
   6  -6 -12   74.91    7.79
   6   6 -11   24.12    4.31
   6  -6 -11   19.87    4.32
   6  -6 -11   15.82    3.14
   6   6 -10    0.79    0.98
   6  -6 -10    2.10    1.95
  -6   6 -10    4.15    1.86
   6  -6 -10    1.22    0.66
   6   6  -9   19.16    3.85
  -6   6  -9   13.22    3.12
   6  -6  -9   17.08    3.30
   6  -6  -9   11.03    3.31
   6   6  -8  199.44   11.90
   6  -6  -8  196.51   12.02
  -6   6  -8  212.15   11.67
   6  -6  -8  193.35   11.72
   6   6  -7   36.86    4.97
  -6   6  -7   28.19    4.38
   6   6  -7   33.75    4.27
   6  -6  -7   45.52    5.98
   6  -6  -7   32.11    4.89
  -6   6  -6    0.25    0.97
   6   6  -6    1.94    1.90
   6  -6  -6   -0.33    1.13
   6   6  -6   -0.10    0.78
   6  -6  -6    1.03    1.39
   6   6  -5   30.48    4.48
  -6   6  -5   24.00    3.88
   6  -6  -5   27.48    4.31
   6  -6  -5   19.91    3.92
   6   6  -5   30.94    4.21
   6   6  -4   96.59    8.12
  -6   6  -4  102.44    8.13
   6  -6  -4   86.09    7.93
   6  -6  -4  104.35    8.12
   6   6  -4  103.48    7.48
   6  -6  -3    0.96    0.70
   6   6  -3    0.60    1.03
   6   6  -3    1.01    1.13
   6  -6  -3    3.79    1.80
  -6   6  -3    4.04    2.33
   6   6  -2  167.23    9.90
   6   6  -2  181.79   11.20
  -6   6  -2  179.78   10.87
   6  -6  -2  153.68    9.82
   6  -6  -2  164.13   10.72
   6   6  -1   30.07    4.54
  -6   6  -1   38.59    5.07
   6  -6  -1   47.47    5.64
   6   6  -1   35.31    4.65
   6  -6  -1   27.86    4.24
   6  -6   0    1.85    2.05
   6   6   0    1.94    1.03
   6   6   0    3.13    1.63
   6  -6   0    1.11    0.93
   6   6   1   30.36    4.41
   6   6   1   33.16    4.53
   6  -6   1   30.70    4.34
   6  -6   1   34.57    5.04
   6   6   2  194.30   11.02
   6   6   2  182.52   11.04
   6  -6   2  175.39   10.43
   6  -6   2  174.78   10.74
   6   6   3    1.43    2.24
   6   6   3    1.94    1.95
   6  -6   3    2.70    1.38
   6  -6   3    2.25    1.71
   6   6   4  112.00    8.64
   6   6   4   89.06    7.88
   6  -6   4   89.62    7.62
   6  -6   4  101.22    8.23
   6   6   5   31.21    4.62
   6  -6   5   21.29    3.68
   6   6   5   25.61    4.24
   6  -6   5   26.09    4.10
   6  -6   6    0.86    1.78
   6   6   6    2.14    0.91
   6   6   6    0.28    0.94
   6  -6   6    0.10    1.22
   6   6   7   34.77    5.07
   6   6   7   38.62    5.43
   6  -6   7   30.57    4.47
   6  -6   7   33.73    4.74
   6   6   8  197.61   11.92
   6  -6   8  198.93   11.41
   6  -6   8  200.93   11.73
   6   6   8  202.80   11.97
   6  -6   9   18.57    3.44
   6   6   9   17.07    3.71
   6   6   9   15.45    3.33
   6  -6   9   21.79    3.74
   6  -6  10    1.55    1.53
   6   6  10    4.82    2.02
   6   6  10    1.58    1.12
   6  -6  10    1.20    1.33
   6  -6  11   19.00    3.68
   6   6  11   12.66    3.27
   6   6  11   17.44    3.64
   6  -6  11   13.64    3.37
   6   6  12   77.76    7.83
   6   6  12   69.77    7.20
   6  -6  12   76.71    7.43
   6  -6  12   72.96    7.30
   6  -6  13   12.31    3.24
   6   6  13    9.26    2.85
   6  -6  13   10.36    2.68
   6   6  13    8.92    3.13
   6   6  14    3.11    2.06
   6  -6  14   -0.61    1.53
   6   6  14    1.60    1.68
   6   6  15    9.38    2.96
   6  -6  15    6.82    2.52
   6   6  15    3.44    1.45
   6   6  16   -0.61    1.37
   6   6  16    0.68    1.86
   6   6  17    5.85    2.27
   6   6  17   13.05    3.31
  -6   6  17   10.82    3.30
   6   6  18   78.02    8.58
  -6   6  18   80.24    8.53
   6   6  18   83.36    8.70
  -6   6  19    3.30    2.23
   6   6  19    3.87    2.18
  -6   6  20    1.84    2.35
   6   6  20    1.08    1.26
  -6   6  21   20.12    4.55
   6   6  21   19.11    4.23
  -6   6  22   50.36    7.57
   6   6  22   42.93    6.65
  -6   6  23    6.07    2.83
   6   6  23    5.29    2.10
   6   6  24   16.40    3.54
   6   6  25    4.11    1.69
   6  -7 -23    4.37    3.14
   6  -7 -22   -0.60    1.57
   6  -7 -21   19.66    4.49
   6  -7 -20    7.64    3.06
   6  -7 -20    8.10    2.87
   6  -7 -19    9.84    3.20
   6  -7 -19    9.43    2.64
   6  -7 -18   17.79    3.93
   6  -7 -18   22.65    4.97
   6  -7 -17    5.23    3.12
   6  -7 -17   -1.91    1.42
   6  -7 -16    7.81    3.29
   6  -7 -16   12.20    3.99
   6   7 -15    8.22    2.29
   6  -7 -15    5.26    2.18
   6   7 -14    3.16    2.01
   6  -7 -14    7.30    2.76
   6  -7 -14    2.32    2.20
   6  -7 -13   18.97    4.03
   6   7 -13   26.98    4.44
   6  -7 -13   17.62    3.86
   6   7 -12    5.99    2.99
   6  -7 -12    2.69    0.99
   6  -7 -12    5.12    1.85
   6  -7 -11    6.25    2.55
   6   7 -11    6.66    2.22
   6  -7 -11    7.23    2.83
   6   7 -10   16.39    3.98
   6  -7 -10   22.44    4.58
   6  -7 -10   19.90    4.37
   6  -7  -9    1.73    1.49
   6   7  -9    1.88    2.17
  -6   7  -9    4.68    2.56
   6  -7  -9    3.10    1.66
   6   7  -8   38.51    5.62
  -6   7  -8   33.78    4.99
   6  -7  -8   36.51    5.32
   6  -7  -8   45.10    6.11
   6   7  -7    7.90    2.57
  -6   7  -7    7.09    2.38
   6  -7  -7   11.32    3.05
   6  -7  -7    7.56    3.35
   6   7  -6   -0.26    1.15
   6   7  -6    3.34    1.69
  -6   7  -6    3.66    1.88
   6  -7  -6    4.79    1.76
   6  -7  -6    3.12    1.58
   6   7  -5    9.30    2.66
   6   7  -5   11.48    2.73
   6  -7  -5   12.64    3.07
  -6   7  -5    8.11    2.67
   6  -7  -5    9.88    3.06
   6   7  -4   52.32    6.36
   6  -7  -4   42.02    5.75
  -6   7  -4   53.54    6.15
   6  -7  -4   62.46    6.95
   6   7  -4   43.26    5.20
   6  -7  -3   24.05    4.10
   6   7  -3   22.83    4.35
  -6   7  -3   18.27    3.53
   6  -7  -3   16.90    3.70
   6   7  -3   22.05    3.74
   6   7  -2   70.71    6.83
   6  -7  -2   67.97    6.82
   6   7  -2   63.74    7.11
  -6   7  -2   61.11    6.81
   6  -7  -2   61.64    6.95
   6   7  -1   12.18    2.72
   6   7  -1    9.07    2.89
   6  -7  -1   10.64    2.67
   6  -7  -1    8.25    2.53
  -6   7  -1    6.51    2.35
   6  -7   0    3.12    2.01
   6   7   0    2.23    1.66
  -6   7   0    2.06    1.97
   6   7   0    2.88    1.81
   6  -7   0    0.57    1.83
   6  -7   1    5.14    1.92
  -6   7   1   10.68    3.12
   6   7   1    7.98    2.94
   6  -7   1    5.69    2.09
   6   7   1    7.46    2.18
   6   7   2   67.07    7.15
  -6   7   2   60.49    6.79
   6  -7   2   70.72    7.04
   6   7   2   67.90    6.75
   6  -7   2   71.19    7.39
   6  -7   3   17.07    3.66
   6   7   3   24.99    4.16
   6   7   3   21.88    4.60
  -6   7   3   19.71    4.08
   6  -7   3   21.27    3.44
   6   7   4   54.99    6.21
   6   7   4   59.84    6.75
  -6   7   4   51.87    6.54
   6  -7   4   47.70    5.79
   6  -7   4   52.32    6.39
  -6   7   5   10.84    2.94
   6  -7   5   10.55    2.66
   6   7   5   12.69    3.13
   6   7   5   15.88    3.53
   6  -7   5   11.91    2.85
   6  -7   6    3.15    1.28
   6   7   6    4.46    2.30
   6  -7   6    2.28    1.74
  -6   7   6    3.26    1.84
   6   7   6    4.43    1.86
  -6   7   7    9.08    3.07
   6  -7   7    9.71    2.70
   6   7   7   12.06    3.28
   6   7   7    2.81    1.67
   6  -7   7    4.23    1.58
   6   7   8   39.43    5.60
   6  -7   8   47.84    6.29
   6   7   8   38.04    5.40
  -6   7   8   40.62    5.84
   6  -7   8   39.11    5.40
  -6   7   9    3.26    1.69
   6   7   9    2.72    1.77
   6   7   9    0.72    1.41
   6  -7   9    5.26    2.78
   6  -7   9    5.72    1.96
   6   7  10   25.42    4.71
   6  -7  10   19.74    4.18
   6   7  10   20.00    4.19
  -6   7  10   14.37    3.88
   6  -7  11    2.80    2.05
   6   7  11    5.05    2.44
   6   7  11    3.33    1.98
  -6   7  11    5.19    2.15
   6  -7  12    4.82    2.56
   6   7  12    8.84    2.44
   6   7  12    4.14    1.94
  -6   7  12    6.28    2.47
   6  -7  13   16.68    4.26
   6   7  13   15.56    3.75
   6   7  13    9.91    3.27
  -6   7  13   18.68    4.18
  -6   7  14    8.24    3.27
   6   7  14    5.46    2.11
   6   7  14    9.10    3.31
   6   7  15    6.29    2.15
   6   7  15    7.25    2.00
  -6   7  15    3.83    2.01
   6   7  16    8.28    2.95
   6   7  16   11.35    3.20
  -6   7  16    5.19    2.53
   6   7  17    5.00    2.88
   6   7  17    1.70    2.82
  -6   7  17    5.19    2.10
   6   7  18   14.44    3.84
  -6   7  18   21.40    4.88
   6   7  18   17.38    3.76
  -6   7  19    9.12    2.84
   6   7  19    4.87    2.33
  -6   7  20    6.36    1.94
   6   7  20    7.09    2.86
  -6   7  21   14.02    3.73
   6   7  21   17.70    4.15
  -6   7  22    1.85    1.26
   6   7  22    1.97    1.74
   6   7  23    4.26    2.14
  -6   7  23    4.05    3.03
   6  -8 -21    3.85    2.55
   6  -8 -20    5.90    2.27
   6  -8 -20    3.54    2.64
   6  -8 -19   13.78    4.27
   6  -8 -19    9.95    3.70
   6  -8 -18   18.09    4.39
   6  -8 -18   26.71    5.24
   6  -8 -17    7.91    3.30
   6  -8 -17    2.39    1.07
   6  -8 -16   11.14    2.82
   6  -8 -16    3.61    1.92
   6  -8 -15   11.35    3.82
   6  -8 -15   15.48    4.27
   6   8 -14   19.83    4.35
   6  -8 -14   15.45    3.49
   6  -8 -14   12.96    3.63
   6   8 -13   23.57    4.53
   6  -8 -13   16.45    3.96
   6   8 -12   33.68    5.27
   6  -8 -12   24.27    4.77
   6  -8 -12   26.17    4.82
   6   8 -11   14.94    4.05
   6  -8 -11   19.74    4.14
   6  -8 -11   16.98    3.84
   6   8 -10    5.14    2.36
   6  -8 -10    9.04    2.87
   6   8  -9    4.59    2.18
  -6   8  -9   10.01    3.64
   6  -8  -9    8.45    1.96
   6  -8  -9   11.48    3.24
  -6   8  -8   54.62    6.83
   6  -8  -8   54.50    6.97
   6  -8  -8   44.75    6.19
  -6   8  -7   20.75    4.13
   6   8  -7   19.44    4.11
   6  -8  -7   23.27    4.43
   6  -8  -7   21.80    4.29
   6   8  -6    9.41    3.33
  -6   8  -6    8.18    2.84
   6  -8  -6    4.36    1.68
   6  -8  -6    8.58    2.65
  -6   8  -5   14.99    3.53
   6   8  -5   24.19    4.73
   6  -8  -5   18.12    4.25
   6  -8  -5   21.00    4.29
   6   8  -4   33.00    5.26
   6   8  -4   22.55    3.98
  -6   8  -4   19.75    4.06
   6  -8  -4   20.39    4.00
   6  -8  -4   30.32    4.86
   6   8  -3    1.02    0.78
   6   8  -3    1.83    1.61
   6  -8  -3    0.65    1.08
  -6   8  -3    2.46    1.74
   6  -8  -3    1.82    2.23
   6   8  -2   34.38    5.22
   6   8  -2   34.15    5.04
  -6   8  -2   41.67    5.78
   6  -8  -2   33.31    5.12
   6  -8  -2   37.52    5.52
  -6   8  -1    8.72    2.89
   6   8  -1   10.93    3.07
   6   8  -1   11.62    3.08
   6  -8  -1    3.46    1.42
   6  -8  -1    8.80    3.09
  -6   8   0    1.69    1.64
   6   8   0    0.79    1.16
   6  -8   0   -0.01    1.87
   6   8   0    0.47    1.42
   6  -8   0    0.09    1.07
   6   8   1    8.46    2.52
   6   8   1    8.22    2.69
  -6   8   1    8.03    2.77
   6  -8   1    8.15    2.80
   6  -8   1   10.96    2.98
   6   8   2   38.66    5.60
   6   8   2   36.79    5.42
  -6   8   2   35.36    5.72
   6  -8   2   32.54    5.00
   6  -8   2   31.64    5.00
   6   8   3    2.31    1.55
   6   8   3    1.83    1.61
   6  -8   3    0.14    1.04
  -6   8   3    2.64    1.98
   6  -8   3    3.16    1.97
   6   8   4   21.47    4.07
   6   8   4   28.28    5.00
   6  -8   4   28.33    4.86
  -6   8   4   23.09    4.49
   6   8   5   13.80    3.39
  -6   8   5   12.38    3.26
   6   8   5   13.66    3.58
   6  -8   5   12.99    3.63
   6   8   6    5.53    1.24
  -6   8   6    9.55    3.02
   6   8   6    6.91    2.76
   6  -8   6    7.36    2.51
   6   8   7   24.61    4.51
  -6   8   7   23.13    4.85
   6   8   7   14.50    3.73
   6  -8   7   18.47    4.26
   6   8   8   56.29    7.10
   6   8   8   58.95    7.06
   6  -8   8   56.30    7.01
  -6   8   8   65.22    7.51
   6  -8   9    9.98    3.34
   6   8   9    7.99    2.57
   6   8   9   12.66    3.24
  -6   8   9   10.90    3.28
   6  -8  10   11.80    3.64
  -6   8  10    9.12    3.01
   6   8  10   10.11    3.75
   6   8  10    6.36    2.26
   6  -8  11   14.64    3.93
   6   8  11   13.40    3.46
   6   8  11   15.20    3.76
  -6   8  11   15.40    3.81
   6  -8  12   25.02    4.81
  -6   8  12   25.19    4.67
   6   8  12   26.03    4.81
   6   8  12   24.64    4.73
  -6   8  13   20.99    4.84
   6   8  13   22.56    4.55
   6   8  13   23.21    4.47
   6   8  14   18.04    3.98
   6   8  14   12.87    3.12
  -6   8  14   13.26    3.49
   6   8  15   16.34    3.90
   6   8  15   14.45    3.73
   6   8  16   12.21    3.26
   6   8  16    8.58    2.63
  -6   8  16   10.92    3.14
   6   8  17   12.52    3.48
   6   8  17    7.30    3.62
  -6   8  17    9.28    3.28
   6   8  18   25.04    4.78
  -6   8  18   18.28    4.26
   6   8  18   27.05    5.22
   6   8  19    3.73    2.89
  -6   8  19    4.97    2.41
   6   8  19    5.28    2.55
  -6   8  20    9.90    3.86
   6   8  20    8.54    3.11
   6   8  21    6.90    3.29
  -6   8  21    0.81    1.48
   6  -9 -17   -2.41    2.18
   6  -9 -17   -2.83    1.73
   6  -9 -16   -0.09    1.66
   6  -9 -16   -0.73    1.13
   6  -9 -15   -0.31    1.90
   6  -9 -15    1.88    2.08
   6   9 -14   -0.53    1.03
   6  -9 -14   -1.17    1.81
   6  -9 -13    0.14    1.00
   6   9 -13    3.81    2.53
   6  -9 -13    1.10    2.37
   6   9 -12    7.66    2.87
   6  -9 -12    7.48    3.14
   6  -9 -12    5.64    2.65
   6   9 -11   -0.77    1.85
   6  -9 -11    3.90    1.98
   6  -9 -11    0.22    0.95
   6   9 -10    4.10    2.41
   6  -9 -10    1.04    1.95
   6  -9 -10    2.21    1.99
   6  -9  -9    2.90    2.44
   6   9  -9    1.55    1.73
   6  -9  -9   -0.38    0.85
   6  -9  -8    3.63    2.53
   6   9  -8    2.45    1.03
  -6   9  -8    4.42    2.45
   6  -9  -8   -0.99    2.33
   6   9  -7    0.29    2.27
   6  -9  -7    0.17    1.27
  -6   9  -7    3.09    1.81
   6  -9  -7    5.92    3.30
   6   9  -6    1.81    1.42
  -6   9  -6    9.53    3.38
   6  -9  -6    7.79    3.37
   6  -9  -6    7.25    2.93
   6   9  -5    9.36    3.08
  -6   9  -5    7.42    2.89
   6  -9  -5   10.11    3.35
   6  -9  -5    1.09    1.04
   6   9  -4    0.17    1.38
   6  -9  -4    3.19    2.67
   6  -9  -4    0.25    2.08
  -6   9  -4    1.56    2.54
   6  -9  -3    2.75    1.57
   6   9  -3    4.60    1.97
   6   9  -3    7.64    3.66
  -6   9  -3    3.85    2.36
   6  -9  -3    5.57    2.26
   6   9  -2   -0.67    1.77
   6   9  -2    1.75    1.96
  -6   9  -2    0.85    1.16
   6  -9  -2    2.96    2.27
   6   9  -1    6.96    2.83
   6   9  -1    7.21    2.69
  -6   9  -1   13.33    4.08
   6  -9  -1    8.00    2.85
   6   9   0    5.77    2.62
  -6   9   0    4.38    2.29
   6   9   0    4.47    2.51
   6  -9   0    1.34    1.29
   6   9   1    5.52    2.39
  -6   9   1    9.83    3.41
   6   9   1    9.56    3.10
   6  -9   1    6.65    2.83
   6   9   2   -1.06    0.73
  -6   9   2    1.11    0.74
   6   9   2   -0.40    1.20
   6  -9   2    0.70    1.78
   6   9   3    3.29    2.15
   6   9   3   -0.87    1.13
  -6   9   3    1.40    0.94
   6  -9   3    2.33    1.82
   6   9   4   -0.21    1.16
   6   9   4    1.66    2.37
   6  -9   4    0.37    1.50
  -6   9   4    0.90    1.28
   6   9   5    9.34    2.89
   6   9   5    8.32    3.15
  -6   9   5    1.14    0.84
   6  -9   5    7.96    3.18
   6   9   6    2.83    2.16
   6   9   6   11.95    3.66
  -6   9   6    9.49    3.14
   6  -9   6    7.56    2.91
   6   9   7    2.09    1.91
  -6   9   7    3.23    2.38
   6   9   7    4.42    2.12
   6  -9   7    8.90    3.36
   6  -9   8    3.00    2.02
   6   9   8    5.86    2.28
   6   9   8    4.10    2.41
  -6   9   8    1.86    1.84
   6   9   9    1.48    2.55
  -6   9   9    2.44    2.22
   6   9   9    0.23    1.31
   6  -9   9    4.38    2.38
   6   9  10    2.83    1.36
   6   9  10    1.02    1.45
  -6   9  10   -0.16    1.41
   6  -9  10    1.52    1.26
   6   9  11    0.59    1.30
   6   9  11    0.34    1.21
  -6   9  11    2.43    2.19
   6   9  12    6.96    3.64
   6   9  12   12.79    3.43
  -6   9  12   12.75    3.70
   6   9  13   -0.34    1.82
   6   9  13    0.83    1.33
  -6   9  13    1.37    1.47
   6   9  14    2.80    2.24
   6   9  14    3.05    1.66
  -6   9  14    5.33    3.33
   6   9  15    2.46    2.79
   6   9  15    0.27    1.40
  -6   9  15    1.16    1.46
  -6   9  16   -0.63    1.62
   6   9  16   -0.24    1.24
   6   9  16    1.00    1.64
   6   9  17    1.21    1.75
   6   9  17   -2.24    2.26
  -6   9  17    0.35    1.37
   6 -10 -13    6.75    2.89
   6 -10 -13    3.92    2.28
   6  10 -12    6.94    2.86
   6 -10 -12    3.96    2.40
   6 -10 -12    4.36    1.89
   6  10 -11    3.33    2.51
   6 -10 -11   -0.05    1.98
   6 -10 -11    6.03    2.94
   6  10 -10    2.88    2.21
   6 -10 -10    1.04    1.72
   6  10  -9    2.95    1.45
   6 -10  -9    1.06    1.80
   6  10  -8   22.57    4.72
   6 -10  -8   14.75    3.85
   6  10  -7    1.35    1.51
  -6  10  -7    7.56    2.67
   6 -10  -7    4.53    2.64
   6  10  -6    5.54    2.48
  -6  10  -6    3.38    1.31
   6 -10  -6    7.97    3.30
   6  10  -5    7.41    2.64
  -6  10  -5    5.24    2.24
   6 -10  -5    9.56    2.74
   6  10  -4   10.38    3.19
  -6  10  -4    8.41    3.57
   6 -10  -4   11.36    3.23
   6  10  -3    1.72    1.73
  -6  10  -3    3.09    1.70
   6 -10  -3    3.88    2.63
  -6  10  -2   21.68    4.20
   6  10  -2   13.61    3.52
   6 -10  -2   13.97    3.67
   6  10  -1    3.20    2.05
   6  10  -1    7.90    2.81
  -6  10  -1    8.22    2.81
   6 -10  -1    5.62    2.82
   6 -10   0    0.81    3.00
   6  10   0    0.57    1.10
   6  10   0   -0.68    1.37
  -6  10   0   -0.53    2.14
   6  10   1    6.29    3.21
  -6  10   1    4.11    2.61
   6  10   1    3.60    1.41
   6 -10   1   12.45    3.83
   6  10   2   11.94    3.11
  -6  10   2   11.96    3.23
   6  10   2   16.01    4.26
   6 -10   2   14.17    3.75
   6  10   3    0.93    1.05
  -6  10   3    2.18    2.03
   6  10   3   -0.36    0.88
   6 -10   3    1.09    1.10
   6  10   4    7.64    2.99
  -6  10   4    9.92    3.66
   6  10   4    3.94    3.44
   6 -10   4   13.26    3.84
   6 -10   5    9.51    3.52
   6  10   5    7.72    2.58
  -6  10   5    2.99    1.82
   6  10   5    6.98    2.75
   6  10   6    1.53    2.23
   6  10   6    3.30    2.23
  -6  10   6    0.85    2.19
   6 -10   6    2.08    1.26
   6  10   7    3.27    2.84
  -6  10   7    1.48    1.02
   6  10   7    2.23    1.80
   6 -10   7    4.96    3.03
   6  10   8   17.14    4.46
  -6  10   8    8.57    2.77
   6  10   8   16.73    4.13
   6  10   9    0.01    1.82
   6  10   9    1.50    0.83
   6 -10   9   -0.33    1.44
   6  10  10   -1.90    2.28
   6  10  10   -1.08    1.20
  -6  10  10    1.13    1.24
   6  10  11    1.51    2.19
   6  10  11    2.38    1.67
  -6  10  11    3.70    2.11
   6  10  12    5.46    2.55
   6  10  12    6.55    3.04
  -6  10  12    6.27    2.63
   6  10  13    4.20    2.87
   6  10  13    4.74    2.67
  -6  10  13   -0.27    1.51
  -6  11  -5    0.04    1.38
   6 -11  -5    2.17    1.63
   6  11  -4    0.04    1.55
   6 -11  -4    1.95    1.80
  -6  11  -4    4.19    2.25
   6  11  -3    1.24    1.06
  -6  11  -3    0.48    1.83
   6 -11  -3   -0.69    1.96
   6  11  -2    2.52    2.02
  -6  11  -2    3.61    2.93
   6 -11  -2    0.91    1.95
   6  11  -1    7.45    3.30
  -6  11  -1    3.45    2.05
   6 -11  -1    6.54    2.42
   6  11   0    1.49    2.33
  -6  11   0    4.01    2.95
   6 -11   0    2.33    1.32
   6  11   1    1.86    1.16
   6  11   1   -0.09    2.12
  -6  11   1    6.21    3.10
   6 -11   1    1.19    2.99
   6  11   2    0.46    1.54
   6  11   2    2.44    2.16
  -6  11   2    3.11    2.56
   6 -11   2   -3.45    2.60
   6  11   3    3.26    2.02
   6  11   3    4.98    2.59
  -6  11   3    0.62    1.45
   6 -11   3    2.15    1.93
   6  11   4    0.34    2.09
   6  11   4   -0.87    0.85
  -6  11   4    2.89    2.40
   6 -11   4    2.41    2.72
   6  11   5    0.60    1.41
   6  11   5    4.93    2.65
  -6  11   5    1.17    1.26
   6 -11   5    1.69    1.85
   7   0 -29   -4.11    2.13
   7   0 -28   -4.09    2.67
   7   0 -27   -1.32    2.02
   7   0 -26   -2.32    1.93
   7   0 -25    2.41    1.83
   7   0 -24    0.37    0.85
   7   0 -23   -0.39    1.57
   7   0 -22    1.22    1.56
   7   0 -21    0.57    1.58
   7   0 -20   -0.43    2.04
   7   0 -19   -1.19    0.97
   7   0 -18   -1.41    0.71
   7   0 -17    0.19    0.97
   7   0 -16    0.27    0.88
   7   0 -15   -0.13    1.04
   7   0 -14   -0.33    0.77
   7   0 -14    3.91    1.79
   7   0 -13    0.14    0.57
   7   0 -13   -0.38    1.22
   7   0 -12   -0.02    0.64
   7   0 -12   -1.09    1.06
   7   0 -11    0.07    0.53
   7   0 -11    0.54    1.10
   7   0 -10   -0.38    0.46
   7   0 -10    2.34    1.20
   7   0  -9    0.00    0.45
   7   0  -9   -0.07    0.92
   7   0  -8   -0.60    0.97
   7   0  -8   -0.36    0.78
   7   0  -8   -0.14    0.59
   7   0  -7   -0.02    0.59
   7   0  -7    0.97    1.21
   7   0  -7    0.63    0.87
   7   0  -6   -0.40    0.60
   7   0  -6   -0.54    0.84
   7   0  -5    0.18    0.93
   7   0  -5    0.34    0.63
   7   0  -5   -0.11    0.91
   7   0  -4   -0.07    0.60
   7   0  -4   -0.55    0.68
   7   0  -4   -0.21    0.71
   7   0  -3    0.24    0.90
   7   0  -3    0.28    0.45
   7   0  -3    0.00    0.70
   7   0  -2    0.10    0.48
   7   0  -2   -0.31    0.44
   7   0  -2    0.32    0.49
   7   0  -1    0.77    0.99
   7   0  -1   -0.65    0.95
   7   0  -1   -0.10    0.76
   7   0   0    0.49    1.12
   7   0   0    0.11    0.68
   7   0   0   -0.27    0.84
   7   0   1   -0.06    0.46
   7   0   1   -0.07    0.60
   7   0   2   -0.23    0.54
   7   0   2    0.60    0.73
   7   0   3    1.08    0.88
   7   0   3    0.43    0.75
   7   0   4    1.13    1.15
   7   0   4   -0.01    0.42
   7   0   5    0.82    0.92
   7   0   5   -0.10    0.79
   7   0   6    0.46    0.90
   7   0   6    0.74    0.94
   7   0   7    0.40    0.52
   7   0   7    0.18    0.47
   7   0   8   -0.53    0.66
   7   0   8    0.30    0.84
   7   0   9    0.05    0.56
   7   0   9   -0.29    0.73
   7   0  10    0.21    0.56
   7   0  10    0.30    0.31
   7   0  11    0.30    1.01
   7   0  11    0.09    0.65
   7   0  12    0.74    1.16
   7   0  12    0.21    0.61
   7   0  13   -0.01    1.38
   7   0  13    0.32    0.71
   7   0  14   -0.53    1.08
   7   0  15    1.11    1.62
   7   0  16    0.65    1.50
   7   0  17    0.32    1.44
   7   0  18    0.56    1.26
   7   0  19    1.53    1.51
   7   0  20    0.55    1.09
   7   0  21   -1.41    1.57
   7   0  22   -1.20    1.07
   7   0  23   -1.12    1.55
   7  -1 -29    0.83    1.29
   7  -1 -28   49.78    7.25
   7  -1 -27   10.71    3.88
   7  -1 -26   -0.03    1.34
   7   1 -25   -3.38    1.75
   7  -1 -25   21.53    4.54
   7   1 -24   82.45    8.53
   7  -1 -24   71.15    8.00
   7   1 -23    1.00    0.85
   7  -1 -23    3.55    2.08
   7   1 -22   37.86    5.61
   7  -1 -22   43.24    6.12
   7   1 -21   24.61    4.61
   7  -1 -21   27.14    5.00
   7   1 -20   48.20    6.02
   7  -1 -20   38.86    5.29
   7   1 -19   30.84    4.59
   7  -1 -19   23.68    4.32
   7   1 -18   33.40    4.73
   7  -1 -18   40.94    5.66
   7   1 -17   31.80    4.45
   7  -1 -17   31.83    4.62
   7   1 -16  301.91   13.63
   7  -1 -16  312.79   14.61
   7   1 -15   68.53    6.50
   7  -1 -15   68.99    6.65
   7  -1 -15   65.28    5.70
   7   1 -14  474.43   16.47
   7  -1 -14  483.81   17.41
   7  -1 -14  457.21   14.68
   7  -1 -13   57.39    5.82
   7   1 -13   57.91    5.59
   7  -1 -13   53.85    5.01
   7   1 -13   68.94    5.99
   7   1 -12   86.88    6.63
   7  -1 -12   94.73    7.25
   7  -1 -12   88.10    6.32
   7   1 -12  101.86    7.29
   7   1 -12   92.22    5.12
   7   1 -11  106.64    5.62
   7   1 -11  100.25    7.07
   7  -1 -11  102.86    7.53
   7   1 -11  101.96    7.17
   7  -1 -11  104.13    6.78
   7   1 -10   26.85    2.95
   7   1 -10   28.79    3.69
   7  -1 -10   32.73    4.14
   7   1 -10   30.88    3.82
   7  -1 -10   33.10    3.90
   7   1  -9   17.00    2.37
   7   1  -9   14.55    2.68
   7   1  -9   18.95    3.01
   7  -1  -9   18.51    3.07
   7  -1  -9   19.26    2.83
   7  -1  -8   85.87    6.03
   7   1  -8   79.97    4.99
   7   1  -8   81.25    6.15
   7   1  -8   80.86    5.86
   7  -1  -8   81.50    6.50
   7  -1  -7   88.89    6.10
   7   1  -7   82.13    6.16
   7   1  -7   79.71    4.98
   7  -1  -7   79.03    6.17
   7   1  -7   85.93    5.93
   7   1  -6  228.64    9.47
   7  -1  -6  233.79    9.80
   7   1  -6  231.72    8.74
   7  -1  -6  221.68   10.37
   7   1  -6  231.29   10.20
   7  -1  -5  276.43   10.61
   7   1  -5  284.15    9.80
   7  -1  -5  272.58   11.35
   7   1  -5  263.44   10.07
   7   1  -5  283.08   10.97
   7   1  -4  169.37    7.67
   7  -1  -4  174.93    8.36
   7  -1  -4  146.04    8.18
   7   1  -4  175.30    8.18
   7   1  -4  154.79    8.13
   7  -1  -3  368.21   12.25
   7   1  -3  351.96   11.15
   7  -1  -3  369.75   12.99
   7   1  -3  381.59   12.03
   7   1  -3  349.53   12.09
   7  -1  -2  616.94   15.84
   7   1  -2  613.55   14.92
   7  -1  -2  617.62   16.60
   7   1  -2  633.51   15.50
   7   1  -2  626.46   15.95
   7  -1  -1   22.73    2.96
   7  -1  -1   25.80    3.36
   7   1  -1   24.74    2.95
   7   1  -1   22.28    2.94
   7   1  -1   20.54    3.00
   7   1   0    1.40    0.90
   7   1   0    1.63    0.74
   7  -1   0    2.72    1.05
   7  -1   0    1.83    1.21
   7  -1   1   30.37    3.57
   7  -1   1   19.15    2.88
   7   1   1   20.35    2.75
   7   1   1   23.37    3.12
   7  -1   2  624.29   16.30
   7   1   2  643.36   16.22
   7   1   2  636.76   15.51
   7   1   3  352.66   11.56
   7   1   3  368.82   12.52
   7  -1   4  161.47    8.44
   7   1   4  160.22    7.65
   7   1   4  162.23    8.35
   7   1   5  278.96   11.14
   7  -1   5  285.79   11.37
   7   1   5  266.72    9.86
   7   1   6  220.29   10.10
   7   1   6  227.70    9.02
   7  -1   6  223.76   10.10
   7   1   7   86.32    6.43
   7  -1   7   90.37    6.55
   7   1   7   80.18    5.33
   7   1   8   83.65    6.52
   7  -1   8   82.07    6.36
   7   1   8   82.47    5.48
   7   1   9    9.42    2.61
   7  -1   9   13.95    2.78
   7   1   9   17.53    2.39
   7   1  10   33.60    4.01
   7  -1  10   28.06    3.69
   7   1  10   37.80    3.59
   7   1  11   96.60    7.39
   7  -1  11   86.56    6.76
   7   1  11  110.91    6.25
   7   1  12   91.04    7.34
   7  -1  12   91.87    6.99
   7   1  12   84.12    5.35
   7   1  13   54.78    5.66
   7  -1  13   56.97    5.81
   7   1  13   61.54    4.60
   7   1  14  455.49   17.05
   7  -1  14  457.42   16.34
   7   1  14  472.09   12.39
   7   1  15   67.01    6.52
   7  -1  15   56.85    5.70
   7   1  16  336.35   15.09
   7  -1  16  307.52   14.07
   7   1  17   23.92    4.11
   7  -1  17   25.57    4.01
   7   1  18   39.24    5.48
   7  -1  18   33.60    4.80
   7   1  19   30.21    4.76
   7  -1  19   26.05    4.52
   7  -1  20   35.31    5.34
   7   1  20   38.72    5.72
   7  -1  21   21.88    4.07
   7   1  21   24.90    4.69
   7  -1  22   32.71    5.34
   7   1  22   38.66    6.05
   7   1  23    3.22    2.13
   7   1  24   66.53    7.78
   7  -2 -29    1.18    2.04
   7  -2 -28   -0.58    1.67
   7  -2 -27    8.00    2.56
   7  -2 -26    4.08    2.82
   7  -2 -25    8.47    3.19
   7  -2 -24    7.48    2.54
   7  -2 -23   12.40    2.80
   7  -2 -22    7.47    2.55
   7  -2 -21   19.29    4.64
   7  -2 -20    9.51    3.31
   7   2 -19    1.08    0.90
   7  -2 -19   -1.27    2.07
   7   2 -18   51.55    6.01
   7  -2 -18   36.77    5.58
   7  -2 -17   26.32    4.50
   7   2 -17   19.66    3.44
   7  -2 -17   26.67    4.77
   7   2 -17   20.50    3.65
   7   2 -16  238.04   11.48
   7  -2 -16  260.61   13.53
   7  -2 -16  228.60   11.79
   7   2 -16  224.38   11.58
   7   2 -15   76.11    6.41
   7  -2 -15   70.39    6.40
   7  -2 -15   80.48    7.32
   7   2 -15   76.31    6.64
   7  -2 -14   64.24    6.01
   7   2 -14   61.47    5.83
   7  -2 -14   56.87    6.12
   7   2 -14   60.82    5.68
   7  -2 -13   36.17    4.53
   7  -2 -13   52.96    5.78
   7   2 -13   45.93    4.95
   7   2 -13   46.31    4.87
   7   2 -12  102.38    6.79
   7  -2 -12   96.08    7.23
   7   2 -12  101.26    7.41
   7  -2 -12   91.91    7.51
   7  -2 -11    8.17    2.19
   7   2 -11    8.81    1.68
   7   2 -11   12.05    2.56
   7  -2 -11   10.74    2.93
   7   2 -11   12.26    2.40
   7   2 -10   53.93    3.73
   7   2 -10   55.32    4.81
   7  -2 -10   57.62    5.78
   7  -2 -10   59.99    5.39
   7   2 -10   53.35    5.25
   7   2  -9  110.10    5.55
   7   2  -9  109.29    6.49
   7  -2  -9  108.60    7.85
   7   2  -9  121.36    7.74
   7  -2  -9   96.89    6.91
   7   2  -8  227.74    9.28
   7  -2  -8  236.42   11.43
   7   2  -8  228.62    8.36
   7   2  -8  249.02   10.98
   7  -2  -8  241.05   10.87
   7   2  -7    8.19    2.18
   7  -2  -7    8.57    2.24
   7  -2  -7   12.50    2.80
   7   2  -7    7.24    1.61
   7   2  -7    7.24    1.49
   7  -2  -6   24.02    3.28
   7  -2  -6   32.74    4.23
   7   2  -6   29.71    3.29
   7   2  -6   29.20    2.94
   7   2  -6   26.92    3.62
   7  -2  -5  150.23    8.46
   7  -2  -5  134.64    8.27
   7   2  -5  163.50    7.54
   7   2  -5  154.92    7.23
   7   2  -5  147.36    8.21
   7  -2  -4   26.15    3.53
   7  -2  -4   29.51    3.69
   7   2  -4   28.84    3.15
   7   2  -4   29.33    3.11
   7   2  -4   25.96    3.54
   7  -2  -3  150.82    8.33
   7  -2  -3  152.46    8.58
   7   2  -3  144.96    7.07
   7   2  -3  158.20    7.49
   7   2  -3  159.43    8.29
   7  -2  -2   83.95    6.18
   7   2  -2   75.41    5.16
   7  -2  -2   80.66    6.20
   7   2  -2   78.73    5.84
   7   2  -2   83.45    5.63
   7   2  -1    3.00    1.02
   7  -2  -1    3.69    1.67
   7   2  -1    1.58    1.08
   7  -2  -1    0.27    0.44
   7   2   0    0.84    0.58
   7  -2   0    0.41    0.74
   7   2   0    0.51    0.72
   7  -2   0    1.29    0.88
   7   2   1    2.90    1.02
   7  -2   1    1.76    0.82
   7   2   1    1.45    1.22
   7  -2   1    2.53    1.48
   7   2   2   77.50    5.81
   7   2   2   67.77    5.35
   7  -2   2   71.99    5.79
   7  -2   2   80.14    6.11
   7   2   3  136.71    7.59
   7   2   3  146.68    7.99
   7  -2   3  159.06    8.56
   7   2   4   31.32    3.62
   7   2   4   28.55    3.71
   7  -2   4   28.47    3.64
   7   2   5  147.37    7.90
   7   2   5  147.10    8.32
   7  -2   5  153.95    8.55
   7   2   6   36.08    3.98
   7   2   6   27.45    3.64
   7  -2   6   23.93    3.41
   7   2   7    8.93    2.08
   7  -2   7    5.69    1.63
   7   2   7   10.55    2.41
   7   2   8  245.98   10.32
   7   2   8  236.03   11.21
   7  -2   8  233.83   10.96
   7   2   9  105.67    6.68
   7   2   9  113.86    7.92
   7  -2   9  112.42    7.64
   7   2  10   57.57    4.96
   7   2  10   47.39    5.30
   7  -2  10   50.63    5.24
   7   2  11   11.24    2.26
   7  -2  11    3.93    1.64
   7   2  11    8.50    2.48
   7   2  12   94.71    6.45
   7   2  12   94.69    7.56
   7  -2  12   92.21    7.45
   7   2  13   48.89    4.48
   7   2  13   44.36    5.35
   7  -2  13   48.46    5.34
   7   2  14   60.29    5.16
   7   2  14   63.09    6.31
   7  -2  14   72.42    6.52
   7   2  15   61.95    5.18
   7   2  15   70.13    7.00
   7  -2  15   56.86    6.07
   7   2  16  223.31   12.43
   7  -2  16  206.88   11.68
   7   2  17   23.89    4.03
   7  -2  17   22.30    3.90
   7   2  18   45.81    5.83
   7  -2  18   45.68    5.71
   7   2  19   -0.07    1.15
   7  -2  19   -0.94    1.48
   7   2  20    6.70    2.47
   7  -2  20    8.57    2.82
   7   2  21   21.45    4.13
   7   2  22    3.95    1.23
   7   2  23   18.06    4.25
   7   2  24    2.90    1.45
   7   2  25   13.19    3.82
   7  -3 -28   18.82    4.83
   7  -3 -27    5.27    2.93
   7  -3 -26   -1.09    0.92
   7  -3 -25    7.44    2.89
   7  -3 -24   54.33    7.46
   7  -3 -23    9.78    3.71
   7  -3 -22   -1.47    1.84
   7  -3 -21    0.82    1.56
   7  -3 -20  111.72    9.43
   7  -3 -19   10.03    3.40
   7  -3 -18  250.35   14.24
   7  -3 -18  253.88   13.39
   7   3 -18  268.53   13.69
   7  -3 -17   19.44    4.15
   7  -3 -17   23.75    4.21
   7   3 -17   25.34    4.05
   7  -3 -16    7.57    2.41
   7   3 -16    8.28    2.27
   7  -3 -16    6.40    2.22
   7  -3 -15   15.43    3.64
   7  -3 -15   18.54    3.48
   7   3 -15   10.47    2.83
   7  -3 -14  559.97   19.86
   7   3 -14  551.26   18.32
   7   3 -13    3.61    1.69
   7  -3 -13    6.69    2.61
   7   3 -13   10.51    2.76
   7  -3 -13    3.60    1.88
   7  -3 -12  648.34   20.53
   7   3 -12  659.94   16.70
   7  -3 -12  643.05   19.66
   7   3 -12  617.13   19.14
   7   3 -11   61.05    4.79
   7  -3 -11   65.31    6.50
   7  -3 -11   56.41    5.75
   7   3 -11   61.45    5.72
   7   3 -10   18.37    2.59
   7  -3 -10   20.09    3.33
   7  -3 -10   15.59    3.05
   7   3 -10   20.02    3.20
   7   3  -9   25.19    2.78
   7  -3  -9   19.71    3.45
   7   3  -9   23.95    2.91
   7  -3  -9   20.57    3.56
   7   3  -9   24.79    3.79
   7   3  -8  569.37   13.24
   7   3  -8  543.04   13.49
   7  -3  -8  608.57   18.85
   7  -3  -8  597.18   18.23
   7   3  -8  590.96   17.61
   7   3  -7   12.19    1.94
   7  -3  -7    9.69    2.28
   7  -3  -7   11.44    2.49
   7   3  -7   13.14    2.04
   7   3  -7   14.87    2.95
   7   3  -6  361.03   10.61
   7  -3  -6  354.31   13.85
   7   3  -6  357.67   11.37
   7   3  -6  349.96   13.55
   7   3  -5   40.19    3.80
   7  -3  -5   35.47    4.48
   7   3  -5   41.84    3.58
   7  -3  -5   33.09    4.36
   7   3  -5   32.62    4.02
   7   3  -4    2.81    0.81
   7  -3  -4    1.13    1.02
   7  -3  -4    4.61    1.62
   7   3  -4    2.85    1.27
   7   3  -4    2.89    0.99
   7  -3  -3   18.42    3.08
   7   3  -3   16.61    2.72
   7   3  -3   18.34    2.62
   7  -3  -3   21.64    3.56
   7   3  -3   15.62    2.20
   7   3  -2  652.96   18.15
   7  -3  -2  644.40   18.22
   7   3  -2  662.13   16.42
   7  -3  -2  614.84   18.11
   7   3  -2  638.79   14.48
   7   3  -1   18.80    3.05
   7  -3  -1   17.61    3.05
   7   3  -1   16.39    2.57
   7  -3  -1   15.61    3.11
   7   3   0   -0.06    0.80
   7  -3   0    1.64    0.92
   7   3   0    0.47    1.03
   7  -3   0    0.37    0.56
   7  -3   1   15.94    2.91
   7  -3   1   19.09    3.18
   7   3   1   23.05    3.19
   7   3   1   15.23    2.63
   7  -3   2  619.92   17.91
   7   3   2  685.75   18.19
   7  -3   2  658.35   18.30
   7   3   2  643.73   17.29
   7   3   3   22.60    3.35
   7  -3   3   21.11    3.28
   7   3   3   23.03    3.47
   7  -3   3   18.50    3.10
   7   3   4    0.61    0.51
   7   3   4    3.08    1.15
   7  -3   4    1.19    0.70
   7  -3   4    2.22    1.00
   7   3   5   39.99    4.37
   7  -3   5   37.63    4.34
   7   3   5   49.72    5.00
   7   3   6  385.27   13.69
   7  -3   6  367.52   13.91
   7   3   6  371.24   14.00
   7   3   7   14.57    2.71
   7  -3   7   15.28    2.93
   7   3   7   17.21    3.14
   7   3   8  568.83   16.74
   7  -3   8  590.14   17.83
   7   3   8  568.65   17.81
   7   3   9   22.95    3.46
   7  -3   9   21.30    3.34
   7   3   9   23.78    3.70
   7   3  10   25.38    3.74
   7  -3  10   20.67    3.45
   7   3  10   19.25    3.62
   7   3  11   71.93    6.06
   7  -3  11   71.16    6.30
   7   3  11   71.86    6.52
   7   3  12  674.15   18.85
   7  -3  12  634.42   19.28
   7   3  12  645.10   20.26
   7   3  13    1.23    1.00
   7   3  13    5.31    1.85
   7  -3  13    4.39    1.92
   7   3  14  553.51   17.25
   7  -3  14  542.85   18.39
   7   3  14  566.99   19.77
   7   3  15   14.16    3.00
   7   3  15   11.74    2.29
   7  -3  15   16.06    3.20
   7   3  16    8.14    2.29
   7  -3  16    9.01    2.74
   7   3  17   18.18    3.68
   7  -3  17   21.31    4.06
   7   3  18  246.67   13.92
   7  -3  18  254.19   13.47
   7  -3  19   13.90    3.16
   7   3  19   12.09    3.51
   7   3  20   89.32    8.73
   7   3  21    3.12    1.94
   7   3  22   -0.31    0.91
   7   3  23    6.79    1.82
   7   3  24   73.10    8.57
   7   3  25    3.94    1.40
   7   3  26    6.22    2.54
   7  -4 -27    5.27    2.40
   7  -4 -26    1.92    1.56
   7  -4 -25    3.98    2.34
   7  -4 -24   -2.40    2.76
   7  -4 -23    0.92    2.14
   7  -4 -22   15.10    3.78
   7  -4 -21    6.47    2.47
   7  -4 -20    0.25    1.29
   7  -4 -19   86.61    8.63
   7  -4 -19   92.45    8.55
   7  -4 -18   34.50    5.33
   7  -4 -18   35.38    5.46
   7  -4 -17    6.34    2.87
   7  -4 -17    5.85    2.17
   7   4 -17    1.77    0.97
   7   4 -16    8.30    2.46
   7  -4 -16   10.81    3.34
   7  -4 -16    7.55    3.26
   7  -4 -15   27.51    4.55
   7  -4 -15   27.11    4.78
   7   4 -15   26.72    4.22
   7  -4 -14   52.00    5.99
   7  -4 -14   58.34    6.49
   7   4 -14   50.17    5.71
   7  -4 -13   51.22    6.14
   7  -4 -13   49.19    5.87
   7   4 -13   54.41    6.03
   7   4 -12   12.42    3.25
   7  -4 -12   16.85    3.65
   7  -4 -12   19.27    3.61
   7  -4 -11  112.41    8.54
   7  -4 -11  114.17    8.65
   7   4 -11  122.01    8.68
   7  -4 -10   18.17    3.42
   7  -4 -10   20.56    3.45
   7   4 -10   14.48    3.49
   7  -4  -9    3.45    1.49
   7   4  -9    5.21    2.41
   7  -4  -9    1.80    1.41
   7   4  -8   39.59    3.74
   7  -4  -8   38.57    4.86
   7  -4  -8   43.11    5.13
   7   4  -8   51.86    5.49
   7   4  -7  293.75   13.05
   7  -4  -7  283.11   13.36
   7   4  -7  305.04   10.74
   7  -4  -7  289.37   13.34
   7   4  -6   23.06    3.75
   7   4  -6   22.24    3.12
   7  -4  -6   30.42    4.38
   7  -4  -6   28.75    4.53
   7   4  -6   15.41    1.95
   7   4  -5    2.49    1.51
   7  -4  -5    3.57    1.61
   7  -4  -5    2.13    0.94
   7   4  -5    1.15    0.71
   7   4  -5    1.79    0.70
   7   4  -4    4.21    1.41
   7   4  -4    4.02    1.36
   7  -4  -4    4.18    1.83
   7  -4  -4    1.47    1.15
   7   4  -4    2.90    0.90
   7   4  -3   41.93    4.92
   7   4  -3   46.63    4.63
   7  -4  -3   50.22    5.26
   7   4  -3   38.54    3.37
   7  -4  -3   39.02    4.76
   7   4  -2    2.99    1.19
   7  -4  -2    5.17    1.90
   7   4  -2    3.91    1.60
   7  -4  -2    1.14    1.48
   7   4  -1    8.05    1.98
   7  -4  -1    5.38    2.14
   7   4  -1    5.06    1.38
   7  -4  -1    7.15    2.03
   7   4   0    0.50    0.55
   7  -4   0    1.04    1.01
   7   4   0   -0.19    0.65
   7  -4   0   -0.45    0.72
   7   4   1    5.74    2.28
   7  -4   1    6.63    2.34
   7   4   1   10.83    2.29
   7  -4   1    9.66    2.24
   7   4   2    0.72    0.71
   7  -4   2    2.71    1.20
   7   4   2    4.52    1.34
   7  -4   2    5.66    1.70
   7  -4   3   41.67    5.13
   7   4   3   42.41    5.03
   7   4   3   41.83    4.68
   7  -4   3   44.02    5.02
   7   4   4    2.71    1.58
   7  -4   4    3.54    1.30
   7   4   4    5.01    1.93
   7  -4   4    2.95    1.22
   7   4   5    3.52    1.38
   7  -4   5    3.97    1.83
   7   4   5    3.41    1.89
   7  -4   5    2.35    0.93
   7   4   6   33.48    4.38
   7  -4   6   28.86    4.05
   7  -4   6   20.55    3.51
   7   4   6   29.78    4.30
   7   4   7  292.18   12.98
   7  -4   7  294.20   13.24
   7   4   7  284.60   13.08
   7  -4   7  287.04   13.00
   7   4   8   39.13    4.81
   7  -4   8   40.45    5.16
   7   4   8   39.44    4.99
   7   4   9    2.56    0.79
   7  -4   9    3.37    1.72
   7   4   9    4.56    2.07
   7   4  10   26.02    3.82
   7  -4  10   20.43    3.54
   7   4  10   24.38    4.02
   7   4  11  121.26    8.57
   7  -4  11  113.61    8.34
   7   4  11  106.00    8.38
   7   4  12   13.64    2.71
   7  -4  12   13.29    3.23
   7   4  12   18.66    3.61
   7   4  13   60.78    6.01
   7  -4  13   57.60    6.13
   7   4  13   63.53    6.59
   7   4  14   59.59    5.97
   7  -4  14   58.03    6.52
   7   4  14   54.42    6.39
   7   4  15   19.04    3.45
   7  -4  15   20.26    3.76
   7   4  15   21.76    3.95
   7   4  16    7.48    1.64
   7   4  16    6.75    2.18
   7  -4  16    7.69    2.58
   7   4  17    3.47    1.31
   7  -4  17    2.17    0.78
   7  -4  18   36.71    5.52
   7   4  18   31.58    5.22
   7   4  19  102.96    9.29
   7   4  20    0.88    1.73
   7   4  21    5.11    2.61
   7   4  22   13.78    3.43
   7   4  23   -0.86    2.00
   7   4  24    0.37    1.59
   7   4  25    0.09    1.60
   7   4  26   -0.12    1.99
   7   4  27    9.25    3.39
   7  -5 -26    0.53    1.42
   7  -5 -25   -0.26    1.44
   7  -5 -24   37.05    5.95
   7  -5 -23    1.81    2.42
   7  -5 -22   37.62    6.19
   7  -5 -21    9.78    3.13
   7  -5 -20   -0.52    1.49
   7  -5 -20    4.11    2.53
   7  -5 -19   18.45    4.44
   7  -5 -19   21.75    4.75
   7  -5 -18   79.32    8.06
   7  -5 -18  104.94    9.42
   7   5 -17   26.93    4.29
   7  -5 -17   34.52    5.56
   7  -5 -17   21.49    4.68
   7   5 -16    3.40    1.92
   7  -5 -16    4.72    1.71
   7  -5 -16    5.23    2.39
   7   5 -15    8.03    2.52
   7  -5 -15   12.68    2.91
   7  -5 -15    7.68    2.61
   7   5 -14    5.36    1.90
   7  -5 -14    5.97    2.37
   7  -5 -14    4.80    1.85
   7   5 -13    0.98    0.76
   7  -5 -13    1.99    2.25
   7  -5 -13   -0.77    0.68
   7  -5 -12  116.81    9.38
   7  -5 -12  118.77    9.40
   7   5 -12  129.41    9.49
   7  -5 -11   23.88    4.72
   7  -5 -11   25.51    4.25
   7   5 -11   28.69    4.41
   7   5 -10    5.11    2.17
  -7   5 -10    5.28    1.13
   7  -5 -10   10.19    2.92
   7  -5 -10    8.04    2.42
  -7   5  -9    9.52    2.39
   7   5  -9    9.36    2.80
   7  -5  -9   13.95    3.28
   7  -5  -9   10.99    2.89
   7   5  -8  126.07    9.18
  -7   5  -8  126.75    8.42
   7  -5  -8  123.70    9.25
   7  -5  -8  131.75    9.57
   7   5  -7   36.12    4.97
   7   5  -7   28.11    3.79
   7  -5  -7   31.58    4.45
   7  -5  -7   30.92    4.58
   7  -5  -6    6.93    2.53
   7   5  -6   10.46    2.64
   7   5  -6    8.62    2.04
   7  -5  -6   10.50    2.95
   7  -5  -5   15.40    3.38
   7   5  -5   18.36    3.46
   7   5  -5   16.49    2.91
   7  -5  -5   20.79    3.57
   7  -5  -4   25.56    4.13
   7   5  -4   21.39    3.80
   7   5  -4   21.75    3.47
   7  -5  -4   35.32    4.81
   7   5  -3   23.43    3.85
   7  -5  -3   29.50    4.23
   7   5  -3   28.26    3.97
   7  -5  -3   29.62    4.56
   7   5  -2  165.07   10.18
   7  -5  -2  150.19    9.56
   7   5  -2  170.25    9.57
   7  -5  -2  163.22   10.29
   7   5  -1    8.93    2.55
   7  -5  -1    7.10    2.68
   7   5  -1   10.20    2.47
   7  -5  -1    4.16    1.76
   7  -5   0   -0.01    1.28
   7  -5   0    1.42    1.07
   7   5   0    2.20    1.51
   7   5   0    1.64    1.37
   7   5   1    8.20    1.93
   7  -5   1    6.14    2.36
   7   5   1   10.47    2.91
   7  -5   1    7.01    1.92
   7   5   2  154.43    9.81
   7  -5   2  147.66    9.63
   7   5   2  172.53   10.06
   7  -5   2  178.78   10.75
   7   5   3   33.61    4.65
   7  -5   3   24.86    3.74
   7   5   3   32.29    4.43
   7  -5   3   25.50    4.18
   7   5   4   27.14    4.01
   7  -5   4   29.34    4.27
   7   5   4   22.76    3.61
   7  -5   4   24.19    4.06
   7   5   5   10.17    2.36
   7  -5   5   20.92    3.63
   7   5   5   18.91    3.42
   7  -5   5   16.48    3.15
   7   5   6    7.79    2.39
   7  -5   6    9.69    2.81
   7   5   6    6.42    1.69
   7  -5   7   33.96    4.65
   7   5   7   36.79    5.06
   7  -5   7   32.34    4.41
   7   5   7   40.29    5.27
   7  -5   8  136.55    9.58
   7   5   8  115.36    8.65
   7   5   8  139.50    9.55
   7  -5   8  140.00    9.45
   7   5   9    9.73    2.44
   7  -5   9    8.19    2.49
   7   5   9   10.07    3.00
   7  -5   9    6.25    1.94
   7   5  10    5.95    2.11
   7  -5  10    8.61    2.23
   7   5  10    8.03    2.33
   7  -5  10    4.54    2.03
   7  -5  11   30.02    4.83
   7   5  11   28.67    4.45
   7   5  11   21.65    3.86
   7  -5  12  115.01    8.89
   7   5  12  107.60    8.77
   7   5  12  118.01    9.40
   7   5  13    2.24    1.14
   7  -5  13    1.91    1.83
   7   5  13    0.17    0.62
   7   5  14    4.59    1.69
   7  -5  14    5.63    2.49
   7   5  14    5.11    2.03
   7   5  15    5.31    2.28
   7  -5  15    4.56    2.21
   7   5  15    5.86    1.77
   7   5  16    5.64    2.55
   7   5  16    4.47    2.32
   7  -5  16    3.14    1.94
   7   5  17   36.12    5.68
   7  -5  17   28.01    4.67
   7   5  17   21.03    3.92
   7   5  18  104.77    9.41
   7   5  19   24.23    4.60
   7   5  20    3.97    2.43
   7   5  21    6.54    2.97
   7   5  22   37.22    5.94
   7   5  23   -0.02    2.05
   7   5  24   33.52    6.16
   7   5  25    1.19    2.02
   7   5  26    1.52    2.05
   7  -6 -24   -0.13    1.86
   7  -6 -23    0.96    1.59
   7  -6 -22   -1.09    1.14
   7  -6 -21    9.61    3.52
   7  -6 -21    3.41    2.95
   7  -6 -20    0.68    2.02
   7  -6 -20   -1.63    1.28
   7  -6 -19    1.15    1.34
   7  -6 -19    1.79    1.84
   7  -6 -18   -0.73    1.06
   7  -6 -18    0.42    1.68
   7  -6 -17    0.13    1.35
   7  -6 -17   -1.34    1.71
   7  -6 -16    1.41    1.64
   7   6 -16    0.75    1.33
   7  -6 -16    0.53    1.66
   7   6 -15    2.68    2.00
   7  -6 -15    3.74    2.05
   7  -6 -15    3.06    1.00
   7   6 -14    4.82    2.44
   7  -6 -14    3.76    2.20
   7  -6 -14    5.67    2.76
   7   6 -13   10.41    3.07
   7  -6 -13    9.86    3.19
   7  -6 -13    7.52    3.27
   7   6 -12    6.17    1.85
   7  -6 -12    4.51    2.27
   7  -6 -12    4.98    2.57
   7   6 -11   16.19    3.85
   7  -6 -11   11.10    2.76
   7  -6 -11   17.11    3.94
   7   6 -10    4.34    2.58
  -7   6 -10    2.63    1.31
   7  -6 -10    5.35    2.11
   7  -6 -10    7.80    2.46
   7   6  -9    1.71    1.96
   7  -6  -9   -0.08    0.85
   7  -6  -9    1.63    1.44
  -7   6  -9   -0.12    0.89
   7   6  -8   -1.73    1.97
  -7   6  -8    1.52    0.68
   7  -6  -8    0.22    1.46
   7  -6  -8    1.55    0.79
   7   6  -7    4.81    2.35
  -7   6  -7    3.93    2.17
   7  -6  -7    2.28    1.86
   7  -6  -7    8.79    2.78
   7   6  -6    3.13    1.53
   7   6  -6    2.00    1.26
  -7   6  -6    4.13    2.01
   7  -6  -6    0.22    1.24
   7  -6  -6    2.46    2.00
   7  -6  -5   19.48    3.59
   7   6  -5   21.27    3.78
  -7   6  -5   24.26    4.07
   7   6  -5   23.41    3.76
   7  -6  -5   19.11    3.93
   7   6  -4    6.11    1.26
   7  -6  -4    8.94    3.00
  -7   6  -4   10.07    2.69
   7  -6  -4    8.23    2.66
   7   6  -4    6.72    2.10
   7  -6  -3   -0.37    1.32
   7   6  -3    0.72    1.59
   7  -6  -3    0.34    1.03
   7   6  -3    1.77    1.57
   7  -6  -2    6.47    2.54
   7   6  -2    3.96    1.27
   7  -6  -2    7.51    2.53
   7   6  -2    2.53    0.96
   7  -6  -1   12.31    3.19
   7   6  -1    4.07    1.68
   7  -6  -1   11.39    2.92
   7   6  -1    9.71    2.79
   7  -6   0    1.19    1.47
   7   6   0    4.17    2.33
   7  -6   0    1.26    1.02
   7   6   0    1.53    1.24
   7   6   1    6.55    2.18
   7  -6   1   10.52    2.84
   7   6   1    5.10    2.17
   7  -6   1    5.02    2.19
   7   6   2    8.11    2.56
   7  -6   2    7.65    2.60
   7   6   2    6.08    2.34
   7  -6   2    4.41    1.79
   7   6   3    1.59    1.66
   7  -6   3   -0.69    1.47
   7   6   3    2.31    2.10
   7  -6   3    0.89    2.08
   7   6   4    6.52    2.06
   7  -6   4    6.54    2.27
   7   6   4   10.10    2.18
   7  -6   4   10.26    3.03
   7   6   5   18.67    3.48
   7   6   5   19.23    3.74
   7  -6   5   21.43    4.03
   7  -6   5   21.83    4.17
   7   6   6    1.97    0.87
   7  -6   6    3.96    1.49
   7   6   6    1.29    1.04
   7   6   7    3.79    1.83
   7  -6   7    5.47    2.71
   7  -6   7    4.64    2.01
   7   6   7    8.41    2.48
   7   6   8    1.21    1.51
   7  -6   8    3.09    2.19
   7  -6   8    1.68    1.77
   7   6   8   -0.01    1.09
   7   6   9    0.78    0.76
   7  -6   9    1.20    1.10
   7   6   9    0.73    0.99
   7  -6   9    2.58    1.17
   7   6  10   10.10    2.80
   7  -6  10    6.71    2.60
   7   6  10    3.78    2.28
   7  -6  10    5.26    1.99
   7  -6  11   14.84    3.63
   7   6  11   14.32    3.25
   7   6  11    8.78    2.78
   7  -6  12    6.74    3.01
   7   6  12    5.18    2.05
   7  -6  12    8.29    3.16
   7   6  12    3.86    1.53
   7  -6  13   18.93    3.82
   7   6  13    5.82    1.85
   7   6  13    8.38    3.04
   7  -6  13   15.68    3.59
   7  -6  14    2.44    1.63
   7   6  14    1.14    1.17
   7  -6  14    4.28    1.68
   7  -6  15    6.13    1.98
   7   6  15    1.95    1.22
   7   6  15    2.17    1.54
   7   6  16    0.70    1.60
   7   6  16    1.19    0.83
   7   6  17    0.95    1.37
   7   6  17    1.11    1.07
   7   6  18    2.51    1.89
   7   6  18    2.30    1.00
   7   6  19    9.65    3.32
   7   6  20    1.60    1.80
  -7   6  20    0.37    2.42
  -7   6  21    8.70    3.26
   7   6  21    6.39    3.26
   7   6  22    0.23    1.99
  -7   6  22    0.81    2.39
  -7   6  23    4.56    2.82
   7   6  23    4.38    2.56
   7   6  24   -1.64    2.02
  -7   6  24   -0.20    2.37
   7  -7 -22   10.88    3.55
   7  -7 -22    0.48    1.41
   7  -7 -21   -0.27    2.15
   7  -7 -21    1.88    1.01
   7  -7 -20   16.63    4.09
   7  -7 -20   15.12    4.09
   7  -7 -19    3.11    1.85
   7  -7 -19   -2.64    1.74
   7  -7 -18   54.32    7.42
   7  -7 -18   56.80    7.36
   7  -7 -17   14.51    3.80
   7  -7 -17   11.85    3.30
   7   7 -16   -3.08    1.31
   7  -7 -16    0.83    1.23
   7  -7 -16   -0.95    1.65
   7   7 -15    2.52    1.93
   7  -7 -15    1.92    2.23
   7  -7 -15   -0.36    1.23
   7   7 -14   21.12    4.59
   7  -7 -14   18.80    4.43
   7  -7 -14   19.12    4.24
   7   7 -13    3.34    2.01
   7  -7 -13    2.74    1.23
   7  -7 -13    5.22    2.50
   7   7 -12   69.43    7.52
   7  -7 -12   87.06    8.74
   7  -7 -12   80.80    8.61
   7   7 -11    9.44    3.28
   7  -7 -11    4.15    1.42
   7  -7 -11    6.22    2.39
   7   7 -10    2.48    2.12
   7  -7 -10    1.64    2.00
   7  -7 -10   -0.34    1.81
   7   7  -9    2.67    2.13
  -7   7  -9    0.37    0.85
   7  -7  -9    6.40    2.44
   7  -7  -9    2.95    2.05
   7   7  -8  150.70   10.79
  -7   7  -8  122.42    9.62
   7  -7  -8  137.31   10.56
   7  -7  -8  120.94   10.02
   7   7  -7    3.34    1.42
   7  -7  -7    6.71    2.64
  -7   7  -7    2.97    1.86
   7  -7  -7    1.09    1.73
   7   7  -6   19.23    3.96
  -7   7  -6   22.25    4.24
   7  -7  -6   18.00    3.82
   7  -7  -6   20.27    4.46
   7   7  -5   10.83    3.22
  -7   7  -5   15.51    3.58
   7  -7  -5    8.10    2.88
   7   7  -5    8.16    2.59
   7  -7  -5   13.63    3.40
   7   7  -4   51.56    6.15
   7  -7  -4   57.29    6.56
  -7   7  -4   49.80    6.35
   7   7  -4   44.63    5.43
   7  -7  -4   42.37    5.83
   7   7  -3   -1.34    1.54
  -7   7  -3    0.73    2.06
   7  -7  -3   -0.47    1.61
   7   7  -3   -0.35    1.31
   7  -7  -3    0.24    1.06
   7   7  -2   66.10    7.23
  -7   7  -2   59.75    6.93
   7  -7  -2   64.69    7.22
   7  -7  -2   71.25    7.70
   7   7  -2   65.86    6.83
   7  -7  -1    7.22    2.85
  -7   7  -1    2.53    1.09
   7   7  -1    7.29    2.47
   7   7  -1    9.29    2.63
   7  -7  -1   13.41    3.27
   7  -7   0    1.88    1.64
   7   7   0   -1.14    1.22
   7   7   0    0.72    1.30
  -7   7   0    1.13    2.26
   7  -7   0    2.04    2.23
   7   7   1    7.29    2.20
   7   7   1   11.33    2.90
   7  -7   1    9.44    2.85
  -7   7   1   13.21    3.30
   7  -7   1    7.55    2.38
   7   7   2   65.70    7.14
  -7   7   2   77.34    7.54
   7  -7   2   78.72    7.54
   7  -7   2   63.48    7.24
   7   7   2   76.54    7.57
   7  -7   3    0.12    0.74
   7   7   3   -0.33    0.58
   7   7   3    0.26    1.41
  -7   7   3   -0.38    1.09
   7  -7   3    0.02    1.89
   7   7   4   47.10    5.94
   7   7   4   51.61    6.27
   7  -7   4   54.75    6.56
  -7   7   4   40.44    5.81
   7  -7   4   42.76    5.82
   7  -7   5    7.89    2.90
   7   7   5   13.35    3.04
   7   7   5   14.81    3.09
  -7   7   5    6.72    2.67
   7  -7   5   11.19    2.84
   7  -7   6   23.01    4.17
  -7   7   6   25.22    4.95
   7   7   6   28.85    4.72
   7   7   6   14.81    3.64
   7  -7   6   21.22    4.13
   7  -7   7    7.69    2.62
   7   7   7    3.12    1.71
   7   7   7    2.16    1.72
   7  -7   7    3.37    1.33
   7   7   8  141.73   10.68
   7  -7   8  128.97   10.32
   7  -7   8  129.90   10.15
   7   7   8  132.35   10.30
   7  -7   9    4.76    2.27
   7   7   9    8.98    2.82
   7   7   9    4.09    1.69
   7  -7   9    5.13    2.03
   7  -7  10    0.52    1.14
   7   7  10    1.08    1.38
   7   7  10   -0.39    1.73
   7  -7  10   -0.35    0.97
   7   7  11   10.67    3.52
   7  -7  11    5.65    2.32
   7   7  11    9.56    3.40
  -7   7  11    4.87    1.90
   7   7  12   82.99    8.44
  -7   7  12   78.72    8.27
   7   7  12   67.10    7.44
   7  -7  12   95.15    8.88
   7   7  13    5.71    2.08
   7  -7  13    5.85    2.34
   7   7  13    6.06    2.53
  -7   7  13    4.40    2.17
   7  -7  14   19.72    4.33
   7   7  14   26.98    5.08
  -7   7  14   18.85    4.93
   7   7  14   15.27    3.75
   7   7  15    1.57    2.41
  -7   7  15    2.29    2.56
   7   7  15   -0.16    1.19
   7   7  16    1.41    2.04
  -7   7  16    4.68    2.74
   7   7  16   -0.91    1.28
   7   7  17    6.03    2.98
  -7   7  17    4.85    2.54
   7   7  17   11.41    3.18
   7   7  18   49.04    6.85
  -7   7  18   62.77    8.06
   7   7  18   48.93    6.89
  -7   7  19   -0.17    1.14
   7   7  19    1.96    1.77
   7   7  20   15.08    4.68
  -7   7  20   11.86    3.27
   7   7  21    1.66    0.96
  -7   7  21    2.70    1.98
   7   7  22   18.49    4.43
  -7   7  22   10.77    3.23
   7  -8 -20   -2.34    2.26
   7  -8 -20   -2.37    2.12
   7  -8 -19   -1.77    2.30
   7  -8 -19    0.15    1.96
   7  -8 -18    1.17    2.07
   7  -8 -18    3.57    2.89
   7  -8 -17    7.04    2.81
   7  -8 -17    4.15    1.87
   7  -8 -16   -0.04    1.56
   7  -8 -16    1.62    1.96
   7  -8 -15    0.97    1.68
   7  -8 -15    4.43    2.57
   7   8 -14    0.62    2.45
   7  -8 -14    3.13    2.69
   7  -8 -14    0.60    2.07
   7  -8 -13    1.26    1.59
   7   8 -13    3.12    1.88
   7  -8 -13    0.76    0.79
   7   8 -12    0.37    1.10
   7  -8 -12    0.20    1.38
   7  -8 -12    2.31    1.77
   7   8 -11    4.11    2.16
   7  -8 -11    4.27    2.41
   7  -8 -11    7.47    3.24
   7   8 -10    3.26    1.81
   7  -8 -10   -0.26    1.28
   7  -8 -10    3.79    2.56
   7   8  -9    9.79    3.39
   7  -8  -9    8.80    2.92
   7  -8  -9    1.74    1.61
   7   8  -8    0.88    1.30
   7  -8  -8    3.16    2.74
  -7   8  -8    3.81    3.00
   7  -8  -8    0.92    0.82
   7   8  -7   -1.33    2.61
  -7   8  -7    2.49    1.63
   7  -8  -7    0.04    1.07
   7  -8  -7    0.46    1.96
  -7   8  -6    3.29    2.19
   7   8  -6    4.76    2.72
   7  -8  -6   -0.35    1.44
   7  -8  -6    1.50    0.83
   7   8  -5    1.03    1.64
   7  -8  -5    2.88    1.33
   7  -8  -5    4.95    2.15
  -7   8  -5    5.25    2.08
   7   8  -4    6.06    3.36
   7   8  -4    3.66    2.32
  -7   8  -4   -0.77    1.26
   7  -8  -4    2.87    1.26
   7  -8  -4    3.74    2.23
   7   8  -3   -0.01    0.99
   7   8  -3    1.90    1.89
  -7   8  -3    0.48    1.99
   7  -8  -3    1.11    1.74
   7  -8  -3    1.19    1.14
   7   8  -2    3.34    1.85
   7   8  -2    2.63    1.84
   7  -8  -2    2.91    1.81
  -7   8  -2    2.94    2.24
   7  -8  -2    0.10    0.83
   7   8  -1   -0.43    1.10
   7  -8  -1    0.88    0.92
  -7   8  -1   -1.79    1.59
   7  -8  -1    0.61    1.18
   7   8   0    0.47    1.47
   7   8   0   -0.56    0.85
   7  -8   0   -0.43    1.35
  -7   8   0    0.25    1.30
   7  -8   0    2.26    1.63
  -7   8   1    3.13    1.76
   7   8   1    0.41    1.18
   7   8   1    1.55    2.10
   7  -8   1    2.95    2.35
   7  -8   1    2.83    1.16
  -7   8   2    0.44    1.45
   7  -8   2    2.69    1.07
   7  -8   2    1.30    0.88
   7  -8   3   -0.48    0.96
   7   8   3    0.89    0.83
   7   8   3    1.26    2.02
  -7   8   3    1.72    1.91
   7  -8   3    1.10    2.23
   7  -8   4    2.91    0.90
   7   8   4    2.70    1.72
   7   8   4    6.25    2.67
  -7   8   4    1.81    1.86
   7  -8   4    2.42    1.24
   7  -8   5    3.79    2.08
   7   8   5    2.66    1.12
   7   8   5    5.12    2.87
  -7   8   5    3.62    1.98
   7  -8   6    3.86    1.41
  -7   8   6    4.84    2.03
   7   8   6    6.08    2.12
   7   8   6    5.50    2.05
   7  -8   7    0.25    1.38
  -7   8   7    3.53    2.11
   7   8   7   -0.83    1.03
   7   8   7   -2.29    1.96
   7  -8   8    1.15    1.14
   7   8   8    2.71    1.64
   7   8   8    3.18    1.61
  -7   8   8    4.06    1.70
   7  -8   9    6.29    2.36
  -7   8   9    4.15    2.45
   7   8   9    3.85    2.10
   7   8   9    7.70    2.64
   7  -8  10    0.67    1.52
   7   8  10    0.41    1.32
   7   8  10   -0.48    1.30
  -7   8  10   -0.88    1.45
   7  -8  11    5.09    2.52
   7   8  11    4.59    2.00
   7   8  11    3.01    1.24
  -7   8  11    5.20    2.30
   7  -8  12   -0.38    1.60
   7   8  12   -0.80    1.30
  -7   8  12   -2.16    1.91
   7   8  12   -0.60    1.43
   7   8  13   -1.03    1.57
   7   8  13    4.66    1.92
  -7   8  13    4.06    2.80
   7   8  14    6.27    3.25
   7   8  14    0.97    1.19
  -7   8  14    7.05    2.31
   7   8  15    5.36    3.03
  -7   8  15    2.81    2.08
   7   8  15    2.22    2.56
  -7   8  16    1.92    1.87
   7   8  16    3.09    2.15
   7   8  16    0.58    1.37
   7   8  17    2.22    2.68
  -7   8  17    6.22    3.28
   7   8  17    1.84    1.26
   7   8  18   -2.05    1.62
  -7   8  18    1.61    2.53
   7   8  18    2.74    2.12
  -7   8  19   -2.26    2.04
   7   8  19   -0.48    1.01
  -7   8  20    2.13    2.58
   7   8  20   -1.10    1.34
   7  -9 -17    0.52    1.23
   7  -9 -17   -0.54    2.36
   7  -9 -16   -0.57    1.88
   7  -9 -16    2.77    2.20
   7  -9 -15    9.01    3.94
   7  -9 -15    2.07    1.24
   7  -9 -14   32.86    5.61
   7   9 -14   28.81    5.81
   7  -9 -14   36.38    6.09
   7   9 -13   -0.49    1.85
   7  -9 -13    4.80    2.74
   7  -9 -13    0.85    1.61
   7   9 -12   29.03    6.03
   7  -9 -12   47.92    7.03
   7  -9 -12   44.81    6.58
   7   9 -11   -0.03    1.85
   7  -9 -11   -1.17    1.15
   7  -9 -11    3.34    2.79
   7   9 -10    2.07    2.08
   7  -9 -10   -0.04    1.55
   7  -9  -9    4.73    2.41
   7   9  -9    2.76    2.69
   7  -9  -9    3.00    2.21
   7   9  -8   64.20    7.75
   7  -9  -8   84.63    9.05
   7  -9  -8   82.62    8.88
   7   9  -7   -0.69    1.69
  -7   9  -7    0.52    1.07
   7  -9  -7    0.92    1.76
   7  -9  -7   -2.01    2.12
   7   9  -6   29.63    5.32
  -7   9  -6   20.70    4.38
   7  -9  -6   20.88    4.78
   7  -9  -6   13.42    3.72
   7  -9  -5    7.14    2.92
   7   9  -5    7.12    3.08
  -7   9  -5    2.83    1.74
   7  -9  -5    5.70    2.40
   7   9  -4   25.93    4.98
  -7   9  -4   24.79    5.04
   7  -9  -4   27.80    5.33
   7  -9  -4   29.41    5.86
   7   9  -3    1.35    2.17
  -7   9  -3    6.46    3.27
   7  -9  -3    1.85    1.45
   7  -9  -3    1.37    2.19
   7   9  -2   41.47    6.14
  -7   9  -2   42.62    6.30
   7  -9  -2   53.99    6.77
   7  -9  -2   46.13    6.41
   7   9  -2   32.66    5.56
   7   9  -1    2.01    1.98
   7   9  -1   -0.07    1.62
  -7   9  -1    3.02    2.12
   7  -9  -1    5.27    3.14
   7   9   0    2.41    2.72
   7   9   0    3.93    2.10
  -7   9   0    2.96    1.87
   7  -9   0    0.43    1.48
   7   9   1    1.86    1.94
   7   9   1    1.25    2.09
  -7   9   1    3.38    2.73
   7  -9   1    3.09    1.58
   7   9   2   49.21    6.66
  -7   9   2   44.73    6.57
   7  -9   2   44.58    6.69
   7   9   2   47.53    6.49
   7   9   3   -0.09    1.67
   7   9   3    1.07    2.02
  -7   9   3    0.71    1.97
   7  -9   3    2.61    2.19
   7   9   4   25.97    4.93
  -7   9   4   32.43    5.48
   7  -9   4   19.22    4.02
   7   9   4   37.11    5.80
   7   9   5    5.39    2.25
   7   9   5    7.41    2.39
  -7   9   5    6.52    2.57
   7  -9   5   -1.34    1.90
   7   9   6   21.96    4.77
   7   9   6   20.63    4.64
  -7   9   6   23.36    4.49
   7  -9   6   18.65    4.21
   7   9   7    0.50    0.97
   7   9   7    0.54    1.72
  -7   9   7    1.23    1.49
   7  -9   7    1.41    1.41
   7   9   8   90.95    9.05
  -7   9   8   76.43    8.59
   7  -9   8   77.04    8.91
   7   9   8   70.85    8.14
  -7   9   9    1.64    1.77
   7   9   9    3.00    1.40
   7  -9   9    5.40    3.26
   7   9  10    3.55    1.48
   7   9  10    4.98    2.55
  -7   9  10    2.49    2.86
   7  -9  10    3.28    2.92
   7   9  11    4.28    2.66
   7   9  11    0.20    1.23
  -7   9  11    5.39    2.39
   7  -9  11    9.22    4.13
   7   9  12   45.94    6.56
  -7   9  12   50.96    7.16
   7   9  12   40.03    5.84
   7   9  13    3.54    2.38
   7   9  13    2.92    2.88
  -7   9  13   -3.20    2.25
   7   9  14   27.15    5.63
   7   9  14   25.86    5.11
  -7   9  14   26.25    5.43
   7   9  15    2.61    1.36
  -7   9  15    4.84    1.29
   7   9  16    3.15    1.48
  -7   9  16    5.01    3.45
   7   9  16    0.36    0.95
   7   9  17    5.16    3.18
  -7   9  17    2.32    2.13
   7   9  17   -2.03    2.95
   7  10 -12    3.40    3.40
   7 -10 -12    5.66    3.22
   7 -10 -12    5.20    2.89
   7  10 -11    8.64    2.31
   7 -10 -11    4.84    2.42
   7 -10 -11    5.13    3.26
   7  10 -10    0.46    1.66
   7 -10 -10    3.45    1.91
   7 -10 -10    3.33    2.40
   7  10  -9    0.87    1.45
   7 -10  -9    0.53    0.93
   7  10  -8    5.96    2.30
   7 -10  -8    2.73    0.96
   7  10  -7    8.79    2.82
   7 -10  -7    9.75    3.02
   7  10  -6    2.44    2.09
  -7  10  -6   -1.75    1.95
   7 -10  -6    2.15    2.08
   7  10  -5    1.37    1.58
  -7  10  -5    3.69    2.86
   7  10  -4    1.69    1.71
  -7  10  -4    0.97    2.82
   7 -10  -4    3.25    2.14
   7  10  -3   -1.12    1.70
  -7  10  -3    2.97    2.00
   7 -10  -3    0.13    1.57
   7  10  -2    0.92    1.38
  -7  10  -2   -0.17    1.98
   7 -10  -2    1.64    2.18
   7  10  -1   -3.65    1.89
   7  10  -1   -0.67    1.97
   7 -10  -1   -1.92    2.43
   7  10   0   -1.27    1.80
   7  10   0    0.23    1.60
  -7  10   0    1.99    1.41
   7 -10   0   -1.97    1.35
   7  10   1    0.97    1.11
   7  10   1   -0.54    1.45
  -7  10   1   -1.32    2.10
   7 -10   1    0.47    1.17
   7  10   2    1.06    1.45
   7  10   2    0.58    1.56
  -7  10   2   -0.30    2.75
   7 -10   2   -1.54    2.09
   7  10   3   -1.09    1.36
   7  10   3   -0.49    0.95
  -7  10   3    0.53    1.20
   7 -10   3    1.91    1.95
   7  10   4    3.37    1.80
   7  10   4    5.93    3.26
  -7  10   4    0.47    1.46
   7 -10   4    4.36    2.74
   7  10   5    6.98    2.64
   7  10   5    9.61    3.73
  -7  10   5   16.78    4.40
   7 -10   5   11.84    4.23
   7 -10   6    1.06    2.70
   7  10   6   -0.17    1.50
   7  10   6    0.68    1.66
  -7  10   6   -2.07    1.74
   7  10   7   11.39    3.69
   7  10   7   13.53    3.56
  -7  10   7   14.64    3.87
   7 -10   7   22.31    5.06
  -7  10   8    2.87    2.38
   7  10   8    3.33    2.37
   7  10   8   -0.01    1.54
   7 -10   8    4.69    2.21
   7  10   9    3.58    2.45
   7  10   9    3.24    2.91
  -7  10   9   -0.63    1.37
   7 -10   9    1.84    1.90
   7  10  10    1.25    1.70
   7  10  10    3.89    1.58
  -7  10  10    2.93    1.82
   7  10  11   10.60    3.21
   7  10  11    5.58    2.79
  -7  10  11    6.17    2.45
   7  10  12    1.99    0.82
   7  10  12    1.64    2.13
  -7  10  12    0.39    1.18
   7  11  -2    9.65    3.59
  -7  11  -2    6.71    3.22
   7 -11  -2   10.00    3.52
   7  11  -1    0.36    1.56
  -7  11  -1    3.44    2.48
   7 -11  -1    1.12    1.37
   7  11   0   -0.04    1.09
   7 -11   0    2.01    2.01
  -7  11   0   -0.16    1.85
   7 -11   1    2.22    2.69
   7  11   1    3.39    2.93
   7  11   1    0.24    1.94
  -7  11   1    1.10    1.82
   7  11   2   -0.88    1.44
   7  11   2    4.35    3.01
  -7  11   2    4.72    2.45
   7 -11   2    5.93    2.50
   8   0 -28    5.19    4.02
   8   0 -27   15.50    3.74
   8   0 -26   30.69    5.95
   8   0 -25   17.34    4.15
   8   0 -24   15.39    4.08
   8   0 -23    1.23    2.17
   8   0 -22   16.67    4.15
   8   0 -21   46.07    6.11
   8   0 -20    6.15    2.76
   8   0 -19   36.05    5.36
   8   0 -18   79.27    7.72
   8   0 -17  131.58    9.85
   8   0 -16   24.32    4.20
   8   0 -15  144.29    9.65
   8   0 -14   56.64    6.09
   8   0 -13   55.73    5.83
   8   0 -13   51.39    4.73
   8   0 -12  340.98   14.27
   8   0 -12  327.38   11.80
   8   0 -11  272.08   12.39
   8   0 -11  263.75   10.68
   8   0 -10   65.07    5.21
   8   0 -10   60.99    5.87
   8   0  -9  716.93   17.48
   8   0  -9  682.32   19.00
   8   0  -8  445.22   13.77
   8   0  -8  425.06   14.83
   8   0  -7    8.71    1.77
   8   0  -7    8.01    2.05
   8   0  -7    8.56    2.24
   8   0  -6  269.61   10.57
   8   0  -6  266.57   11.38
   8   0  -6  264.44   11.39
   8   0  -5   24.65    3.19
   8   0  -5   14.71    2.46
   8   0  -5   21.79    3.25
   8   0  -4  524.71   14.82
   8   0  -4  524.19   15.86
   8   0  -4  530.66   15.69
   8   0  -3  902.59   19.47
   8   0  -3  848.85   19.89
   8   0  -3  901.35   20.23
   8   0  -2  440.28   13.72
   8   0  -2  449.76   14.33
   8   0  -2  477.88   14.50
   8   0  -1   67.61    5.48
   8   0  -1   64.22    5.45
   8   0  -1   64.38    5.28
   8   0   0  686.12   18.00
   8   0   0  709.78   17.80
   8   0   0  734.38   17.60
   8   0   1   67.34    5.52
   8   0   1   58.16    4.84
   8   0   2  471.54   14.73
   8   0   2  485.71   14.11
   8   0   3  880.87   20.33
   8   0   3  889.95   18.83
   8   0   4  526.64   15.80
   8   0   4  505.14   14.03
   8   0   5   15.71    2.42
   8   0   5   14.37    2.86
   8   0   6  254.46   11.45
   8   0   6  262.30   10.02
   8   0   7    7.16    1.94
   8   0   7    7.73    1.82
   8   0   8  428.41   15.21
   8   0   8  439.41   12.59
   8   0   9  712.91   19.54
   8   0   9  696.80   15.92
   8   0  10   67.88    6.33
   8   0  10   64.45    4.70
   8   0  11  292.78   13.00
   8   0  11  251.24    9.30
   8   0  12  333.43   14.11
   8   0  12  317.88   10.24
   8   0  13   63.11    6.19
   8   0  13   63.77    4.50
   8   0  14   63.94    6.47
   8   0  15  139.43    9.55
   8   0  16   20.99    3.82
   8   0  17  126.44    9.43
   8   0  18   93.31    8.33
   8   0  19   38.02    5.55
   8   0  20    4.36    1.46
   8   0  21   39.24    5.62
   8   0  22   13.12    3.34
   8   0  23    0.68    1.03
   8  -1 -28    7.83    3.49
   8  -1 -27    5.06    1.63
   8  -1 -26    0.63    1.60
   8  -1 -25    0.15    1.40
   8  -1 -24    4.86    2.61
   8   1 -23   -1.02    1.55
   8  -1 -23    1.37    1.56
   8   1 -22    2.07    1.77
   8  -1 -22    6.85    2.45
   8  -1 -21    0.79    0.83
   8   1 -21    4.17    2.09
   8   1 -20    1.96    1.02
   8  -1 -20    4.94    2.29
   8   1 -19    9.11    2.73
   8  -1 -19   14.95    3.20
   8  -1 -18   14.66    3.66
   8   1 -18   13.64    3.12
   8   1 -17   25.16    4.20
   8  -1 -17   31.59    5.13
   8   1 -16   10.74    2.45
   8  -1 -16   12.63    2.91
   8   1 -15   10.09    3.11
   8  -1 -15    9.74    2.98
   8  -1 -15   14.30    3.12
   8  -1 -14    2.47    1.19
   8  -1 -14    1.85    1.90
   8   1 -14    4.50    2.09
   8  -1 -13    1.35    1.05
   8   1 -13    1.97    1.44
   8  -1 -13    1.57    1.09
   8   1 -13    0.80    1.16
   8  -1 -12    2.86    1.15
   8  -1 -12    3.03    1.32
   8   1 -12    4.36    1.76
   8   1 -12    3.08    1.78
   8   1 -12    0.85    0.90
   8   1 -11   26.37    3.13
   8   1 -11   29.14    4.08
   8  -1 -11   22.15    3.64
   8   1 -11   24.04    3.89
   8  -1 -11   27.69    3.84
   8   1 -10   16.90    3.24
   8  -1 -10   19.04    3.33
   8   1 -10   13.86    2.25
   8  -1 -10    7.01    2.02
   8   1 -10   16.70    3.02
   8  -1  -9   10.68    2.52
   8   1  -9    9.90    1.92
   8  -1  -9   11.56    2.45
   8   1  -9    8.78    1.94
   8   1  -9   13.64    2.64
   8  -1  -8   18.66    2.86
   8   1  -8   20.91    2.77
   8  -1  -8   23.47    3.80
   8   1  -8   17.19    3.24
   8   1  -8   23.59    3.49
   8  -1  -7   36.97    4.22
   8   1  -7   41.44    3.94
   8  -1  -7   36.30    4.59
   8   1  -7   40.05    4.35
   8   1  -7   34.00    4.21
   8  -1  -6    8.39    1.93
   8   1  -6   12.60    2.17
   8  -1  -6    6.38    1.76
   8   1  -6    9.69    2.24
   8   1  -6    7.81    2.03
   8  -1  -5    7.45    1.93
   8  -1  -5    6.41    1.92
   8   1  -5    5.74    1.60
   8   1  -5    6.54    1.74
   8   1  -5    7.72    1.91
   8  -1  -4    6.78    1.45
   8   1  -4    8.69    2.19
   8   1  -4    8.82    1.81
   8  -1  -4    6.35    1.90
   8   1  -4    6.38    1.85
   8  -1  -3   27.67    3.52
   8  -1  -3   23.10    3.47
   8   1  -3   27.15    3.40
   8   1  -3   35.75    3.99
   8   1  -3   32.71    3.91
   8  -1  -2   43.99    4.46
   8   1  -2   49.61    4.56
   8  -1  -2   53.17    5.02
   8   1  -2   51.09    4.80
   8  -1  -1   66.94    5.51
   8   1  -1   56.07    4.88
   8   1  -1   63.15    5.32
   8  -1  -1   66.13    5.54
   8   1  -1   64.80    5.26
   8   1   0    2.12    0.99
   8   1   0    1.81    0.93
   8  -1   0    2.59    1.11
   8  -1   0    2.54    0.65
   8  -1   1   64.96    5.49
   8  -1   1   76.13    6.01
   8   1   1   59.61    5.18
   8   1   1   57.07    4.89
   8  -1   2   50.72    4.93
   8   1   2   46.45    4.63
   8   1   2   51.95    4.78
   8  -1   3   30.60    3.78
   8   1   3   29.40    3.70
   8   1   3   31.16    3.54
   8   1   4    9.98    2.01
   8  -1   4   13.64    2.66
   8   1   4   10.21    2.24
   8   1   5    6.77    1.77
   8   1   5    6.79    1.97
   8  -1   5    7.14    2.04
   8   1   6   10.77    2.00
   8   1   6   10.35    2.36
   8  -1   6    5.95    1.71
   8  -1   7   42.94    4.77
   8   1   7   43.54    4.24
   8   1   7   37.38    4.36
   8  -1   8   18.26    3.23
   8   1   8   19.33    2.81
   8   1   8   17.88    3.27
   8  -1   9   14.58    2.95
   8   1   9    7.45    2.11
   8   1   9   12.69    2.39
   8   1  10   14.85    2.53
   8  -1  10   15.90    3.14
   8   1  10   14.34    2.44
   8   1  11   29.54    4.50
   8   1  11   26.43    3.17
   8  -1  11   25.61    3.94
   8   1  12    1.93    0.87
   8  -1  12    1.52    1.94
   8   1  12    2.29    1.10
   8   1  13    1.81    0.84
   8  -1  13    2.38    1.80
   8   1  13    2.72    1.52
   8   1  14    5.14    1.57
   8  -1  14    2.76    1.24
   8   1  14    2.98    1.13
   8  -1  15    9.12    2.76
   8   1  15   10.41    2.82
   8  -1  16   15.37    3.13
   8   1  16   14.56    3.32
   8  -1  17   23.12    4.20
   8   1  17   26.68    4.40
   8  -1  18   19.22    3.63
   8   1  18   16.97    3.77
   8  -1  19    8.13    2.92
   8   1  19    8.49    3.00
   8  -1  20    1.99    0.81
   8   1  20    1.30    0.90
   8  -1  21    0.81    1.99
   8   1  21   -1.03    1.05
   8  -1  22    6.16    2.36
   8   1  22    2.68    1.96
   8   1  23    0.59    1.85
   8   1  24    7.96    2.83
   8  -2 -28    5.51    1.77
   8  -2 -27   17.89    4.53
   8  -2 -26    3.55    1.93
   8  -2 -25   15.46    3.74
   8  -2 -24   29.66    5.31
   8  -2 -23    4.88    1.42
   8  -2 -22   24.96    4.82
   8  -2 -21   34.41    5.39
   8  -2 -20    0.30    0.91
   8  -2 -19   13.28    3.20
   8   2 -18   42.40    5.63
   8  -2 -18   47.85    6.06
   8   2 -17   37.23    4.85
   8  -2 -17   31.07    4.68
   8   2 -17   37.13    5.00
   8  -2 -16   32.99    5.04
   8  -2 -16   40.32    4.96
   8   2 -16   41.92    5.57
   8   2 -15  105.41    7.91
   8  -2 -15   98.43    8.60
   8  -2 -15   96.10    7.74
   8   2 -15   96.79    7.87
   8  -2 -14   28.51    4.73
   8  -2 -14   34.04    4.66
   8   2 -14   38.47    4.84
   8  -2 -13   12.13    2.89
   8  -2 -13   11.41    2.80
   8   2 -13   16.53    3.19
   8   2 -13   11.86    2.40
   8   2 -12   94.14    7.06
   8  -2 -12   98.78    8.05
   8  -2 -12  104.34    7.63
   8   2 -12  103.62    7.85
   8   2 -11  146.73    8.50
   8  -2 -11  153.08    9.86
   8  -2 -11  150.05    9.15
   8   2 -11  145.38    9.20
   8  -2 -10   15.17    2.89
   8   2 -10   21.98    2.76
   8  -2 -10   18.59    3.37
   8   2 -10   16.61    2.87
   8   2 -10   20.33    3.36
   8  -2  -9   66.52    6.34
   8   2  -9   65.67    5.94
   8   2  -9   71.17    4.97
   8   2  -9   72.59    5.81
   8  -2  -9   77.28    6.42
   8  -2  -8  102.75    7.83
   8   2  -8  105.40    6.19
   8   2  -8   90.43    6.38
   8   2  -8   94.77    7.17
   8  -2  -8   96.74    7.15
   8  -2  -7   70.95    6.09
   8   2  -7   70.84    5.17
   8  -2  -7   80.79    6.86
   8   2  -7   71.78    5.61
   8   2  -7   84.45    6.73
   8   2  -6   12.49    2.60
   8   2  -6    8.49    1.68
   8  -2  -6   12.34    2.43
   8  -2  -6    8.04    2.29
   8   2  -6    4.79    1.42
   8   2  -5  148.69    8.76
   8  -2  -5  143.25    8.78
   8   2  -5  144.60    7.51
   8  -2  -5  144.09    8.91
   8   2  -5  133.54    7.46
   8  -2  -4  170.75    9.43
   8  -2  -4  182.78   10.10
   8   2  -4  171.92    8.40
   8   2  -4  174.28    8.38
   8   2  -4  178.78    9.41
   8  -2  -3  163.30    9.11
   8  -2  -3  149.27    8.97
   8   2  -3  154.86    8.05
   8   2  -3  151.65    7.87
   8   2  -3  164.54    9.04
   8   2  -2  272.72   11.38
   8  -2  -2  258.68   11.46
   8  -2  -2  269.45   11.98
   8   2  -2  280.52   10.77
   8   2  -2  260.73   10.57
   8  -2  -1  255.74   11.33
   8  -2  -1  264.89   11.92
   8   2  -1  268.50   10.98
   8   2  -1  272.29   11.46
   8  -2   0  126.59    7.96
   8  -2   0  125.68    8.11
   8   2   0  115.23    7.49
   8   2   0  127.63    7.60
   8   2   1  253.84   11.14
   8  -2   1  273.97   11.78
   8  -2   1  246.03   11.24
   8   2   1  267.50   11.20
   8   2   2  264.96   11.45
   8  -2   2  288.03   12.16
   8  -2   2  259.48   11.78
   8   2   2  272.84   11.38
   8   2   3  156.72    8.71
   8  -2   3  150.97    8.86
   8  -2   3  161.33    9.21
   8   2   3  132.15    7.76
   8   2   4  165.36    9.20
   8  -2   4  153.03    8.96
   8   2   4  152.90    8.46
   8   2   5  131.68    8.32
   8  -2   5  144.78    8.59
   8   2   5  159.20    8.49
   8  -2   6    7.97    1.99
   8   2   6    6.17    2.12
   8   2   6   11.63    2.42
   8   2   7   82.81    6.78
   8  -2   7   77.34    6.44
   8   2   7   73.21    5.75
   8   2   8   92.02    7.29
   8  -2   8  105.13    7.63
   8   2   8  103.47    6.82
   8   2   9   71.46    6.49
   8  -2   9   67.91    6.28
   8   2   9   71.64    5.71
   8   2  10   21.99    3.83
   8  -2  10   21.73    3.60
   8   2  10   19.39    2.95
   8   2  11  134.51    9.20
   8  -2  11  145.56    9.48
   8   2  11  163.84    8.73
   8   2  12  102.35    8.09
   8  -2  12   97.48    7.91
   8   2  12   99.18    6.93
   8   2  13   19.19    3.36
   8  -2  13   14.00    3.06
   8   2  13   14.95    2.68
   8   2  14   36.64    5.08
   8  -2  14   34.89    4.77
   8   2  14   32.03    3.97
   8   2  15   99.92    8.48
   8  -2  15   97.55    7.99
   8   2  15   79.97    6.10
   8   2  16   49.80    6.08
   8  -2  16   45.82    5.62
   8   2  17   33.56    5.45
   8  -2  17   29.43    4.52
   8   2  18   49.58    6.37
   8  -2  18   44.77    5.76
   8   2  19    9.44    3.20
   8  -2  19   12.02    2.69
   8   2  20    4.33    2.02
   8  -2  20    6.68    2.28
   8   2  21   39.46    5.97
   8  -2  21   54.16    6.64
   8   2  22   18.72    3.88
   8   2  23    5.16    2.65
   8   2  24   27.97    5.50
   8   2  25    9.35    3.48
   8   2  26    6.77    2.63
   8  -3 -27   -3.19    2.33
   8  -3 -26    2.25    1.78
   8  -3 -25   -0.54    2.05
   8  -3 -24    0.30    1.86
   8  -3 -23    0.59    1.07
   8  -3 -22    2.13    2.02
   8  -3 -21    1.36    1.43
   8  -3 -20    3.24    2.12
   8  -3 -19    1.73    0.86
   8   3 -19   -0.11    1.57
   8  -3 -18    6.32    2.95
   8   3 -18    5.70    1.15
   8  -3 -17   87.66    8.25
   8  -3 -17   68.85    7.17
   8   3 -17   76.43    7.37
   8  -3 -16   51.57    6.40
   8  -3 -16   46.70    5.68
   8   3 -16   44.37    5.68
   8  -3 -15   25.47    4.69
   8  -3 -15   29.35    4.62
   8   3 -15   29.37    4.36
   8  -3 -14   24.54    4.46
   8  -3 -14   26.89    4.39
   8   3 -14   20.87    4.15
   8  -3 -13   14.57    2.86
   8  -3 -13   19.25    3.30
   8   3 -13   16.21    3.07
   8   3 -12    0.37    0.88
   8  -3 -12    1.56    1.57
   8  -3 -12    0.56    0.72
   8   3 -11   19.45    3.32
   8   3 -11   26.18    3.38
   8  -3 -11   23.55    3.63
   8  -3 -11   19.50    3.39
   8   3 -10   28.80    3.46
   8  -3 -10   28.83    4.45
   8  -3 -10   32.85    4.52
   8   3 -10   30.05    4.23
   8  -3  -9   29.26    4.54
   8   3  -9   37.19    3.77
   8   3  -9   30.93    3.38
   8  -3  -9   29.12    4.07
   8   3  -9   29.74    4.32
   8   3  -8   26.59    3.27
   8  -3  -8   35.54    4.94
   8   3  -8   25.88    3.11
   8  -3  -8   28.18    4.23
   8   3  -8   29.00    3.98
   8   3  -7   40.36    3.89
   8  -3  -7   48.09    5.59
   8   3  -7   42.01    3.97
   8  -3  -7   42.43    5.13
   8   3  -7   44.75    5.03
   8  -3  -6   16.87    3.24
   8   3  -6   22.11    2.92
   8   3  -6   19.09    2.88
   8   3  -6   23.31    3.66
   8  -3  -6   24.16    3.83
   8   3  -5    3.74    1.19
   8  -3  -5    4.70    1.56
   8   3  -5    7.39    1.82
   8  -3  -5    4.67    1.96
   8   3  -5    5.10    1.37
   8   3  -4    0.45    0.49
   8  -3  -4    0.49    0.57
   8   3  -4    1.77    1.20
   8  -3  -4    0.74    0.56
   8   3  -4    0.36    0.96
   8   3  -3   21.29    3.09
   8  -3  -3   26.69    3.87
   8  -3  -3   23.33    3.76
   8   3  -3   22.59    2.98
   8   3  -3   25.06    3.71
   8  -3  -2   33.94    4.56
   8   3  -2   26.41    3.48
   8  -3  -2   37.19    4.55
   8   3  -2   29.62    3.52
   8   3  -2   26.52    3.73
   8   3  -1   11.95    2.81
   8  -3  -1   15.58    3.13
   8   3  -1   14.80    2.67
   8  -3  -1   10.11    2.51
   8   3   0    3.47    1.78
   8  -3   0    3.31    1.57
   8  -3   0    4.83    1.92
   8   3   0    9.56    2.00
   8   3   1    9.50    2.60
   8  -3   1   10.98    2.58
   8  -3   1   12.24    2.64
   8   3   1    9.53    2.20
   8   3   2   29.12    4.07
   8  -3   2   23.82    3.65
   8   3   2   27.29    3.83
   8  -3   2   23.54    3.83
   8   3   3   22.92    3.48
   8  -3   3   24.21    3.63
   8   3   3   20.92    3.36
   8  -3   3   25.67    3.92
   8   3   4    0.29    0.99
   8  -3   4   -0.57    1.07
   8  -3   4   -0.01    0.66
   8   3   4    0.35    0.72
   8   3   5    1.90    1.20
   8   3   5    2.37    1.50
   8  -3   5    6.88    2.01
   8  -3   5    3.46    1.55
   8   3   6   15.57    2.96
   8  -3   6   20.26    3.40
   8   3   6   17.88    3.52
   8   3   7   46.86    4.94
   8  -3   7   39.99    4.80
   8   3   7   48.34    5.27
   8   3   8   29.10    3.95
   8  -3   8   28.41    4.12
   8   3   8   33.63    4.48
   8   3   9   27.44    3.87
   8  -3   9   35.46    4.47
   8   3   9   40.11    4.98
   8   3  10   22.86    3.59
   8  -3  10   31.87    4.50
   8   3  10   23.85    4.06
   8   3  11   18.47    3.07
   8   3  11   17.53    3.23
   8  -3  11   23.49    3.93
   8   3  12    0.65    1.32
   8   3  12    2.07    1.05
   8  -3  12    3.03    2.07
   8   3  13   19.00    3.48
   8   3  13   23.35    3.99
   8  -3  13   14.96    3.09
   8   3  14   20.05    3.49
   8   3  14   30.00    4.58
   8  -3  14   31.69    4.69
   8   3  15   25.16    3.78
   8   3  15   26.90    4.63
   8  -3  15   31.39    4.69
   8   3  16   39.96    5.45
   8  -3  16   59.01    6.53
   8   3  17   66.98    7.38
   8  -3  17   69.84    7.29
   8  -3  18    7.33    2.38
   8   3  18    9.28    2.43
   8  -3  19    4.28    1.69
   8   3  19    6.47    2.36
   8  -3  20    0.26    1.21
   8   3  20    0.97    1.69
   8   3  21    0.18    1.17
   8   3  22    0.12    1.43
   8   3  23    1.16    1.34
   8   3  24    2.28    2.29
   8   3  25   -0.11    2.14
   8   3  26    0.60    1.74
   8  -4 -26    3.20    2.87
   8  -4 -25   16.45    4.09
   8  -4 -24   18.04    4.31
   8  -4 -23   -0.55    2.28
   8  -4 -22   17.84    3.94
   8  -4 -21   22.27    4.32
   8  -4 -20    2.61    2.35
   8  -4 -19   13.05    3.71
   8  -4 -19   15.43    4.41
   8  -4 -18   13.83    3.76
   8  -4 -18   15.12    3.70
   8   4 -18   14.68    3.55
   8  -4 -17    2.26    1.68
   8  -4 -17    2.64    1.54
   8   4 -17    3.18    1.48
   8  -4 -16   60.82    7.16
   8  -4 -16   58.20    6.83
   8   4 -16   59.03    6.43
   8  -4 -15   87.54    8.36
   8  -4 -15  103.46    8.88
   8   4 -15   88.32    8.00
   8  -4 -14   31.93    4.72
   8   4 -14   27.57    4.39
   8  -4 -14   20.54    3.90
   8   4 -13   13.73    3.08
   8  -4 -13   16.51    3.61
   8  -4 -13   13.65    3.14
   8   4 -12   14.45    3.25
   8  -4 -12   21.05    3.88
   8  -4 -12   23.46    4.21
   8  -4 -11   63.57    6.78
   8  -4 -11   77.51    7.36
   8   4 -11   68.57    6.76
   8  -4 -10   10.70    2.74
   8  -4 -10   13.70    3.08
   8   4 -10   19.89    3.69
   8  -4  -9   16.24    3.44
   8  -4  -9   15.39    3.48
   8   4  -9   14.36    3.45
   8   4  -8    3.26    0.61
   8  -4  -8    5.16    1.98
   8   4  -8    5.44    1.91
   8  -4  -8    4.42    1.33
   8  -4  -7   62.54    6.45
   8  -4  -7   61.15    6.37
   8   4  -7   66.45    5.42
   8   4  -7   69.20    6.48
   8   4  -6   16.70    3.28
   8  -4  -6   13.18    3.05
   8   4  -6   10.13    2.36
   8  -4  -6   10.00    2.71
   8   4  -5  186.56    9.61
   8   4  -5  190.78    8.17
   8  -4  -5  202.03   11.41
   8   4  -4   93.52    7.40
   8   4  -4   96.32    6.70
   8  -4  -4   99.27    8.02
   8   4  -4   84.92    5.47
   8  -4  -4   90.48    7.48
   8   4  -3   29.45    4.24
   8   4  -3   32.14    4.05
   8   4  -3   34.16    3.51
   8  -4  -3   31.64    4.44
   8  -4  -3   30.61    4.36
   8   4  -2  181.65   10.58
   8   4  -2  171.60    9.22
   8  -4  -2  162.28   10.05
   8   4  -2  163.92    7.94
   8  -4  -2  175.44   10.42
   8  -4  -1  319.68   14.31
   8   4  -1  309.01   13.70
   8   4  -1  319.70   12.95
   8  -4  -1  334.56   14.34
   8  -4   0   45.24    5.49
   8   4   0   49.36    5.80
   8   4   0   49.33    5.09
   8  -4   0   47.73    5.48
   8   4   1  359.83   14.52
   8  -4   1  363.76   14.95
   8   4   1  323.15   13.41
   8  -4   1  342.42   14.48
   8   4   2  180.20   10.57
   8  -4   2  184.91   10.62
   8   4   2  185.62   10.09
   8  -4   2  179.10   10.45
   8  -4   3   31.13    4.37
   8   4   3   35.14    4.57
   8  -4   3   37.18    4.91
   8   4   4   98.21    7.61
   8  -4   4   87.33    7.48
   8   4   4   96.52    7.47
   8  -4   4   96.75    7.79
   8   4   5  210.77   11.32
   8  -4   5  212.12   11.44
   8   4   5  196.59   10.83
   8  -4   5  216.93   11.60
   8   4   6   16.41    3.27
   8  -4   6   15.58    3.20
   8   4   6   14.56    3.18
   8  -4   6   14.82    2.70
   8   4   7   49.80    5.46
   8  -4   7   69.01    6.68
   8   4   7   58.13    5.98
   8  -4   7   72.01    6.67
   8   4   8    6.09    2.39
   8   4   8    6.99    2.19
   8  -4   8    2.08    1.81
   8   4   9   17.53    3.38
   8   4   9   12.61    2.84
   8  -4   9   14.18    3.03
   8   4  10   14.62    3.08
   8   4  10   18.50    3.15
   8  -4  10   16.36    3.25
   8   4  11   63.58    6.42
   8  -4  11   64.99    6.61
   8   4  11   59.12    6.32
   8   4  12   28.43    4.49
   8   4  12   22.62    4.21
   8  -4  12   21.71    3.82
   8   4  13   16.96    3.21
   8   4  13   19.29    3.69
   8  -4  13   17.28    3.85
   8   4  14   16.83    3.51
   8   4  14   27.35    4.37
   8  -4  14   22.19    3.76
   8   4  15   93.67    7.87
   8  -4  15   81.99    7.61
   8   4  15  107.80    8.98
   8   4  16   65.27    6.58
   8  -4  16   56.23    6.48
   8   4  16   54.62    6.80
   8   4  17    1.21    1.01
   8  -4  17    5.04    2.13
   8   4  18   13.12    3.66
   8  -4  18   16.03    3.61
   8   4  19   10.26    2.80
   8   4  20    0.29    1.61
   8   4  21   29.41    5.02
   8   4  22   16.43    3.52
   8   4  23    4.55    3.36
   8   4  24   24.51    5.01
   8   4  25   15.33    3.85
   8   4  26   -1.41    2.33
   8  -5 -25    0.18    1.60
   8  -5 -24    2.46    1.97
   8  -5 -23   -2.13    1.46
   8  -5 -22    1.63    2.08
   8  -5 -21    3.82    2.88
   8  -5 -20    0.86    1.70
   8  -5 -20    3.92    2.94
   8  -5 -19    6.22    2.96
   8  -5 -19    1.91    1.64
   8  -5 -18    7.31    3.10
   8  -5 -18    3.83    2.00
   8   5 -17    8.95    2.52
   8  -5 -17    9.01    2.83
   8  -5 -17    6.04    2.16
   8   5 -16   17.35    3.60
   8  -5 -16   18.64    4.23
   8  -5 -16   22.33    4.66
   8   5 -15   25.36    4.23
   8  -5 -15   26.25    4.90
   8  -5 -15   16.64    4.02
   8   5 -14   15.38    3.49
   8  -5 -14    9.96    3.24
   8  -5 -14   12.06    3.51
   8   5 -13    3.65    1.93
   8  -5 -13    3.66    1.26
   8  -5 -13    5.87    2.31
   8   5 -12   13.16    2.98
   8  -5 -12    9.45    2.89
   8  -5 -12    6.20    1.82
   8   5 -11    9.39    2.52
   8  -5 -11    4.23    1.32
   8  -5 -11   10.73    3.28
   8   5 -10    0.34    1.25
  -8   5 -10   -1.29    0.93
   8  -5 -10   -0.73    0.82
   8  -5 -10    1.80    1.65
   8  -5  -9    2.36    1.78
   8   5  -9    5.00    2.21
   8  -5  -9    4.85    1.71
   8  -5  -8    9.85    2.79
   8   5  -8    6.93    1.99
   8  -5  -8    6.77    2.50
   8   5  -7   31.11    4.87
   8   5  -7   21.86    3.46
   8  -5  -7   28.02    4.70
   8  -5  -6   12.31    2.95
   8   5  -6   12.45    3.12
   8   5  -6   16.18    2.97
   8  -5  -6   14.44    3.44
   8  -5  -5   11.48    3.20
   8   5  -5   10.63    2.87
   8  -5  -5    8.50    2.54
   8   5  -5    6.63    2.15
   8   5  -4   37.57    4.97
   8   5  -4   21.15    3.35
   8  -5  -4   34.41    4.72
   8  -5  -4   26.61    4.38
   8   5  -3   18.18    3.68
   8   5  -3   19.34    3.33
   8  -5  -3   24.30    4.01
   8  -5  -3   26.72    4.35
   8   5  -2   16.81    3.42
   8   5  -2   13.65    2.89
   8  -5  -2   16.58    3.35
   8  -5  -2   15.64    3.62
   8   5  -1    3.48    1.94
   8  -5  -1    7.96    2.67
   8   5  -1   10.61    2.52
   8  -5  -1    7.74    2.43
   8   5   0   11.30    2.80
   8  -5   0   13.01    3.01
   8   5   0   14.24    2.73
   8  -5   0   10.97    3.02
   8   5   1    7.34    2.14
   8  -5   1   11.39    3.07
   8   5   1    7.01    2.00
   8   5   2   14.77    3.29
   8   5   2   13.12    2.73
   8  -5   2   16.41    3.14
   8  -5   2   19.08    4.08
   8  -5   3   30.72    4.68
   8   5   3   17.60    3.69
   8   5   3   26.44    3.98
   8  -5   3   26.91    4.28
   8  -5   4   28.82    4.66
   8   5   4   27.30    4.30
   8   5   4   28.59    4.35
   8  -5   4   30.43    4.23
   8   5   5    8.30    2.33
   8  -5   5   11.28    2.74
   8   5   5    7.35    2.12
   8  -5   5   10.02    2.31
   8   5   6   12.80    2.95
   8   5   6   12.20    2.92
   8  -5   6    7.50    2.34
   8  -5   7   35.15    4.95
   8   5   7   38.42    5.44
   8   5   7   38.66    5.28
   8  -5   7   41.13    5.41
   8   5   8   10.47    2.95
   8  -5   8    8.08    2.92
   8   5   8    8.08    2.26
   8  -5   8   12.31    3.03
   8   5   9    5.80    2.24
   8  -5   9    7.00    1.95
   8   5   9    5.28    2.26
   8  -5   9    3.38    1.74
   8   5  10   -1.27    1.58
   8  -5  10   -0.09    1.50
   8   5  10    2.38    1.79
   8  -5  10    0.31    1.57
   8   5  11    9.32    2.76
   8  -5  11    7.38    2.36
   8   5  11    9.21    2.45
   8   5  12   16.27    3.64
   8  -5  12   14.16    3.33
   8   5  12   12.12    3.24
   8   5  13    8.11    2.34
   8  -5  13    6.25    2.99
   8   5  13    3.89    2.06
   8   5  14   10.13    2.47
   8  -5  14   18.95    3.76
   8   5  14   11.06    3.13
   8   5  15   17.89    3.58
   8  -5  15   17.96    3.87
   8   5  15   18.78    4.10
   8   5  16   22.82    4.46
   8  -5  16   23.43    4.47
   8   5  16   27.20    4.57
   8   5  17   11.80    3.48
   8   5  17    7.67    2.93
   8  -5  17    9.89    3.09
   8   5  18    2.54    1.77
   8   5  19    5.04    1.73
   8   5  20    0.30    1.12
   8   5  21    1.77    1.69
   8   5  22    1.25    1.68
   8   5  23    0.98    1.67
   8   5  24    2.19    2.33
   8   5  25   -1.12    1.23
   8  -6 -24    6.10    2.79
   8  -6 -23    1.41    1.49
   8  -6 -22    5.91    3.26
   8  -6 -21   10.57    2.77
   8  -6 -21   22.75    5.75
   8  -6 -20    5.64    3.03
   8  -6 -20    0.16    1.48
   8  -6 -19    7.37    3.15
   8  -6 -19    9.73    3.14
   8  -6 -18   16.03    3.65
   8  -6 -18   16.91    4.21
   8  -6 -17    4.33    2.43
   8  -6 -17   13.24    3.26
   8  -6 -16   14.24    3.59
   8  -6 -16   16.13    4.06
   8  -6 -15   55.56    7.18
   8  -6 -15   44.11    6.78
   8   6 -15   52.15    6.60
   8   6 -14   25.02    4.39
   8  -6 -14   21.40    4.50
   8  -6 -14   17.00    3.92
   8   6 -13    1.04    0.79
   8  -6 -13    3.09    1.65
   8  -6 -13    2.65    2.27
   8   6 -12   21.74    4.10
   8  -6 -12   31.69    5.09
   8  -6 -12   40.46    6.11
   8  -6 -11   68.06    7.48
   8  -6 -11   70.75    7.83
   8   6 -11   76.12    7.92
   8   6 -10   10.53    2.94
   8  -6 -10    8.82    2.82
   8  -6 -10    7.90    2.99
   8   6  -9   42.92    5.66
   8  -6  -9   41.52    5.62
  -8   6  -9   39.34    5.12
   8  -6  -9   39.51    5.47
   8   6  -8   14.83    3.66
  -8   6  -8   23.20    4.02
   8  -6  -8   21.12    4.19
   8  -6  -8   21.18    4.45
   8  -6  -7   13.07    3.35
   8   6  -7   12.27    3.51
  -8   6  -7   14.66    3.27
   8  -6  -7   20.06    4.09
   8   6  -6   88.65    8.32
   8   6  -6   79.52    7.13
  -8   6  -6   83.69    7.61
   8  -6  -6   75.71    7.48
   8  -6  -6   78.76    7.78
   8   6  -5  101.61    8.73
   8   6  -5  105.03    8.10
   8  -6  -5   97.59    8.72
   8  -6  -5  105.66    9.12
   8  -6  -4    6.56    2.21
   8   6  -4    5.92    2.50
   8   6  -4    6.25    2.36
   8  -6  -4    6.10    2.78
   8   6  -3   27.13    4.50
   8   6  -3   35.57    4.72
   8  -6  -3   35.55    4.91
   8  -6  -3   26.36    4.74
   8   6  -2   29.12    4.57
   8  -6  -2   33.47    4.81
   8   6  -2   32.95    4.50
   8  -6  -2   36.38    5.11
   8   6  -1   48.79    5.95
   8   6  -1   44.52    5.38
   8  -6  -1   48.88    6.03
   8  -6  -1   46.29    5.88
   8   6   0   49.38    6.14
   8  -6   0   47.30    5.92
   8   6   0   51.01    5.89
   8  -6   0   54.44    6.46
   8   6   1   45.06    5.85
   8  -6   1   43.94    5.38
   8   6   1   49.63    5.68
   8  -6   1   53.55    6.40
   8   6   2   36.97    5.61
   8  -6   2   35.79    5.03
   8   6   2   44.13    5.28
   8  -6   2   33.85    4.93
   8   6   3   32.79    4.69
   8  -6   3   35.65    5.19
   8   6   3   28.07    4.42
   8  -6   3   34.87    5.12
   8  -6   4    9.74    3.19
   8   6   4    5.47    2.30
   8   6   4    7.29    2.32
   8  -6   4    7.17    1.31
   8   6   5  108.57    8.86
   8  -6   5   97.53    8.49
   8   6   5  100.61    8.50
   8  -6   5  102.28    8.68
   8   6   6   91.94    8.22
   8   6   6   79.51    7.51
   8  -6   6   85.01    8.04
   8  -6   7   15.42    3.80
   8   6   7   16.21    3.89
   8   6   7   10.23    2.67
   8  -6   7   10.99    3.37
   8   6   8   24.68    4.57
   8  -6   8   18.78    3.94
   8   6   8   29.55    4.77
   8  -6   8   21.36    4.12
   8   6   9   43.38    5.81
   8   6   9   50.04    6.24
   8  -6   9   46.55    5.84
   8  -6   9   46.06    5.96
   8  -6  10   14.36    3.45
   8   6  10   11.28    2.69
   8  -6  10   10.32    3.06
   8   6  10   15.74    3.70
   8   6  11   81.78    7.96
   8   6  11   62.77    6.95
   8  -6  11   68.82    7.44
   8  -6  11   75.36    8.01
   8   6  12   41.44    5.55
   8   6  12   37.83    5.36
   8  -6  12   37.28    5.29
   8  -6  12   34.76    5.25
   8   6  13    1.16    0.84
   8   6  13    1.44    1.60
   8  -6  13    1.44    1.35
   8  -6  13    4.35    2.29
   8   6  14   26.77    4.78
   8  -6  14   25.38    4.43
   8   6  14   20.18    4.06
   8  -6  14   20.16    4.08
   8   6  15   51.45    6.56
   8   6  15   57.51    7.04
   8  -6  15   47.78    6.06
   8   6  16    4.55    1.34
   8  -6  16   14.61    3.56
   8   6  16   11.51    3.41
   8   6  17    6.47    2.54
   8   6  17   10.94    3.19
   8   6  18   12.31    3.72
   8   6  19    5.65    2.73
   8   6  20    3.41    1.77
   8   6  21   11.72    3.47
   8   6  22    4.30    2.66
  -8   6  22   -0.41    2.27
   8   6  23   -0.74    2.07
  -8   6  23   -1.65    1.39
  -8   6  24   10.45    3.44
   8   6  24    8.81    3.08
   8  -7 -22    1.15    2.07
   8  -7 -22   -1.92    1.51
   8  -7 -21   -0.93    1.45
   8  -7 -21   -1.02    1.91
   8  -7 -20    5.91    2.79
   8  -7 -20    1.73    2.08
   8  -7 -19    0.28    1.99
   8  -7 -19    2.42    1.83
   8  -7 -18    6.94    2.97
   8  -7 -18    4.90    2.05
   8  -7 -17    0.32    1.14
   8  -7 -17    0.08    0.92
   8   7 -16   -0.32    1.84
   8  -7 -16    2.35    2.09
   8  -7 -16    4.76    3.11
   8   7 -15   -0.10    2.20
   8  -7 -15   -1.74    0.98
   8  -7 -15   -0.31    0.88
   8   7 -14    0.77    1.39
   8  -7 -14    2.04    1.25
   8  -7 -14    1.91    1.98
   8   7 -13    5.75    2.60
   8  -7 -13    5.85    3.06
   8  -7 -13   -0.16    1.60
   8   7 -12   16.51    3.71
   8  -7 -12   19.37    4.48
   8  -7 -12   18.22    4.46
   8  -7 -11   23.91    4.85
   8  -7 -11   18.04    4.01
   8   7 -10    8.05    2.52
   8  -7 -10   11.37    3.06
   8  -7 -10   14.56    3.69
   8   7  -9    1.67    1.80
   8  -7  -9    1.77    2.14
   8  -7  -9    0.65    0.99
   8   7  -8   24.18    4.36
   8  -7  -8   26.80    5.06
  -8   7  -8   22.13    4.21
   8  -7  -8   23.32    4.61
   8   7  -7   17.43    4.10
   8  -7  -7   25.86    5.05
  -8   7  -7   19.72    4.10
   8  -7  -7   21.09    3.92
   8   7  -6    4.06    2.15
  -8   7  -6    3.53    1.54
   8  -7  -6    7.27    2.91
   8  -7  -6    8.62    2.85
   8   7  -5   36.28    5.52
  -8   7  -5   42.51    5.94
   8  -7  -5   32.40    5.18
   8  -7  -5   31.60    5.39
   8  -7  -4   14.00    3.66
   8   7  -4    6.94    2.61
   8   7  -4    8.16    2.84
  -8   7  -4   12.10    3.18
   8  -7  -4   16.03    3.37
   8  -7  -3   20.54    4.08
   8   7  -3   18.01    4.12
  -8   7  -3   19.21    3.93
   8   7  -3   22.49    4.22
   8  -7  -3   19.88    3.93
   8  -7  -2   19.91    4.10
   8   7  -2   18.38    3.88
  -8   7  -2   18.65    3.84
   8   7  -2   18.72    3.43
   8  -7  -2   17.13    3.99
   8   7  -1   30.21    4.98
  -8   7  -1   29.92    4.74
   8  -7  -1   37.91    5.64
   8   7  -1   23.56    4.09
   8  -7  -1   27.74    5.12
   8   7   0   57.24    6.70
   8   7   0   46.93    5.78
  -8   7   0   48.52    6.35
   8  -7   0   47.99    5.95
   8  -7   0   58.47    6.76
   8   7   1   32.91    5.27
   8  -7   1   28.68    4.96
   8   7   1   30.28    4.74
   8  -7   1   34.46    5.58
   8  -7   2   16.35    4.11
   8   7   2   24.47    4.46
   8  -7   2   24.02    4.45
   8   7   2   11.36    2.98
   8  -7   3   17.83    3.53
   8   7   3   26.39    4.55
   8  -7   3   20.61    4.40
   8   7   3   18.01    3.64
   8  -7   4    8.34    2.67
   8   7   4    8.77    2.67
   8  -7   4   12.36    3.28
   8   7   4   12.26    2.90
   8   7   5   31.82    4.87
   8  -7   5   31.77    5.05
   8   7   5   30.71    4.69
   8  -7   5   33.07    5.33
   8  -7   6   10.29    3.04
   8   7   6    9.52    3.24
   8  -7   6   10.92    3.04
   8   7   6    7.70    2.36
   8   7   7   27.26    4.98
   8  -7   7   24.74    4.81
   8  -7   7   18.88    4.02
   8   7   7   23.57    4.53
   8   7   8   31.04    5.06
   8  -7   8   20.55    3.83
   8   7   8   20.46    4.04
   8  -7   8   26.26    4.81
   8  -7   9    0.75    1.85
   8   7   9   -1.20    1.62
   8  -7   9   -0.27    1.23
   8   7   9   -0.59    1.04
   8  -7  10    9.33    2.84
   8   7  10   14.18    3.46
   8   7  10   12.71    3.42
   8  -7  10    5.72    2.18
   8  -7  11   17.09    3.36
   8  -7  11   27.22    5.01
   8   7  11   21.80    4.23
   8   7  11   22.19    4.31
   8  -7  12   20.71    4.36
   8   7  12   18.54    3.81
   8   7  12   17.48    3.61
   8  -7  13    0.09    1.18
   8   7  13    1.60    1.40
   8  -7  14    4.00    2.26
   8   7  14    2.33    0.94
   8   7  14    3.78    1.60
   8   7  15    1.28    2.29
   8   7  15    3.40    2.45
   8   7  16    0.92    1.52
  -8   7  16    1.06    1.09
   8   7  17   -1.72    2.38
   8   7  17   -1.92    1.62
  -8   7  17   -1.15    1.73
   8   7  18   -0.05    1.45
  -8   7  18    0.67    1.29
  -8   7  19    0.68    1.92
   8   7  19    3.86    2.52
   8   7  20    4.85    2.50
  -8   7  20   -2.08    2.24
   8   7  21    1.94    1.54
  -8   7  21    0.60    1.94
   8   7  22   -2.55    2.37
  -8   7  22    0.92    1.59
   8  -8 -19   10.28    3.49
   8  -8 -19    3.60    1.89
   8  -8 -18    6.58    2.83
   8  -8 -18   11.93    3.33
   8  -8 -17   12.82    4.51
   8  -8 -17   28.47    5.16
   8  -8 -16    1.63    1.43
   8  -8 -16   -1.74    1.32
   8   8 -15   11.42    3.28
   8  -8 -15   14.34    4.16
   8  -8 -15   14.31    3.90
   8   8 -14   10.10    2.98
   8  -8 -14    8.05    3.63
   8  -8 -14   10.15    3.96
   8   8 -13   -0.94    2.22
   8  -8 -13    1.20    1.94
   8  -8 -13    3.28    3.08
   8   8 -12   21.29    4.27
   8  -8 -12   24.13    4.66
   8  -8 -12   23.88    5.08
   8   8 -11   30.18    5.17
   8  -8 -11   42.30    6.12
   8  -8 -11   38.59    5.96
   8   8 -10    0.95    1.46
   8  -8 -10    0.91    1.35
   8  -8 -10    3.07    1.75
   8   8  -9   23.39    4.61
   8  -8  -9   16.14    3.48
   8  -8  -9   20.22    4.40
   8   8  -8   21.23    4.44
   8  -8  -8   28.81    5.19
  -8   8  -8   38.55    6.20
   8  -8  -8   30.06    5.61
  -8   8  -7    9.48    3.17
   8   8  -7   10.44    3.55
   8  -8  -7   16.69    3.98
   8  -8  -7   11.96    3.32
   8   8  -6   14.11    3.47
  -8   8  -6    6.57    2.87
   8  -8  -6    7.96    2.73
   8  -8  -6   10.67    3.59
   8   8  -5   36.36    5.68
  -8   8  -5   41.05    5.97
   8  -8  -5   39.83    6.25
   8  -8  -5   48.06    6.42
   8   8  -4    6.38    2.05
  -8   8  -4   10.53    3.47
   8  -8  -4    7.44    2.35
   8  -8  -4    7.77    2.73
   8   8  -3    5.25    2.22
   8  -8  -3    5.44    1.94
  -8   8  -3    6.47    2.36
   8   8  -3    3.47    2.07
   8  -8  -3    4.08    2.94
   8   8  -2   18.64    4.38
  -8   8  -2   24.92    4.77
   8  -8  -2   19.39    4.15
   8   8  -2   24.05    4.39
   8  -8  -2   20.38    4.14
   8   8  -1   15.95    3.90
  -8   8  -1   18.84    4.10
   8  -8  -1   20.58    4.11
   8   8  -1   13.67    3.15
   8  -8  -1   11.15    3.50
   8  -8   0    2.37    2.01
   8   8   0    3.10    1.86
  -8   8   0    1.23    1.49
   8  -8   0    0.12    1.59
   8   8   0    0.08    1.01
   8  -8   1   20.99    4.42
   8   8   1   14.62    3.65
  -8   8   1   13.37    3.34
   8  -8   1   14.81    3.46
   8   8   1   13.95    3.51
   8  -8   2   18.22    3.96
   8   8   2   12.18    3.16
  -8   8   2   23.84    4.74
   8  -8   2   24.89    4.88
   8   8   2   19.16    4.23
   8  -8   3    5.20    2.58
   8   8   3   -0.55    1.06
  -8   8   3    5.69    2.04
   8  -8   3    1.93    1.51
   8   8   3    1.27    1.48
   8  -8   4    4.71    1.76
   8   8   4    9.47    2.92
  -8   8   4    4.48    1.85
   8  -8   4    5.56    2.64
   8   8   4    6.37    2.77
   8  -8   5   28.22    4.95
   8   8   5   47.53    6.70
  -8   8   5   51.75    6.78
   8  -8   5   33.36    5.19
   8   8   5   33.15    5.16
   8  -8   6   13.03    3.38
   8   8   6    7.78    2.35
  -8   8   6    9.74    3.07
   8   8   6   17.74    3.83
   8  -8   7    8.09    2.91
   8   8   7   10.51    3.58
  -8   8   7    9.44    3.00
   8   8   7   12.99    3.70
   8  -8   8   22.52    4.43
   8   8   8   20.08    4.61
  -8   8   8   24.18    5.01
   8   8   8   19.52    4.31
   8  -8   9   23.82    4.81
   8   8   9   23.66    5.14
  -8   8   9   28.45    5.18
   8   8   9   19.73    3.97
   8  -8  10   -0.18    1.60
   8   8  10    2.87    1.61
  -8   8  10   10.58    3.50
   8   8  10    6.86    2.78
   8   8  11   41.42    6.18
  -8   8  11   41.13    6.13
   8   8  11   31.43    5.38
   8  -8  11   44.11    6.55
   8  -8  12   15.79    4.39
   8   8  12   18.96    4.13
  -8   8  12   17.35    4.23
   8  -8  13   -2.35    1.95
   8   8  13    0.27    1.83
   8   8  13    0.24    1.42
  -8   8  13    0.52    1.28
   8   8  14   14.03    3.92
  -8   8  14   12.17    3.67
   8   8  14    2.93    1.30
   8   8  15   11.01    3.31
   8   8  15   11.19    3.55
  -8   8  15   15.54    4.16
   8   8  16   -0.47    2.75
  -8   8  16   -1.22    1.55
   8   8  16    0.62    1.32
  -8   8  17   22.30    5.28
   8   8  17   23.94    5.43
   8   8  17   21.64    4.02
   8   8  18   12.57    3.90
  -8   8  18    6.73    2.99
   8   8  18    7.20    2.74
   8   8  19    0.16    1.24
  -8   8  19    4.10    2.09
   8  -9 -16    0.49    1.65
   8  -9 -16    3.27    2.78
   8  -9 -15    3.34    2.34
   8  -9 -15    2.96    1.89
   8   9 -14    5.16    2.56
   8  -9 -14    2.44    1.82
   8  -9 -14    1.15    1.76
   8   9 -13    8.13    3.72
   8  -9 -13    2.48    2.21
   8  -9 -13    5.70    2.29
   8   9 -12    6.74    2.90
   8  -9 -12    2.68    2.30
   8  -9 -12    3.45    1.97
   8  -9 -11    3.38    1.32
   8  -9 -11    5.57    2.45
   8   9 -10    0.38    1.92
   8  -9 -10    2.16    1.90
   8  -9 -10    2.97    2.09
   8  -9  -9    1.00    2.08
   8   9  -9   -0.39    1.78
   8  -9  -9   -2.64    1.76
   8  -9  -8    1.45    1.83
   8   9  -8    9.48    3.61
   8  -9  -8   11.30    4.00
   8   9  -7    0.96    1.77
   8  -9  -7   -5.64    2.47
  -8   9  -7    1.63    2.39
   8  -9  -7   -0.27    1.60
   8   9  -6    5.58    2.56
  -8   9  -6    3.93    2.76
   8  -9  -6    0.66    2.45
   8  -9  -6    4.17    2.45
   8   9  -5    3.42    1.09
  -8   9  -5    2.24    1.71
   8  -9  -5    4.70    2.39
   8  -9  -5    7.67    3.44
   8   9  -4   -0.99    0.96
  -8   9  -4    2.95    2.34
   8  -9  -4    3.93    2.88
   8  -9  -4    0.54    1.08
   8   9  -3    3.94    2.67
  -8   9  -3    6.93    2.91
   8  -9  -3    6.02    3.03
   8  -9  -3   -0.70    1.36
   8   9  -2    2.73    1.88
  -8   9  -2    3.64    1.76
   8  -9  -2    2.44    2.20
   8   9  -2   -0.40    1.69
   8  -9  -2    4.40    2.02
   8   9  -1    3.55    2.71
  -8   9  -1    2.51    1.89
   8  -9  -1    1.20    1.46
   8   9  -1    1.13    1.29
   8  -9  -1   -1.26    0.98
  -8   9   0    1.47    1.10
   8   9   0    1.39    1.82
   8   9   0    3.05    1.74
   8  -9   0    1.09    1.20
   8   9   1    7.04    2.58
  -8   9   1    5.98    2.78
   8   9   1    0.92    1.94
   8  -9   1    0.06    1.31
   8   9   2    7.22    2.84
  -8   9   2    0.54    1.59
   8   9   2    7.49    2.73
   8  -9   2    8.90    2.84
   8   9   3    1.49    2.42
  -8   9   3    6.72    2.77
   8  -9   3    3.78    2.69
   8   9   3    2.28    1.64
   8   9   4    1.60    1.69
   8   9   4    0.22    1.34
  -8   9   4   -0.44    1.19
   8   9   5    5.67    2.57
   8   9   5    5.27    3.19
  -8   9   5    5.89    3.08
   8  -9   5    5.40    3.33
   8   9   6    4.01    2.45
   8   9   6   -0.08    1.25
  -8   9   6    2.87    2.42
   8  -9   6   -0.83    1.14
   8   9   7    0.96    1.70
   8   9   7    0.39    1.72
  -8   9   7   -1.92    1.79
   8  -9   7   -0.29    1.37
   8   9   8    3.27    1.39
  -8   9   8    3.66    2.66
   8   9   8    0.76    1.18
   8  -9   8    7.77    2.85
   8   9   9   -0.02    1.61
  -8   9   9    2.02    2.31
   8   9   9   -1.10    1.66
   8  -9   9    2.62    2.14
   8   9  10    2.40    1.60
  -8   9  10    3.17    1.47
   8   9  10    1.05    1.92
   8  -9  10    0.86    1.78
   8   9  11    3.86    2.29
  -8   9  11    6.78    3.34
   8   9  11    6.68    2.55
   8  -9  11    4.55    1.68
   8   9  12    3.39    2.70
  -8   9  12    3.94    1.51
   8   9  12    6.34    2.82
   8   9  13    7.04    3.40
   8   9  13   -0.39    1.80
  -8   9  13    6.20    2.84
   8   9  14    3.84    3.35
  -8   9  14    0.14    1.89
   8   9  14    2.72    1.64
   8   9  15    3.32    2.24
  -8   9  15    2.30    2.45
   8   9  15   -1.11    1.57
   8   9  16    0.06    1.84
  -8   9  16    4.02    2.73
   8   9  16    1.06    1.66
   8  10 -11    7.84    3.42
   8 -10 -11    5.13    2.64
   8 -10 -11    6.11    2.86
   8  10 -10   -2.35    2.38
   8 -10 -10   -0.56    2.33
   8 -10 -10    0.59    1.39
   8 -10  -9   16.06    4.62
   8  10  -9   14.45    4.21
   8 -10  -9    9.83    3.66
   8  10  -8    5.11    2.68
   8 -10  -8    8.75    2.42
   8  10  -7    3.40    1.16
   8 -10  -7    1.56    1.20
   8  10  -6    2.94    1.74
  -8  10  -6    1.06    1.09
   8 -10  -6    0.29    1.20
   8  10  -5   12.02    3.54
  -8  10  -5   13.66    4.05
   8 -10  -5   15.38    4.44
   8  10  -4    1.86    0.97
  -8  10  -4    7.64    3.42
   8 -10  -4    9.54    3.43
   8  10  -3    1.62    2.77
  -8  10  -3    0.88    1.11
   8 -10  -3    0.02    1.58
   8  10  -2    6.21    2.31
  -8  10  -2    2.73    2.41
   8 -10  -2   10.26    3.69
   8  10  -1    8.52    3.42
  -8  10  -1   11.98    3.56
   8 -10  -1   11.59    3.48
   8  10   0    2.64    2.14
  -8  10   0   -1.79    2.13
   8  10   0    4.25    2.10
   8 -10   0    1.57    0.99
   8  10   1    7.65    3.22
  -8  10   1    7.57    2.79
   8 -10   1    6.49    2.93
   8  10   1    5.55    1.45
   8  10   2    3.98    2.13
  -8  10   2    7.13    2.88
   8 -10   2    9.15    3.12
   8  10   2    7.09    2.79
   8  10   3   -1.43    1.43
  -8  10   3    0.51    1.33
   8 -10   3   -0.20    1.06
   8  10   4    1.59    2.00
  -8  10   4    5.19    2.27
   8 -10   4    1.34    1.82
   8  10   4    0.19    1.72
   8  10   5   13.83    4.16
  -8  10   5   18.26    4.70
   8 -10   5   12.04    4.11
   8  10   5   20.47    4.70
   8  10   6    3.28    3.12
  -8  10   6    1.56    1.75
   8 -10   6   -1.36    2.22
   8  10   6    3.67    2.08
   8  10   7    2.02    2.69
  -8  10   7    1.04    1.47
   8 -10   7    2.72    1.69
   8  10   7    1.60    1.39
   8  10   8    7.67    3.56
  -8  10   8    5.94    3.22
   8 -10   8    6.67    2.69
   8  10   8    7.67    2.29
   8  10   9    7.07    3.14
  -8  10   9   14.45    4.26
   8 -10   9   10.29    3.82
   8  10   9    7.17    2.78
   8  10  10    4.68    2.62
  -8  10  10   -1.59    1.77
   8  10  10   -2.44    2.77
   8  10  11    7.55    3.56
  -8  10  11    6.56    3.09
   8  10  11    6.88    2.85
   9   0 -27   -1.10    2.50
   9   0 -26   -1.93    1.34
   9   0 -25   -2.39    1.72
   9   0 -24   -1.87    1.80
   9   0 -23    2.42    2.81
   9   0 -22    1.70    2.19
   9   0 -21   -0.45    1.86
   9   0 -20    0.35    1.50
   9   0 -19   -0.41    1.82
   9   0 -18   -1.12    1.34
   9   0 -17    0.06    1.37
   9   0 -16   -0.62    1.26
   9   0 -15    0.36    1.10
   9   0 -14    1.64    1.70
   9   0 -13    0.78    1.24
   9   0 -13    0.49    1.52
   9   0 -12    0.75    0.79
   9   0 -12   -0.02    0.61
   9   0 -11    0.15    0.93
   9   0 -11   -0.27    0.76
   9   0 -10    0.43    0.87
   9   0 -10   -0.17    0.57
   9   0  -9    0.18    1.20
   9   0  -9   -0.12    0.63
   9   0  -8    0.82    1.20
   9   0  -8   -0.35    0.68
   9   0  -7   -0.04    0.61
   9   0  -7    0.08    0.75
   9   0  -7    0.40    0.79
   9   0  -6   -0.43    0.53
   9   0  -6    0.38    0.84
   9   0  -6   -0.40    0.54
   9   0  -5    0.68    0.93
   9   0  -5   -0.60    1.31
   9   0  -5   -0.06    0.71
   9   0  -4   -0.04    0.69
   9   0  -4   -0.23    0.49
   9   0  -4   -0.38    0.71
   9   0  -3    0.76    0.84
   9   0  -3    0.19    1.01
   9   0  -3   -0.17    0.81
   9   0  -2   -0.30    0.49
   9   0  -2    0.75    1.31
   9   0  -2   -0.43    0.64
   9   0  -1    1.09    0.95
   9   0  -1   -0.24    0.39
   9   0  -1    0.45    0.92
   9   0   0   -0.36    0.64
   9   0   0   -0.02    0.98
   9   0   0    0.11    0.45
   9   0   1    0.53    1.15
   9   0   1   -0.64    0.83
   9   0   2   -0.48    0.52
   9   0   2   -0.48    0.41
   9   0   3    0.31    0.55
   9   0   3    0.07    0.44
   9   0   4    0.34    0.83
   9   0   4    0.21    0.55
   9   0   5   -0.56    1.05
   9   0   5   -0.10    0.58
   9   0   6    0.54    0.67
   9   0   6    0.02    0.62
   9   0   7    1.39    1.17
   9   0   7    0.38    0.96
   9   0   8   -1.01    1.39
   9   0   8    0.53    0.79
   9   0   9    0.95    1.47
   9   0   9    0.77    1.36
   9   0  10    0.10    0.56
   9   0  10    0.11    0.68
   9   0  11   -0.60    0.95
   9   0  11   -0.48    0.45
   9   0  12    0.38    1.47
   9   0  12    0.52    0.88
   9   0  13    0.29    1.12
   9   0  13   -0.08    0.70
   9   0  14    0.46    1.60
   9   0  15    1.55    1.29
   9   0  16   -0.18    1.15
   9   0  17   -0.31    1.33
   9   0  18   -0.01    0.74
   9   0  19   -0.40    1.73
   9   0  20   -0.82    1.00
   9   0  21   -0.63    0.78
   9   0  22   -0.56    1.54
   9   0  23    0.70    1.28
   9   0  24    0.26    1.72
   9  -1 -28   10.10    3.55
   9  -1 -27   20.56    4.42
   9  -1 -26   24.27    5.17
   9  -1 -25    3.49    1.10
   9  -1 -24    0.74    1.53
   9  -1 -23    9.57    2.94
   9  -1 -22   23.80    4.95
   9   1 -22   20.65    4.55
   9   1 -21   50.86    6.49
   9  -1 -21   55.21    7.34
   9   1 -20    7.29    2.70
   9  -1 -20    7.78    2.68
   9   1 -19   34.93    5.23
   9  -1 -19   22.42    4.26
   9   1 -18    3.91    1.92
   9  -1 -18    8.58    3.07
   9   1 -17  211.36   12.38
   9  -1 -17  219.33   12.87
   9   1 -16   56.91    6.43
   9  -1 -16   32.17    5.04
   9   1 -15  140.34    9.65
   9  -1 -15  143.85   10.06
   9  -1 -14    3.28    1.86
   9   1 -14    6.68    2.10
   9  -1 -14    3.73    1.77
   9  -1 -13    2.53    1.53
   9   1 -13    2.04    1.29
   9  -1 -13    3.43    2.20
   9   1 -13    4.14    2.06
   9   1 -12   44.59    5.40
   9  -1 -12   55.95    5.90
   9   1 -12   59.63    5.82
   9  -1 -12   53.44    5.46
   9  -1 -11  431.04   16.69
   9   1 -11  442.75   14.07
   9   1 -11  428.45   15.81
   9   1 -11  449.37   16.23
   9  -1 -11  432.56   15.52
   9  -1 -10   35.26    4.37
   9   1 -10   43.08    4.38
   9   1 -10   31.86    4.37
   9  -1 -10   27.48    4.23
   9   1 -10   40.32    4.89
   9  -1  -9  321.01   12.96
   9   1  -9  299.11   11.46
   9   1  -9  315.37   13.03
   9  -1  -9  299.37   13.68
   9   1  -9  334.82   13.78
   9  -1  -8   92.55    7.03
   9   1  -8   96.59    6.54
   9  -1  -8   98.81    7.75
   9   1  -8  108.62    7.55
   9   1  -8   87.18    6.86
   9  -1  -7  110.69    7.59
   9   1  -7  104.59    6.75
   9  -1  -7   91.01    7.30
   9   1  -7  108.68    7.40
   9   1  -7   94.79    7.16
   9  -1  -6  117.40    7.70
   9   1  -6  109.61    7.00
   9  -1  -6  125.69    8.56
   9   1  -6  114.32    7.71
   9   1  -6  113.76    7.80
   9  -1  -5  257.26   11.43
   9   1  -5  266.98   11.05
   9  -1  -5  242.99   11.89
   9   1  -5  233.85   10.94
   9   1  -5  259.89   11.74
   9  -1  -4  190.09    9.87
   9   1  -4  190.91    9.48
   9  -1  -4  206.33   10.75
   9   1  -4  201.43   10.05
   9   1  -4  190.34   10.03
   9  -1  -3  254.32   11.21
   9   1  -3  242.27   10.72
   9  -1  -3  266.01   12.16
   9   1  -3  253.27   11.16
   9   1  -3  266.58   11.86
   9  -1  -2  132.29    8.16
   9   1  -2  136.96    8.03
   9  -1  -2  127.63    8.35
   9   1  -2  130.64    8.10
   9   1  -2  134.67    8.25
   9  -1  -1  412.95   14.45
   9   1  -1  398.19   13.76
   9  -1  -1  386.78   14.36
   9   1  -1  379.54   13.78
   9   1  -1  402.79   14.16
   9  -1   0  654.19   18.30
   9   1   0  644.46   17.74
   9  -1   0  638.70   18.82
   9   1   0  661.09   18.14
   9  -1   1  397.87   14.34
   9   1   1  363.74   13.49
   9  -1   1  387.52   14.66
   9   1   1  393.30   13.82
   9  -1   2  138.64    8.61
   9   1   2  126.90    8.02
   9  -1   2  128.50    8.43
   9   1   2  133.23    8.11
   9  -1   3  272.49   12.12
   9   1   3  246.94   11.41
   9   1   3  266.49   11.29
   9  -1   4  203.18   10.75
   9   1   4  202.32   10.31
   9   1   4  197.45    9.68
   9   1   5  259.48   11.96
   9   1   5  247.08   10.71
   9  -1   6  115.78    8.14
   9   1   6  110.71    7.93
   9   1   6  115.98    7.36
   9  -1   7   88.90    7.12
   9   1   7   98.21    6.68
   9   1   7   96.95    7.25
   9  -1   8   83.33    7.03
   9   1   8   87.97    6.23
   9   1   8   94.26    7.52
   9  -1   9  302.76   13.65
   9   1   9  309.42   11.91
   9   1   9  318.06   13.77
   9  -1  10   33.14    4.58
   9   1  10   39.13    4.31
   9   1  10   26.98    4.16
   9  -1  11  426.10   16.50
   9   1  11  414.28   13.82
   9   1  11  431.24   16.88
   9   1  12   53.01    4.81
   9  -1  12   59.11    6.26
   9   1  12   64.10    6.61
   9  -1  13    1.54    1.04
   9   1  13    0.47    1.34
   9   1  13    2.20    1.09
   9  -1  14    2.95    1.40
   9   1  14    4.23    1.83
   9   1  14    3.83    1.08
   9  -1  15  146.41   10.22
   9   1  15  122.55    9.42
   9  -1  16   49.66    5.90
   9   1  16   39.82    5.57
   9  -1  17  200.65   12.38
   9   1  17  217.75   12.96
   9  -1  18    1.10    1.73
   9   1  18    5.48    2.50
   9   1  19   26.22    4.70
   9  -1  19   34.09    5.30
   9  -1  20    9.82    2.57
   9   1  20   10.56    2.93
   9  -1  21   48.74    6.74
   9   1  21   56.42    6.93
   9   1  22   33.80    5.43
   9  -1  22   26.90    4.99
   9   1  23    2.89    1.08
   9  -1  23    4.26    2.67
   9   1  24    3.85    2.34
   9   1  25    8.12    3.04
   9  -2 -27    0.74    1.38
   9  -2 -26    4.09    2.34
   9  -2 -25    0.38    1.74
   9  -2 -24    0.84    1.11
   9  -2 -23   -1.07    0.98
   9  -2 -22    5.22    2.42
   9  -2 -21    4.14    2.44
   9  -2 -20   -1.57    0.79
   9  -2 -19    0.85    1.12
   9  -2 -18    5.94    2.25
   9  -2 -17   -0.40    1.73
   9   2 -17    3.08    1.78
   9  -2 -16    4.34    2.08
   9   2 -16    4.03    1.62
   9   2 -16    3.83    1.96
   9  -2 -16   10.21    3.13
   9   2 -15    2.42    1.19
   9  -2 -15    0.09    1.49
   9   2 -15   -0.33    1.29
   9  -2 -15    1.22    1.46
   9  -2 -14   -0.14    1.22
   9   2 -14    3.43    1.71
   9  -2 -14    3.69    1.22
   9   2 -14    1.36    1.35
   9  -2 -13    4.57    1.86
   9  -2 -13    3.36    2.02
   9   2 -13    1.88    0.90
   9   2 -13    1.73    0.77
   9  -2 -12    6.16    2.38
   9   2 -12    9.03    2.46
   9  -2 -12    4.65    1.87
   9   2 -12    8.30    2.24
   9  -2 -11   12.48    2.96
   9   2 -11    9.62    2.31
   9  -2 -11    8.38    2.61
   9   2 -11    5.50    2.02
   9  -2 -10   -0.42    0.87
   9   2 -10   -0.04    0.89
   9   2 -10    1.07    1.38
   9  -2 -10   -0.45    0.62
   9   2 -10    0.99    0.84
   9  -2  -9    1.13    0.54
   9  -2  -9    2.56    1.46
   9   2  -9    1.25    1.27
   9   2  -9    0.68    0.99
   9   2  -9   -0.07    0.96
   9  -2  -8   23.85    3.80
   9   2  -8   24.29    3.17
   9  -2  -8   27.33    4.10
   9   2  -8   11.96    2.52
   9   2  -8   23.26    3.71
   9   2  -7   13.49    2.95
   9  -2  -7    9.43    2.14
   9  -2  -7   15.64    3.09
   9   2  -7   10.36    2.30
   9   2  -7   10.94    2.14
   9   2  -6    4.31    1.75
   9  -2  -6    6.83    1.91
   9  -2  -6    6.49    2.33
   9   2  -6    4.02    1.33
   9   2  -6    6.83    1.77
   9   2  -5    4.78    1.57
   9   2  -5    1.43    1.06
   9  -2  -5    1.99    1.31
   9  -2  -5    2.63    1.81
   9   2  -5    0.90    0.96
   9   2  -4    1.38    0.69
   9   2  -4    2.50    1.17
   9  -2  -4    1.72    1.28
   9  -2  -4    2.09    1.55
   9   2  -4    1.01    0.85
   9   2  -3    9.38    2.34
   9   2  -3    6.25    1.83
   9  -2  -3    9.58    2.40
   9  -2  -3    7.18    2.33
   9   2  -3    7.39    1.96
   9   2  -2   10.80    2.56
   9   2  -2    5.55    1.72
   9  -2  -2    6.67    1.74
   9  -2  -2    9.86    2.49
   9   2  -2   11.45    2.34
   9  -2  -1   29.71    3.99
   9  -2  -1   22.52    3.70
   9   2  -1   35.98    4.19
   9   2  -1   29.84    3.83
   9   2  -1   32.69    4.16
   9  -2   0   16.36    3.32
   9  -2   0   16.85    2.95
   9   2   0   18.81    3.10
   9   2   0   14.44    2.73
   9  -2   1   30.02    4.19
   9  -2   1   31.85    4.41
   9   2   1   33.97    4.21
   9   2   2   12.25    2.56
   9   2   2   10.38    2.47
   9  -2   2   10.79    2.51
   9  -2   2    9.60    2.53
   9   2   3    9.17    2.25
   9   2   3    4.74    1.65
   9  -2   3    8.75    2.51
   9  -2   3    4.29    1.79
   9   2   4    3.08    1.32
   9   2   4    1.42    0.86
   9  -2   4    1.87    0.67
   9   2   5    2.15    1.22
   9   2   5    4.46    1.74
   9  -2   5    3.07    1.54
   9   2   6    7.68    2.22
   9   2   6    4.38    1.71
   9  -2   6    4.63    1.49
   9   2   7   11.90    2.27
   9  -2   7   17.71    3.40
   9   2   7    9.72    2.58
   9   2   8   18.88    3.54
   9  -2   8   21.88    3.74
   9   2   8   17.81    2.96
   9   2   9    0.70    1.17
   9   2   9    1.46    1.22
   9  -2   9    0.62    1.59
   9   2  10    1.70    1.10
   9   2  10    0.38    1.25
   9  -2  10   -0.73    0.66
   9   2  11    8.23    2.13
   9  -2  11    5.69    1.82
   9   2  11    8.56    2.92
   9   2  12   10.01    2.50
   9   2  12    9.41    2.85
   9  -2  12    6.90    1.64
   9   2  13    3.93    1.47
   9   2  13    2.35    1.12
   9  -2  13    2.98    2.27
   9   2  14    2.18    1.25
   9   2  14    7.51    2.49
   9  -2  14    3.60    2.20
   9   2  15   -0.36    1.01
   9  -2  15   -0.32    1.00
   9   2  16    5.32    2.15
   9  -2  16    4.22    1.46
   9   2  17    3.39    1.74
   9  -2  17    2.43    2.41
   9   2  18    7.96    2.15
   9  -2  18    5.38    2.77
   9   2  19    2.92    2.22
   9  -2  19   -0.54    1.16
   9   2  20    0.43    1.55
   9  -2  20    1.43    1.71
   9   2  21    1.57    1.93
   9  -2  21   -0.80    1.77
   9   2  22    5.40    2.16
   9   2  23    1.29    2.17
   9   2  24    1.26    1.52
   9   2  25   -1.53    1.62
   9   2  26    5.86    2.76
   9  -3 -27   48.57    7.31
   9  -3 -26    3.39    1.65
   9  -3 -25   30.76    5.56
   9  -3 -24    3.64    2.43
   9  -3 -23    5.53    2.90
   9  -3 -22   35.20    5.49
   9  -3 -21   46.67    6.71
   9  -3 -20    2.24    2.55
   9  -3 -19   18.09    4.02
   9   3 -19   18.18    3.88
   9  -3 -18   44.66    5.93
   9   3 -18   47.46    6.23
   9  -3 -17   21.77    4.30
   9   3 -17   28.17    4.55
   9  -3 -17   19.74    4.09
   9  -3 -16  247.22   14.07
   9  -3 -16  231.04   13.11
   9   3 -16  248.62   13.47
   9  -3 -15   29.10    5.01
   9  -3 -15   27.87    4.39
   9   3 -15   38.01    5.05
   9  -3 -14   54.12    6.46
   9  -3 -14   53.20    6.13
   9   3 -14   50.64    5.90
   9  -3 -13   41.72    5.55
   9  -3 -13   50.60    5.81
   9   3 -13   48.28    5.69
   9  -3 -12  237.32   13.24
   9  -3 -12  245.14   12.89
   9   3 -12  221.62   12.17
   9  -3 -11  282.10   14.09
   9  -3 -11  265.97   13.42
   9   3 -11  292.17   13.84
   9   3 -10  392.70   13.68
   9  -3 -10  431.86   17.45
   9   3 -10  408.41   16.09
   9   3  -9    1.79    0.70
   9  -3  -9    3.61    1.69
   9   3  -9    0.32    0.55
   9  -3  -9    5.09    2.02
   9   3  -9    3.42    1.45
   9  -3  -8   63.76    6.55
   9   3  -8   71.97    5.72
   9   3  -8   66.80    5.43
   9   3  -8   56.69    5.82
   9  -3  -8   65.79    6.40
   9  -3  -7  677.89   21.11
   9   3  -7  637.89   16.96
   9   3  -7  638.69   16.81
   9   3  -7  674.72   20.41
   9  -3  -7  667.56   20.60
   9  -3  -6   42.46    5.34
   9   3  -6   45.17    4.45
   9   3  -6   57.44    5.17
   9   3  -6   45.80    5.32
   9  -3  -6   51.79    5.66
   9  -3  -5  899.59   23.59
   9  -3  -5  913.82   24.38
   9   3  -5  856.26   19.77
   9   3  -5  929.93   20.83
   9   3  -5  904.13   23.16
   9  -3  -4  421.47   16.11
   9  -3  -4  416.98   16.45
   9   3  -4  413.34   13.72
   9   3  -4  424.05   14.26
   9   3  -4  426.58   15.59
   9   3  -3   -0.51    1.46
   9  -3  -3   -0.58    0.89
   9   3  -3    0.27    0.59
   9  -3  -3    1.28    0.98
   9   3  -3    1.63    1.37
   9  -3  -2   26.29    4.30
   9   3  -2   29.64    3.74
   9   3  -2   27.42    4.09
   9   3  -1 1374.81   26.65
   9  -3  -1 1317.14   28.23
   9   3   0    9.54    2.42
   9  -3   0   15.47    2.95
   9   3   0   13.69    2.54
   9  -3   0   17.49    3.47
   9   3   1 1342.53   27.32
   9  -3   1 1311.73   28.15
   9  -3   1 1295.97   28.22
   9   3   1 1312.36   27.25
   9   3   2   27.83    4.08
   9  -3   2   31.19    4.35
   9  -3   2   26.93    4.45
   9   3   2   24.37    3.70
   9   3   3   -0.96    1.27
   9  -3   3    1.87    1.44
   9   3   3    1.72    1.27
   9  -3   3    0.60    0.93
   9   3   4  423.86   15.45
   9   3   4  416.10   15.72
   9  -3   4  395.48   15.55
   9  -3   4  416.13   16.09
   9   3   5  910.76   22.92
   9   3   5  900.79   23.13
   9  -3   5  923.35   23.72
   9  -3   5  906.46   23.83
   9   3   6   45.84    5.31
   9   3   6   45.23    5.07
   9  -3   6   57.27    5.85
   9   3   7  675.32   19.66
   9   3   7  652.31   20.26
   9  -3   7  637.47   20.08
   9   3   8   62.36    6.20
   9   3   8   64.80    6.37
   9  -3   8   58.33    5.97
   9   3   9    2.63    1.44
   9  -3   9    4.04    1.37
   9   3   9    4.14    2.42
   9   3  10  386.82   15.14
   9   3  10  377.16   16.12
   9  -3  10  387.81   16.11
   9   3  11  288.12   13.14
   9   3  11  308.82   14.69
   9  -3  11  290.69   14.16
   9   3  12  236.61   11.90
   9   3  12  248.63   13.17
   9  -3  12  242.08   12.99
   9   3  13   39.65    5.02
   9   3  13   41.15    5.56
   9  -3  13   51.98    6.02
   9   3  14   53.70    5.81
   9   3  14   57.27    6.48
   9  -3  14   54.90    6.33
   9   3  15   28.44    4.30
   9  -3  15   29.69    4.50
   9   3  15   20.12    3.87
   9   3  16  248.37   13.99
   9  -3  16  214.99   12.79
   9   3  17   23.59    4.40
   9  -3  17   22.83    4.40
   9   3  18   42.43    5.89
   9  -3  18   45.78    6.12
   9  -3  19   12.22    3.49
   9   3  19   13.51    3.64
   9  -3  20    0.23    1.19
   9   3  20   -0.24    1.16
   9   3  21   46.18    6.75
   9   3  22   34.36    6.10
   9   3  23    1.92    1.67
   9   3  24    9.27    2.94
   9   3  25   31.09    5.52
   9   3  26    4.69    2.84
   9   3  27   30.25    6.25
   9  -4 -26    0.44    1.60
   9  -4 -25   -2.71    2.12
   9  -4 -24   -0.45    0.98
   9  -4 -23    3.31    2.32
   9  -4 -22   -0.01    0.86
   9  -4 -21    2.75    1.11
   9  -4 -20   -1.64    1.78
   9  -4 -19   -1.35    1.80
   9  -4 -18    0.09    1.51
   9  -4 -18    1.52    2.34
   9   4 -18    1.66    1.51
   9  -4 -17   93.49    8.98
   9  -4 -17   75.93    8.19
   9   4 -17   86.36    8.37
   9  -4 -16   -0.24    0.94
   9  -4 -16    0.83    0.75
   9   4 -16    0.17    0.88
   9  -4 -15    4.44    2.56
   9  -4 -15    4.45    2.23
   9   4 -15    6.73    2.61
   9   4 -14    7.26    2.59
   9  -4 -14    7.89    2.71
   9  -4 -14    7.43    2.17
   9   4 -13    2.28    1.68
   9  -4 -13    4.99    1.40
   9  -4 -13    2.24    1.65
   9  -4 -12   36.92    5.03
   9  -4 -12   47.74    5.96
   9   4 -12   37.92    5.30
   9  -4 -11  132.54   10.15
   9  -4 -11  124.60    9.50
   9   4 -11  117.96    9.00
   9   4 -10    2.97    1.77
   9  -4 -10    1.03    1.46
   9  -4 -10    1.02    1.51
   9  -4  -9   87.31    8.05
   9  -4  -9   90.28    8.08
   9   4  -9   94.05    7.90
   9  -4  -8   77.81    7.60
   9   4  -8   64.41    5.45
   9  -4  -8   64.69    6.63
   9   4  -8   76.66    7.23
   9   4  -7    1.06    1.43
   9  -4  -7   -0.33    0.67
   9   4  -7   -0.62    0.63
   9  -4  -7    1.71    0.87
   9  -4  -6  118.50    9.15
   9  -4  -6  110.28    8.62
   9   4  -6  106.29    7.30
   9   4  -6  108.66    8.34
   9   4  -5   39.35    4.56
   9  -4  -5   54.41    6.05
   9  -4  -5   49.18    5.83
   9   4  -5   48.58    5.63
   9   4  -4   50.85    5.14
   9  -4  -4   33.35    4.81
   9   4  -4   38.62    3.97
   9  -4  -4   38.68    5.10
   9   4  -4   35.62    4.72
   9   4  -3    8.37    2.63
   9  -4  -3   12.31    2.68
   9   4  -3   12.36    2.64
   9   4  -3   15.93    2.65
   9  -4  -3   10.41    2.70
   9   4  -2   88.84    7.38
   9  -4  -2   88.05    7.63
   9   4  -2   83.84    6.83
   9  -4  -2   79.20    7.47
   9   4  -2   75.71    5.80
   9   4  -1   -0.20    0.96
   9  -4  -1    0.09    1.16
   9  -4  -1    2.19    1.71
   9   4  -1    1.99    0.92
   9   4   0  270.98   13.04
   9  -4   0  253.36   12.86
   9   4   0  262.37   12.14
   9  -4   0  253.43   13.13
   9   4   1    3.01    1.13
   9  -4   1   -0.18    0.70
   9  -4   1    3.29    1.90
   9   4   1    0.67    1.19
   9   4   2   79.79    7.31
   9  -4   2   85.40    7.58
   9   4   2   89.41    7.30
   9  -4   2   88.26    7.64
   9   4   3   12.11    2.61
   9   4   3   13.44    3.29
   9  -4   3   14.76    3.29
   9  -4   3   11.23    2.61
   9   4   4   30.44    4.12
   9  -4   4   40.22    5.21
   9   4   4   33.33    4.34
   9  -4   4   37.68    4.97
   9   4   5   60.09    6.28
   9  -4   5   50.63    5.84
   9   4   5   50.70    5.67
   9  -4   5   59.23    6.44
   9   4   6  128.96    9.15
   9  -4   6  113.21    8.70
   9   4   6  128.44    9.18
   9  -4   6  124.74    9.33
   9   4   7    0.10    1.30
   9   4   7   -0.11    0.78
   9  -4   7    0.17    1.40
   9  -4   7   -0.05    1.01
   9   4   8   55.87    6.09
   9  -4   8   56.60    6.27
   9   4   8   58.07    6.20
   9  -4   8   62.55    6.81
   9   4   9   82.68    7.53
   9  -4   9   91.80    7.91
   9   4   9   98.51    8.17
   9   4  10    0.35    1.32
   9   4  10    2.60    2.10
   9  -4  10    2.18    1.02
   9   4  11  136.68    9.65
   9  -4  11  132.47    9.71
   9   4  11  145.42   10.21
   9   4  12   31.88    4.60
   9  -4  12   38.98    5.53
   9   4  12   37.96    5.22
   9   4  13    2.96    1.93
   9   4  13    2.46    1.21
   9  -4  13    0.95    1.54
   9   4  14    7.33    2.10
   9   4  14   11.70    3.20
   9  -4  14    7.24    2.67
   9   4  15    6.53    2.54
   9   4  15    8.65    2.70
   9  -4  15    7.43    2.74
   9   4  16    0.42    1.51
   9  -4  16    1.24    0.89
   9   4  16   -0.24    1.03
   9  -4  17   72.75    7.66
   9   4  17   94.82    8.77
   9  -4  18    2.13    2.14
   9   4  18    3.04    2.21
   9  -4  19    2.41    2.09
   9   4  19    2.23    1.79
   9   4  20    0.35    2.43
   9   4  21    0.40    1.61
   9   4  22   -2.03    2.20
   9   4  23    4.23    3.21
   9   4  24   -0.55    2.27
   9   4  25   -3.24    2.83
   9   4  26    3.68    2.79
   9  -5 -24    0.30    1.52
   9  -5 -23    2.81    2.02
   9  -5 -22   13.15    3.70
   9  -5 -21   24.69    5.13
   9  -5 -20    8.06    3.38
   9  -5 -19    8.61    3.62
   9  -5 -19   15.87    4.19
   9  -5 -18   -0.49    1.99
   9  -5 -18   -0.41    1.98
   9   5 -17    4.24    1.50
   9  -5 -17   -0.11    2.08
   9   5 -16    8.63    2.92
   9  -5 -16    6.16    2.83
   9  -5 -16    6.97    2.56
   9  -5 -15   95.79    9.09
   9  -5 -15   90.91    8.86
   9   5 -15   94.80    8.75
   9   5 -14   11.33    2.95
   9  -5 -14    8.25    2.49
   9  -5 -14    8.85    2.97
   9   5 -13    0.72    1.02
   9  -5 -13    0.57    1.19
   9   5 -12   21.12    3.94
   9  -5 -12   31.15    4.84
   9  -5 -12   26.88    4.91
   9  -5 -11   97.72    8.96
   9   5 -11  111.93    9.02
   9  -5 -10    8.13    2.57
   9   5 -10    6.34    2.03
   9  -5 -10    3.23    2.45
   9  -5  -9    6.20    2.15
   9   5  -9    9.35    2.96
   9  -5  -9    6.10    2.90
   9  -5  -8   -0.01    1.09
   9   5  -8   -1.40    1.77
   9  -5  -8    0.20    1.31
   9  -5  -7   31.61    5.01
   9  -5  -7   28.69    4.96
   9   5  -7   36.81    5.19
   9  -5  -6   16.32    3.70
   9   5  -6   14.62    3.38
   9   5  -6   18.12    3.20
   9  -5  -6   10.49    3.28
   9   5  -5  209.85   12.13
   9   5  -5  207.67   10.82
   9  -5  -5  199.59   11.97
   9  -5  -5  205.87   12.52
   9   5  -4   26.49    4.49
   9  -5  -4   19.29    3.88
   9   5  -4   23.94    3.68
   9  -5  -4   28.98    4.72
   9   5  -3    8.88    2.67
   9  -5  -3    5.75    2.69
   9  -5  -3    7.08    1.84
   9   5  -3    7.17    1.90
   9   5  -2    3.90    1.92
   9   5  -2    5.94    2.62
   9  -5  -2    8.34    2.98
   9  -5  -2    3.46    1.78
   9   5  -1  201.66   11.81
   9   5  -1  197.20   10.98
   9  -5  -1  197.91   12.01
   9  -5  -1  196.85   11.97
   9   5   0   33.42    4.98
   9   5   0   23.20    3.98
   9  -5   0   34.23    4.99
   9  -5   0   25.40    4.09
   9   5   1  190.89   11.45
   9   5   1  192.70   11.02
   9  -5   1  181.20   11.49
   9  -5   1  188.54   11.75
   9   5   2    2.81    2.06
   9   5   2    5.73    1.64
   9  -5   2    6.66    2.82
   9  -5   2    4.26    2.10
   9   5   3    7.13    1.59
   9   5   3    3.29    1.76
   9  -5   3    3.75    1.81
   9  -5   3    4.12    2.54
   9   5   4   26.29    4.60
   9  -5   4   22.73    3.94
   9   5   4   23.18    3.94
   9  -5   4   18.64    4.07
   9  -5   5  190.30   11.93
   9   5   5  189.13   11.61
   9   5   5  199.84   11.71
   9  -5   5  195.09   11.89
   9   5   6   18.01    3.83
   9   5   6   17.37    3.48
   9  -5   6   16.63    3.45
   9  -5   6   16.84    3.81
   9   5   7   33.60    4.77
   9  -5   7   31.06    5.04
   9   5   7   21.46    3.86
   9  -5   7   20.65    4.11
   9   5   8   -0.72    1.12
   9   5   8   -0.93    0.71
   9  -5   8   -0.22    1.11
   9  -5   8   -1.00    0.81
   9   5   9    5.41    2.46
   9   5   9    6.86    2.28
   9  -5   9    7.68    2.53
   9  -5   9    5.60    2.87
   9   5  10    2.94    1.87
   9   5  10    3.55    2.34
   9  -5  10    7.74    2.32
   9  -5  10    5.59    2.50
   9   5  11   95.25    8.68
   9  -5  11  105.42    9.24
   9   5  11  122.21    9.65
   9  -5  11  113.89    9.65
   9   5  12   16.49    3.70
   9  -5  12   23.33    4.43
   9   5  12   23.92    4.51
   9   5  13    2.08    1.50
   9   5  13    1.17    1.67
   9  -5  13    0.61    1.50
   9   5  14    9.81    2.62
   9   5  14   17.58    3.58
   9  -5  14   19.48    3.84
   9   5  15   87.93    8.26
   9  -5  15   99.21    9.18
   9   5  15   89.69    8.56
   9   5  16    1.45    2.28
   9   5  16    6.39    1.91
   9  -5  16    8.49    2.72
   9   5  17    6.37    2.64
   9  -5  17    4.13    1.96
   9   5  18    1.77    2.24
   9   5  19   10.34    3.22
   9   5  20    5.29    2.00
   9   5  21   20.99    4.32
   9   5  22    5.34    2.00
   9   5  23    6.48    2.38
   9   5  24    0.81    2.07
   9  -6 -23   -3.27    1.68
   9  -6 -22   -1.49    2.09
   9  -6 -21    2.25    2.28
   9  -6 -20    1.57    2.26
   9  -6 -20    1.61    1.68
   9  -6 -19    4.00    2.26
   9  -6 -19    5.50    3.32
   9  -6 -18    5.35    2.38
   9  -6 -18    1.48    1.65
   9   6 -17    7.26    3.00
   9  -6 -17    3.10    2.79
   9  -6 -17    3.68    2.19
   9   6 -16   13.02    3.79
   9  -6 -16    6.44    2.64
   9  -6 -16   12.42    3.78
   9   6 -15   19.63    3.78
   9  -6 -15   18.75    4.53
   9  -6 -15   22.75    4.99
   9   6 -14    3.02    1.99
   9  -6 -14    5.45    2.80
   9  -6 -14    0.24    1.10
   9   6 -13    4.38    2.36
   9  -6 -13    9.44    3.20
   9  -6 -13   14.24    3.43
   9   6 -12    4.44    1.89
   9  -6 -12    3.60    2.65
   9  -6 -12    1.26    0.92
   9   6 -11    0.05    1.93
   9  -6 -11    0.37    1.83
   9  -6 -11    1.21    0.85
   9   6 -10   21.41    4.11
   9  -6 -10   13.19    3.57
   9  -6 -10   19.37    4.51
   9   6  -9    1.47    1.03
   9  -6  -9    1.38    1.28
  -9   6  -9   -1.27    1.35
   9  -6  -9    3.88    2.17
   9   6  -8   26.33    4.57
  -9   6  -8   21.66    3.93
   9  -6  -8   23.01    4.52
   9  -6  -8   27.05    4.96
   9   6  -7   30.21    4.82
   9  -6  -7   22.48    4.32
   9  -6  -7   21.42    4.48
   9  -6  -6    0.03    1.56
   9   6  -6    0.03    0.85
   9  -6  -6    1.47    1.95
   9  -6  -5    2.02    1.50
   9   6  -5    4.54    2.03
   9  -6  -5    1.88    1.53
   9   6  -5    1.52    1.49
   9   6  -4    2.81    1.54
   9  -6  -4    7.13    2.48
   9   6  -4   10.62    3.03
   9  -6  -4    8.62    2.65
   9  -6  -3    3.14    1.99
   9   6  -3    0.41    1.62
   9   6  -3    1.63    1.01
   9  -6  -3    2.54    1.37
   9  -6  -2    6.79    2.86
   9   6  -2    1.93    1.18
   9   6  -2    0.98    1.09
   9  -6  -2    5.40    2.24
   9  -6  -1   23.33    4.27
   9   6  -1   31.98    4.54
   9  -6  -1   24.84    4.62
   9   6   0   21.81    4.09
   9   6   0   34.80    4.96
   9  -6   0   33.23    5.22
   9  -6   0   36.35    5.39
   9   6   1   32.34    4.98
   9   6   1   29.54    4.45
   9  -6   1   37.68    5.42
   9  -6   1   25.11    4.56
   9  -6   2    4.63    1.79
   9   6   2    6.47    2.23
   9   6   2    1.26    1.49
   9  -6   2    3.03    1.83
   9   6   3    2.66    2.37
   9  -6   3    1.69    1.00
   9   6   3    2.13    1.42
   9  -6   3    1.96    1.75
   9   6   4    5.97    2.39
   9  -6   4    8.74    2.81
   9   6   4    3.36    1.55
   9  -6   4   12.06    3.24
   9   6   5    1.77    0.84
   9  -6   5    2.49    1.36
   9   6   5    1.22    0.75
   9  -6   5    2.73    2.11
   9   6   6    0.41    1.36
   9  -6   6   -1.07    1.68
   9   6   6    0.55    0.61
   9  -6   6    1.06    1.17
   9   6   7   27.56    4.44
   9  -6   7   23.60    4.26
   9   6   7   18.86    3.84
   9  -6   7   27.12    4.85
   9   6   8   25.62    4.55
   9   6   8   31.92    5.11
   9  -6   8   29.17    4.70
   9  -6   8   32.91    5.25
   9   6   9    3.59    1.76
   9  -6   9    1.50    1.77
   9   6   9    2.45    2.35
   9  -6   9    3.67    2.31
   9   6  10   21.28    3.95
   9  -6  10   15.70    3.89
   9   6  10   14.62    3.42
   9  -6  10   17.03    3.88
   9   6  11   -0.83    2.03
   9  -6  11    0.88    1.75
   9   6  11    0.14    0.78
   9  -6  11    0.93    1.19
   9   6  12    4.00    1.65
   9  -6  12    5.19    2.71
   9   6  12    2.80    1.82
   9  -6  12    1.56    1.47
   9   6  13    5.85    1.66
   9   6  13    7.30    2.54
   9  -6  13    5.05    1.97
   9   6  14    4.03    2.83
   9  -6  14    7.78    2.82
   9   6  14    5.54    2.70
   9  -6  14    4.61    2.05
   9   6  15   15.12    4.17
   9  -6  15   13.19    3.08
   9   6  15   17.35    3.25
   9  -6  15   16.49    3.67
   9   6  16   13.53    3.82
   9  -6  16    3.55    1.66
   9   6  16   13.17    3.56
   9   6  17    6.18    2.49
   9   6  17    6.18    2.76
   9   6  18    4.71    3.14
   9   6  19    6.39    2.28
   9   6  20    0.93    1.91
   9   6  21    3.49    3.15
   9   6  22    7.29    3.57
   9   6  23   -2.84    2.43
   9  -7 -21   12.72    4.49
   9  -7 -21    4.33    3.16
   9  -7 -20    3.38    1.51
   9  -7 -20    2.90    2.09
   9  -7 -19    2.82    3.08
   9  -7 -19    1.43    1.65
   9  -7 -18    4.21    2.16
   9  -7 -18   -1.06    2.37
   9  -7 -17    9.78    3.01
   9  -7 -17   12.28    3.90
   9   7 -16    1.82    1.69
   9  -7 -16    3.39    2.57
   9  -7 -16    0.06    1.71
   9  -7 -15   45.89    6.75
   9  -7 -15   49.33    7.26
   9   7 -15   46.91    6.54
   9  -7 -14    3.12    1.63
   9   7 -14    2.06    1.94
   9  -7 -14    0.74    1.40
   9   7 -13    3.74    2.22
   9  -7 -13    2.16    1.55
   9  -7 -13    2.53    1.38
   9   7 -12    3.65    2.51
   9  -7 -12    3.46    1.06
   9  -7 -12    6.21    3.32
   9  -7 -11   66.18    7.55
   9  -7 -11   81.27    8.81
   9   7 -11   83.44    8.69
   9   7 -10   10.10    2.96
   9  -7 -10    7.31    2.69
   9  -7 -10   10.30    3.63
   9   7  -9   22.20    4.30
   9  -7  -9   19.94    4.17
   9  -7  -9   15.79    3.69
  -9   7  -8    2.58    1.67
   9  -7  -8    3.89    2.89
   9  -7  -8    4.96    2.52
   9   7  -7    2.30    1.24
  -9   7  -7    4.55    2.49
   9  -7  -7    1.29    1.58
   9  -7  -7    4.75    1.44
   9   7  -6   30.33    5.14
   9  -7  -6   32.84    5.58
  -9   7  -6   24.26    4.44
   9  -7  -6   18.43    4.01
   9   7  -5   90.71    8.61
   9  -7  -5   99.37    8.95
  -9   7  -5   79.84    8.09
   9  -7  -5  107.87    9.94
   9  -7  -4    2.90    1.71
   9   7  -4    5.35    2.90
   9   7  -4    2.08    0.80
  -9   7  -4    1.03    1.23
   9  -7  -4    2.47    1.89
   9  -7  -3    5.01    1.94
   9   7  -3   13.77    3.41
   9   7  -3    8.21    2.67
  -9   7  -3    4.72    2.50
   9  -7  -3    8.06    3.41
   9  -7  -2    0.85    1.02
   9   7  -2    2.21    1.83
   9   7  -2    0.29    1.13
   9  -7  -2   -1.05    1.40
   9   7  -1   60.35    7.05
   9   7  -1   64.40    7.19
   9  -7  -1   67.81    7.37
   9  -7  -1   62.26    7.29
   9   7   0  105.34    9.22
   9   7   0  116.25    9.36
   9  -7   0  105.90    9.14
   9  -7   0  106.84    9.64
   9   7   1   84.34    8.25
   9  -7   1   72.54    7.85
   9   7   1   68.37    7.22
   9  -7   2    3.77    2.96
   9   7   2    0.79    1.71
   9   7   2    0.77    1.75
   9  -7   2    0.49    1.09
   9  -7   3   12.20    3.53
   9   7   3   16.70    3.47
   9   7   3   10.62    2.83
   9  -7   3   10.25    2.60
   9  -7   4    0.08    1.55
   9   7   4   -0.99    1.42
   9   7   4    0.40    0.91
   9  -7   4    1.10    1.45
   9   7   5   89.51    8.93
   9   7   5   86.42    8.56
   9  -7   5   79.32    8.54
   9  -7   5   88.07    8.60
   9  -7   6   25.08    4.81
   9   7   6   23.78    4.83
   9   7   6   19.24    4.04
   9  -7   6   30.49    5.30
   9  -7   7    9.29    3.04
   9   7   7    8.42    2.92
   9   7   7    2.72    2.07
   9  -7   7    1.61    1.26
   9  -7   8    5.60    2.06
   9   7   8    7.75    2.88
   9   7   8    8.10    2.84
   9  -7   8    8.40    2.51
   9  -7   9   19.55    4.44
   9   7   9   21.21    3.96
   9   7   9   16.73    3.83
   9  -7   9   24.86    4.76
   9  -7  10    7.04    3.05
   9   7  10   11.98    3.57
   9   7  10   13.93    3.32
   9  -7  10   10.85    3.79
   9   7  11   59.36    7.30
   9   7  11   76.72    8.32
   9  -7  11   70.56    8.25
   9  -7  11   88.16    8.97
   9  -7  12   -1.56    1.31
   9   7  12    4.38    2.86
   9   7  12    2.11    1.18
   9  -7  12    7.45    2.67
   9  -7  13    3.47    2.40
   9   7  13    4.12    3.00
   9   7  13    1.60    1.75
   9  -7  14    0.92    2.54
   9   7  14    1.68    2.27
   9   7  14    4.79    3.14
   9   7  15   61.11    7.44
   9   7  15   52.22    6.97
   9  -7  15   62.39    7.84
   9   7  16   -0.53    1.79
   9   7  16    2.19    2.07
   9   7  17   11.78    2.99
   9   7  17    8.69    2.72
   9   7  18    1.96    1.37
   9   7  19   -0.13    1.24
  -9   7  19    1.58    2.10
   9   7  20    7.57    3.57
  -9   7  20    8.00    2.95
   9   7  21   15.84    4.44
  -9   7  21    8.68    3.16
   9  -8 -18    1.07    1.36
   9  -8 -18   -0.28    1.34
   9  -8 -17   -2.71    3.72
   9  -8 -17    1.34    1.45
   9  -8 -16   -0.60    1.36
   9  -8 -16   -0.74    1.68
   9   8 -15    2.25    2.48
   9  -8 -15    1.07    1.47
   9  -8 -15    0.58    1.67
   9   8 -14    0.57    2.12
   9  -8 -14    0.81    2.55
   9  -8 -14    0.44    1.68
   9   8 -13   -2.06    2.00
   9  -8 -13   -0.21    1.75
   9  -8 -13   -1.75    1.84
   9  -8 -12    1.04    1.56
   9   8 -12    2.32    2.31
   9  -8 -12   -0.28    1.85
   9   8 -11    0.22    1.54
   9  -8 -11    3.95    2.22
   9  -8 -11    0.77    1.17
   9   8 -10    6.99    3.07
   9  -8 -10    3.57    2.30
   9  -8 -10    5.81    2.78
   9   8  -9   -1.16    1.77
   9  -8  -9   -1.60    2.02
   9  -8  -9    0.56    1.55
   9   8  -8    2.41    1.72
   9  -8  -8    2.00    1.79
   9  -8  -8    3.78    2.24
   9   8  -7    6.39    2.67
  -9   8  -7    3.87    2.16
   9  -8  -7    4.78    2.42
   9  -8  -7    1.74    1.78
   9   8  -6   10.87    2.86
   9  -8  -6    9.78    3.15
   9  -8  -6   12.90    3.39
   9   8  -5    0.18    1.58
  -9   8  -5   -1.15    1.71
   9  -8  -5    1.40    1.52
   9  -8  -5   -1.45    2.11
   9   8  -4    3.08    1.93
  -9   8  -4    5.35    2.15
   9  -8  -4    5.34    2.16
   9  -8  -4    2.07    2.55
   9   8  -3    0.75    1.66
   9   8  -3   -1.50    1.15
  -9   8  -3    8.83    3.78
   9  -8  -3    3.67    1.88
   9  -8  -3    4.58    2.89
   9  -8  -2    6.40    2.93
   9   8  -2   10.17    3.74
   9   8  -2    8.19    2.30
  -9   8  -2   13.91    3.55
   9  -8  -2   14.95    4.07
   9  -8  -1    1.22    2.00
   9   8  -1   -0.54    1.88
   9   8  -1   -0.31    1.18
  -9   8  -1    3.12    1.72
   9  -8  -1    0.65    0.94
   9  -8   0    0.74    1.03
   9   8   0    0.18    1.50
  -9   8   0    2.39    1.28
   9  -8   0    0.55    1.70
   9   8   0    4.74    2.36
   9  -8   1    0.12    1.47
   9   8   1   -0.19    1.52
   9   8   1    3.85    2.16
  -9   8   1    0.08    1.87
   9  -8   1   -0.25    1.24
  -9   8   2   10.72    2.96
   9  -8   2   13.17    3.62
   9   8   2   10.06    2.71
   9   8   2   12.99    3.49
   9  -8   2    8.86    3.01
   9  -8   3    4.13    2.13
   9   8   3    3.22    2.76
  -9   8   3   -0.13    1.41
   9   8   3    1.71    1.23
   9  -8   3    7.24    3.31
   9  -8   4    0.80    0.90
   9   8   4    2.90    1.97
  -9   8   4    4.57    2.51
   9   8   4    6.36    1.83
   9  -8   4    6.06    2.20
   9  -8   5    3.89    1.49
   9   8   5   -0.35    0.88
  -9   8   5   -1.47    1.99
   9   8   5    0.18    1.83
   9  -8   5    0.67    1.35
   9  -8   6   12.11    3.73
   9   8   6    9.63    2.80
  -9   8   6   20.90    4.33
   9   8   6   14.10    3.89
   9  -8   6   11.19    3.51
   9  -8   7    6.72    3.01
   9   8   7    6.75    2.54
  -9   8   7    3.40    1.70
   9   8   7    5.83    2.96
  -9   8   8    2.62    2.94
   9  -8   8    2.64    1.20
   9   8   8    4.25    2.18
   9   8   8    4.03    2.30
   9  -8   9   -1.10    1.87
   9   8   9   -0.29    1.50
  -9   8   9    0.70    1.90
   9   8   9   -0.50    1.82
  -9   8  10    4.42    2.16
   9  -8  10    3.47    2.27
   9   8  10   -1.05    1.36
   9   8  10    2.46    1.14
   9  -8  11    5.95    2.34
   9   8  11    3.00    2.52
  -9   8  11    2.65    2.24
   9   8  11   -0.48    1.20
   9  -8  12   -1.26    2.24
   9   8  12    0.79    1.51
   9   8  12    1.49    2.25
  -9   8  12    3.19    2.69
   9  -8  13   -1.49    2.51
   9   8  13   -1.37    1.92
   9   8  13   -0.01    0.87
  -9   8  13    3.05    2.73
   9   8  14    2.62    1.73
   9   8  14    2.36    2.16
  -9   8  14    3.29    1.66
   9   8  15   -0.63    2.30
   9   8  15    0.54    0.98
  -9   8  15   -0.79    2.38
   9   8  16    1.98    1.68
   9   8  16   -2.11    2.15
  -9   8  16    2.25    1.66
   9   8  17   -1.28    2.72
   9   8  17    1.89    1.99
  -9   8  17   -1.21    1.16
   9   8  18    2.08    2.08
  -9   8  18    3.11    1.26
   9   9 -14    4.83    3.70
   9  -9 -14   -1.26    2.41
   9  -9 -14    2.77    2.40
   9   9 -13    2.46    2.27
   9  -9 -13   -0.82    2.74
   9  -9 -13    4.82    3.17
   9   9 -12    4.48    2.52
   9  -9 -12    1.22    1.38
   9  -9 -12    5.85    2.20
   9   9 -11   19.70    4.34
   9  -9 -11   13.48    3.29
   9  -9 -11   19.98    4.89
   9   9 -10   27.79    5.33
   9  -9 -10   24.79    5.11
   9  -9 -10   30.87    5.96
   9   9  -9   16.65    4.29
   9  -9  -9   11.61    4.25
   9  -9  -9   23.86    5.03
   9   9  -8    2.62    2.03
   9  -9  -8   -1.55    2.77
   9  -9  -8    0.42    1.08
   9   9  -7   15.30    4.02
   9  -9  -7   10.84    3.47
   9  -9  -7   14.39    3.90
   9   9  -6   10.38    2.86
  -9   9  -6    7.83    3.17
   9  -9  -6   17.74    4.36
   9  -9  -6   18.03    4.31
   9   9  -5   61.56    7.99
  -9   9  -5   59.96    7.69
   9  -9  -5   53.99    7.28
   9  -9  -5   56.71    7.44
   9   9  -4    1.41    1.65
  -9   9  -4    6.81    3.08
   9  -9  -4    0.93    2.33
   9  -9  -4    4.68    1.19
   9   9  -3    0.38    1.05
  -9   9  -3   -1.41    1.24
   9  -9  -3    2.57    2.76
   9  -9  -3   -0.27    1.14
   9   9  -2    0.73    1.31
  -9   9  -2    0.59    0.85
   9  -9  -2   -2.83    2.82
   9  -9  -2    0.54    1.43
   9   9  -1   30.95    5.62
   9   9  -1   17.98    4.19
  -9   9  -1   23.43    4.66
   9  -9  -1   24.72    5.34
   9  -9  -1   21.37    4.40
   9   9   0   38.57    6.17
  -9   9   0   30.29    5.25
   9   9   0   17.35    4.34
   9  -9   0   29.16    5.55
   9  -9   0   25.49    5.17
   9   9   1   27.96    5.40
  -9   9   1   30.93    5.62
   9   9   1   26.21    5.05
   9  -9   1   25.09    5.21
   9   9   2    0.86    1.14
  -9   9   2    2.09    2.26
   9   9   2   -0.56    1.13
   9  -9   2    1.24    1.45
   9   9   3   -0.27    1.35
  -9   9   3    0.91    2.00
   9   9   3    0.50    1.94
   9  -9   3    1.65    2.38
   9   9   4    5.21    3.05
  -9   9   4    5.36    2.70
   9   9   4    1.97    1.30
   9  -9   4    5.55    2.49
   9   9   5   46.90    6.93
  -9   9   5   49.35    6.96
   9   9   5   53.19    7.00
   9  -9   5   49.58    6.99
   9  -9   6   14.16    4.14
   9   9   6    9.17    2.78
  -9   9   6   16.05    4.00
   9   9   6   13.20    3.55
   9  -9   7   17.67    4.10
   9   9   7   12.85    3.44
  -9   9   7    9.16    4.37
   9   9   7    7.24    2.75
   9  -9   8    1.38    2.59
   9   9   8   -1.25    2.70
  -9   9   8    2.41    1.54
   9   9   8   -0.10    1.03
   9  -9   9   18.00    4.63
   9   9   9   17.02    4.15
  -9   9   9   18.98    4.65
   9   9   9    8.23    2.67
   9  -9  10   24.51    5.20
   9   9  10   26.51    5.54
   9   9  10   27.18    5.33
  -9   9  10   25.68    5.04
   9  -9  11   14.81    3.85
   9   9  11   21.22    4.65
  -9   9  11   22.31    5.63
   9   9  11   25.20    4.88
   9  -9  12    2.15    1.99
   9   9  12    1.98    1.70
  -9   9  12    5.80    2.77
   9   9  12    1.08    1.36
   9   9  13    0.98    1.44
  -9   9  13    1.54    2.14
   9   9  13   -0.61    1.38
   9   9  14   -2.00    2.11
   9   9  14    0.33    1.30
  -9   9  14    2.37    2.50
   9 -10  -9   13.89    4.06
   9 -10  -9   11.67    3.90
   9  10  -8   11.13    3.07
   9 -10  -8    7.46    1.88
   9 -10  -8   12.49    3.27
   9  10  -7   -0.58    1.74
   9 -10  -7    2.15    1.52
   9  10  -6   29.21    5.65
   9 -10  -6   36.01    6.07
   9  10  -5    9.88    3.27
  -9  10  -5    6.88    3.52
   9 -10  -5    7.25    2.80
   9  10  -4    0.34    1.17
  -9  10  -4    2.36    1.27
   9 -10  -4    1.93    1.51
   9  10  -3    0.46    2.22
  -9  10  -3    0.20    1.40
   9 -10  -3    0.33    1.61
   9  10  -2   14.60    4.00
  -9  10  -2   22.83    4.62
   9 -10  -2   17.07    4.39
   9  10  -1    3.77    1.07
  -9  10  -1   -0.43    1.58
   9 -10  -1    7.07    3.70
   9  10   0   43.96    6.57
  -9  10   0   42.40    6.94
   9 -10   0   36.24    6.06
   9  10   1    1.98    2.07
  -9  10   1    2.27    2.26
   9  10   1    1.00    0.91
   9 -10   1   -1.01    1.97
   9  10   2   18.33    4.94
  -9  10   2   18.98    4.80
   9  10   2   12.62    3.98
   9 -10   2   11.87    3.94
   9  10   3    1.07    1.75
  -9  10   3   -0.10    0.93
   9  10   3   -1.08    1.29
   9 -10   3    1.20    1.43
   9  10   4    2.97    2.46
  -9  10   4    2.88    1.38
   9  10   4    3.44    2.24
   9 -10   4    1.58    1.54
   9  10   5    6.88    3.32
  -9  10   5    7.49    3.27
   9  10   5    9.92    3.42
   9 -10   5    7.59    2.89
   9  10   6   28.89    5.48
  -9  10   6   40.36    6.39
   9  10   6   23.55    4.85
   9 -10   6   33.51    5.93
   9  10   7    2.59    2.18
  -9  10   7    3.25    1.43
   9  10   7    5.33    2.59
   9 -10   7    0.25    1.28
   9  10   8   11.34    4.12
  -9  10   8   12.63    3.65
   9  10   8   13.10    3.69
   9 -10   8   18.97    4.47
   9  10   9   22.32    4.99
  -9  10   9   13.48    4.25
   9  10   9   14.88    3.86
   9 -10   9   18.66    4.99
  10   0 -26   -6.04    2.25
  10   0 -25    2.90    2.26
  10   0 -24   17.76    4.56
  10   0 -23   41.21    6.24
  10   0 -22   26.61    5.00
  10   0 -21   49.83    6.64
  10   0 -20   13.60    3.79
  10   0 -19   32.61    5.28
  10   0 -18   85.94    8.49
  10   0 -17  116.73    9.71
  10   0 -16   52.90    6.48
  10   0 -15  127.43    9.58
  10   0 -14   59.66    6.36
  10   0 -13  121.11    9.24
  10   0 -12  148.60    9.00
  10   0 -12  134.85    9.52
  10   0 -11  133.52    8.63
  10   0 -11  135.18    9.31
  10   0 -10   56.36    6.12
  10   0 -10   59.80    5.79
  10   0  -9  120.60    8.14
  10   0  -9  111.33    8.56
  10   0  -8  130.92    8.39
  10   0  -8  123.55    8.60
  10   0  -7   80.22    6.55
  10   0  -7   82.02    7.06
  10   0  -7   79.74    6.78
  10   0  -6   30.71    4.11
  10   0  -6   34.18    4.57
  10   0  -6   37.32    4.79
  10   0  -5  116.45    7.85
  10   0  -5  122.51    8.52
  10   0  -5  127.47    8.52
  10   0  -4  173.60    9.56
  10   0  -4  175.54   10.13
  10   0  -3  142.70    8.78
  10   0  -3  151.34    9.33
  10   0  -3  155.55    9.14
  10   0  -2  114.43    7.84
  10   0  -2  106.04    7.77
  10   0  -2  114.17    7.91
  10   0  -1   60.52    5.83
  10   0  -1   65.72    6.07
  10   0  -1   52.97    5.20
  10   0   0    2.24    1.47
  10   0   0    0.08    0.88
  10   0   0    0.72    1.20
  10   0   1   47.05    5.16
  10   0   1   63.02    6.10
  10   0   1   54.61    5.33
  10   0   2   98.82    7.60
  10   0   2   86.66    6.65
  10   0   3  151.74    9.37
  10   0   3  147.34    8.54
  10   0   4  148.35    9.30
  10   0   4  168.60    9.35
  10   0   5  116.85    8.33
  10   0   5  115.53    7.69
  10   0   6   30.36    4.13
  10   0   6   32.28    3.94
  10   0   7   84.49    7.17
  10   0   7   75.55    6.04
  10   0   8  105.40    8.27
  10   0   8  116.13    7.59
  10   0   9  124.60    8.88
  10   0   9  113.80    7.32
  10   0  10   58.44    6.08
  10   0  10   58.26    5.26
  10   0  11  133.26    9.55
  10   0  11  125.82    7.73
  10   0  12  152.49   10.17
  10   0  12  160.40    8.69
  10   0  13  117.64    9.07
  10   0  14   63.77    6.89
  10   0  15  112.95    9.32
  10   0  16   46.56    6.21
  10   0  17  110.15    9.31
  10   0  18   96.10    8.73
  10   0  19   35.65    5.77
  10   0  20   29.90    5.24
  10   0  21   72.37    8.08
  10   0  22   23.82    4.79
  10   0  23   46.10    6.67
  10   0  24   21.47    4.56
  10  -1 -27   -0.67    2.12
  10  -1 -26    1.00    1.48
  10  -1 -25    1.65    1.82
  10  -1 -24    2.11    1.51
  10  -1 -23    1.54    1.95
  10  -1 -22    1.72    2.30
  10   1 -21    4.04    2.95
  10  -1 -21    4.08    1.79
  10   1 -20    0.58    1.54
  10  -1 -20    0.92    2.03
  10   1 -19    1.21    1.61
  10  -1 -19    4.96    1.90
  10  -1 -18    5.21    2.34
  10   1 -18    3.24    1.70
  10   1 -17    5.70    2.53
  10  -1 -17    4.92    2.56
  10   1 -16    1.21    1.73
  10  -1 -16    3.83    1.81
  10   1 -15    6.92    2.35
  10  -1 -15    5.78    2.79
  10  -1 -14    1.53    2.15
  10   1 -14   -0.34    1.09
  10  -1 -14    0.19    1.47
  10   1 -13   14.20    3.29
  10  -1 -13   17.18    3.06
  10  -1 -13   14.23    3.31
  10   1 -13   14.91    3.47
  10  -1 -12   13.19    2.78
  10  -1 -12   10.43    2.61
  10   1 -12   14.96    3.18
  10   1 -12   18.31    3.77
  10  -1 -11   -0.57    1.59
  10   1 -11    0.29    1.09
  10   1 -11   -0.73    0.57
  10  -1 -11   -0.24    1.11
  10   1 -11    1.36    1.14
  10  -1 -10    3.13    1.75
  10   1 -10    2.18    1.12
  10  -1 -10    3.00    2.17
  10   1 -10   -0.80    1.74
  10   1 -10    1.01    1.14
  10  -1  -9    3.52    1.52
  10   1  -9    3.46    0.55
  10  -1  -9    4.89    1.97
  10   1  -9    3.41    1.53
  10   1  -9   -0.29    1.21
  10  -1  -8    2.68    1.12
  10   1  -8    1.01    0.79
  10  -1  -8    0.81    1.65
  10   1  -8    0.82    1.44
  10   1  -8    1.81    1.62
  10   1  -7   21.37    3.22
  10  -1  -7   15.95    3.01
  10   1  -7   21.91    3.98
  10  -1  -7   14.99    2.97
  10   1  -7   15.11    3.04
  10   1  -6   13.41    2.92
  10  -1  -6   10.39    2.26
  10  -1  -6   10.84    2.88
  10   1  -6    8.13    2.39
  10   1  -6    6.39    1.76
  10  -1  -5    2.13    0.65
  10  -1  -5    1.49    1.37
  10   1  -5   -0.50    0.57
  10   1  -5    1.46    0.77
  10   1  -5    1.73    1.49
  10  -1  -4    1.90    0.85
  10  -1  -4    0.99    1.00
  10   1  -4    2.90    1.41
  10   1  -4    1.47    1.38
  10   1  -4    0.76    0.84
  10  -1  -3    4.03    1.57
  10  -1  -3    2.65    1.80
  10   1  -3    5.67    2.06
  10   1  -3    4.57    1.86
  10   1  -3    5.35    1.69
  10  -1  -2    3.26    1.64
  10  -1  -2    2.53    1.54
  10   1  -2    3.87    1.50
  10   1  -2    4.01    1.03
  10   1  -2    4.45    1.64
  10  -1  -1   14.48    3.10
  10   1  -1   19.04    3.29
  10  -1  -1   15.88    2.98
  10   1  -1   13.37    2.75
  10   1  -1   18.64    3.33
  10  -1   0   15.88    2.93
  10   1   0   14.50    2.93
  10   1   0   15.10    3.03
  10  -1   0    9.34    2.64
  10   1   0   14.19    2.74
  10  -1   1   17.43    3.07
  10   1   1   16.60    2.99
  10  -1   1   15.17    3.11
  10   1   1   14.72    2.86
  10   1   2    5.53    1.80
  10  -1   2    5.19    1.48
  10  -1   2    2.59    1.83
  10   1   2    3.23    1.03
  10   1   3    0.66    1.10
  10  -1   3    2.23    1.22
  10   1   3    4.16    1.64
  10   1   4    2.49    1.52
  10   1   4   -0.01    1.22
  10  -1   4    1.46    0.83
  10   1   5    0.29    0.50
  10   1   5    0.35    1.32
  10  -1   5    0.76    1.33
  10   1   6    9.61    2.35
  10   1   6    8.52    2.19
  10  -1   6    8.90    2.58
  10   1   7   18.98    3.49
  10   1   7   15.60    2.94
  10  -1   7   16.31    3.23
  10   1   8    2.39    1.24
  10   1   8    1.83    1.35
  10  -1   8    2.88    1.52
  10   1   9    0.99    1.35
  10  -1   9    6.76    1.63
  10   1   9    3.93    1.71
  10   1  10    1.79    1.34
  10  -1  10    3.00    1.66
  10   1  10    1.02    0.64
  10   1  11    1.23    1.81
  10  -1  11   -0.98    1.29
  10   1  11    0.31    1.11
  10   1  12   13.16    3.18
  10   1  12   12.71    2.71
  10  -1  12   17.58    3.43
  10   1  13   12.36    3.22
  10   1  13   10.83    2.39
  10  -1  13   16.71    3.27
  10   1  14    0.28    1.75
  10  -1  14    0.09    1.01
  10  -1  15    8.00    2.81
  10   1  15    8.41    2.89
  10   1  16    9.71    2.50
  10  -1  16    5.09    1.95
  10   1  17    7.25    2.65
  10  -1  17    1.93    2.05
  10   1  18   -0.83    1.64
  10  -1  18    2.80    1.90
  10   1  19    4.85    2.41
  10  -1  19    2.34    1.60
  10   1  20    0.77    1.54
  10  -1  20    2.39    1.72
  10   1  21    3.39    2.27
  10  -1  21    1.72    2.08
  10   1  22    1.42    1.89
  10  -1  22    0.11    1.72
  10   1  23    1.09    1.36
  10  -1  23    0.96    2.09
  10   1  24    1.45    1.44
  10   1  25    3.09    2.86
  10  -2 -26    5.88    3.26
  10  -2 -25   18.59    4.40
  10  -2 -24   17.64    4.74
  10  -2 -23    3.79    2.04
  10  -2 -22   12.21    3.51
  10  -2 -21   17.35    3.89
  10  -2 -20    7.99    2.94
  10  -2 -19   20.80    4.31
  10  -2 -18   45.36    6.25
  10  -2 -17   55.82    6.46
  10  -2 -16   16.52    3.76
  10   2 -16   26.17    4.76
  10   2 -15   72.79    7.05
  10  -2 -15   72.36    7.80
  10  -2 -15   78.42    7.42
  10   2 -15   63.90    6.82
  10   2 -14   50.80    5.87
  10  -2 -14   45.59    6.04
  10  -2 -14   44.15    5.74
  10   2 -14   61.30    6.42
  10   2 -13   41.57    5.19
  10  -2 -13   52.10    6.00
  10  -2 -13   49.03    5.83
  10   2 -13   52.50    5.88
  10   2 -12  126.86    8.67
  10  -2 -12  119.28    9.31
  10   2 -12  111.37    8.57
  10  -2 -12  105.13    8.58
  10   2 -11  194.46   10.74
  10  -2 -11  178.27   11.16
  10   2 -11  179.89   10.90
  10  -2 -11  181.90   10.93
  10   2 -10   59.62    5.43
  10   2 -10   58.11    5.97
  10  -2 -10   49.84    5.77
  10   2 -10   54.83    5.87
  10  -2 -10   45.56    5.43
  10   2  -9   96.83    6.79
  10  -2  -9   87.67    7.98
  10   2  -9  102.66    7.77
  10   2  -9   94.50    7.80
  10  -2  -9  101.69    8.23
  10  -2  -8  106.45    8.33
  10   2  -8  111.76    7.23
  10  -2  -8  112.89    8.78
  10   2  -8  103.73    7.66
  10   2  -8  104.37    8.21
  10  -2  -7   41.86    5.06
  10   2  -7   51.23    5.15
  10  -2  -7   44.77    5.59
  10   2  -7   43.19    4.87
  10   2  -7   45.16    5.21
  10  -2  -6   33.17    4.40
  10   2  -6   46.96    4.95
  10  -2  -6   52.29    5.93
  10   2  -6   49.82    5.41
  10   2  -6   48.80    5.44
  10  -2  -5  101.87    7.87
  10   2  -5  115.04    7.70
  10  -2  -5  128.46    9.21
  10   2  -5  122.36    8.16
  10   2  -5  118.99    8.38
  10  -2  -4   70.00    6.50
  10   2  -4   83.57    6.57
  10  -2  -4   78.38    7.26
  10   2  -4   82.40    6.67
  10   2  -4   80.66    6.97
  10  -2  -3  136.62    9.12
  10   2  -3  141.78    8.67
  10   2  -3  143.92    8.76
  10   2  -3  137.79    8.99
  10  -2  -3  137.70    9.60
  10  -2  -2  211.43   11.33
  10  -2  -2  234.33   12.26
  10   2  -2  217.10   10.87
  10   2  -2  207.55   10.64
  10   2  -2  229.73   11.53
  10  -2  -1  132.21    9.02
  10  -2  -1  141.12    9.54
  10   2  -1  138.49    8.67
  10   2  -1  138.63    8.67
  10   2  -1  138.36    8.84
  10  -2   0   27.58    4.22
  10  -2   0   42.83    5.24
  10   2   0   39.52    4.74
  10   2   0   39.53    4.78
  10  -2   1  156.56    9.74
  10  -2   1  146.65    9.74
  10   2   1  132.64    8.59
  10   2   1  138.11    8.95
  10  -2   2  215.98   11.48
  10  -2   2  224.48   12.02
  10   2   2  250.60   11.98
  10   2   2  216.92   11.04
  10  -2   3  149.57    9.59
  10  -2   3  144.23    9.58
  10   2   3  142.94    9.10
  10   2   3  145.71    9.14
  10  -2   4   83.36    7.29
  10  -2   4   84.34    7.45
  10   2   4   87.18    6.86
  10   2   4   81.94    7.02
  10  -2   5  123.50    8.82
  10   2   5  121.57    8.31
  10   2   5  129.33    8.83
  10  -2   6   51.77    5.76
  10   2   6   47.27    5.27
  10   2   6   43.64    5.25
  10  -2   7   51.47    5.88
  10   2   7   43.33    5.00
  10   2   7   56.88    6.26
  10   2   8  108.55    8.60
  10  -2   8  106.61    8.44
  10   2   8  101.18    7.55
  10   2   9  108.87    8.56
  10  -2   9   98.45    8.12
  10   2   9   92.21    7.27
  10   2  10   58.04    6.72
  10  -2  10   48.81    5.86
  10   2  10   43.68    4.98
  10   2  11  183.60   11.47
  10  -2  11  168.68   10.79
  10   2  11  175.16    9.91
  10   2  12  117.82    9.39
  10  -2  12  111.06    9.05
  10   2  12  105.48    7.76
  10   2  13   48.13    6.07
  10  -2  13   49.78    5.91
  10   2  13   49.74    5.20
  10   2  14   53.43    6.62
  10  -2  14   48.78    6.07
  10   2  14   52.65    5.70
  10   2  15   72.76    7.50
  10  -2  15   75.13    7.54
  10   2  16   25.53    4.66
  10  -2  16   20.80    4.07
  10  -2  17   48.35    6.40
  10   2  17   54.85    6.62
  10  -2  18   50.25    6.48
  10   2  18   49.63    6.43
  10   2  19   20.92    4.45
  10  -2  19   23.49    4.57
  10   2  20    6.36    3.12
  10  -2  20    3.85    0.87
  10   2  21   21.85    4.56
  10  -2  21   24.61    5.07
  10   2  22   14.26    3.99
  10  -2  22   10.77    3.03
  10   2  23    6.53    2.41
  10   2  24    9.65    3.27
  10   2  25   16.03    4.23
  10   2  26    3.73    2.29
  10  -3 -26    2.57    2.58
  10  -3 -25    1.89    1.70
  10  -3 -24    2.67    2.14
  10  -3 -23    3.50    2.89
  10  -3 -22    3.64    2.11
  10  -3 -21    3.75    2.53
  10  -3 -20   -0.28    1.36
  10  -3 -19   -1.33    2.52
  10   3 -19   -0.04    1.02
  10  -3 -18    2.56    2.08
  10   3 -18    0.51    1.31
  10  -3 -17   -0.36    1.59
  10   3 -17   -0.40    0.77
  10  -3 -16    7.13    2.75
  10   3 -16    8.24    2.56
  10  -3 -16    1.37    0.89
  10  -3 -15   -0.38    1.13
  10   3 -15    0.86    1.66
  10  -3 -15   -0.34    1.26
  10  -3 -14    1.18    1.03
  10  -3 -14    0.71    1.52
  10   3 -14   -0.75    1.20
  10  -3 -13    7.80    2.57
  10  -3 -13    3.57    2.50
  10   3 -13    7.99    2.27
  10  -3 -12    2.58    2.11
  10  -3 -12    2.30    0.85
  10   3 -12    3.75    1.75
  10  -3 -11    2.95    1.89
  10  -3 -11    0.41    1.40
  10   3 -11    4.53    1.54
  10   3 -10   15.17    3.18
  10  -3 -10   13.55    2.94
  10   3 -10    6.64    2.36
  10  -3 -10   13.77    3.34
  10   3  -9    2.19    1.49
  10  -3  -9    3.07    1.02
  10  -3  -9    4.54    1.84
  10   3  -9    3.80    1.82
  10   3  -8    0.46    1.17
  10  -3  -8   -0.91    1.54
  10  -3  -8   -0.74    1.08
  10   3  -8   -0.49    0.87
  10   3  -8   -0.55    1.12
  10   3  -7   14.45    3.25
  10   3  -7   12.76    2.80
  10  -3  -7   12.94    3.04
  10  -3  -7   16.14    2.98
  10   3  -7   14.84    2.58
  10   3  -6   12.54    2.85
  10   3  -6   10.99    2.26
  10  -3  -6   14.25    3.00
  10  -3  -6   12.61    3.01
  10   3  -6    8.77    2.48
  10   3  -5    0.87    0.69
  10   3  -5    0.76    0.91
  10  -3  -5    2.32    1.10
  10   3  -5    0.85    0.63
  10   3  -4   13.08    2.82
  10  -3  -4   17.44    3.53
  10   3  -4   12.26    2.56
  10  -3  -4   15.88    3.13
  10   3  -4   12.19    2.43
  10   3  -3    3.77    2.07
  10   3  -3    3.53    1.37
  10  -3  -3    1.69    1.35
  10  -3  -3    1.70    1.54
  10   3  -3    3.59    1.83
  10   3  -2    7.57    2.69
  10  -3  -2    3.43    1.36
  10   3  -2    4.25    1.84
  10  -3  -2    1.46    1.58
  10   3  -2    5.04    1.96
  10   3  -1    7.55    2.21
  10  -3  -1    6.81    2.04
  10   3  -1    9.02    2.38
  10  -3  -1    8.22    2.38
  10   3  -1    9.80    2.16
  10   3   0    8.83    2.89
  10  -3   0    7.43    1.56
  10   3   0    6.21    1.81
  10  -3   0    5.78    2.25
  10   3   1    7.11    2.21
  10  -3   1    8.03    2.31
  10   3   1    9.90    2.55
  10  -3   1    6.79    2.48
  10   3   2    7.07    2.30
  10  -3   2    3.90    1.82
  10   3   2    6.95    2.26
  10  -3   2   -0.22    1.39
  10   3   3    1.55    0.68
  10  -3   3    2.41    1.20
  10   3   3    2.59    1.79
  10  -3   3   -1.46    1.14
  10   3   4   15.23    3.32
  10  -3   4   12.13    3.23
  10   3   4   12.28    2.71
  10  -3   4   13.05    2.48
  10   3   5   -0.21    1.23
  10  -3   5    3.10    1.46
  10   3   5    0.01    0.89
  10  -3   5    2.08    1.69
  10   3   6    3.77    2.27
  10  -3   6   10.39    2.41
  10   3   6   12.65    2.85
  10  -3   6    9.91    2.36
  10   3   7   14.21    2.94
  10   3   7   18.63    3.56
  10  -3   7   14.06    3.30
  10   3   8   -0.15    1.44
  10  -3   8    3.08    1.79
  10   3   8    1.09    1.37
  10   3   9    4.77    2.33
  10  -3   9    2.99    1.87
  10   3   9    6.70    2.13
  10   3  10   11.84    2.75
  10  -3  10   13.85    3.20
  10   3  10   13.85    3.26
  10   3  11    2.29    1.57
  10  -3  11   -0.03    0.71
  10   3  11   -0.04    0.86
  10   3  12    7.29    2.01
  10  -3  12    6.26    2.16
  10   3  12    5.00    2.19
  10   3  13    9.83    2.78
  10  -3  13    7.21    2.00
  10   3  13    5.97    1.84
  10   3  14    0.18    0.80
  10  -3  14    0.05    1.48
  10   3  14   -0.20    1.13
  10   3  15   -2.16    2.15
  10  -3  15    0.83    0.82
  10   3  15    0.47    1.25
  10  -3  16    5.46    1.77
  10   3  16    5.03    2.21
  10  -3  17   -0.90    1.57
  10   3  17    2.04    1.27
  10  -3  18   -1.02    1.59
  10   3  18    3.80    2.23
  10   3  19    1.28    1.20
  10  -3  19    1.88    1.07
  10   3  20    0.21    1.36
  10  -3  20    0.50    1.31
  10   3  21   -1.05    1.79
  10   3  22    0.52    1.73
  10   3  23    1.36    1.79
  10   3  24   -0.45    1.46
  10   3  25    1.05    2.24
  10   3  26   -1.31    1.60
  10  -4 -25   13.76    4.30
  10  -4 -24   17.50    4.02
  10  -4 -23    2.67    2.30
  10  -4 -22    9.59    3.45
  10  -4 -21    9.30    2.81
  10  -4 -20    3.36    0.85
  10  -4 -19   11.15    3.28
  10   4 -19   24.96    5.39
  10  -4 -18   33.28    5.40
  10   4 -18   38.18    5.30
  10  -4 -17   20.94    4.56
  10  -4 -17   25.90    4.96
  10   4 -17   27.83    4.87
  10  -4 -16   19.63    4.00
  10  -4 -16   24.41    4.44
  10   4 -16   14.44    3.49
  10  -4 -15   34.17    5.51
  10  -4 -15   45.98    6.31
  10   4 -15   39.80    5.50
  10  -4 -14   38.57    5.62
  10  -4 -14   33.33    5.30
  10   4 -14   40.30    5.61
  10  -4 -13   38.07    5.72
  10  -4 -13   37.67    5.61
  10   4 -13   43.15    6.10
  10  -4 -12   78.51    7.88
  10  -4 -12   65.03    7.22
  10   4 -12   60.92    6.56
  10  -4 -11  108.88    9.16
  10  -4 -11  109.22    9.21
  10   4 -11  118.57    9.25
  10  -4 -10   41.32    5.44
  10  -4 -10   37.71    5.27
  10   4 -10   39.67    5.48
  10  -4  -9   41.99    5.64
  10  -4  -9   47.18    5.97
  10   4  -9   41.09    5.42
  10  -4  -8   69.08    7.34
  10  -4  -8   66.70    7.22
  10   4  -8   68.28    6.84
  10   4  -7   18.63    3.57
  10  -4  -7    9.70    2.67
  10   4  -7   18.65    3.19
  10  -4  -7   18.03    3.96
  10   4  -6   16.16    3.29
  10  -4  -6   27.44    4.58
  10   4  -6   19.38    3.16
  10  -4  -6   27.32    4.64
  10  -4  -5   77.11    7.55
  10   4  -5   75.49    6.47
  10   4  -5   69.00    6.83
  10  -4  -5   70.01    7.35
  10  -4  -4   33.86    4.83
  10   4  -4   37.35    4.86
  10   4  -4   35.46    4.49
  10  -4  -4   31.05    4.80
  10  -4  -3   42.08    5.57
  10   4  -3   39.78    5.01
  10  -4  -3   33.50    5.08
  10   4  -3   35.31    4.34
  10   4  -3   35.22    4.87
  10  -4  -2  126.82    9.31
  10   4  -2  115.34    8.29
  10  -4  -2  137.62   10.10
  10   4  -2  136.52    8.40
  10   4  -2  121.64    9.05
  10  -4  -1  108.01    8.74
  10   4  -1  112.13    8.34
  10  -4  -1  112.47    9.16
  10   4  -1  101.47    8.28
  10  -4   0   77.64    7.44
  10   4   0   66.08    6.45
  10  -4   0   66.72    6.97
  10   4   0   74.71    7.15
  10   4   1  121.88    8.93
  10  -4   1  115.73    8.85
  10   4   1  123.73    8.87
  10  -4   1  101.71    8.66
  10   4   2  128.48    9.32
  10  -4   2  135.79    9.94
  10   4   2  124.74    8.94
  10  -4   2  138.23    9.89
  10   4   3   30.96    4.46
  10  -4   3   35.08    5.01
  10   4   3   30.57    4.55
  10  -4   3   36.88    4.83
  10   4   4   33.88    4.75
  10   4   4   33.75    4.82
  10  -4   4   26.71    4.32
  10   4   5   80.17    7.42
  10  -4   5   76.24    7.41
  10   4   5   84.88    7.61
  10  -4   5   67.52    7.16
  10   4   6   28.81    4.43
  10  -4   6   24.33    4.12
  10   4   6   26.46    4.51
  10  -4   6   19.57    3.94
  10   4   7   14.72    3.44
  10  -4   7   18.22    3.63
  10  -4   7   14.61    3.31
  10   4   7   13.00    2.89
  10   4   8   65.27    6.78
  10  -4   8   52.78    6.42
  10   4   8   63.20    6.86
  10  -4   8   64.41    6.87
  10   4   9   51.29    6.17
  10  -4   9   37.78    5.42
  10   4   9   49.87    5.86
  10   4  10   35.39    5.19
  10  -4  10   46.19    5.98
  10   4  10   40.66    5.45
  10   4  11  108.47    8.88
  10  -4  11  110.78    9.25
  10   4  11   88.61    8.46
  10   4  12   68.17    7.11
  10  -4  12   59.06    6.70
  10   4  12   45.78    5.82
  10   4  13   43.86    5.75
  10  -4  13   35.73    5.27
  10   4  13   32.88    5.23
  10   4  14   37.75    5.63
  10  -4  14   40.32    5.78
  10   4  14   44.99    6.14
  10   4  15   36.90    5.31
  10   4  15   43.35    6.31
  10  -4  15   47.84    6.23
  10  -4  16   15.17    3.98
  10   4  16   17.42    3.81
  10   4  17   28.44    4.89
  10  -4  17   28.55    5.02
  10   4  18   44.33    6.23
  10  -4  18   35.75    5.91
  10  -4  19   15.84    4.52
  10   4  19   10.78    3.23
  10   4  20    4.71    1.96
  10   4  21   10.16    2.37
  10   4  22    6.27    2.57
  10   4  23    1.00    1.04
  10   4  24   10.20    3.65
  10   4  25   13.23    3.44
  10  -5 -23   -0.26    1.11
  10  -5 -22   -0.85    1.04
  10  -5 -21    3.62    2.15
  10  -5 -20   -0.01    0.80
  10  -5 -19    1.80    1.99
  10  -5 -18   -0.64    1.89
  10  -5 -18   -0.30    1.33
  10   5 -18   -0.54    1.16
  10  -5 -17    0.38    1.16
  10  -5 -17    0.91    2.26
  10   5 -17    0.99    2.35
  10   5 -16    9.51    3.24
  10  -5 -16    2.16    1.26
  10  -5 -16    9.32    3.52
  10   5 -15   10.93    2.86
  10  -5 -15    8.33    3.19
  10  -5 -15    8.45    2.27
  10   5 -14    5.82    2.38
  10  -5 -14    2.24    2.06
  10  -5 -14    5.07    2.42
  10   5 -13    0.85    1.63
  10  -5 -13   -0.61    1.79
  10  -5 -13   -0.51    1.33
  10   5 -12    0.82    0.75
  10  -5 -12    1.22    2.51
  10  -5 -12    3.48    2.06
  10  -5 -11    1.63    1.26
  10   5 -11    2.44    1.64
  10  -5 -11    0.75    1.57
  10  -5 -10    7.64    2.54
  10   5 -10    8.36    2.67
  10  -5 -10    6.88    2.84
  10  -5  -9    1.21    1.55
  10   5  -9    2.41    2.28
  10  -5  -9    1.90    1.21
  10   5  -8   11.22    3.00
  10  -5  -8   15.61    3.49
  10  -5  -8   12.93    3.50
  10   5  -7   12.14    3.10
  10  -5  -7    9.38    3.01
  10  -5  -7    5.73    2.57
  10   5  -6    2.68    1.55
  10  -5  -6    2.41    1.53
  10   5  -6    3.06    1.58
  10  -5  -6    2.65    1.50
  10   5  -5    5.51    1.88
  10  -5  -5    4.68    1.91
  10   5  -5    5.21    1.97
  10  -5  -5    5.00    1.86
  10   5  -4   17.94    3.58
  10  -5  -4   15.45    3.36
  10   5  -4   19.10    3.39
  10  -5  -4   16.44    3.89
  10   5  -3   11.29    3.04
  10  -5  -3   14.61    3.43
  10  -5  -3    7.55    2.76
  10   5  -3    9.64    2.50
  10   5  -2   25.07    4.40
  10   5  -2   18.76    3.51
  10  -5  -2   17.77    3.90
  10  -5  -2   22.03    4.22
  10   5  -1   73.31    7.47
  10   5  -1   58.97    6.24
  10  -5  -1   57.01    6.77
  10  -5  -1   62.87    7.12
  10   5   0   41.57    5.56
  10   5   0   37.89    5.07
  10  -5   0   32.53    5.34
  10  -5   0   37.43    5.73
  10  -5   1   65.11    7.08
  10   5   1   62.97    6.95
  10   5   1   66.34    6.74
  10  -5   1   68.54    7.22
  10   5   2   23.72    4.05
  10  -5   2   21.72    4.11
  10   5   2   25.87    4.44
  10  -5   2   22.35    4.30
  10   5   3    6.07    1.96
  10   5   3    9.82    2.77
  10  -5   3    7.00    2.67
  10  -5   3    8.42    2.70
  10   5   4   27.47    4.52
  10  -5   4   20.16    3.94
  10   5   4   20.43    3.85
  10  -5   4   16.97    3.43
  10   5   5    2.55    1.83
  10   5   5    6.96    1.98
  10  -5   5    4.67    2.07
  10  -5   5    8.05    2.44
  10   5   6    3.94    1.72
  10   5   6    3.66    1.03
  10  -5   6    5.06    2.17
  10  -5   6    3.57    2.13
  10   5   7    9.94    2.89
  10   5   7   10.00    2.88
  10  -5   7   11.05    3.04
  10  -5   7   10.82    3.15
  10   5   8   20.93    3.81
  10   5   8   15.21    3.55
  10  -5   8   13.35    3.64
  10  -5   8    9.84    3.68
  10   5   9    1.99    0.65
  10   5   9    3.52    1.54
  10  -5   9    2.26    2.24
  10  -5   9    1.53    1.48
  10   5  10    9.96    2.61
  10   5  10    8.48    2.94
  10  -5  10    9.64    2.89
  10   5  11    2.70    1.50
  10   5  11    7.40    2.63
  10  -5  11    3.97    1.54
  10  -5  11    2.15    1.28
  10   5  12    1.94    2.28
  10   5  12    2.59    1.81
  10  -5  12    0.11    0.97
  10  -5  12    2.74    1.55
  10   5  13   -0.27    0.98
  10   5  13   -0.88    1.66
  10  -5  13    0.82    1.47
  10   5  14    8.67    2.80
  10   5  14    3.24    1.46
  10  -5  14    6.32    2.72
  10   5  15    8.35    2.98
  10   5  15   10.92    3.60
  10  -5  15    5.82    1.82
  10   5  16    8.05    2.83
  10   5  16    9.41    2.55
  10  -5  16    4.43    1.58
  10  -5  17    0.44    1.65
  10   5  17    0.07    1.32
  10  -5  18   -0.19    1.41
  10   5  18    0.32    1.78
  10   5  19    2.72    2.38
  10   5  20    3.11    2.31
  10   5  21    2.42    1.62
  10   5  22    1.31    1.96
  10   5  23    2.46    2.35
  10  -6 -22    9.82    3.44
  10  -6 -21   19.13    4.49
  10  -6 -20   19.41    4.90
  10  -6 -20   -0.01    1.13
  10  -6 -19   10.32    3.75
  10  -6 -19    8.63    2.99
  10  -6 -18   21.43    5.03
  10  -6 -18    7.99    3.07
  10   6 -17   19.81    3.81
  10  -6 -17   25.98    4.98
  10  -6 -17   14.85    4.35
  10   6 -16   22.02    4.47
  10  -6 -16   18.32    4.22
  10  -6 -16   24.12    4.93
  10  -6 -15   46.35    6.62
  10  -6 -15   33.42    5.59
  10   6 -15   43.38    5.94
  10  -6 -14   34.26    5.57
  10  -6 -14   30.53    5.41
  10   6 -14   27.11    5.29
  10  -6 -13   19.53    4.10
  10  -6 -13   28.17    5.06
  10   6 -13   29.49    5.10
  10   6 -12   20.85    4.15
  10  -6 -12   20.43    4.70
  10  -6 -12   16.39    4.07
  10   6 -11   21.46    4.28
  10  -6 -11   22.96    4.53
  10  -6 -11   15.51    4.25
  10   6 -10   18.41    4.14
  10  -6 -10   19.29    4.14
  10  -6 -10   19.54    3.97
  10   6  -9   22.20    4.16
  10  -6  -9   32.29    5.35
  10  -6  -9   27.05    4.71
  10  -6  -8   34.22    5.57
  10  -6  -8   34.18    5.23
  10   6  -8   30.12    5.23
  10  -6  -7   15.25    3.71
  10   6  -7   15.28    3.64
  10  -6  -7    6.15    2.60
  10  -6  -6   14.08    3.78
  10   6  -6   16.08    3.39
  10  -6  -6   18.22    4.42
  10   6  -5   49.70    6.33
  10   6  -5   49.75    6.25
  10  -6  -5   45.50    6.00
  10  -6  -5   46.84    6.11
  10   6  -4   37.63    5.55
  10   6  -4   26.50    4.20
  10  -6  -4   23.07    4.75
  10  -6  -4   32.34    5.38
  10  -6  -3    4.07    1.82
  10   6  -3    0.88    1.54
  10  -6  -3    1.82    1.10
  10   6  -3    2.85    1.81
  10   6  -2   21.08    4.38
  10  -6  -2   21.28    4.14
  10  -6  -2   25.25    4.58
  10   6  -2   17.06    3.66
  10   6  -1   51.88    6.56
  10   6  -1   55.08    6.27
  10  -6  -1   62.13    6.91
  10  -6  -1   43.78    6.07
  10   6   0   61.42    7.20
  10   6   0   48.66    5.92
  10  -6   0   50.71    6.49
  10  -6   0   53.19    6.65
  10   6   1   65.30    7.01
  10   6   1   47.66    6.00
  10  -6   1   53.39    6.56
  10  -6   1   53.08    6.52
  10   6   2   21.23    3.89
  10  -6   2   23.18    4.47
  10   6   2   18.46    3.99
  10  -6   2   25.15    4.84
  10   6   3    1.11    1.41
  10   6   3    1.02    1.10
  10  -6   3    4.66    1.98
  10  -6   3    1.72    0.97
  10   6   4   32.93    5.21
  10   6   4   20.18    3.91
  10  -6   4   23.93    4.88
  10  -6   4   35.98    5.47
  10   6   5   36.82    5.58
  10   6   5   43.87    5.72
  10  -6   5   49.12    6.43
  10  -6   5   50.49    6.34
  10   6   6    8.87    2.40
  10   6   6   17.93    3.80
  10  -6   6   15.32    3.57
  10   6   7    8.95    3.09
  10   6   7    6.49    2.25
  10  -6   7   12.21    3.02
  10  -6   7    8.10    3.12
  10  -6   8   36.67    5.67
  10   6   8   30.69    5.44
  10   6   8   37.98    5.55
  10  -6   8   31.37    5.45
  10  -6   9   23.88    5.21
  10   6   9   26.94    5.12
  10   6   9   30.13    5.12
  10  -6   9   27.05    4.75
  10   6  10   21.61    4.39
  10  -6  10   22.41    4.82
  10   6  10   29.63    5.01
  10  -6  10   19.50    4.61
  10   6  11   24.33    4.46
  10   6  11   20.74    4.21
  10  -6  11   20.07    4.32
  10  -6  11   21.41    4.79
  10   6  12   19.85    4.25
  10   6  12   22.63    4.21
  10  -6  12   13.17    3.08
  10  -6  12   14.88    3.48
  10   6  13   17.66    4.29
  10  -6  13   20.12    4.66
  10  -6  13   28.76    5.15
  10  -6  14   30.61    5.39
  10   6  14   29.16    5.04
  10   6  14   30.93    4.95
  10  -6  14   36.15    6.10
  10  -6  15   51.43    7.08
  10   6  15   46.92    6.95
  10  -6  15   52.62    7.53
  10   6  16   19.82    4.46
  10   6  16   20.90    4.93
  10  -6  16   21.98    4.96
  10  -6  16   25.60    5.24
  10   6  17   10.32    2.73
  10   6  18   14.55    4.19
  10   6  19    5.94    1.85
  10   6  20   10.02    2.80
  10   6  21   21.33    4.57
  10   6  22   14.94    3.95
  10  -7 -20    3.16    2.86
  10  -7 -20    6.87    2.69
  10  -7 -19   -2.64    2.17
  10  -7 -19    2.50    1.28
  10  -7 -18    5.76    3.60
  10  -7 -18    4.58    2.69
  10   7 -17   -0.52    2.29
  10  -7 -17    0.16    1.87
  10  -7 -17    0.25    1.25
  10   7 -16    3.46    2.74
  10  -7 -16    0.25    2.35
  10  -7 -16    3.60    2.09
  10   7 -15    2.18    1.57
  10  -7 -15    5.05    3.08
  10  -7 -15    3.09    1.60
  10   7 -14    6.11    2.80
  10  -7 -14    8.10    2.70
  10  -7 -14    6.06    2.88
  10   7 -13    2.46    1.33
  10  -7 -13    3.77    2.48
  10  -7 -13    0.58    1.34
  10   7 -12   -0.02    1.95
  10  -7 -12    6.89    2.31
  10  -7 -12    5.11    2.25
  10   7 -11    7.67    2.42
  10  -7 -11   15.69    3.74
  10  -7 -11   11.22    3.71
  10  -7 -10   16.53    3.90
  10  -7 -10   16.55    4.29
  10   7 -10   22.58    4.86
  10   7  -9   12.49    3.26
  10  -7  -9   12.25    3.68
  10  -7  -9    8.33    3.04
  10   7  -8    8.78    2.52
  10  -7  -8    7.81    2.16
  10  -7  -8    5.55    2.24
  10  -7  -7    0.30    1.40
  10   7  -7    0.40    1.29
 -10   7  -7   -1.26    1.07
  10  -7  -7    2.21    1.77
  10  -7  -6    9.11    3.23
  10   7  -6    4.34    2.53
 -10   7  -6    3.26    2.62
  10  -7  -6    7.13    2.74
  10  -7  -5    0.82    2.15
  10   7  -5    3.63    2.02
 -10   7  -5    3.50    1.99
  10  -7  -5    2.49    1.63
  10  -7  -4    2.08    1.78
  10   7  -4    2.30    1.65
  10  -7  -4    2.44    1.23
  10   7  -3    1.14    0.70
  10  -7  -3    2.88    1.03
  10   7  -2    2.61    2.08
  10   7  -2    4.26    1.75
  10  -7  -2    6.61    2.84
  10  -7  -1   18.21    3.83
  10   7  -1   19.52    4.11
  10   7  -1   20.61    4.17
  10  -7  -1   24.27    4.25
  10  -7   0    3.90    1.95
  10   7   0    5.47    2.35
  10   7   0    8.10    2.68
  10  -7   0    4.00    1.99
  10  -7   1   22.74    4.26
  10   7   1   21.92    4.57
  10   7   1   16.42    3.65
  10  -7   1   16.45    3.75
  10  -7   2    5.30    2.94
  10   7   2    6.14    3.30
  10   7   2    7.00    2.78
  10  -7   2    9.39    2.74
  10  -7   3    4.43    2.12
  10   7   3    2.17    1.66
  10   7   3    3.57    1.96
  10  -7   3    3.53    1.98
  10  -7   4    4.62    2.70
  10   7   4    2.58    1.76
  10   7   4    1.58    0.84
  10  -7   4    3.54    1.77
  10  -7   5    2.15    1.75
  10   7   5    2.68    1.46
  10   7   5    3.80    1.88
  10  -7   5    2.41    2.61
  10  -7   6    1.83    1.51
  10   7   6    4.19    1.28
  10   7   6    5.93    2.13
  10  -7   6    3.80    2.50
  10  -7   7    2.03    1.54
  10   7   7   -0.68    0.97
  10   7   7    0.88    0.82
  10  -7   7   -0.30    2.55
  10  -7   8   13.42    3.38
  10   7   8   11.88    3.60
  10   7   8   13.85    3.33
  10  -7   8   11.93    4.16
  10  -7   9    8.83    3.14
  10   7   9   15.96    3.77
  10   7   9   13.04    3.37
  10  -7   9   15.15    3.96
  10  -7  10    8.98    3.08
  10   7  10   14.35    4.16
  10   7  10   18.46    4.04
  10  -7  10    9.37    3.34
  10  -7  11   11.57    3.06
  10   7  11   13.76    3.39
  10   7  11   10.70    3.12
  10  -7  11   19.51    4.65
  10   7  12    5.37    2.11
  10  -7  12    2.08    1.99
  10   7  12    3.42    2.01
  10  -7  12    5.46    2.43
  10   7  13    1.14    2.21
  10  -7  13    2.34    1.28
  10   7  13    4.76    1.68
  10  -7  13    0.48    1.25
  10   7  14    6.36    2.85
  10  -7  14    4.19    2.51
  10   7  14    7.31    2.22
  10   7  15   -0.76    1.20
  10  -7  15   -0.79    1.41
  10   7  15    2.55    1.43
  10   7  16   10.00    2.95
  10   7  16    7.62    2.97
  10   7  17    3.74    2.40
  10   7  18    5.80    2.74
  10   7  19    3.00    1.98
  10   7  20    1.46    1.81
  10  -8 -17    2.38    2.32
  10  -8 -17    2.08    1.86
  10   8 -16    7.34    3.96
  10  -8 -16    7.12    2.36
  10   8 -15   14.88    3.65
  10  -8 -15    8.89    3.32
  10  -8 -15    9.78    3.50
  10   8 -14   11.46    3.96
  10  -8 -14   14.08    4.38
  10  -8 -14   15.96    4.65
  10   8 -13    1.68    2.18
  10  -8 -13    0.99    1.36
  10   8 -12   15.80    4.19
  10  -8 -12   12.56    3.35
  10  -8 -12   10.52    3.79
  10   8 -11    1.25    0.97
  10  -8 -11    6.14    3.06
  10   8 -10    5.97    2.56
  10  -8 -10   11.65    3.27
  10  -8 -10    7.40    2.17
  10   8  -9   18.99    4.00
  10  -8  -9   19.46    4.11
  10   8  -8   26.92    5.27
  10  -8  -8   32.15    5.55
  10  -8  -8   27.93    5.58
  10   8  -7    6.40    3.26
 -10   8  -7    1.18    2.52
  10  -8  -7    5.40    3.35
  10  -8  -7    5.51    2.35
  10   8  -6   26.36    5.18
 -10   8  -6   27.00    5.41
  10  -8  -6   30.66    5.50
  10  -8  -6   34.61    5.73
  10   8  -5   22.67    5.04
 -10   8  -5   41.63    6.45
  10  -8  -5   42.57    6.81
  10  -8  -5   30.08    5.25
  10   8  -4   20.34    3.99
 -10   8  -4   31.35    5.54
  10  -8  -4   40.37    6.40
  10  -8  -4   31.70    5.17
  10   8  -3    6.69    2.29
 -10   8  -3    6.60    2.65
  10  -8  -3    2.23    1.40
  10  -8  -2    3.18    1.57
  10   8  -2    4.57    2.62
  10   8  -2    3.72    1.89
  10  -8  -2   -0.22    1.75
 -10   8  -2    8.91    2.90
  10  -8  -1    3.95    1.24
  10   8  -1    2.38    1.98
  10   8  -1    7.03    2.58
 -10   8  -1    9.19    3.12
  10  -8  -1    9.66    3.59
  10  -8   0   21.58    4.60
  10   8   0   22.40    4.48
  10   8   0   11.91    3.43
 -10   8   0    8.30    2.45
  10  -8   0   11.35    3.20
  10  -8   1   10.81    2.94
  10   8   1   12.09    3.84
  10   8   1   12.33    3.43
 -10   8   1    7.81    3.28
  10  -8   1   11.29    3.25
  10  -8   2   11.46    3.42
  10   8   2    6.66    2.96
  10   8   2    6.02    2.13
 -10   8   2    3.00    1.66
  10  -8   2    7.25    2.61
  10  -8   3   13.53    4.16
  10   8   3   14.38    2.96
  10   8   3    7.28    3.07
  10  -8   3   12.05    3.60
 -10   8   3   12.83    3.50
  10   8   4   40.77    6.04
  10   8   4   21.39    4.45
 -10   8   4   15.84    3.96
  10  -8   4   32.66    5.41
  10  -8   4   45.03    6.44
  10   8   5   37.86    5.61
  10   8   5   36.56    6.03
  10  -8   5   26.15    5.28
  10  -8   5   32.57    5.92
  10  -8   6   22.77    4.53
  10   8   6   19.63    4.29
  10   8   6   33.10    5.53
  10  -8   6   17.24    4.40
  10  -8   7    8.88    2.37
  10   8   7    8.01    2.71
  10   8   7    3.54    2.01
  10  -8   7    7.75    3.99
  10  -8   8   21.26    4.87
  10   8   8   25.03    4.59
  10   8   8   20.56    4.38
  10  -8   9   18.40    4.39
  10   8   9    8.65    3.59
  10   8   9   19.24    4.60
  10  -8  10    6.30    2.47
  10   8  10    4.92    3.36
  10   8  10    4.04    2.74
  10  -8  11    9.44    3.00
  10   8  11   14.70    4.20
  10   8  11    9.25    2.82
  10  -8  12    5.83    2.37
  10   8  12    5.60    2.98
  10   8  12    8.13    2.75
  10  -8  13    8.58    3.08
  10   8  13    9.61    4.17
  10   8  13    3.36    1.96
 -10   8  13    4.63    2.28
  10   8  14   17.32    4.33
  10   8  14   10.49    3.24
 -10   8  14   12.49    4.31
  10   8  15   14.78    3.33
 -10   8  15    9.86    3.36
  10   8  16    3.25    2.94
  10   8  16    0.57    1.88
 -10   8  16    6.74    3.26
  10   8  17    0.92    2.20
 -10   8  17    2.92    2.47
  10   9 -13   -0.81    1.26
  10  -9 -13   -0.90    1.98
  10  -9 -13    0.54    1.26
  10   9 -12    1.82    1.49
  10  -9 -12    1.58    1.76
  10  -9 -12    0.92    1.16
  10   9 -11    0.93    1.57
  10  -9 -11    2.53    2.74
  10  -9 -11    2.43    1.12
  10   9 -10    7.28    3.07
  10  -9 -10    9.23    2.81
  10  -9 -10    6.35    2.32
  10   9  -9   -1.19    1.56
  10  -9  -9    4.68    1.91
  10  -9  -9    1.76    1.54
  10   9  -8    1.10    1.73
  10  -9  -8    0.71    1.61
  10  -9  -8    2.19    1.81
  10   9  -7    6.97    3.29
  10  -9  -7    4.63    2.80
  10  -9  -7   -1.89    2.52
  10   9  -6    1.43    1.22
  10  -9  -6   -2.07    1.23
  10  -9  -6    4.07    2.58
  10   9  -5   -0.21    1.16
 -10   9  -5    0.52    1.13
  10  -9  -5   -0.76    1.27
  10  -9  -5    3.55    1.86
  10   9  -4   10.84    3.57
 -10   9  -4    2.29    1.44
  10  -9  -4    1.21    1.85
  10  -9  -4    7.54    3.60
  10   9  -3   -2.27    1.79
  10  -9  -3    1.04    1.28
  10  -9  -3    1.04    1.50
  10   9  -2    2.60    1.83
 -10   9  -2   -2.23    2.78
  10  -9  -2    0.43    1.24
  10  -9  -2    4.21    2.71
  10   9  -1    0.38    1.58
 -10   9  -1    8.19    3.42
  10  -9  -1    7.11    3.18
  10  -9  -1    4.14    1.85
  10   9   0    3.54    2.01
  10   9   0    2.13    1.29
 -10   9   0   11.21    3.21
  10  -9   0    7.12    2.80
  10  -9   0    6.91    2.91
  10   9   1    4.55    2.98
  10   9   1   -0.01    1.26
  10  -9   1    1.64    2.27
  10  -9   1    3.26    2.35
  10  -9   2    0.68    1.55
  10   9   2    0.74    2.00
  10   9   2   -0.26    1.49
 -10   9   2   -1.99    1.45
  10  -9   3    0.15    1.57
  10   9   3    1.17    1.61
  10   9   3    1.31    1.02
 -10   9   3    3.41    1.67
  10  -9   4    3.78    2.00
  10   9   4    0.02    1.20
  10   9   4    4.49    2.92
  10  -9   5   -1.08    1.56
  10   9   5   -0.63    1.20
  10   9   5    3.55    2.66
 -10   9   5   -1.93    2.41
  10  -9   6   -0.14    1.22
  10   9   6    2.93    2.26
  10   9   6   -0.83    1.63
 -10   9   6    3.97    3.05
  10  -9   7    2.69    2.41
  10   9   7    1.96    2.24
  10   9   7    3.99    2.66
 -10   9   7   -0.27    1.41
  10  -9   8    2.51    2.20
  10   9   8    1.56    1.49
 -10   9   8   -1.32    2.08
  10  -9   9    4.34    3.23
  10   9   9   -1.05    2.37
  10   9   9    1.02    1.51
 -10   9   9    2.23    2.38
  10  -9  10    2.36    2.26
  10   9  10   -0.10    1.53
  10   9  10    4.82    1.50
 -10   9  10    4.26    1.88
  10  -9  11    3.08    3.42
  10   9  11    0.48    1.22
  10   9  11    2.33    2.13
 -10   9  11    2.03    1.10
 -10   9  12   -0.82    1.03
  10  -9  12    5.42    3.44
  10   9  12    1.09    1.84
  10   9  12    2.18    2.09
  10   9  13    1.78    2.04
  10   9  13    0.91    1.49
 -10   9  13    3.06    3.09
  10  10  -6    7.76    2.80
  10 -10  -6    6.15    1.96
  10  10  -5    5.21    2.68
  10 -10  -5    2.97    2.94
  10  10  -4    4.80    1.94
 -10  10  -4    9.27    3.04
  10 -10  -4    9.86    3.67
  10  10  -3    0.70    1.30
 -10  10  -3    3.21    2.96
  10 -10  -3   -0.18    1.03
  10  10  -2   15.92    4.24
 -10  10  -2    8.44    3.39
  10 -10  -2   11.01    3.72
  10  10  -1   -0.63    1.73
  10 -10  -1   -0.07    1.28
  10  10   0   -0.92    1.27
 -10  10   0    0.84    1.65
  10 -10   0    3.08    2.43
  10  10   1    1.27    1.08
 -10  10   1    0.53    1.33
  10 -10   1    2.77    2.89
  10  10   2    7.33    2.73
  10  10   2    4.47    2.75
 -10  10   2   14.37    4.31
  10 -10   2    8.75    3.09
  10  10   3   -1.85    2.02
 -10  10   3   -0.22    1.03
  10 -10   3    0.15    1.78
  10  10   4    2.97    2.70
  10  10   4   15.28    3.63
 -10  10   4    9.96    3.77
  10 -10   4   13.33    4.25
  10  10   5   10.20    3.18
  10  10   5    0.95    1.00
 -10  10   5    5.56    3.35
  10 -10   5    5.92    2.78
  10  10   6   11.22    3.65
  10  10   6    8.03    4.11
 -10  10   6    5.11    2.27
  10 -10   6   11.04    4.04
  11   0 -24   -2.23    1.86
  11   0 -23   -3.04    2.11
  11   0 -22    0.49    1.54
  11   0 -21    1.89    2.28
  11   0 -20    0.39    1.40
  11   0 -19    2.78    1.61
  11   0 -18    2.59    2.46
  11   0 -17    0.52    1.00
  11   0 -16    0.63    0.96
  11   0 -15    0.48    1.50
  11   0 -14    0.33    1.86
  11   0 -13   -0.23    0.69
  11   0 -12    0.44    0.67
  11   0 -12   -0.50    1.40
  11   0 -11   -0.32    0.96
  11   0 -11    0.37    1.80
  11   0 -10   -0.10    0.64
  11   0 -10   -0.65    1.20
  11   0  -9    0.08    1.25
  11   0  -9   -1.16    1.25
  11   0  -8    1.18    1.18
  11   0  -8   -1.20    1.31
  11   0  -7   -0.05    1.28
  11   0  -7    0.22    1.01
  11   0  -6   -0.40    1.01
  11   0  -6    1.29    0.99
  11   0  -6    0.56    0.88
  11   0  -5   -0.58    0.85
  11   0  -5    0.75    0.67
  11   0  -5    0.94    0.70
  11   0  -4    2.39    1.55
  11   0  -4    0.58    1.00
  11   0  -4    1.38    1.41
  11   0  -3   -0.37    0.78
  11   0  -3    0.98    1.16
  11   0  -3   -0.03    0.67
  11   0  -2    0.17    0.45
  11   0  -2   -0.64    0.96
  11   0  -2   -0.34    1.10
  11   0  -1   -0.30    0.84
  11   0  -1    0.73    0.90
  11   0  -1   -0.45    1.11
  11   0   0    0.16    0.68
  11   0   0    0.21    0.57
  11   0   0   -0.04    1.05
  11   0   1    0.47    1.62
  11   0   1    0.38    1.60
  11   0   1    0.41    1.08
  11   0   2   -0.15    0.62
  11   0   2   -0.52    0.64
  11   0   3   -0.11    1.12
  11   0   3   -0.05    0.78
  11   0   4    0.22    1.03
  11   0   4   -1.08    1.10
  11   0   5    0.12    1.28
  11   0   5    0.37    1.25
  11   0   6   -0.61    0.64
  11   0   6    1.04    1.13
  11   0   7    0.06    0.89
  11   0   7   -0.40    1.11
  11   0   8    0.02    0.76
  11   0   8    0.03    0.76
  11   0   9    0.79    0.67
  11   0   9   -0.19    0.56
  11   0  10    0.07    1.14
  11   0  10    1.07    1.31
  11   0  11    2.00    2.14
  11   0  11   -0.17    0.92
  11   0  12   -0.01    1.33
  11   0  12    1.06    1.03
  11   0  13    0.01    1.47
  11   0  14   -0.88    0.68
  11   0  15    1.45    1.35
  11   0  16    0.17    0.84
  11   0  17    1.77    2.05
  11   0  18    0.28    1.06
  11   0  19    3.16    2.26
  11   0  20   -0.54    1.26
  11   0  21   -0.55    1.24
  11   0  22   -0.03    2.09
  11   0  23    2.21    1.93
  11   0  24   -0.55    1.34
  11  -1 -26    0.52    2.02
  11  -1 -25    6.79    2.66
  11  -1 -24   30.23    5.64
  11  -1 -23    7.33    2.78
  11  -1 -22    0.06    2.26
  11  -1 -21   10.13    3.76
  11   1 -20   13.06    4.24
  11  -1 -20    1.57    1.16
  11   1 -19   24.95    4.74
  11  -1 -19   25.18    4.66
  11   1 -18   99.28    9.09
  11  -1 -18  121.48   10.33
  11   1 -17   16.52    4.21
  11  -1 -17   16.91    3.75
  11   1 -16   -0.31    1.08
  11  -1 -16    2.01    1.94
  11   1 -15   30.28    5.04
  11  -1 -15   36.69    5.56
  11   1 -14   85.65    7.84
  11  -1 -14   84.24    8.17
  11   1 -13  231.45   12.89
  11  -1 -13  250.80   13.82
  11  -1 -13  240.89   12.98
  11   1 -12  246.46   13.12
  11  -1 -12  240.93   13.53
  11   1 -12  239.61   13.08
  11  -1 -12  251.11   12.87
  11  -1 -11   16.26    3.19
  11   1 -11    9.65    2.62
  11   1 -11    7.78    2.42
  11  -1 -11   14.80    3.71
  11   1 -11    9.96    3.06
  11  -1 -10   93.20    7.84
  11   1 -10  101.47    7.62
  11  -1 -10  103.87    8.66
  11   1 -10  101.53    8.37
  11   1 -10   99.91    8.07
  11  -1  -9  117.95    8.74
  11   1  -9  124.08    8.39
  11  -1  -9  121.92    9.33
  11   1  -9  122.30    8.96
  11   1  -9  127.68    9.38
  11  -1  -8   95.74    7.96
  11   1  -8  101.15    7.54
  11  -1  -8  123.47    9.17
  11   1  -8  121.63    8.82
  11   1  -8  105.83    8.29
  11  -1  -7  123.18    8.89
  11   1  -7  138.76    8.80
  11  -1  -7  135.16    9.76
  11   1  -7  125.23    8.98
  11   1  -7  153.40    9.85
  11  -1  -6   70.60    6.52
  11   1  -6   76.80    6.70
  11  -1  -6   79.75    7.24
  11   1  -6   75.46    7.01
  11   1  -6   81.31    7.01
  11  -1  -5   33.86    4.48
  11   1  -5   21.39    3.45
  11  -1  -5   26.90    4.49
  11   1  -5   25.85    4.11
  11   1  -5   25.79    3.93
  11  -1  -4   11.59    2.84
  11   1  -4   17.54    3.18
  11   1  -4   11.19    2.74
  11   1  -4   13.42    2.82
  11  -1  -3  185.45   10.60
  11   1  -3  179.20   10.24
  11  -1  -3  179.90   10.95
  11   1  -3  168.72   10.18
  11   1  -3  169.91   10.07
  11  -1  -2  412.78   15.92
  11   1  -2  436.07   16.05
  11  -1  -2  390.71   16.27
  11   1  -2  396.65   15.63
  11   1  -2  461.19   16.75
  11  -1  -1   33.30    4.57
  11   1  -1   32.93    4.45
  11  -1  -1   27.55    4.24
  11   1  -1   39.35    4.71
  11   1   0    0.99    1.34
  11  -1   0    3.34    1.66
  11  -1   0   -0.40    1.06
  11   1   0    0.28    0.80
  11   1   0    1.86    1.20
  11  -1   1   27.34    4.15
  11   1   1   34.58    4.46
  11  -1   1   31.45    4.64
  11   1   1   26.26    3.80
  11  -1   2  401.86   15.92
  11   1   2  387.16   15.30
  11  -1   2  440.14   17.02
  11  -1   3  164.87   10.26
  11   1   3  174.81   10.52
  11  -1   3  176.03   10.83
  11   1   3  143.17    9.14
  11   1   4   10.93    2.70
  11  -1   4   20.33    3.75
  11   1   4   14.65    2.74
  11  -1   5   14.44    3.82
  11   1   5   25.65    4.17
  11   1   5   24.92    3.87
  11  -1   6   61.12    6.44
  11   1   6   78.65    7.03
  11   1   6   77.00    6.66
  11  -1   7  140.76    9.77
  11   1   7  124.27    9.16
  11   1   7  152.71    9.49
  11  -1   8  119.80    9.01
  11   1   8  114.09    8.61
  11   1   8  110.41    8.13
  11  -1   9  111.10    8.71
  11   1   9  118.08    9.01
  11   1   9  119.92    8.29
  11  -1  10  102.55    8.46
  11   1  10  102.10    8.71
  11   1  10   92.92    7.22
  11   1  11    6.43    2.20
  11  -1  11   14.98    2.83
  11   1  11   14.62    2.97
  11  -1  12  216.75   12.64
  11   1  12  239.01   13.20
  11   1  12  238.76   11.79
  11  -1  13  250.88   13.92
  11   1  13  255.87   13.92
  11   1  13  246.57   11.82
  11  -1  14   83.91    8.29
  11   1  14  102.14    8.95
  11  -1  15   34.00    5.49
  11   1  15   34.78    5.36
  11   1  16   -0.94    0.92
  11  -1  16   -0.64    2.12
  11   1  17   16.34    4.05
  11  -1  17   21.94    4.32
  11  -1  18   96.35    9.31
  11   1  18   94.04    8.99
  11  -1  19   27.74    5.04
  11   1  19   31.38    5.15
  11   1  20    4.81    2.48
  11  -1  20    3.88    2.80
  11   1  21    2.74    1.81
  11  -1  21    6.88    3.15
  11   1  22    1.49    2.18
  11  -1  22   -1.15    1.79
  11   1  23    3.19    1.91
  11  -1  23    6.45    3.22
  11   1  24   33.73    5.89
  11   1  25   11.55    4.36
  11  -2 -26    4.43    2.91
  11  -2 -25    5.04    3.23
  11  -2 -24   -1.44    1.77
  11  -2 -23   16.37    4.14
  11  -2 -22    2.12    1.67
  11  -2 -21    0.75    1.56
  11  -2 -20    5.62    2.52
  11  -2 -19   -0.30    1.27
  11  -2 -18    1.28    1.24
  11  -2 -17   -0.55    1.63
  11  -2 -16    0.47    1.75
  11   2 -16    1.10    1.18
  11  -2 -15    4.41    2.59
  11   2 -15   -1.31    1.05
  11  -2 -15    1.79    2.29
  11   2 -15   -0.08    1.63
  11  -2 -14    5.18    2.07
  11   2 -14    9.44    2.98
  11  -2 -14    3.30    2.52
  11   2 -14    5.05    2.43
  11  -2 -13    9.76    2.83
  11   2 -13    3.11    1.48
  11  -2 -13   10.01    2.87
  11   2 -13    4.81    2.64
  11  -2 -12   -0.13    0.90
  11   2 -12   -0.10    1.07
  11  -2 -12    3.13    1.26
  11   2 -12    0.26    1.21
  11  -2 -11    2.24    1.38
  11   2 -11    1.24    0.84
  11  -2 -11    4.06    2.17
  11   2 -11    3.62    1.47
  11  -2 -10    2.94    1.35
  11  -2 -10   -0.28    1.53
  11   2 -10    3.18    1.59
  11   2 -10    1.24    1.19
  11  -2  -9    3.51    1.36
  11   2  -9    0.69    0.86
  11  -2  -9    2.43    1.43
  11   2  -9    5.09    1.65
  11   2  -9    1.00    0.67
  11  -2  -8   34.03    4.86
  11   2  -8   40.98    4.61
  11  -2  -8   34.01    5.18
  11   2  -8   30.02    4.40
  11   2  -8   39.57    5.26
  11  -2  -7   14.10    3.14
  11   2  -7   18.30    3.26
  11  -2  -7   16.52    3.38
  11   2  -7   18.14    3.21
  11   2  -7   13.59    2.84
  11  -2  -6    2.55    1.66
  11  -2  -6    2.82    1.81
  11   2  -6    4.58    2.09
  11   2  -6    1.13    1.46
  11   2  -6    2.42    0.77
  11  -2  -5   14.18    3.16
  11   2  -5   15.86    3.28
  11  -2  -5   12.55    2.92
  11   2  -5   15.11    2.98
  11   2  -5   20.32    3.65
  11   2  -4    3.51    1.69
  11   2  -4    2.38    0.99
  11  -2  -4    3.41    1.34
  11  -2  -4    1.03    0.90
  11   2  -4    0.14    1.00
  11  -2  -3  180.78   10.93
  11   2  -3  210.03   11.14
  11  -2  -3  198.44   11.97
  11   2  -3  209.71   11.17
  11   2  -3  195.94   11.16
  11   2  -2    4.63    1.61
  11   2  -2    3.29    1.37
  11  -2  -2    4.45    1.27
  11   2  -2    3.70    1.11
  11  -2  -1  122.74    8.90
  11  -2  -1  126.51    9.32
  11   2  -1  105.90    7.98
  11   2  -1  142.57    9.36
  11   2  -1  140.74    9.31
  11   2   0   -1.02    1.56
  11   2   0   -0.83    0.90
  11  -2   0    0.26    1.06
  11  -2   0   -0.03    1.21
  11   2   0    0.65    1.17
  11  -2   1  134.24    9.29
  11  -2   1  111.00    8.70
  11   2   1  140.85    9.23
  11   2   1  126.70    8.89
  11   2   2    6.66    2.26
  11   2   2    5.84    1.96
  11  -2   2    5.88    2.29
  11  -2   2    4.17    2.07
  11  -2   3  196.85   11.30
  11  -2   3  190.84   11.50
  11   2   3  204.83   11.29
  11   2   3  196.71   10.99
  11   2   4    2.96    1.87
  11   2   4    1.12    1.42
  11  -2   4    3.88    1.60
  11  -2   4    1.67    0.70
  11   2   5   11.41    2.41
  11   2   5   12.19    2.84
  11  -2   5   17.35    3.35
  11   2   6    1.87    1.30
  11   2   6    2.48    1.50
  11  -2   6    1.71    2.13
  11   2   7   11.24    2.57
  11  -2   7   15.91    3.15
  11   2   7   19.65    3.77
  11  -2   8   40.51    5.61
  11   2   8   35.00    4.82
  11   2   8   43.01    5.41
  11   2   9    3.17    1.67
  11   2   9    1.82    1.35
  11  -2   9    3.03    1.91
  11   2  10    0.30    1.24
  11   2  10    5.95    2.25
  11  -2  10    4.46    2.15
  11   2  11    2.47    1.52
  11   2  11    3.03    2.05
  11  -2  11    1.77    1.10
  11   2  12    0.41    1.09
  11   2  12    0.84    1.14
  11  -2  12   -0.28    1.50
  11   2  13    5.30    2.06
  11   2  13   10.36    3.36
  11  -2  13    9.89    2.54
  11   2  14    6.69    2.51
  11  -2  14    5.99    1.84
  11   2  15    1.49    1.46
  11  -2  15    1.13    1.79
  11   2  16    1.39    1.37
  11  -2  16    0.13    1.81
  11   2  17   -0.40    1.07
  11  -2  17   -0.85    2.02
  11   2  18    2.43    1.80
  11  -2  18    0.43    0.80
  11   2  19   -1.00    1.36
  11  -2  19    0.84    0.87
  11   2  20    2.37    2.46
  11  -2  20    6.77    2.78
  11   2  21    0.58    1.28
  11  -2  21    0.07    1.74
  11   2  22    1.73    2.11
  11  -2  22    3.09    2.00
  11   2  23   14.64    4.11
  11   2  24    3.33    1.47
  11   2  25   -0.12    1.25
  11   2  26    3.41    2.08
  11  -3 -25   24.27    5.12
  11  -3 -24   21.73    4.94
  11  -3 -23   26.01    5.00
  11  -3 -22    2.64    1.97
  11  -3 -21    6.40    2.89
  11  -3 -20   10.60    2.66
  11  -3 -19   14.97    4.02
  11   3 -19   13.56    4.09
  11  -3 -18   44.53    6.39
  11   3 -18   46.18    6.41
  11  -3 -17   31.85    5.55
  11   3 -17   21.89    4.15
  11  -3 -16   -0.93    1.88
  11   3 -16   -0.25    1.64
  11  -3 -16    1.50    1.94
  11  -3 -15    9.99    3.21
  11  -3 -15   11.89    3.16
  11   3 -15    9.89    3.02
  11  -3 -14   36.64    5.50
  11  -3 -14   39.32    5.69
  11   3 -14   39.89    5.66
  11  -3 -13   66.39    7.12
  11  -3 -13   52.81    6.37
  11   3 -13   47.92    5.97
  11  -3 -12   47.51    6.26
  11  -3 -12   50.42    6.51
  11   3 -12   50.10    6.34
  11  -3 -11   67.42    7.35
  11   3 -11   70.78    7.32
  11  -3 -11   73.30    7.40
  11  -3 -10   11.45    3.30
  11   3 -10   15.17    3.41
  11  -3  -9  375.47   17.07
  11  -3  -9  352.90   16.57
  11   3  -8  100.09    7.53
  11  -3  -8  114.22    9.24
  11   3  -8   92.62    7.42
  11   3  -8  100.76    8.35
  11  -3  -8  106.64    8.85
  11  -3  -7   53.17    6.14
  11   3  -7   43.58    4.99
  11  -3  -7   44.67    5.84
  11   3  -7   47.51    5.24
  11   3  -7   48.80    5.84
  11  -3  -6   22.68    4.15
  11  -3  -6   24.58    4.40
  11   3  -6   25.04    3.86
  11   3  -6   31.42    4.23
  11   3  -6   28.91    4.62
  11  -3  -5  253.41   13.33
  11  -3  -5  246.40   13.45
  11   3  -5  234.22   11.54
  11   3  -5  251.52   12.11
  11   3  -5  240.86   12.97
  11  -3  -4  110.17    8.90
  11  -3  -4  116.42    9.31
  11   3  -4  101.08    7.61
  11   3  -4  111.75    8.17
  11   3  -4  100.87    8.18
  11  -3  -3  879.97   25.11
  11  -3  -3  866.63   25.45
  11   3  -3  896.05   23.23
  11   3  -3  892.38   23.13
  11   3  -3  911.01   24.72
  11  -3  -2  148.94   10.33
  11  -3  -2  131.37    9.65
  11   3  -2  120.04    8.39
  11   3  -2  134.63    9.16
  11   3  -2  142.26    9.46
  11  -3  -1  785.07   23.62
  11  -3  -1  744.36   23.19
  11   3  -1  818.60   22.32
  11   3  -1  828.70   22.61
  11   3  -1  771.04   22.55
  11   3   0   12.71    2.82
  11  -3   0   21.29    4.11
  11   3   0   15.16    3.09
  11  -3   0   15.16    4.02
  11  -3   1  782.85   23.31
  11  -3   1  828.17   24.81
  11   3   1  801.60   22.93
  11  -3   2  140.60    9.88
  11  -3   2  121.65    9.47
  11   3   2  131.22    9.12
  11   3   2  131.07    9.23
  11  -3   3  933.04   25.29
  11  -3   3  924.01   25.61
  11   3   3  897.84   24.18
  11   3   3  899.68   24.51
  11   3   4  111.78    8.60
  11  -3   4  115.58    9.11
  11  -3   4   92.67    8.25
  11   3   4  110.70    8.42
  11   3   5  254.64   13.26
  11  -3   5  269.45   13.88
  11  -3   5  237.79   13.17
  11   3   5  248.18   12.56
  11   3   6   24.05    4.47
  11  -3   6   21.73    4.49
  11  -3   6   25.21    4.32
  11   3   6   25.52    4.32
  11   3   7   50.87    6.16
  11  -3   7   45.47    5.94
  11   3   7   50.71    5.82
  11   3   8   99.36    8.60
  11  -3   8  107.27    8.84
  11   3   8   96.03    7.68
  11   3   9  359.42   16.37
  11  -3   9  366.65   16.60
  11   3   9  381.84   15.71
  11   3  10    6.61    2.06
  11   3  10   11.85    2.77
  11  -3  10   10.77    2.56
  11   3  11   67.50    7.34
  11  -3  11   74.36    7.49
  11   3  11   57.50    6.52
  11   3  12   49.27    6.26
  11  -3  12   50.21    6.44
  11   3  12   48.75    5.91
  11   3  13   60.64    7.01
  11  -3  13   57.33    6.96
  11   3  13   45.54    5.65
  11   3  14   36.11    5.39
  11  -3  14   40.40    5.68
  11   3  14   39.57    5.09
  11   3  15   14.67    3.92
  11  -3  15    5.28    2.32
  11   3  16   -0.55    1.40
  11  -3  16   -0.61    1.09
  11   3  17   31.20    5.38
  11  -3  17   17.03    3.96
  11   3  18   45.36    6.26
  11  -3  18   45.73    6.65
  11   3  19   10.90    3.19
  11  -3  19   15.84    4.11
  11   3  20    7.25    2.76
  11  -3  20    7.97    3.60
  11   3  21    6.50    3.11
  11  -3  21    6.50    3.29
  11   3  22    4.90    2.69
  11   3  23   24.88    5.19
  11   3  24   12.08    3.51
  11   3  25   26.51    5.63
  11  -4 -24    3.34    1.90
  11  -4 -23    0.68    2.22
  11  -4 -22    5.12    2.88
  11  -4 -21   -0.12    1.28
  11  -4 -20    1.88    2.21
  11  -4 -19    3.72    2.33
  11   4 -19    5.81    3.16
  11  -4 -18   -1.03    1.01
  11   4 -18   -1.50    1.81
  11  -4 -17    0.02    1.02
  11  -4 -17    0.33    1.26
  11   4 -17    2.34    1.73
  11  -4 -16    1.46    1.55
  11  -4 -16    0.10    1.23
  11   4 -16    0.72    1.73
  11  -4 -15    3.88    1.37
  11   4 -15    3.81    1.45
  11  -4 -15    1.06    1.77
  11  -4 -14    0.77    1.46
  11  -4 -14    0.24    1.71
  11   4 -14    1.22    1.85
  11  -4 -13    0.15    1.07
  11  -4 -13    2.37    2.05
  11   4 -13   -0.46    1.39
  11   4 -12   20.57    4.11
  11  -4 -12   15.99    3.72
  11  -4 -12   11.81    3.11
  11   4 -11    3.66    1.55
  11  -4 -11    9.62    3.15
  11  -4 -11    5.43    2.69
  11  -4 -10   19.10    4.02
  11  -4 -10   20.34    4.26
  11   4 -10   23.40    4.48
  11   4  -9    2.75    2.09
  11  -4  -9    1.55    1.26
  11  -4  -9    5.81    2.22
  11  -4  -8   54.76    6.88
  11  -4  -8   56.68    6.74
  11   4  -8   49.93    6.14
  11   4  -7    9.27    2.84
  11  -4  -7    2.01    1.06
  11  -4  -7   10.04    3.40
  11   4  -7   12.74    3.23
  11   4  -6    3.24    1.67
  11  -4  -6    6.61    2.57
  11   4  -6    4.75    2.19
  11  -4  -6    4.05    1.44
  11   4  -5    5.14    2.37
  11  -4  -5    3.68    1.28
  11   4  -5    2.29    1.84
  11  -4  -5    1.60    1.17
  11  -4  -4  349.55   16.23
  11  -4  -4  394.67   17.50
  11   4  -4  378.65   15.34
  11   4  -4  386.46   16.38
  11  -4  -3   38.75    5.42
  11  -4  -3   39.21    5.37
  11   4  -3   42.14    5.16
  11   4  -3   42.35    5.37
  11  -4  -2   87.03    8.14
  11  -4  -2   85.71    8.16
  11   4  -2   84.43    7.16
  11   4  -2   84.02    7.52
  11   4  -2  100.68    8.22
  11   4  -1  131.58    9.47
  11  -4  -1  138.13   10.13
  11  -4  -1  121.24    9.68
  11   4  -1  135.93    9.91
  11   4  -1  117.85    8.95
  11   4   0   -0.29    0.73
  11  -4   0   -0.13    1.06
  11   4   0    0.07    1.35
  11  -4   0   -0.41    1.09
  11   4   1  128.50    9.16
  11  -4   1  121.08    9.54
  11  -4   1  135.78   10.12
  11   4   1  110.72    8.74
  11   4   2   90.51    7.90
  11  -4   2   91.02    8.17
  11  -4   2   96.51    8.90
  11   4   2   89.69    7.85
  11   4   3   33.43    4.76
  11  -4   3   36.52    5.22
  11  -4   3   28.08    4.43
  11   4   3   31.04    4.48
  11   4   4  372.23   16.25
  11  -4   4  383.27   16.78
  11  -4   4  389.29   17.20
  11   4   4  337.55   15.52
  11   4   5    0.18    1.35
  11  -4   5    0.62    0.95
  11   4   5    5.01    2.60
  11  -4   5    3.31    1.84
  11   4   6    5.58    2.01
  11  -4   6    5.04    2.25
  11   4   6    1.94    1.74
  11  -4   6    3.35    2.00
  11   4   7   10.43    3.18
  11  -4   7    8.77    2.76
  11   4   7   10.57    3.11
  11  -4   7    8.77    2.37
  11   4   8   39.79    5.66
  11  -4   8   50.75    6.24
  11  -4   8   54.72    6.79
  11   4   8   65.92    6.75
  11   4   9    5.08    2.41
  11  -4   9    1.02    1.46
  11   4   9    2.31    2.07
  11  -4   9    4.17    2.09
  11   4  10   25.57    4.70
  11  -4  10   22.95    4.35
  11   4  10   27.41    4.32
  11   4  11    7.38    2.28
  11  -4  11    6.11    1.89
  11   4  11    6.25    2.71
  11   4  12   13.60    3.70
  11  -4  12   21.51    4.32
  11   4  12   19.24    3.81
  11   4  13    0.99    2.21
  11  -4  13    0.20    1.29
  11   4  13   -0.30    1.63
  11   4  14    0.09    1.49
  11  -4  14   -0.78    1.43
  11   4  14    0.57    1.60
  11   4  15    3.52    2.39
  11  -4  15    3.40    2.57
  11   4  15    4.17    2.40
  11  -4  16   -1.33    1.69
  11   4  16   -0.24    1.55
  11  -4  17    0.29    1.07
  11   4  17    0.56    2.03
  11  -4  18    0.46    1.68
  11   4  18    0.63    1.75
  11  -4  19   -0.62    1.49
  11   4  19    4.25    2.34
  11  -4  20    0.29    1.67
  11   4  20    3.18    2.50
  11   4  21    4.79    2.23
  11   4  22    6.40    2.71
  11   4  23    5.02    2.10
  11   4  24    2.11    2.53
  11  -5 -22   11.12    3.08
  11  -5 -21   -0.30    1.14
  11  -5 -20   15.01    3.81
  11  -5 -19   12.81    3.60
  11  -5 -18   16.28    3.96
  11  -5 -18   15.55    4.49
  11   5 -18   16.39    4.03
  11  -5 -17   13.05    3.80
  11  -5 -17   12.71    4.33
  11   5 -17   10.19    3.69
  11  -5 -16    5.52    2.10
  11  -5 -16    1.93    1.38
  11   5 -16    1.88    1.21
  11   5 -15   12.88    3.50
  11  -5 -15   12.56    3.87
  11  -5 -15    8.97    3.22
  11  -5 -14   31.93    5.60
  11  -5 -14   25.54    5.00
  11   5 -14   31.18    5.33
  11  -5 -13   34.77    5.57
  11  -5 -13   43.64    6.18
  11   5 -13   38.68    5.76
  11  -5 -12    7.40    2.44
  11   5 -12    8.35    2.50
  11  -5 -12    3.85    1.66
  11  -5 -11    5.25    2.49
  11   5 -11    0.14    1.24
  11  -5 -11    3.09    1.90
  11   5 -10   -0.50    1.55
  11  -5 -10   -1.37    0.98
  11  -5 -10    1.88    2.06
  11  -5  -9   39.05    5.69
  11  -5  -9   27.29    5.03
  11   5  -9   39.50    5.66
  11  -5  -8  117.86    9.98
  11  -5  -8  130.54   10.44
  11   5  -8  139.35   10.54
  11  -5  -7   25.78    5.00
  11  -5  -7   31.63    5.37
  11   5  -7   32.22    4.93
  11   5  -6   14.35    3.31
  11  -5  -6   13.22    3.24
  11   5  -5    3.73    2.14
  11  -5  -5    2.59    1.73
  11   5  -5    1.30    1.51
  11  -5  -5    4.25    1.98
  11   5  -4  138.33    9.75
  11  -5  -4  148.57   11.00
  11  -5  -4  138.34   10.66
  11   5  -4  136.08   10.15
  11   5  -3   27.82    4.47
  11  -5  -3   25.77    4.80
  11  -5  -3   32.60    5.24
  11   5  -3   24.76    4.27
  11   5  -2   54.47    6.18
  11  -5  -2   40.32    5.85
  11  -5  -2   42.77    6.11
  11   5  -2   46.51    6.08
  11   5  -1   92.95    7.91
  11  -5  -1   96.30    8.68
  11  -5  -1   86.19    8.38
  11   5  -1   73.88    7.46
  11   5   0   -0.35    1.52
  11  -5   0    1.56    1.18
  11   5   0    0.84    1.49
  11  -5   0    1.65    1.09
  11   5   1   98.61    8.64
  11  -5   1   86.44    8.18
  11   5   1   88.28    8.10
  11  -5   1   98.50    9.17
  11   5   2   45.74    6.04
  11  -5   2   42.78    6.05
  11   5   2   52.83    6.12
  11  -5   2   43.76    6.20
  11   5   3   25.72    4.48
  11  -5   3   29.10    4.63
  11   5   3   28.05    4.50
  11  -5   3   27.41    5.00
  11   5   4  153.33   10.79
  11  -5   4  152.17   10.90
  11   5   4  138.25   10.04
  11  -5   4  146.67   10.93
  11   5   5    3.54    2.61
  11  -5   5    3.46    1.34
  11  -5   5    0.63    1.11
  11   5   5    1.85    1.62
  11   5   6   11.24    2.59
  11  -5   6   15.08    3.36
  11  -5   6   17.65    4.42
  11   5   6   14.57    3.25
  11   5   7   24.69    4.65
  11   5   7   20.32    4.02
  11  -5   7   23.50    4.56
  11  -5   7   24.61    4.35
  11   5   8  103.31    9.12
  11  -5   8  121.11   10.00
  11   5   8  123.99    9.84
  11  -5   8  123.21   10.21
  11   5   9   30.34    4.73
  11  -5   9   49.71    6.44
  11   5   9   46.61    6.02
  11  -5   9   37.16    5.79
  11   5  10    0.33    1.31
  11  -5  10    0.45    1.62
  11  -5  10    2.30    1.63
  11   5  10    1.17    0.99
  11   5  11    0.11    0.99
  11  -5  11    1.24    1.27
  11  -5  11    0.01    1.47
  11   5  11    0.85    0.92
  11   5  12    5.61    2.02
  11  -5  12    6.04    2.49
  11  -5  12    6.59    2.75
  11   5  12    9.55    2.55
  11   5  13   43.38    6.10
  11  -5  13   40.26    6.37
  11   5  13   45.67    6.20
  11  -5  13   22.08    4.72
  11   5  14   34.84    5.55
  11  -5  14   33.40    5.91
  11   5  14   41.97    6.71
  11   5  15   14.06    4.06
  11  -5  15   15.15    4.11
  11   5  15   11.54    3.50
  11  -5  16    2.64    2.58
  11   5  16    1.89    1.80
  11  -5  17   12.60    3.51
  11   5  17   11.15    2.51
  11  -5  18   12.57    4.59
  11   5  18   17.66    4.33
  11   5  19    3.24    1.05
  11   5  20   12.13    3.65
  11   5  21    5.77    2.19
  11   5  22   12.36    3.96
  11  -6 -21    2.47    1.10
  11  -6 -20    5.80    1.29
  11  -6 -19    2.58    2.52
  11  -6 -19    3.57    2.62
  11  -6 -18   -1.45    2.60
  11  -6 -18    1.13    2.35
  11   6 -18    3.23    3.10
  11   6 -17    2.54    1.80
  11  -6 -17    0.40    1.38
  11  -6 -17   -1.24    1.87
  11  -6 -16   -0.41    1.35
  11  -6 -16   -0.20    1.40
  11   6 -15    1.79    1.10
  11  -6 -15    2.69    2.35
  11  -6 -15    2.53    2.88
  11   6 -14    7.02    2.84
  11  -6 -14    2.61    1.38
  11  -6 -14   10.48    3.43
  11   6 -13    7.71    2.99
  11  -6 -13    5.09    2.13
  11  -6 -13    5.93    2.86
  11   6 -12    0.32    1.09
  11  -6 -12    1.28    1.26
  11  -6 -12    1.11    1.83
  11   6 -11    5.33    3.04
  11  -6 -11    4.61    3.26
  11  -6 -11    3.81    2.29
  11  -6 -10   13.47    3.50
  11   6 -10   24.15    4.58
  11  -6 -10   12.99    3.74
  11  -6  -9    2.45    1.83
  11   6  -9    1.24    1.26
  11  -6  -9    1.77    1.12
  11  -6  -8   14.80    3.48
  11   6  -8   19.56    4.51
  11  -6  -8   11.04    3.29
  11  -6  -7    1.58    2.29
  11   6  -7    4.65    2.23
  11  -6  -7    3.57    1.28
  11  -6  -6   19.75    4.36
  11   6  -6   15.57    3.70
  11  -6  -6   15.19    3.83
  11   6  -5    7.60    2.84
  11  -6  -5    8.37    2.47
  11  -6  -5    2.66    2.34
  11   6  -4   -0.06    1.40
  11  -6  -4    2.76    1.24
  11   6  -4    0.59    0.94
  11  -6  -4    2.90    1.10
  11   6  -3    1.89    1.19
  11  -6  -3    4.03    1.87
  11  -6  -3    4.10    2.13
  11   6  -3    3.23    2.03
  11   6  -2   27.40    4.82
  11   6  -2   28.66    4.88
  11  -6  -2   38.73    5.75
  11  -6  -2   29.98    5.25
  11   6  -1    4.22    1.98
  11  -6  -1    3.34    2.29
  11  -6  -1    1.68    3.08
  11   6  -1    5.20    1.44
  11   6   0    3.18    2.22
  11  -6   0    2.17    1.86
  11  -6   0    2.72    2.09
  11   6   0    3.01    1.18
  11   6   1    1.91    1.75
  11  -6   1    5.72    2.99
  11  -6   1    3.19    1.91
  11   6   1    4.11    2.19
  11   6   2   31.27    4.74
  11   6   2   39.86    5.70
  11  -6   2   36.62    5.67
  11  -6   2   39.52    5.81
  11   6   3    0.75    0.97
  11  -6   3    2.53    1.60
  11  -6   3    1.82    2.13
  11   6   3    0.63    0.90
  11   6   4    3.13    2.03
  11   6   4    2.68    1.81
  11  -6   4   -0.01    1.96
  11  -6   4    1.84    1.37
  11   6   5    4.29    1.67
  11   6   5    0.72    1.19
  11  -6   5    3.88    0.99
  11  -6   5    3.29    0.91
  11   6   6   17.90    4.00
  11   6   6   11.10    3.09
  11  -6   6   16.04    3.91
  11  -6   6   12.67    3.26
  11   6   7    2.96    2.59
  11   6   7    2.63    2.09
  11  -6   7    0.77    1.34
  11  -6   7    6.41    3.43
  11   6   8   12.37    3.61
  11   6   8    8.21    2.49
  11  -6   8    8.39    1.80
  11  -6   8    9.82    3.53
  11   6   9    1.11    0.99
  11   6   9    1.36    1.08
  11  -6   9    3.98    2.55
  11  -6   9    2.49    2.17
  11   6  10   19.68    4.28
  11   6  10   22.94    4.91
  11  -6  10   17.18    3.76
  11  -6  10   17.30    3.66
  11   6  11    0.64    1.84
  11   6  11    0.79    1.14
  11  -6  11    1.55    1.49
  11  -6  11    0.16    1.71
  11   6  12   -0.96    0.88
  11   6  12    0.40    1.32
  11  -6  12    1.97    1.49
  11  -6  12   -0.57    2.20
  11   6  13    1.42    1.38
  11   6  13    6.34    2.06
  11  -6  13    1.78    2.53
  11   6  14    4.76    1.81
  11   6  14    8.48    3.40
  11  -6  14    3.65    2.53
  11  -6  14    6.14    3.08
  11   6  15    4.15    2.67
  11   6  15    2.62    2.07
  11  -6  15    0.77    1.25
  11  -6  15    1.06    1.07
  11  -6  16    0.84    2.08
  11  -6  16    1.44    2.69
  11   6  16    2.44    2.54
  11  -6  17   -0.88    1.71
  11   6  17    1.49    1.69
  11  -6  18    1.73    2.73
  11   6  18   -0.70    2.00
  11   6  19    4.56    2.86
  11   6  20    9.68    3.82
  11   6  21    2.83    2.29
  11  -7 -18   10.35    3.60
  11  -7 -18   11.61    3.94
  11   7 -17    5.28    3.03
  11  -7 -17    4.01    2.89
  11  -7 -17    1.86    1.81
  11   7 -16    0.07    1.62
  11  -7 -16    5.01    2.50
  11  -7 -16    3.30    1.88
  11   7 -15    4.36    2.62
  11  -7 -15    6.34    2.92
  11  -7 -15    4.83    2.67
  11   7 -14   19.83    4.61
  11  -7 -14   21.04    4.38
  11  -7 -14   22.65    5.02
  11  -7 -13   33.42    5.92
  11  -7 -13   22.77    4.86
  11   7 -13   34.17    5.66
  11   7 -12   18.52    3.66
  11  -7 -12    9.27    4.21
  11  -7 -12   11.84    4.24
  11   7 -11    2.62    2.07
  11  -7 -11   -0.07    1.72
  11  -7 -11    2.64    1.20
  11   7 -10    1.98    2.22
  11  -7 -10    3.43    2.21
  11  -7 -10    3.76    1.77
  11   7  -9   18.37    4.30
  11  -7  -9   16.16    4.02
  11  -7  -9   14.03    3.63
  11  -7  -8   48.87    6.88
  11  -7  -8   35.31    5.86
  11   7  -8   42.74    6.25
 -11   7  -7   54.54    7.51
  11  -7  -7   57.30    7.27
  11  -7  -7   61.45    7.69
  11   7  -7   53.13    7.10
  11  -7  -6   19.82    4.48
  11   7  -6   13.88    3.51
 -11   7  -6   11.20    3.60
  11  -7  -6   22.20    5.17
  11  -7  -5    1.72    1.84
  11   7  -5    4.59    2.39
  11  -7  -5    0.31    1.43
  11  -7  -4   24.04    4.70
  11   7  -4   13.34    3.94
  11  -7  -4   21.26    4.50
  11   7  -3   72.18    8.08
  11   7  -3   68.39    7.92
  11  -7  -3   61.11    7.60
  11  -7  -3   58.77    7.36
  11  -7  -2    9.75    2.81
  11   7  -2    4.45    2.64
  11  -7  -2    8.61    3.32
  11   7  -2    3.75    1.32
  11  -7  -1    3.77    1.95
  11   7  -1    2.07    2.06
  11  -7  -1    1.64    2.54
  11   7  -1    2.08    2.14
  11   7   0    0.03    1.15
  11  -7   0    1.24    0.88
  11   7   0    3.75    2.14
  11  -7   0    0.12    1.68
  11   7   1   -0.24    1.36
  11  -7   1    0.85    1.18
  11   7   1   -0.25    1.63
  11  -7   1    1.08    2.29
  11   7   2    5.71    1.89
  11  -7   2    8.78    2.71
  11   7   2    8.08    2.95
  11  -7   2   11.52    3.57
  11   7   3   51.99    6.91
  11   7   3   51.35    6.92
  11  -7   3   65.87    8.01
  11  -7   3   46.37    6.66
  11  -7   4   21.35    4.71
  11   7   4   19.67    3.91
  11   7   4   28.65    5.05
  11  -7   4   27.49    5.06
  11   7   5    1.42    0.91
  11   7   5    1.81    2.01
  11  -7   5    1.02    1.19
  11  -7   5    2.91    2.17
  11   7   6   16.87    3.98
  11   7   6   18.38    4.18
  11  -7   6   16.64    4.33
  11  -7   6   19.83    4.50
  11   7   7   54.56    7.14
  11   7   7   49.19    6.63
  11  -7   7   52.67    6.68
  11  -7   7   44.10    6.47
  11   7   8   48.36    6.80
  11   7   8   50.07    6.74
  11  -7   8   50.13    6.63
  11  -7   8   50.71    7.16
  11   7   9   11.83    3.21
  11   7   9   13.44    3.96
  11  -7   9   17.91    4.35
  11  -7   9    9.14    3.27
  11   7  10    1.00    1.06
  11   7  10    3.82    1.24
  11  -7  10    1.76    2.40
  11  -7  10    0.60    1.53
  11   7  11    0.76    1.88
  11   7  11   -0.86    1.92
  11  -7  11    5.83    2.76
  11  -7  11    5.17    3.04
  11   7  12    8.98    3.37
  11   7  12    7.00    2.44
  11  -7  12   12.05    3.46
  11  -7  12   15.31    4.38
  11   7  13   30.51    5.63
  11  -7  13   19.97    4.28
  11   7  13   31.14    5.39
  11  -7  13   24.36    5.53
  11   7  14   20.53    4.77
  11   7  14   24.14    5.48
  11  -7  14   25.16    5.01
  11   7  15    6.73    3.44
  11   7  15    3.45    2.77
  11  -7  15   12.32    4.07
  11   7  16    2.73    1.65
  11   7  16    5.47    2.41
  11   7  17    3.13    2.20
  11   7  18    6.99    2.78
  11   8 -15   -1.43    2.33
  11  -8 -15   -2.75    2.51
  11  -8 -15   -1.83    1.87
  11   8 -14    0.77    2.24
  11  -8 -14   -3.19    3.52
  11  -8 -14    0.25    1.51
  11   8 -13    1.04    1.27
  11  -8 -13    1.12    2.28
  11  -8 -13    0.38    1.68
  11   8 -12   -0.66    1.11
  11  -8 -12    0.75    1.51
  11  -8 -12   -1.90    2.32
  11   8 -11    0.83    1.11
  11  -8 -11   -0.54    1.17
  11   8 -10    3.34    0.93
  11  -8 -10   -1.29    2.35
  11  -8 -10   -1.16    1.66
  11   8  -9    2.97    2.29
  11  -8  -9    3.34    1.56
  11  -8  -9    7.65    2.85
  11   8  -8    2.00    2.09
  11  -8  -8    4.70    3.02
  11  -8  -8    6.23    2.63
  11   8  -7   -0.08    1.70
  11  -8  -7    0.40    1.22
  11  -8  -7   -1.01    0.81
  11   8  -6    5.06    3.39
 -11   8  -6    0.99    1.69
  11  -8  -6    3.00    1.73
  11  -8  -6    1.44    0.98
  11   8  -5   -0.61    1.79
 -11   8  -5    3.98    2.51
  11  -8  -5    3.47    2.25
  11  -8  -5   -1.77    2.11
  11  -8  -4    2.03    1.36
  11   8  -4    0.83    3.03
 -11   8  -4    1.59    1.23
  11  -8  -4    2.04    2.65
  11  -8  -3    1.76    2.37
  11   8  -3   -0.09    1.65
 -11   8  -3   -0.32    1.03
  11  -8  -3    3.13    2.11
  11  -8  -2    1.08    1.40
  11   8  -2    0.12    1.21
 -11   8  -2    2.44    1.77
  11  -8  -2    0.13    1.36
  11  -8  -1   14.35    3.98
  11   8  -1   16.06    3.93
  11   8  -1   16.29    4.26
 -11   8  -1    9.15    3.00
  11  -8  -1   15.70    3.92
  11  -8   0    0.63    1.52
  11   8   0    3.64    2.42
  11   8   0    1.89    2.51
 -11   8   0    2.03    2.48
  11  -8   0    0.64    1.99
  11  -8   1   17.53    4.28
  11   8   1   16.36    4.01
  11   8   1   13.71    4.07
  11  -8   1    9.63    2.87
  11  -8   2    0.95    1.12
  11   8   2    0.43    1.38
  11   8   2    2.41    1.25
  11  -8   2   -0.66    1.51
  11  -8   3    2.05    1.85
  11   8   3   -0.33    1.44
  11   8   3    1.17    1.51
  11  -8   3   -1.16    1.82
  11  -8   4   -0.28    1.12
  11   8   4   -0.86    1.92
  11   8   4    1.62    2.27
  11  -8   4    2.62    2.41
  11  -8   5    0.34    1.55
  11   8   5    0.56    1.25
  11   8   5    0.91    1.32
  11  -8   5    1.71    1.49
  11  -8   6    2.07    1.95
  11   8   6    1.17    1.52
  11   8   6    5.89    2.56
  11  -8   6    0.42    1.20
  11  -8   7    0.96    1.22
  11   8   7    0.25    1.25
  11   8   7    1.70    1.63
  11  -8   7    2.10    2.71
  11  -8   8    1.64    2.11
  11   8   8    0.12    1.35
  11   8   8    1.09    2.38
  11  -8   8   -1.03    1.77
  11  -8   9    4.42    1.99
  11   8   9    2.80    1.32
  11   8   9    0.75    2.01
  11  -8  10   -1.44    1.69
  11   8  10   -1.18    1.96
  11   8  10    1.17    1.24
  11  -8  11    0.09    1.31
  11   8  11    0.82    1.29
  11   8  11   -0.57    1.30
  11  -8  12   -1.31    2.12
  11   8  12   -1.11    1.75
  11   8  12    0.83    1.14
  11  -8  13    4.23    3.24
  11   8  13    1.07    1.27
  11   8  13    6.15    2.37
  11  -8  14    1.14    1.96
  11   8  14   -0.13    0.82
  11   8  14   -0.65    2.02
  11   8  15   -0.81    1.25
  11   8  15    1.15    2.22
  11   9 -11    0.44    2.37
  11  -9 -11    1.65    1.54
  11  -9 -11    1.87    2.24
  11   9 -10   -0.10    1.23
  11  -9 -10    2.87    2.34
  11  -9 -10    1.16    1.63
  11   9  -9    3.09    1.84
  11  -9  -9    8.27    3.59
  11  -9  -9   10.91    3.64
  11   9  -8    7.08    3.27
  11  -9  -8    3.87    2.43
  11  -9  -8    5.69    2.96
  11  -9  -7   17.87    4.53
  11  -9  -7   16.85    3.95
  11   9  -6    7.41    2.87
  11  -9  -6    4.54    3.91
  11  -9  -6   -0.95    1.97
  11   9  -5    5.40    1.71
 -11   9  -5    4.84    3.05
  11  -9  -5    8.76    3.73
  11  -9  -5    8.94    3.12
  11   9  -4    8.25    3.22
 -11   9  -4   -1.42    2.14
  11  -9  -4    4.59    2.18
  11  -9  -4    5.22    3.22
 -11   9  -3   54.26    7.54
  11  -9  -3   44.09    6.71
  11   9  -2    5.66    1.96
 -11   9  -2    5.10    2.67
  11  -9  -2    6.54    3.07
  11  -9  -2    5.04    1.77
  11   9  -1    0.49    0.97
 -11   9  -1    1.02    1.29
  11  -9  -1   -1.51    2.05
  11  -9  -1    0.64    2.29
  11  -9   0    2.70    1.56
  11   9   0   -0.12    2.59
  11   9   0    0.07    1.55
 -11   9   0   -0.72    1.83
  11  -9   0    1.91    2.76
  11  -9   1    2.93    1.79
  11   9   1    5.36    3.60
  11   9   1    3.94    2.96
 -11   9   1    0.95    1.65
  11  -9   1   -3.57    2.97
  11  -9   2   11.70    3.78
  11   9   2    9.92    3.43
  11   9   2   10.71    4.10
 -11   9   2    3.98    1.83
  11   9   3   50.84    7.55
  11   9   3   57.67    7.56
 -11   9   3   44.58    6.22
  11  -9   3   51.73    7.63
  11  -9   4    3.05    2.33
  11   9   4    5.04    3.25
  11   9   4    4.21    2.23
 -11   9   4    0.13    2.12
  11  -9   5    7.64    2.84
  11   9   5    7.31    3.30
  11   9   5    1.22    1.32
 -11   9   5    3.72    1.05
  11  -9   6    2.99    2.60
  11   9   6    4.92    1.61
  11   9   6    1.82    0.82
 -11   9   6    7.55    3.34
  11  -9   7   22.53    4.62
  11   9   7   26.34    5.32
  11   9   7   21.35    4.76
 -11   9   7   19.98    4.11
  11  -9   8    4.59    2.94
  11   9   8    3.90    2.66
  11   9   8    6.13    2.92
 -11   9   8    5.79    3.17
  11  -9   9   10.88    2.93
  11   9   9    8.15    2.34
  11   9   9   13.44    3.65
 -11   9   9    8.49    3.19
  11  -9  10    2.47    2.43
  11   9  10    2.80    2.00
  11   9  10    1.32    2.31
 -11   9  10   -0.76    2.53
  11  -9  11    0.01    2.17
  11   9  11    4.05    2.26
  11   9  11    1.76    2.79
 -11   9  11   -2.72    2.53
  12   0 -23    3.92    2.53
  12   0 -22   -0.34    2.12
  12   0 -21    0.90    1.64
  12   0 -20   13.36    3.40
  12   0 -19   44.09    6.43
  12   0 -18   31.08    5.50
  12   0 -17   93.20    8.94
  12   0 -16   55.79    6.83
  12   0 -15    5.72    2.70
  12   0 -14  132.25   10.16
  12   0 -13  261.22   14.31
  12   0 -12   -3.74    1.56
  12   0 -12   94.76    8.85
  12   0 -11  108.31    8.50
  12   0 -11  116.64    9.43
  12   0 -10  146.05    9.96
  12   0 -10  141.91   10.14
  12   0  -9   26.52    4.27
  12   0  -9   29.09    4.61
  12   0  -8   80.26    7.34
  12   0  -8   84.76    7.96
  12   0  -7   17.98    3.48
  12   0  -7   21.54    3.98
  12   0  -6   69.02    6.66
  12   0  -6   75.00    7.26
  12   0  -5  120.42    8.91
  12   0  -5  127.62    9.38
  12   0  -5  139.99    9.62
  12   0  -4   88.02    7.47
  12   0  -4   77.70    7.47
  12   0  -4   76.12    7.09
  12   0  -3   15.12    3.34
  12   0  -3   15.19    3.22
  12   0  -3   14.92    3.10
  12   0  -2  227.92   12.20
  12   0  -2  250.92   13.31
  12   0  -2  256.66   12.75
  12   0  -1  537.69   18.83
  12   0  -1  551.35   19.46
  12   0  -1  561.20   19.13
  12   0   0  318.20   14.49
  12   0   0  315.95   14.85
  12   0   0  288.87   13.52
  12   0   1  501.66   18.89
  12   0   1  535.79   19.31
  12   0   1  559.23   18.79
  12   0   2  257.08   13.30
  12   0   2  246.97   13.20
  12   0   2  249.71   12.59
  12   0   3   18.36    3.48
  12   0   3   15.47    2.99
  12   0   4   72.77    7.12
  12   0   4   76.71    6.78
  12   0   5  124.25    9.32
  12   0   5  113.47    8.32
  12   0   6   74.72    7.25
  12   0   6   59.66    5.97
  12   0   7   11.06    2.94
  12   0   7   13.56    2.85
  12   0   8   81.56    7.71
  12   0   8   99.51    7.76
  12   0   9   30.65    5.01
  12   0   9   27.33    4.29
  12   0  10  164.65   11.05
  12   0  10  137.93    9.14
  12   0  11  130.57   10.01
  12   0  12   97.14    8.88
  12   0  13  229.17   13.57
  12   0  14  135.37   10.42
  12   0  15    5.65    2.30
  12   0  16   68.36    7.55
  12   0  17   94.19    9.28
  12   0  18   33.64    5.52
  12   0  19   40.75    6.18
  12   0  20   23.42    5.01
  12   0  21    0.48    1.54
  12   0  22   -0.63    1.87
  12   0  23    3.13    1.84
  12   0  24    5.89    2.95
  12   0  25   20.54    5.05
  12  -1 -25    2.12    2.61
  12  -1 -24    1.81    2.13
  12  -1 -23    4.89    2.74
  12  -1 -22    2.03    1.00
  12  -1 -21    6.71    3.20
  12  -1 -20    5.33    2.07
  12  -1 -19    2.19    2.73
  12   1 -18   -0.37    2.10
  12  -1 -18   -1.36    1.77
  12   1 -17    5.09    2.95
  12  -1 -17    7.10    2.08
  12   1 -16    1.71    1.98
  12  -1 -16    0.25    1.80
  12   1 -15    2.63    2.49
  12  -1 -15    2.43    1.34
  12   1 -14    9.38    3.29
  12  -1 -14    3.73    2.50
  12  -1 -13    3.40    2.41
  12   1 -13    0.43    0.78
  12  -1 -13    3.31    1.88
  12  -1 -12    3.97    2.03
  12   1 -12    6.11    2.51
  12  -1 -12    3.57    1.90
  12  -1 -11   17.95    4.09
  12   1 -11   23.01    4.10
  12  -1 -11   18.66    3.85
  12   1 -11   23.10    4.14
  12  -1 -10    9.38    2.45
  12   1 -10    9.71    2.71
  12  -1 -10   18.27    4.17
  12   1 -10   20.34    3.88
  12   1 -10   15.86    3.26
  12   1  -9   21.27    3.78
  12  -1  -9   15.86    3.44
  12  -1  -9   24.53    4.19
  12   1  -9   15.52    3.39
  12   1  -9   16.11    3.60
  12  -1  -8    8.78    2.57
  12   1  -8    8.57    2.31
  12  -1  -8    8.62    2.22
  12   1  -8   10.31    2.85
  12   1  -8    8.02    2.39
  12  -1  -7   -0.63    1.66
  12   1  -7    1.06    1.50
  12  -1  -7   -0.06    1.09
  12   1  -7    1.09    0.85
  12   1  -7    3.87    2.16
  12  -1  -6    7.03    2.30
  12   1  -6   10.51    2.72
  12  -1  -6    5.07    1.72
  12   1  -6    7.79    2.52
  12   1  -6    8.49    2.79
  12  -1  -5   18.45    3.76
  12   1  -5   11.75    2.85
  12  -1  -5   14.39    3.53
  12   1  -5   12.88    3.32
  12   1  -5   18.38    3.60
  12  -1  -4   42.88    5.37
  12   1  -4   41.97    5.27
  12  -1  -4   35.84    4.97
  12   1  -4   32.35    4.81
  12   1  -4   35.15    5.02
  12  -1  -3   93.22    8.03
  12   1  -3   96.29    8.28
  12  -1  -3   91.00    8.10
  12   1  -3  104.23    8.45
  12   1  -3   93.41    7.80
  12  -1  -2   63.87    6.54
  12   1  -2   61.95    6.27
  12  -1  -2   68.78    7.01
  12   1  -2   57.57    6.11
  12   1  -2   65.63    6.60
  12  -1  -1   26.36    4.36
  12   1  -1   23.88    4.00
  12  -1  -1   28.66    4.48
  12   1  -1   26.28    4.10
  12   1  -1   19.38    3.43
  12  -1   0   14.67    3.17
  12  -1   0    8.89    2.79
  12   1   0    9.22    2.70
  12   1   0    7.94    2.38
  12   1   0   10.39    2.72
  12   1   1   15.66    3.26
  12  -1   1   23.83    4.17
  12  -1   1   19.31    4.02
  12   1   1   19.96    3.52
  12   1   1   22.64    3.68
  12  -1   2   58.91    6.22
  12   1   2   61.78    6.19
  12  -1   2   64.87    6.81
  12   1   2   62.24    6.24
  12  -1   3  100.30    8.37
  12   1   3  105.07    8.30
  12  -1   3   93.80    8.32
  12   1   3  101.39    7.95
  12  -1   4   40.59    5.42
  12   1   4   32.28    4.72
  12   1   4   49.74    5.81
  12   1   5   13.78    3.69
  12  -1   5   14.27    3.27
  12   1   5   19.39    3.70
  12   1   6    6.09    2.05
  12  -1   6    9.64    2.67
  12   1   6    6.16    2.07
  12   1   7   -0.90    0.76
  12  -1   7    1.20    0.73
  12   1   7    1.39    1.94
  12   1   8    8.22    2.54
  12  -1   8    8.07    2.12
  12   1   8   10.64    2.92
  12  -1   9   23.06    4.27
  12   1   9   27.11    4.42
  12   1   9   16.24    3.82
  12   1  10   13.19    3.57
  12  -1  10   15.19    3.44
  12   1  10   14.25    3.16
  12   1  11   24.50    4.45
  12   1  11   22.34    3.59
  12  -1  11   20.70    3.97
  12   1  12    8.75    2.79
  12  -1  12    3.17    1.19
  12   1  12    5.92    1.94
  12   1  13    1.90    1.31
  12  -1  13    0.82    0.74
  12   1  14    6.31    2.60
  12  -1  14    2.71    1.13
  12   1  15    9.75    3.17
  12  -1  15    2.76    2.23
  12   1  16    4.84    2.28
  12  -1  16    3.56    2.29
  12   1  17   10.23    3.56
  12  -1  17   11.09    3.62
  12   1  18    0.20    0.93
  12  -1  18    1.32    0.86
  12   1  19    1.19    2.12
  12  -1  19    1.79    1.31
  12   1  20    2.42    1.20
  12  -1  20    4.39    2.85
  12   1  21    1.89    1.16
  12  -1  21    7.01    2.29
  12   1  22    4.72    3.00
  12  -1  22    2.29    1.30
  12   1  23    4.55    3.18
  12  -1  23    1.52    2.53
  12   1  24    0.24    2.51
  12  -1  24    3.68    2.89
  12   1  25    2.57    2.33
  12  -2 -24   15.91    4.79
  12  -2 -23    5.79    2.70
  12  -2 -22   11.32    3.49
  12  -2 -21    9.74    3.26
  12  -2 -20   10.25    3.35
  12  -2 -19   11.28    3.51
  12  -2 -18   25.55    5.26
  12  -2 -17   26.21    4.86
  12  -2 -16   13.16    2.97
  12  -2 -15    9.98    2.95
  12   2 -15   10.22    2.98
  12  -2 -14   37.53    5.56
  12  -2 -14   31.28    4.97
  12   2 -14   30.65    4.85
  12   2 -13   88.26    8.00
  12  -2 -13   78.22    7.99
  12   2 -13   66.02    7.33
  12  -2 -13   79.23    7.89
  12   2 -12   57.00    6.52
  12  -2 -12   59.22    6.94
  12   2 -12   55.77    6.55
  12  -2 -12   45.89    6.13
  12  -2 -11   24.98    4.65
  12   2 -11   19.22    4.05
  12   2 -11   31.07    5.05
  12  -2 -11   31.26    4.88
  12  -2 -10   26.78    4.78
  12   2 -10   28.40    4.65
  12   2 -10   25.28    4.26
  12  -2 -10   21.79    4.10
  12  -2  -9   63.13    6.79
  12   2  -9   60.06    6.02
  12  -2  -9   67.89    7.39
  12   2  -9   56.82    6.32
  12   2  -9   60.06    6.87
  12  -2  -8   81.13    7.73
  12   2  -8  101.91    7.98
  12  -2  -8   80.49    8.13
  12   2  -8   86.73    7.77
  12   2  -8   96.55    8.33
  12  -2  -7   44.38    5.70
  12   2  -7   38.92    4.93
  12  -2  -7   50.97    6.26
  12   2  -7   39.97    5.55
  12   2  -7   37.00    5.10
  12  -2  -6   30.65    4.68
  12   2  -6   33.18    4.65
  12  -2  -6   33.29    5.13
  12   2  -6   28.54    4.49
  12   2  -6   34.07    5.13
  12  -2  -5   72.93    7.42
  12   2  -5   85.21    7.25
  12  -2  -5   80.60    7.84
  12   2  -5   71.44    7.14
  12   2  -5   76.31    7.30
  12  -2  -4  114.51    9.10
  12   2  -4  102.50    8.19
  12  -2  -4  109.20    9.04
  12   2  -4  120.90    8.91
  12   2  -4  118.82    9.00
  12  -2  -3   25.98    4.14
  12   2  -3   22.75    3.94
  12  -2  -3   28.66    4.72
  12   2  -3   19.54    3.48
  12   2  -3   22.08    4.00
  12  -2  -2  145.59   10.01
  12   2  -2  136.13    9.58
  12  -2  -2  133.65   10.09
  12   2  -2  152.17   10.22
  12   2  -2  142.33    9.78
  12  -2  -1  260.77   13.57
  12   2  -1  273.07   13.36
  12  -2  -1  283.95   14.52
  12   2  -1  284.97   13.94
  12   2  -1  287.10   13.88
  12  -2   0  159.21   10.61
  12   2   0  157.52   10.37
  12  -2   0  144.86   10.45
  12   2   0  165.28   10.57
  12   2   0  141.14    9.71
  12  -2   1  265.25   13.73
  12  -2   1  272.76   14.04
  12   2   1  267.30   13.45
  12   2   1  280.85   13.63
  12  -2   2  129.49    9.60
  12  -2   2  125.77    9.82
  12   2   2  145.33    9.97
  12   2   2  137.63    9.52
  12  -2   3   21.55    3.88
  12  -2   3   29.19    4.89
  12   2   3   28.90    4.57
  12   2   3   30.54    4.35
  12  -2   4  106.28    8.79
  12  -2   4  104.43    8.92
  12   2   4   97.40    8.25
  12   2   4  118.27    8.76
  12  -2   5   87.43    7.89
  12   2   5   73.88    7.12
  12  -2   5   74.20    7.42
  12   2   5   59.38    6.49
  12  -2   6   29.41    4.48
  12   2   6   27.94    4.37
  12   2   6   29.36    4.47
  12  -2   7   46.52    5.93
  12   2   7   38.51    5.05
  12   2   7   41.46    5.43
  12  -2   8   88.46    8.17
  12   2   8   87.17    8.14
  12   2   8   80.70    7.41
  12  -2   9   61.95    7.01
  12   2   9   62.84    6.83
  12   2   9   61.75    6.40
  12  -2  10   44.72    5.97
  12   2  10   36.80    5.41
  12  -2  11   29.33    4.93
  12   2  11   28.77    5.21
  12   2  11   28.48    4.41
  12  -2  12   58.23    6.88
  12   2  12   47.97    6.20
  12   2  12   54.79    6.49
  12  -2  13   87.30    8.40
  12   2  13   77.58    8.14
  12   2  13   77.34    7.30
  12  -2  14   33.35    5.21
  12   2  14   31.09    5.18
  12   2  15    6.12    1.91
  12  -2  15   12.78    3.64
  12   2  16   15.55    4.21
  12  -2  16   13.27    3.72
  12  -2  17   25.08    4.57
  12   2  17   28.40    4.88
  12   2  18   24.50    4.73
  12  -2  18   27.36    4.70
  12   2  19   16.64    4.03
  12  -2  19    8.93    3.19
  12   2  20   10.11    3.52
  12  -2  20   13.63    3.45
  12   2  21    3.91    2.96
  12  -2  21    9.87    3.47
  12   2  22   10.67    3.48
  12  -2  22    8.09    3.57
  12   2  23    3.01    1.91
  12   2  24   16.28    4.08
  12  -3 -24   -0.43    1.05
  12  -3 -23    3.77    2.22
  12  -3 -22   -1.65    1.87
  12  -3 -21    6.16    2.66
  12  -3 -20    3.00    2.33
  12  -3 -19   -1.67    1.96
  12   3 -19   -0.51    1.37
  12  -3 -18   15.01    4.04
  12   3 -18    7.18    2.25
  12  -3 -17    5.75    2.75
  12   3 -17    4.14    2.22
  12  -3 -16    1.86    0.87
  12   3 -16    0.98    1.36
  12  -3 -15    2.10    1.95
  12  -3 -15   -1.20    1.16
  12   3 -15   -0.98    1.18
  12  -3 -14    3.53    1.70
  12  -3 -14    5.89    3.02
  12   3 -14    0.90    1.86
  12  -3 -13    0.22    0.79
  12  -3 -13    2.08    2.14
  12   3 -13   -0.03    1.06
  12  -3 -12   39.64    5.66
  12   3 -12   43.72    5.91
  12  -3 -12   29.86    5.06
  12  -3 -11   21.38    4.23
  12  -3 -11   18.95    4.06
  12   3 -11   24.86    4.40
  12  -3 -10   18.67    4.23
  12   3 -10   24.66    4.24
  12  -3 -10   27.24    4.58
  12  -3  -9   15.42    3.91
  12  -3  -9   17.46    4.21
  12   3  -9   17.96    3.67
  12  -3  -8    8.42    2.49
  12  -3  -8   16.83    4.08
  12   3  -8   -3.40    1.50
  12   3  -8    1.04    1.65
  12   3  -8   12.72    2.79
  12   3  -7    6.10    2.52
  12  -3  -7    5.61    2.14
  12  -3  -7    6.40    2.20
  12   3  -7    2.21    1.30
  12   3  -7    6.06    2.17
  12   3  -6    3.23    1.94
  12   3  -6    2.35    0.86
  12  -3  -6    5.88    2.34
  12  -3  -6    4.44    2.35
  12   3  -6    1.66    1.63
  12   3  -5   18.16    3.65
  12   3  -5   13.70    3.06
  12  -3  -5   14.74    3.56
  12   3  -5   22.06    4.02
  12  -3  -5   14.16    3.78
  12  -3  -4   84.41    8.13
  12  -3  -4  105.80    9.02
  12   3  -4   89.24    7.85
  12   3  -4   97.87    8.02
  12   3  -4   75.60    7.24
  12  -3  -3  173.21   11.68
  12  -3  -3  161.97   11.27
  12   3  -3  177.59   10.80
  12   3  -3  165.18   10.47
  12   3  -3  167.11   10.79
  12  -3  -2   79.88    7.90
  12  -3  -2   86.75    8.17
  12   3  -2   67.07    6.85
  12   3  -2   73.20    6.96
  12   3  -1    9.02    2.66
  12   3  -1   11.33    2.52
  12  -3  -1   14.11    3.41
  12  -3  -1   12.87    2.97
  12   3  -1    7.26    2.84
  12   3   0    7.64    1.96
  12   3   0   16.49    3.29
  12  -3   0   13.03    3.12
  12  -3   0    5.68    1.96
  12   3   0   15.19    3.59
  12   3   1   13.73    3.49
  12   3   1    6.95    2.31
  12  -3   1   17.83    3.86
  12  -3   1   16.96    4.08
  12  -3   2   85.20    8.01
  12  -3   2   82.49    7.97
  12   3   2   74.15    7.04
  12   3   2   76.19    7.31
  12  -3   3  179.23   11.65
  12  -3   3  173.17   11.43
  12   3   3  148.34   10.26
  12   3   3  163.79   10.64
  12  -3   4   59.48    6.72
  12  -3   4  100.38    8.84
  12   3   4   85.99    7.75
  12   3   4   74.98    7.20
  12   3   5   17.53    3.79
  12   3   5   18.79    3.59
  12  -3   5   15.57    3.70
  12  -3   5   16.03    3.90
  12   3   6    6.23    1.89
  12   3   6    4.00    1.65
  12  -3   6    1.87    1.28
  12  -3   6    8.75    2.72
  12   3   7    1.23    2.01
  12   3   7    4.79    1.97
  12  -3   7    3.04    1.11
  12  -3   7    3.23    1.35
  12   3   8   14.50    3.38
  12  -3   8   16.64    3.65
  12   3   8   22.88    4.25
  12   3   9   12.73    2.79
  12   3   9    9.27    2.65
  12  -3   9   15.53    3.76
  12   3  10   18.55    4.02
  12  -3  10   23.03    4.45
  12   3  10   17.72    3.98
  12   3  11   23.00    4.54
  12   3  11   18.01    4.09
  12  -3  11   20.30    4.35
  12   3  12   30.83    5.41
  12  -3  12   36.95    5.57
  12   3  12   34.71    4.92
  12   3  13    1.23    1.26
  12   3  13    4.87    2.47
  12  -3  13    4.14    2.62
  12   3  14    0.16    1.68
  12   3  14    4.33    2.14
  12  -3  14    2.12    1.82
  12   3  15    0.50    1.29
  12  -3  15    0.42    1.05
  12   3  16   -0.06    1.18
  12  -3  16    1.79    2.20
  12   3  17   -0.47    1.32
  12  -3  17    3.08    1.58
  12   3  18   19.43    4.63
  12  -3  18   16.86    4.46
  12   3  19    1.78    1.50
  12  -3  19    2.52    2.17
  12   3  20    3.17    2.84
  12  -3  20    4.24    1.44
  12   3  21    1.07    1.04
  12  -3  21    2.42    1.19
  12   3  22    5.97    3.08
  12   3  23    2.73    2.39
  12   3  24    3.48    2.17
  12  -4 -23   16.55    4.52
  12  -4 -22   11.11    3.86
  12  -4 -21    6.09    1.92
  12  -4 -20    7.56    3.01
  12  -4 -19    2.24    1.44
  12   4 -19    2.41    1.57
  12  -4 -18    7.39    2.18
  12   4 -18    5.55    3.03
  12  -4 -17    4.83    2.46
  12   4 -17    5.21    2.37
  12  -4 -16    6.40    2.08
  12   4 -16    8.74    3.21
  12  -4 -16    8.10    3.46
  12  -4 -15    3.54    2.33
  12   4 -15    8.06    2.86
  12  -4 -15    2.55    1.74
  12  -4 -14   13.77    3.48
  12  -4 -14   17.68    4.10
  12   4 -14   18.39    4.04
  12  -4 -13   21.18    4.68
  12  -4 -13   17.54    3.68
  12   4 -13   21.59    4.39
  12  -4 -12    3.34    2.46
  12  -4 -12    3.16    2.35
  12   4 -12    1.36    1.07
  12   4 -11    0.70    0.89
  12  -4 -11    2.73    1.28
  12  -4 -11    2.88    1.77
  12   4 -10   17.02    3.76
  12  -4 -10   21.19    4.40
  12  -4 -10   12.11    3.14
  12  -4  -9   38.82    6.08
  12   4  -9   55.28    6.36
  12  -4  -9   38.21    5.82
  12  -4  -8   97.98    9.02
  12   4  -8  100.75    8.81
  12  -4  -8   75.98    7.99
  12  -4  -7  104.65    9.41
  12   4  -7  101.61    8.81
  12  -4  -7   99.12    9.01
  12  -4  -6   29.79    5.11
  12   4  -6   41.20    5.19
  12   4  -6   31.34    5.05
  12  -4  -6   43.92    6.07
  12  -4  -5   92.78    8.76
  12   4  -5   79.24    7.41
  12   4  -5   89.94    8.24
  12  -4  -5   76.26    7.98
  12  -4  -4  179.64   11.93
  12  -4  -4  150.08   11.31
  12   4  -4  153.75   10.41
  12   4  -4  168.30   11.39
  12  -4  -3  117.61    9.67
  12  -4  -3  120.91   10.15
  12   4  -3  124.42    9.38
  12   4  -3  109.91    9.30
  12  -4  -2  134.72   10.27
  12  -4  -2  160.69   11.69
  12   4  -2  140.72    9.87
  12   4  -2  142.75   10.20
  12  -4  -1   62.29    6.88
  12  -4  -1   63.86    7.26
  12   4  -1   67.60    6.90
  12   4  -1   76.48    7.53
  12   4  -1   74.75    7.47
  12   4   0   19.03    3.71
  12  -4   0   17.76    3.90
  12  -4   0   15.98    3.99
  12   4   0   22.89    4.14
  12   4   0   27.30    4.56
  12  -4   1   75.28    7.65
  12  -4   1   84.19    8.39
  12   4   1   66.28    6.90
  12   4   1   72.79    7.39
  12   4   2  139.02   10.21
  12  -4   2  150.37   10.94
  12  -4   2  139.78   10.59
  12   4   2  155.57   10.68
  12   4   3  120.85    9.64
  12  -4   3  135.88   10.36
  12  -4   3  136.64   10.55
  12   4   3  117.25    9.28
  12   4   4  152.99   10.73
  12  -4   4  170.31   11.89
  12  -4   4  154.62   11.46
  12   4   4  173.17   11.31
  12   4   5   83.03    7.97
  12  -4   5   79.23    7.90
  12  -4   5   65.11    7.45
  12   4   5   75.91    7.73
  12   4   6   49.15    6.60
  12  -4   6   36.21    5.49
  12  -4   6   48.45    6.52
  12   4   6   51.28    6.14
  12   4   7  102.79    9.02
  12  -4   7  115.07    9.47
  12  -4   7  114.17    9.72
  12   4   7  109.02    8.82
  12   4   8   82.18    7.93
  12  -4   8   77.18    8.02
  12  -4   8   81.02    8.16
  12   4   8   85.08    8.05
  12   4   9   35.92    5.50
  12  -4   9   39.71    5.78
  12  -4   9   40.82    5.95
  12   4   9   29.43    5.13
  12   4  10   15.24    3.46
  12  -4  10    9.84    3.29
  12   4  10   14.48    3.39
  12  -4  10   16.83    4.26
  12   4  11    2.10    2.04
  12  -4  11    4.02    2.16
  12   4  11    6.55    2.73
  12   4  12    3.17    1.92
  12  -4  12    1.78    1.62
  12   4  12    2.13    1.08
  12   4  13   23.21    4.40
  12  -4  13   20.12    4.13
  12   4  13   17.43    4.05
  12   4  14   11.84    3.78
  12  -4  14    6.81    2.60
  12   4  14   16.25    3.71
  12  -4  15    3.80    2.38
  12   4  15    9.82    3.38
  12  -4  16    4.39    2.76
  12   4  16   13.32    3.63
  12  -4  17    3.35    2.24
  12   4  17    7.65    3.38
  12  -4  18    5.08    2.65
  12   4  18    4.24    2.26
  12  -4  19    3.02    2.25
  12   4  19    1.40    1.61
  12  -4  20    3.76    2.36
  12   4  20    6.18    1.84
  12   4  21    3.43    2.12
  12   4  22   10.19    3.49
  12   4  23   14.66    4.16
  12  -5 -21    1.55    1.29
  12  -5 -20    1.57    2.23
  12  -5 -19    4.42    2.00
  12   5 -19   12.95    4.73
  12  -5 -18    1.88    1.69
  12   5 -18    2.63    1.98
  12  -5 -17    4.68    2.08
  12  -5 -17    2.78    1.89
  12   5 -17    0.44    1.42
  12  -5 -16   -0.03    1.69
  12  -5 -16   -1.10    1.80
  12   5 -16    0.45    1.68
  12  -5 -15    2.49    2.12
  12  -5 -15   -0.15    1.56
  12   5 -15   -0.26    1.52
  12   5 -14   -0.15    0.94
  12  -5 -14    1.12    1.03
  12  -5 -14    1.28    1.76
  12  -5 -13    6.61    2.92
  12   5 -13    7.77    2.96
  12  -5 -13    6.04    2.69
  12   5 -12    4.62    2.09
  12  -5 -12    2.28    1.61
  12   5 -11    8.44    2.88
  12  -5 -11    2.92    1.75
  12  -5 -11    9.11    3.92
  12   5 -10   13.10    3.82
  12  -5 -10   20.84    4.44
  12  -5 -10   13.56    3.59
  12   5  -9    6.00    2.36
  12  -5  -9    4.99    2.14
  12  -5  -9    9.93    3.19
  12   5  -8    0.31    1.07
  12  -5  -8    0.14    1.31
  12  -5  -8   -0.92    1.32
  12   5  -7    8.18    2.81
  12  -5  -7    6.76    2.68
  12  -5  -7    4.26    2.87
  12   5  -6    0.21    1.38
  12  -5  -6   -0.81    0.70
  12   5  -5    0.58    1.28
  12  -5  -5    0.03    1.37
  12   5  -5    0.39    1.17
  12  -5  -5   -1.75    1.63
  12   5  -4   -0.12    0.93
  12   5  -4   -0.56    1.72
  12  -5  -4   -0.17    1.91
  12   5  -3   19.74    3.72
  12  -5  -3    8.69    2.76
  12   5  -3   15.50    3.23
  12  -5  -3    9.78    2.95
  12  -5  -2   25.18    4.97
  12   5  -2   28.20    4.44
  12  -5  -2   26.94    5.12
  12   5  -2   25.98    4.36
  12  -5  -1   20.41    4.60
  12   5  -1   15.46    3.71
  12   5  -1   23.42    3.99
  12  -5  -1   21.17    4.35
  12   5   0    7.75    2.61
  12  -5   0    8.22    2.78
  12   5   0    7.38    2.60
  12  -5   0    7.86    2.21
  12   5   1   19.67    3.85
  12   5   1   24.19    4.46
  12  -5   1   21.53    4.28
  12  -5   1   24.54    4.81
  12   5   2   20.88    4.14
  12   5   2   24.57    4.48
  12  -5   2   24.38    4.45
  12  -5   2   21.47    4.18
  12   5   3   16.44    4.23
  12  -5   3    8.88    2.83
  12   5   3   15.26    3.59
  12  -5   3   11.27    3.61
  12   5   4    0.46    0.98
  12  -5   4   -0.72    1.19
  12   5   4   -0.39    1.28
  12  -5   4   -0.63    1.93
  12   5   5   -0.55    0.95
  12  -5   5    1.02    2.17
  12   5   5   -0.03    2.06
  12  -5   5    0.43    1.65
  12   5   6   -0.47    2.08
  12  -5   6    0.16    0.83
  12   5   6    1.65    1.37
  12  -5   6    3.37    2.36
  12   5   7    6.94    2.66
  12  -5   7    4.62    2.69
  12   5   7    8.06    2.79
  12  -5   7    4.54    3.02
  12   5   8    0.28    0.89
  12  -5   8    2.97    1.57
  12   5   8    0.54    1.09
  12  -5   8   -1.00    2.11
  12   5   9    4.95    2.28
  12  -5   9   11.57    3.54
  12   5   9    6.86    2.33
  12  -5   9   13.06    4.05
  12   5  10   13.82    3.34
  12   5  10   21.24    4.66
  12  -5  10   11.49    3.24
  12  -5  10    9.93    2.44
  12   5  11    2.77    1.17
  12  -5  11    3.50    1.12
  12   5  11    7.03    2.95
  12  -5  11    5.56    3.13
  12   5  12    1.76    1.58
  12  -5  12    2.00    2.37
  12   5  12    3.42    1.86
  12  -5  12    3.88    1.95
  12   5  13    8.57    2.99
  12  -5  13    7.49    2.70
  12   5  13    7.80    2.86
  12  -5  13    8.30    3.18
  12   5  14    2.59    2.00
  12  -5  14    2.58    2.04
  12   5  14   -1.35    1.96
  12  -5  14    1.29    2.34
  12  -5  15    2.95    2.49
  12   5  15    0.60    1.75
  12  -5  16    3.09    2.58
  12   5  16   -1.17    2.09
  12  -5  17    8.24    3.08
  12   5  17    4.75    1.86
  12  -5  18    2.81    2.06
  12   5  18    1.23    1.17
  12   5  19    3.13    2.29
  12   5  20    1.87    2.05
  12   5  21    2.24    1.93
  12  -6 -19    5.36    2.53
  12  -6 -18    4.02    3.38
  12  -6 -18   -1.34    1.94
  12   6 -18    2.64    1.39
  12  -6 -17   15.77    4.53
  12  -6 -17   10.99    3.96
  12   6 -17   11.79    3.48
  12   6 -16    7.97    3.34
  12  -6 -16   12.02    4.09
  12  -6 -16    6.93    2.65
  12   6 -15    1.20    1.34
  12  -6 -15    3.22    1.87
  12  -6 -15    0.30    1.68
  12  -6 -14   31.35    5.42
  12   6 -14   26.92    5.03
  12  -6 -14   17.59    4.21
  12  -6 -13   44.82    6.20
  12  -6 -13   31.79    5.64
  12   6 -13   34.25    5.79
  12   6 -12    0.40    1.31
  12  -6 -12    2.13    2.64
  12  -6 -12    3.53    2.09
  12  -6 -11   20.74    4.78
  12   6 -11   17.89    3.75
  12  -6 -11   13.04    3.54
  12  -6 -10   18.96    4.29
  12  -6 -10   25.07    5.16
  12   6 -10   27.83    4.97
  12  -6  -9    6.16    1.86
  12   6  -9    7.46    2.90
  12  -6  -9   12.57    3.48
  12  -6  -8   45.20    6.72
  12  -6  -8   41.74    6.11
  12   6  -8   43.00    6.11
  12  -6  -7   72.21    8.35
  12  -6  -7   67.34    7.79
  12   6  -7   73.97    7.89
  12   6  -6   13.89    3.98
  12  -6  -6   20.63    4.44
  12  -6  -6   13.81    3.98
  12  -6  -5   23.89    4.31
  12  -6  -5   19.88    4.55
  12   6  -5   23.87    4.70
  12   6  -4   24.56    4.72
  12  -6  -4   39.56    6.32
  12  -6  -4   43.78    6.44
  12   6  -4   39.63    5.77
  12   6  -3   74.00    7.78
  12  -6  -3   62.86    7.45
  12  -6  -3   67.29    7.94
  12   6  -3   92.27    8.74
  12   6  -2   54.29    6.65
  12  -6  -2   57.76    7.34
  12  -6  -2   53.48    7.16
  12   6  -2   52.09    6.72
  12   6  -1   15.24    4.02
  12  -6  -1   14.46    4.00
  12   6  -1   14.18    3.59
  12  -6  -1    5.70    2.92
  12   6   0    1.01    1.04
  12  -6   0   -0.34    1.27
  12   6   0   -1.06    1.10
  12  -6   0   -0.18    1.44
  12   6   1   16.40    4.16
  12  -6   1   16.07    3.88
  12  -6   1   11.56    3.09
  12   6   1   12.97    3.34
  12   6   2   57.34    7.01
  12   6   2   68.95    7.42
  12  -6   2   56.38    7.30
  12  -6   2   66.33    7.90
  12   6   3   69.18    7.55
  12   6   3   70.37    7.81
  12  -6   3   84.94    8.78
  12  -6   3   89.84    8.94
  12   6   4   45.32    6.45
  12   6   4   47.41    6.31
  12  -6   4   46.43    6.31
  12  -6   4   38.70    6.46
  12   6   5   19.57    4.23
  12  -6   5   18.87    4.47
  12  -6   5   16.15    3.80
  12   6   5   18.52    3.96
  12   6   6   16.15    3.76
  12  -6   6   14.87    4.11
  12  -6   6   13.06    3.47
  12   6   6   17.68    4.12
  12   6   7   91.00    8.99
  12  -6   7   74.83    8.05
  12   6   7   81.68    8.42
  12  -6   7   62.55    7.61
  12   6   8   47.13    6.19
  12  -6   8   34.56    5.76
  12   6   8   46.32    6.18
  12  -6   8   46.91    6.83
  12   6   9   14.56    4.01
  12  -6   9    7.24    2.89
  12  -6   9    8.60    2.81
  12   6   9   11.64    3.22
  12   6  10   27.50    5.41
  12  -6  10   31.55    5.72
  12   6  10   28.55    4.85
  12  -6  10   21.51    4.45
  12   6  11   19.71    4.45
  12  -6  11   15.86    4.02
  12  -6  11   20.89    4.51
  12   6  11   12.72    3.44
  12   6  12    2.76    2.32
  12  -6  12    2.25    1.79
  12  -6  12    0.63    1.73
  12   6  12    3.63    2.06
  12   6  13   41.01    6.31
  12  -6  13   40.48    6.25
  12   6  13   37.60    5.80
  12  -6  13   48.73    7.25
  12   6  14   26.70    4.98
  12  -6  14   16.65    4.37
  12  -6  14   27.71    5.45
  12   6  14   23.77    4.75
  12   6  15    1.07    1.63
  12  -6  15    1.22    2.02
  12  -6  15    2.19    1.18
  12   6  15    6.41    2.31
  12  -6  16    7.71    2.98
  12  -6  16    9.45    3.54
  12   6  16    9.01    3.54
  12  -6  17   16.64    3.81
  12   6  17   14.20    3.99
  12  -6  17   15.36    4.69
  12   6  18    0.86    1.28
  12  -6  18    2.23    1.76
  12   6  19   15.53    3.90
  12  -6  19   19.00    5.77
  12   7 -17    0.76    2.25
  12  -7 -17   -1.17    1.32
  12  -7 -17    2.97    2.01
  12   7 -16    1.89    2.54
  12  -7 -16   -1.37    2.45
  12  -7 -16   -0.90    0.97
  12   7 -15    9.45    3.31
  12  -7 -15   11.99    3.89
  12  -7 -15   10.67    3.50
  12   7 -14    2.26    2.07
  12  -7 -14    0.38    1.89
  12  -7 -14   -0.23    1.42
  12   7 -13    5.04    2.61
  12  -7 -13    9.48    3.61
  12  -7 -13    3.27    2.42
  12   7 -12    2.71    1.99
  12  -7 -12    7.53    3.19
  12  -7 -12    4.36    1.80
  12   7 -11    1.08    1.25
  12  -7 -11    1.50    2.70
  12  -7 -11    0.38    2.23
  12   7 -10    8.63    3.07
  12  -7 -10    4.00    3.22
  12  -7 -10    3.38    2.63
  12  -7  -9   24.29    4.90
  12  -7  -9   27.30    5.29
  12   7  -9   25.85    5.13
  12  -7  -8    5.00    2.42
  12   7  -8    1.15    1.12
  12  -7  -8    6.17    1.98
  12  -7  -7   11.05    3.79
  12   7  -7   17.66    4.05
  12  -7  -7   10.20    3.36
  12  -7  -6    3.50    2.43
  12   7  -6   -1.80    2.65
  12  -7  -6    1.37    1.07
  12  -7  -5    3.93    2.77
  12   7  -5    2.45    1.27
  12  -7  -5    0.17    1.63
  12  -7  -4   13.00    3.81
  12   7  -4   14.07    3.68
  12  -7  -4   10.59    3.42
  12  -7  -3    8.21    3.02
  12   7  -3    6.56    2.79
  12  -7  -3    7.28    2.10
  12  -7  -2    5.59    2.76
  12   7  -2    2.84    2.08
  12  -7  -2    3.38    1.31
  12   7  -2    8.57    2.87
  12  -7  -1   19.03    4.45
  12   7  -1   11.13    3.36
  12  -7  -1   12.69    3.15
  12   7  -1   11.91    4.05
  12   7   0    5.06    2.08
  12  -7   0    7.13    2.31
  12  -7   0    8.38    2.91
  12   7   0   11.80    3.32
  12   7   1   18.68    4.41
  12  -7   1   23.78    4.52
  12  -7   1   11.41    3.11
  12   7   1   18.83    4.42
  12   7   2    5.42    2.68
  12  -7   2    4.42    1.95
  12  -7   2    6.36    2.77
  12   7   2    8.84    2.77
  12   7   3    8.89    3.24
  12  -7   3    7.02    3.09
  12  -7   3    7.52    2.53
  12   7   3    7.29    2.48
  12   7   4    7.57    3.61
  12  -7   4   17.24    4.42
  12  -7   4   12.44    3.97
  12   7   4   16.54    3.63
  12   7   5    0.37    1.72
  12  -7   5   -0.41    1.67
  12  -7   5    0.36    1.31
  12   7   5    4.91    2.56
  12   7   6    1.42    2.16
  12  -7   6    3.04    1.98
  12  -7   6    1.85    2.51
  12   7   6    2.32    0.86
  12   7   7   14.60    4.12
  12  -7   7   15.78    3.99
  12  -7   7    6.95    3.04
  12   7   7   10.15    2.87
  12   7   8    3.13    2.84
  12  -7   8    4.02    2.56
  12  -7   8    4.37    2.44
  12   7   8    6.86    2.78
  12   7   9   29.48    5.52
  12  -7   9   23.95    5.43
  12   7   9   30.44    5.23
  12  -7   9   18.05    4.25
  12   7  10    4.97    2.12
  12  -7  10   11.83    3.72
  12  -7  10    3.44    1.31
  12   7  10    5.69    2.96
  12   7  11    2.08    2.19
  12  -7  11   -1.74    2.11
  12  -7  11    0.76    1.22
  12   7  11    0.32    1.75
  12   7  12    5.35    2.58
  12  -7  12    7.62    2.98
  12  -7  12    8.59    3.87
  12   7  12    7.14    2.60
  12   7  13    2.85    2.85
  12  -7  13    6.84    2.55
  12  -7  13    8.88    2.89
  12   7  13    6.94    2.15
  12   7  14    4.12    2.59
  12  -7  14   -1.27    1.75
  12  -7  14    0.70    1.94
  12   7  14    1.84    1.43
  12   7  15   14.72    3.70
  12  -7  15   16.56    4.92
  12   7  15    6.54    1.83
  12  -7  16    6.00    3.11
  12   7  16    0.67    2.29
  12   7  17    0.23    1.11
  12   8 -13   13.13    3.51
  12  -8 -13   10.56    3.54
  12  -8 -13   16.92    4.02
  12   8 -12   12.51    3.89
  12  -8 -12   13.98    3.38
  12  -8 -12    8.11    3.30
  12   8 -11    3.51    2.07
  12  -8 -11    2.39    1.19
  12  -8 -11   -0.59    1.50
  12   8 -10    7.72    2.63
  12  -8 -10    5.65    1.78
  12  -8 -10    2.14    1.31
  12   8  -9    6.04    2.81
  12  -8  -9    8.55    3.79
  12  -8  -9    3.86    1.15
  12   8  -8    9.97    2.90
  12  -8  -8    3.74    2.97
  12  -8  -8    6.56    2.77
  12   8  -7   22.20    4.41
  12  -8  -7   17.09    3.91
  12  -8  -7   15.28    3.82
  12   8  -6    5.43    2.67
  12  -8  -6   14.36    4.18
  12  -8  -6    8.24    2.62
  12  -8  -5    2.82    1.86
  12   8  -5   -0.56    1.24
 -12   8  -5    1.79    1.44
  12  -8  -5    3.59    2.31
  12  -8  -4    5.66    1.79
  12   8  -4    2.76    2.64
 -12   8  -4    2.94    1.60
  12  -8  -4    3.41    2.27
  12  -8  -3   13.15    3.68
  12   8  -3   21.67    4.56
 -12   8  -3   16.69    4.44
  12  -8  -3   21.47    4.69
  12  -8  -2    7.46    3.20
  12   8  -2    8.33    3.31
 -12   8  -2    6.33    2.69
  12  -8  -2    7.98    3.38
  12  -8  -1   -0.41    1.76
  12   8  -1    1.45    2.16
  12  -8  -1    2.86    2.58
  12   8  -1   -0.53    2.53
  12  -8   0    1.45    2.12
  12   8   0    3.66    2.91
  12  -8   0    0.60    1.53
  12   8   0    2.92    2.37
  12  -8   1    4.24    2.87
  12   8   1   -0.02    1.33
  12  -8   1    2.84    1.71
  12   8   1   -0.03    1.14
  12  -8   2    5.84    2.71
  12   8   2    4.13    2.11
  12  -8   2    5.14    2.36
  12   8   2    6.20    2.95
  12   8   3   17.87    3.90
  12  -8   3   20.29    4.62
  12   8   3   21.34    4.80
  12  -8   3   15.05    4.29
  12   8   4    2.09    1.63
  12  -8   4    6.96    2.83
  12   8   4    4.82    2.06
  12  -8   4    3.97    2.46
  12   8   5    1.05    1.64
  12  -8   5    3.00    2.33
  12   8   5    0.52    1.97
  12  -8   5    1.73    1.83
  12   8   6    1.72    1.37
  12  -8   6    7.00    2.94
  12   8   6    7.74    3.01
  12  -8   6   12.09    4.37
  12   8   7   16.44    4.36
  12  -8   7   18.61    4.10
  12   8   7   18.28    4.30
  12  -8   7   17.76    4.38
  12   8   8    3.24    1.79
  12  -8   8    3.34    2.48
  12   8   8    0.97    1.98
  12  -8   8    5.29    2.55
  12   8   9    6.04    2.32
  12  -8   9    8.10    3.43
  12   8   9   10.72    3.83
  12   8  10    1.92    1.30
  12  -8  10    4.63    2.08
  12   8  10    1.88    1.34
  12   8  11    2.31    2.32
  12  -8  11    4.37    3.20
  12   8  11    1.88    1.71
  12   8  12    7.95    2.80
  12  -8  12    8.33    3.06
  12   8  12   15.66    4.74
  12   8  13   10.73    3.61
  12  -8  13    7.34    2.97
  12   8  13   12.96    4.20
  12   9  -8    0.28    1.74
  12  -9  -8   -0.56    1.83
  12  -9  -8    2.78    2.72
  12   9  -7    4.28    2.26
  12  -9  -7    4.21    2.53
  12  -9  -7    1.91    2.08
  12   9  -6    0.79    1.75
  12  -9  -6    1.94    1.61
  12  -9  -6    1.91    1.26
  12   9  -5    5.68    2.19
  12  -9  -5   -2.58    2.25
  12  -9  -5    3.53    2.73
  12   9  -4    2.46    2.70
 -12   9  -4    2.75    1.92
  12  -9  -4   -1.59    2.37
  12  -9  -4    1.26    1.27
  12   9  -3   14.34    4.11
 -12   9  -3   12.18    4.12
  12  -9  -3    8.02    2.51
  12  -9  -3    6.57    3.30
  12   9  -2   -2.03    1.98
 -12   9  -2   -0.65    1.85
  12  -9  -2   -1.10    1.94
  12  -9  -2    1.77    2.39
  12  -9  -1    1.21    1.81
  12   9  -1   -1.20    1.33
 -12   9  -1   -0.79    1.42
  12  -9  -1   -0.36    2.72
  12  -9   0   -2.32    2.23
  12   9   0    1.66    1.78
 -12   9   0    0.49    1.41
  12   9   1    3.16    3.02
  12  -9   1   -0.72    1.21
  12   9   1    1.08    2.03
 -12   9   1    4.00    2.22
  12  -9   1    1.05    1.43
  12  -9   2    0.47    1.32
  12   9   2    0.99    1.77
  12   9   2   -0.27    1.37
 -12   9   2    3.44    1.33
  12  -9   2    0.57    1.93
  12  -9   3   14.31    3.97
  12   9   3    8.79    3.59
  12   9   3    7.14    2.45
 -12   9   3    8.83    3.01
  12  -9   4    0.75    0.93
  12   9   4   -0.34    1.01
  12   9   4    1.34    2.60
 -12   9   4   -0.47    0.98
  12  -9   5   -2.26    1.16
  12   9   5   -0.52    1.05
  12   9   5    3.21    2.77
 -12   9   5    3.71    2.80
  12  -9   6    1.07    1.07
  12   9   6    4.44    2.53
  12   9   6    1.90    1.84
 -12   9   6    1.70    2.28
  12  -9   7    0.84    1.49
  12   9   7    0.67    2.04
  12   9   7   -0.06    1.68
 -12   9   7   -0.58    1.28
  12  -9   8   -0.07    1.44
  12   9   8    0.47    1.05
  12   9   8   -0.06    1.73
 -12   9   8   -0.03    1.50
  13   0 -22    6.57    3.77
  13   0 -21    1.42    1.63
  13   0 -20   -0.72    1.83
  13   0 -19   -0.17    1.40
  13   0 -18    2.29    2.30
  13   0 -17    0.70    1.76
  13   0 -16    0.51    1.28
  13   0 -15    1.55    1.10
  13   0 -14   -0.12    1.29
  13   0 -13    2.12    1.48
  13   0 -12    1.30    2.06
  13   0 -11    0.67    1.08
  13   0 -11   -0.41    1.77
  13   0 -10    0.51    0.91
  13   0 -10    1.25    1.95
  13   0  -9    0.02    1.50
  13   0  -9    0.29    1.23
  13   0  -8   -0.51    1.19
  13   0  -8    0.78    1.98
  13   0  -7    1.08    1.35
  13   0  -7   -0.58    1.79
  13   0  -6   -0.42    1.16
  13   0  -6    0.21    0.81
  13   0  -5    0.16    0.67
  13   0  -5    0.55    2.04
  13   0  -4    1.56    1.78
  13   0  -4    1.64    0.95
  13   0  -3    0.56    0.92
  13   0  -3    1.93    1.68
  13   0  -3   -0.56    1.04
  13   0  -2    0.17    0.68
  13   0  -2    1.42    1.25
  13   0  -2    0.33    1.80
  13   0  -1   -0.31    1.06
  13   0  -1   -0.45    1.29
  13   0  -1    2.44    1.72
  13   0   0    0.74    1.27
  13   0   0    1.66    0.87
  13   0   0    0.47    1.53
  13   0   1    1.18    1.96
  13   0   1   -0.81    1.14
  13   0   1    0.27    0.83
  13   0   2   -0.42    1.81
  13   0   2    1.53    1.24
  13   0   2   -0.37    1.74
  13   0   3   -0.31    1.42
  13   0   3   -0.14    0.82
  13   0   3    0.06    0.95
  13   0   4    0.41    0.90
  13   0   4    0.51    1.32
  13   0   5   -0.06    0.83
  13   0   5    0.87    1.58
  13   0   6   -0.18    1.70
  13   0   6   -0.52    1.29
  13   0   7   -0.97    0.72
  13   0   7    0.19    0.65
  13   0   8   -0.22    0.78
  13   0   8    1.97    1.38
  13   0   9    0.28    1.25
  13   0   9    0.05    1.04
  13   0  10    0.93    1.82
  13   0  11   -0.56    1.48
  13   0  12    0.68    1.68
  13   0  13    0.30    1.44
  13   0  14   -0.46    1.18
  13   0  15   -0.16    1.84
  13   0  16    0.77    1.68
  13   0  17   -1.27    1.66
  13   0  18   -0.87    2.08
  13   0  19    0.84    2.02
  13   0  20   -1.65    1.93
  13   0  21    1.35    1.35
  13   0  22   -0.76    1.57
  13   0  23    1.13    1.45
  13   0  24    0.87    1.30
  13  -1 -24    1.17    1.35
  13  -1 -23   -3.23    1.84
  13  -1 -22   -0.42    1.64
  13  -1 -21   23.46    4.59
  13  -1 -20   37.66    6.22
  13  -1 -19    2.98    1.95
  13   1 -18   -4.46    2.00
  13  -1 -18    1.65    1.26
  13   1 -17    7.27    2.29
  13  -1 -17    5.25    3.15
  13   1 -16   46.66    6.26
  13  -1 -16   58.09    7.11
  13   1 -15   26.46    4.65
  13  -1 -15   21.38    4.18
  13   1 -14   45.99    6.03
  13  -1 -14   45.04    6.08
  13   1 -13    4.24    2.00
  13  -1 -13    3.58    1.79
  13  -1 -12   21.88    4.07
  13   1 -12   31.80    5.04
  13  -1 -12   24.78    4.66
  13  -1 -11    1.95    2.26
  13  -1 -11   -0.02    1.27
  13   1 -11    1.51    1.51
  13  -1 -10   72.22    7.45
  13   1 -10   74.12    7.39
  13  -1 -10   83.31    8.24
  13   1 -10   66.35    7.21
  13   1 -10   78.13    7.64
  13  -1  -9   66.83    6.96
  13   1  -9   76.28    7.34
  13  -1  -9   68.78    7.73
  13   1  -9   63.78    7.14
  13   1  -9   60.34    6.83
  13  -1  -8    5.91    2.52
  13   1  -8    6.48    2.14
  13  -1  -8    6.84    2.44
  13   1  -8    9.92    3.20
  13   1  -8   11.02    3.16
  13   1  -7   21.92    3.95
  13  -1  -7   14.59    3.33
  13   1  -7   18.40    4.20
  13  -1  -7   15.51    3.55
  13   1  -7   18.37    3.59
  13  -1  -6   46.27    5.71
  13   1  -6   36.39    4.97
  13  -1  -6   36.33    5.68
  13   1  -6   32.01    4.81
  13   1  -6   38.12    5.25
  13  -1  -5  158.80   10.83
  13   1  -5  182.81   11.24
  13  -1  -5  177.18   11.80
  13   1  -5  193.66   12.23
  13   1  -5  169.32   10.90
  13   1  -4   22.43    3.92
  13  -1  -4   17.85    3.57
  13  -1  -4   20.04    3.97
  13   1  -4   17.39    3.34
  13   1  -4   23.71    4.24
  13  -1  -3   59.42    6.72
  13   1  -3   59.62    6.46
  13  -1  -3   54.82    6.50
  13   1  -3   55.14    6.51
  13   1  -3   55.65    6.28
  13  -1  -2   58.36    6.47
  13   1  -2   67.35    6.99
  13  -1  -2   60.80    6.98
  13   1  -2   67.60    7.14
  13   1  -2   74.84    7.15
  13  -1  -1   38.18    5.38
  13   1  -1   28.74    4.66
  13  -1  -1   23.79    4.39
  13   1  -1   43.35    5.60
  13   1  -1   26.04    4.47
  13  -1   0  660.02   21.57
  13   1   0  656.96   21.62
  13  -1   0  611.03   21.63
  13   1   0  652.57   22.13
  13   1   0  659.49   21.10
  13  -1   1   31.66    4.66
  13   1   1   32.10    4.70
  13  -1   1   39.75    5.46
  13   1   1   29.91    4.52
  13   1   1   30.60    4.69
  13  -1   2   58.70    6.56
  13   1   2   60.46    6.54
  13  -1   2   69.05    7.22
  13   1   2   67.82    6.99
  13   1   2   69.60    6.99
  13  -1   3   54.29    6.18
  13   1   3   53.94    6.21
  13  -1   3   57.42    6.58
  13   1   3   47.69    5.58
  13  -1   4   24.46    4.30
  13   1   4   25.03    4.29
  13  -1   4   23.50    4.47
  13   1   4   19.86    3.73
  13  -1   5  182.60   11.77
  13   1   5  180.12   11.35
  13   1   5  166.62   10.71
  13  -1   6   34.10    5.09
  13   1   6   31.70    4.76
  13   1   6   36.64    5.21
  13   1   7   20.29    3.85
  13  -1   7   13.82    3.51
  13   1   7   16.61    3.38
  13   1   8    4.22    1.68
  13  -1   8    5.41    2.26
  13   1   8    5.26    2.25
  13  -1   9   70.97    7.65
  13   1   9   56.92    6.59
  13   1   9   64.31    6.71
  13  -1  10   66.20    7.40
  13   1  10   72.00    7.71
  13   1  10   63.99    6.55
  13   1  11    1.89    1.43
  13  -1  11    0.23    1.33
  13   1  11    2.85    1.76
  13  -1  12   34.57    5.64
  13   1  12   34.95    5.52
  13   1  12   26.49    4.36
  13   1  13    7.54    2.15
  13  -1  13    7.14    2.27
  13  -1  14   43.34    6.50
  13   1  14   60.03    7.26
  13   1  15   18.84    4.30
  13  -1  15   18.10    4.10
  13  -1  16   47.73    6.55
  13   1  16   49.64    6.94
  13   1  17    8.93    2.75
  13  -1  17   10.05    3.25
  13   1  18    2.19    1.80
  13  -1  18    1.94    1.96
  13   1  19    0.30    1.66
  13  -1  19    1.21    1.34
  13  -1  20   38.20    6.14
  13   1  20   39.58    6.36
  13   1  21   23.76    4.88
  13  -1  21   22.13    4.84
  13   1  22    5.53    2.56
  13  -1  22    7.79    2.85
  13   1  23    2.39    1.65
  13  -1  23    3.91    2.81
  13   1  24    1.50    1.13
  13  -1  24   -2.33    2.87
  13  -2 -23    4.39    2.42
  13  -2 -22    2.43    2.06
  13  -2 -21    5.32    2.35
  13  -2 -20    0.78    1.16
  13  -2 -19    0.15    1.09
  13  -2 -18    0.65    1.44
  13  -2 -17   34.73    5.79
  13  -2 -16    1.66    0.87
  13  -2 -15    3.49    2.04
  13   2 -15    2.80    2.13
  13  -2 -14    2.48    1.41
  13   2 -14    0.69    1.23
  13  -2 -13   -0.98    1.29
  13  -2 -13    3.95    2.20
  13  -2 -12   15.94    3.89
  13   2 -12   23.43    4.79
  13  -2 -12   24.23    4.57
  13   2 -12   23.16    4.35
  13   2 -11   77.62    7.84
  13  -2 -11   84.88    8.57
  13   2 -11   83.91    8.02
  13  -2 -11   81.98    8.29
  13  -2 -10    4.41    2.58
  13  -2 -10    5.54    1.87
  13   2 -10    4.83    1.87
  13   2 -10    2.39    1.33
  13  -2  -9    4.84    1.42
  13  -2  -9    4.34    2.38
  13   2  -9    7.86    2.76
  13   2  -9    2.42    1.90
  13  -2  -8   28.80    4.85
  13   2  -8   32.46    4.49
  13  -2  -8   28.70    5.02
  13   2  -8   20.96    3.95
  13   2  -8   26.63    4.48
  13  -2  -7   19.03    3.66
  13  -2  -7   15.79    3.69
  13   2  -7    9.34    2.90
  13   2  -7   20.22    3.69
  13   2  -7   20.18    4.14
  13  -2  -6    0.92    1.60
  13  -2  -6    4.23    2.21
  13   2  -6    0.99    0.81
  13   2  -6    0.44    1.15
  13   2  -6    0.51    0.99
  13  -2  -5   -0.11    0.83
  13  -2  -5    0.30    0.94
  13   2  -5   -0.08    1.45
  13   2  -5    0.23    0.65
  13   2  -5    0.40    0.74
  13  -2  -4    9.68    2.56
  13  -2  -4    8.38    2.83
  13   2  -4   15.06    3.40
  13   2  -4   13.24    3.23
  13   2  -4   13.30    2.96
  13  -2  -3   37.77    5.25
  13   2  -3   35.81    5.10
  13  -2  -3   38.73    5.66
  13   2  -3   37.90    5.18
  13   2  -3   41.76    5.60
  13   2  -2   15.88    3.41
  13  -2  -2   21.65    3.94
  13  -2  -2   21.66    4.20
  13   2  -2   16.92    3.76
  13   2  -2   15.66    3.33
  13  -2  -1   14.50    3.28
  13   2  -1   18.72    3.74
  13  -2  -1   18.21    4.36
  13   2  -1   19.29    3.92
  13   2  -1   23.07    4.10
  13  -2   0  288.43   14.90
  13   2   0  311.02   14.69
  13  -2   0  289.32   15.33
  13   2   0  298.34   14.77
  13   2   0  298.02   14.52
  13   2   1   20.68    3.77
  13  -2   1   13.49    3.92
  13  -2   1   18.17    4.14
  13   2   1   17.04    3.68
  13   2   1   19.55    3.61
  13  -2   2   10.67    3.05
  13   2   2   20.97    3.99
  13  -2   2   18.08    3.75
  13   2   2   19.83    3.53
  13  -2   3   48.37    6.11
  13   2   3   38.95    5.52
  13  -2   3   43.16    5.84
  13   2   3   47.12    5.80
  13   2   4    6.74    2.27
  13   2   4   13.17    3.63
  13  -2   4   16.45    3.72
  13  -2   4    6.45    2.01
  13   2   5   -0.09    1.11
  13   2   5   -0.13    0.75
  13  -2   5   -0.09    1.10
  13  -2   5   -1.22    1.13
  13   2   6    1.17    2.09
  13   2   6    2.79    1.57
  13  -2   6    0.48    1.26
  13  -2   6    3.08    2.49
  13   2   7   15.98    3.56
  13  -2   7   18.53    3.64
  13   2   7   19.25    4.15
  13  -2   8   21.94    4.23
  13   2   8   28.42    5.00
  13   2   8   24.99    4.27
  13   2   9    8.12    2.74
  13  -2   9    9.05    2.78
  13   2   9    2.75    2.06
  13   2  10    5.90    2.03
  13  -2  10    4.82    2.27
  13   2  10    6.20    2.40
  13  -2  11   77.07    8.04
  13   2  11   68.97    7.85
  13   2  11   58.33    6.75
  13  -2  12   24.54    4.50
  13   2  12   22.42    4.68
  13   2  12   19.64    3.89
  13   2  13    5.07    2.10
  13  -2  13    4.42    2.09
  13   2  13    5.15    1.79
  13   2  14    1.41    1.09
  13  -2  14    1.35    0.76
  13   2  15    1.77    1.68
  13  -2  15    3.39    1.86
  13   2  16    0.48    2.08
  13  -2  16    5.53    2.64
  13  -2  17   37.67    5.74
  13   2  17   27.57    5.42
  13   2  18    3.58    2.12
  13  -2  18    2.50    2.51
  13   2  19    0.59    1.43
  13  -2  19    0.29    1.79
  13   2  20   -0.24    1.49
  13  -2  20    1.72    1.91
  13   2  21    2.66    1.89
  13  -2  21    7.49    2.74
  13   2  22    3.48    2.11
  13  -2  22   -0.15    1.08
  13   2  23    5.43    3.30
  13  -2  23    6.87    3.56
  13  -3 -23   -0.85    1.48
  13  -3 -22   10.54    3.63
  13  -3 -21   -0.27    1.25
  13  -3 -20    8.71    2.56
  13  -3 -19    0.67    1.25
  13  -3 -18   12.37    3.97
  13   3 -18    6.83    2.62
  13  -3 -17    3.05    1.18
  13   3 -17    2.60    2.02
  13  -3 -16   99.03    9.68
  13   3 -16   89.10    8.68
  13  -3 -15    9.19    3.17
  13   3 -15   10.10    3.34
  13  -3 -14   46.85    6.58
  13  -3 -14   42.87    6.46
  13   3 -14   61.52    7.32
  13  -3 -13    8.28    2.60
  13   3 -13   12.57    3.45
  13  -3 -12   81.80    8.63
  13   3 -12   65.81    7.40
  13  -3 -12   79.33    8.60
  13  -3 -11    4.72    2.03
  13  -3 -11    4.47    2.82
  13   3 -11    4.02    1.65
  13  -3 -10  162.11   11.81
  13   3 -10  172.11   11.87
  13  -3 -10  168.34   12.12
  13  -3  -9   18.64    4.00
  13  -3  -9   19.46    4.08
  13   3  -9   17.96    3.89
  13  -3  -8   21.73    4.03
  13  -3  -8   20.61    4.22
  13   3  -8   19.44    3.86
  13  -3  -7   18.18    4.07
  13  -3  -7   21.34    4.13
  13   3  -7   13.67    3.37
  13   3  -7   10.48    2.85
  13  -3  -6   30.84    5.07
  13   3  -6   28.16    4.60
  13  -3  -6   31.88    5.61
  13   3  -6   42.57    5.47
  13   3  -6   33.94    5.32
  13   3  -5    5.56    2.33
  13   3  -5    2.59    0.97
  13  -3  -5    7.20    2.54
  13  -3  -5    2.38    0.83
  13   3  -5    6.61    2.34
  13  -3  -4  130.61   10.35
  13   3  -4  129.51    9.59
  13  -3  -4  142.73   10.72
  13   3  -4  122.09    9.70
  13   3  -4  111.80    9.45
  13   3  -3   15.96    3.20
  13   3  -3   16.35    3.51
  13  -3  -3   14.51    3.56
  13  -3  -3   14.27    3.76
  13   3  -3   17.91    3.68
  13   3  -2    1.64    2.19
  13   3  -2    0.09    1.84
  13  -3  -2    1.82    1.03
  13  -3  -2    0.85    1.04
  13   3  -2    1.33    1.67
  13   3  -1   15.35    3.46
  13   3  -1   10.43    3.16
  13  -3  -1    6.83    2.43
  13  -3  -1   15.35    3.80
  13   3  -1   12.95    2.96
  13  -3   0   45.76    6.05
  13  -3   0   45.76    6.54
  13   3   0   64.26    6.84
  13   3   0   53.10    6.16
  13   3   0   59.75    6.93
  13   3   1   11.31    3.27
  13   3   1   14.70    3.14
  13  -3   1   14.32    3.40
  13  -3   1   16.06    3.81
  13   3   1   12.76    3.02
  13   3   2    1.01    1.40
  13   3   2    4.25    1.77
  13  -3   2    0.16    0.98
  13  -3   2    3.06    2.58
  13   3   3   15.84    3.29
  13   3   3   12.87    3.70
  13  -3   3   10.41    2.64
  13  -3   3   12.98    3.54
  13  -3   4  127.88    9.96
  13  -3   4  120.37    9.94
  13   3   4  130.01    9.90
  13   3   4  117.46    9.46
  13   3   5    7.38    2.54
  13   3   5    4.18    2.08
  13  -3   5    8.74    2.70
  13  -3   5   10.93    3.71
  13  -3   6   35.58    5.37
  13  -3   6   37.77    5.75
  13   3   6   32.12    4.99
  13   3   6   32.17    5.02
  13   3   7   15.52    3.40
  13   3   7   15.94    3.56
  13  -3   7   16.74    3.65
  13  -3   7   22.84    4.28
  13  -3   8   28.86    4.79
  13   3   8   18.54    3.86
  13  -3   8   30.12    4.97
  13   3   8   22.88    4.44
  13   3   9   18.78    4.06
  13  -3   9   23.39    4.62
  13   3   9   16.19    3.91
  13  -3  10  173.12   11.77
  13   3  10  161.87   11.28
  13   3  10  172.81   11.81
  13   3  11    2.06    1.22
  13   3  11    2.71    1.05
  13  -3  11    4.92    2.58
  13  -3  12   64.29    7.73
  13   3  12   71.51    7.33
  13   3  12   80.56    8.43
  13   3  13   15.68    3.20
  13   3  13    9.00    3.06
  13  -3  13   14.18    3.17
  13  -3  14   51.78    7.01
  13   3  14   66.85    7.62
  13   3  15   10.95    2.95
  13  -3  15   11.07    3.42
  13  -3  16   95.20    9.49
  13   3  16   90.10    9.27
  13   3  17    5.22    2.72
  13  -3  17    7.66    2.95
  13   3  18    3.07    1.63
  13  -3  18    8.08    3.33
  13   3  19    2.33    2.20
  13  -3  19    0.51    1.00
  13   3  20   13.64    3.92
  13  -3  20   14.28    3.97
  13   3  21    2.09    2.02
  13  -3  21    2.05    1.96
  13   3  22   18.85    4.69
  13   3  23    1.48    2.07
  13  -4 -21    3.99    2.81
  13  -4 -20    0.07    1.14
  13  -4 -19    5.50    2.61
  13   4 -19   10.66    3.02
  13  -4 -18    1.64    1.86
  13   4 -18   -1.72    1.41
  13  -4 -17    5.93    2.49
  13   4 -17    6.11    2.91
  13  -4 -16    5.51    2.73
  13   4 -16   -1.85    1.95
  13  -4 -16    6.49    4.96
  13  -4 -15   10.89    3.53
  13  -4 -15   10.74    3.16
  13   4 -15    6.40    2.89
  13  -4 -14    0.60    1.40
  13   4 -14   -0.54    1.92
  13  -4 -13   -1.25    2.04
  13  -4 -13    1.40    2.52
  13   4 -13   -0.08    1.34
  13  -4 -12    2.72    1.65
  13  -4 -12    2.48    1.04
  13   4 -12    5.99    2.70
  13  -4 -11    0.56    1.48
  13  -4 -11    0.09    1.72
  13   4 -11   -0.01    1.54
  13  -4 -10    2.32    1.38
  13  -4 -10    0.71    1.70
  13   4 -10    1.85    1.55
  13  -4  -9   92.42    9.04
  13   4  -9   68.85    7.58
  13  -4  -9   73.93    8.19
  13   4  -8    3.28    1.66
  13  -4  -8    0.12    1.15
  13  -4  -8    0.06    1.48
  13   4  -7    6.36    2.70
  13  -4  -7    2.36    0.96
  13  -4  -7    6.27    2.52
  13  -4  -6   36.40    5.75
  13   4  -6   52.36    6.45
  13   4  -6   47.54    6.24
  13  -4  -6   46.39    6.25
  13   4  -5    3.48    2.57
  13   4  -5    2.20    1.09
  13  -4  -5    2.89    2.17
  13  -4  -5    4.28    2.15
  13   4  -4   13.11    3.77
  13   4  -4    9.82    2.51
  13  -4  -4   14.15    3.74
  13  -4  -4   16.52    3.89
  13   4  -3   -0.34    1.28
  13   4  -3    1.80    1.36
  13  -4  -3    2.16    1.92
  13  -4  -3    2.73    2.12
  13  -4  -2   72.28    7.57
  13  -4  -2   73.71    7.98
  13   4  -2   72.84    7.45
  13   4  -2   75.88    7.64
  13  -4  -1   42.62    5.91
  13  -4  -1   37.49    5.54
  13   4  -1   32.20    5.02
  13   4  -1   37.49    5.30
  13   4   0    0.47    2.07
  13  -4   0    1.17    1.26
  13   4   0   -0.81    1.30
  13  -4   0   -0.38    1.09
  13   4   0   -0.01    0.79
  13  -4   1   45.83    6.38
  13  -4   1   48.51    6.50
  13   4   1   42.98    5.86
  13   4   1   41.89    5.64
  13  -4   2   86.42    8.50
  13  -4   2   79.63    8.26
  13   4   2   74.78    7.68
  13   4   2   77.76    7.70
  13   4   3    3.02    2.24
  13  -4   3    0.46    0.81
  13   4   3    3.48    0.61
  13  -4   3    3.33    2.45
  13   4   4   12.47    3.07
  13  -4   4   10.67    2.84
  13   4   4    6.44    2.32
  13  -4   4    8.81    2.76
  13   4   5    2.51    1.05
  13  -4   5    1.14    1.29
  13   4   5    5.04    1.90
  13  -4   6   51.63    6.55
  13  -4   6   44.72    6.29
  13   4   6   45.48    6.05
  13   4   6   47.90    6.47
  13   4   7    2.94    2.02
  13  -4   7    2.42    1.67
  13   4   7    3.44    2.05
  13  -4   7    6.87    3.16
  13   4   8   -0.05    1.38
  13  -4   8    0.19    1.43
  13   4   8    0.30    1.22
  13  -4   8   -0.58    1.69
  13   4   9   76.95    8.09
  13  -4   9   81.10    8.51
  13  -4   9   76.02    8.42
  13   4   9   83.96    8.43
  13   4  10    4.68    2.92
  13  -4  10    2.52    1.32
  13   4  10    2.59    1.08
  13  -4  10    2.23    2.40
  13   4  11    1.28    1.81
  13  -4  11    0.91    1.90
  13   4  11    1.73    1.58
  13  -4  11    0.16    2.29
  13   4  12    1.79    2.47
  13  -4  12    4.96    1.65
  13   4  12    2.62    1.94
  13   4  13    0.24    1.58
  13  -4  13   -1.55    2.04
  13   4  13    1.70    1.34
  13   4  14    5.54    2.53
  13  -4  14    0.98    1.29
  13   4  14    0.94    1.96
  13  -4  15   13.13    4.14
  13   4  15   11.99    3.42
  13  -4  16   -0.91    1.70
  13   4  16    2.51    1.12
  13  -4  17    5.98    2.59
  13   4  17    8.23    2.97
  13  -4  18   -1.09    0.90
  13   4  18    1.16    1.90
  13   4  19    3.78    2.75
  13  -4  19    7.82    3.32
  13   4  20    0.12    1.73
  13  -4  20    1.43    2.72
  13   4  21    2.86    2.23
  13  -5 -20   10.51    3.14
  13  -5 -19   -1.07    2.17
  13   5 -19   -0.73    1.21
  13  -5 -18    1.06    1.80
  13   5 -18    1.60    1.86
  13  -5 -17   12.08    3.62
  13  -5 -17   12.03    4.59
  13   5 -17    3.16    2.46
  13  -5 -16    5.59    3.07
  13  -5 -16    9.15    3.00
  13   5 -16   14.72    3.31
  13  -5 -15    5.47    2.79
  13  -5 -15    4.31    3.28
  13   5 -15    2.09    2.58
  13  -5 -14   11.83    3.31
  13  -5 -14    8.97    3.43
  13   5 -14   12.66    3.36
  13  -5 -13    3.40    2.03
  13  -5 -13    4.48    2.07
  13   5 -13    1.34    1.53
  13   5 -12   14.80    3.38
  13  -5 -12   12.87    3.54
  13  -5 -12    4.99    2.07
  13  -5 -11   17.82    4.48
  13  -5 -11   28.27    5.13
  13   5 -11   36.03    5.41
  13   5 -10   16.84    3.71
  13  -5 -10    9.47    3.79
  13  -5 -10   18.01    4.23
  13   5  -9    5.97    2.57
  13  -5  -9    4.46    2.20
  13  -5  -9    1.21    2.21
  13   5  -8   -0.45    0.78
  13  -5  -8    0.35    0.75
  13   5  -7   18.63    3.89
  13  -5  -7   18.53    4.34
  13  -5  -7   18.98    4.30
  13  -5  -6   44.64    6.27
  13   5  -6   35.49    5.25
  13  -5  -6   41.37    5.98
  13  -5  -5    4.57    2.29
  13  -5  -5    3.37    1.20
  13  -5  -4   43.84    6.39
  13   5  -4   55.58    6.43
  13   5  -4   46.46    6.46
  13  -5  -4   40.66    6.13
  13   5  -3   25.64    4.19
  13  -5  -3   28.98    5.44
  13   5  -3   26.66    4.51
  13  -5  -3   22.35    4.77
  13  -5  -2   83.07    8.46
  13   5  -2   77.02    7.93
  13   5  -2   66.40    7.42
  13  -5  -2   71.02    7.66
  13  -5  -1   71.58    7.78
  13  -5  -1   61.16    7.35
  13   5  -1   45.28    5.96
  13   5  -1   63.96    7.24
  13   5   0    6.37    3.21
  13  -5   0   14.37    3.36
  13   5   0   12.29    3.42
  13  -5   0   14.41    3.63
  13  -5   1   50.65    6.61
  13  -5   1   57.38    7.26
  13   5   1   56.67    6.96
  13   5   1   53.66    6.44
  13   5   2   74.72    7.82
  13  -5   2   82.05    8.18
  13  -5   2   73.11    8.28
  13   5   3   25.54    4.72
  13  -5   3   32.28    5.13
  13  -5   3   28.24    5.19
  13   5   3   31.06    5.43
  13   5   4   38.76    5.55
  13  -5   4   43.16    6.26
  13  -5   4   48.89    6.96
  13   5   4   43.61    6.33
  13   5   5   13.61    3.04
  13  -5   5   12.84    3.83
  13   5   5    9.55    3.01
  13  -5   5   11.12    3.20
  13   5   6   34.95    5.53
  13  -5   6   52.47    7.09
  13  -5   6   49.79    6.63
  13   5   6   43.42    6.11
  13   5   7   16.80    3.67
  13   5   7   24.89    4.57
  13  -5   7   27.30    5.02
  13  -5   7   19.39    4.31
  13   5   8    4.59    2.73
  13  -5   8    1.11    1.04
  13   5   8    2.39    1.93
  13  -5   8    5.93    1.98
  13   5   9    3.16    2.31
  13  -5   9    3.53    1.42
  13   5   9    4.49    2.61
  13  -5   9    1.71    1.78
  13   5  10   19.64    4.28
  13  -5  10   18.33    3.99
  13   5  10   11.86    3.87
  13  -5  10   15.44    4.08
  13   5  11   29.50    5.15
  13  -5  11   32.99    5.61
  13  -5  11   34.18    5.48
  13   5  11   28.92    5.19
  13   5  12   10.77    3.42
  13  -5  12   12.46    3.74
  13   5  12   16.03    3.81
  13  -5  12    7.77    2.51
  13   5  13    4.75    1.78
  13  -5  13    5.19    2.47
  13   5  13    3.26    1.10
  13  -5  13    2.30    2.28
  13   5  14    8.61    3.26
  13  -5  14   14.07    3.82
  13   5  14   14.20    3.62
  13  -5  14   17.67    4.43
  13  -5  15    4.16    2.84
  13   5  15    4.82    3.33
  13  -5  15    4.83    2.58
  13  -5  16    4.96    2.74
  13   5  16   11.50    3.47
  13  -5  17   14.98    4.19
  13   5  17   12.82    3.71
  13  -5  18    5.97    3.14
  13   5  18    3.39    2.57
  13  -5  19   10.13    4.26
  13   5  19    1.46    2.36
  13   5  20    8.71    2.77
  13  -6 -18   -1.41    1.91
  13  -6 -18    2.50    1.86
  13   6 -18   -1.46    1.64
  13  -6 -17    0.79    1.77
  13  -6 -17    2.09    2.87
  13   6 -17    0.03    1.47
  13  -6 -16    1.37    1.03
  13  -6 -16   -0.90    1.24
  13   6 -16    2.17    3.00
  13  -6 -15    2.71    2.50
  13  -6 -15    0.90    1.65
  13   6 -15    5.83    3.18
  13   6 -14    2.74    2.50
  13  -6 -14    2.44    1.02
  13  -6 -14   -0.37    1.53
  13   6 -13    6.42    1.91
  13  -6 -13    3.47    2.37
  13  -6 -13    3.95    2.69
  13  -6 -12    0.09    1.17
  13   6 -12    0.97    1.83
  13  -6 -12   -1.48    1.58
  13  -6 -11    2.79    1.92
  13   6 -11    3.77    2.39
  13  -6 -11    3.36    1.66
  13   6 -10    5.00    2.57
  13  -6 -10    0.25    1.00
  13  -6 -10    2.29    2.09
  13   6  -9    1.17    1.33
  13  -6  -9    1.97    1.73
  13  -6  -9    0.70    1.34
  13   6  -8    0.19    1.19
  13  -6  -8    1.72    1.57
  13  -6  -8    2.22    2.52
  13   6  -7    2.38    1.78
  13  -6  -7    4.39    2.86
  13  -6  -7    2.24    1.25
  13   6  -6    1.52    1.33
  13  -6  -6    0.89    2.15
  13  -6  -6    0.30    1.82
  13   6  -5   -0.59    1.95
  13  -6  -5    0.85    1.37
  13  -6  -5    0.55    1.75
  13   6  -4    0.80    1.40
  13  -6  -4    1.88    2.39
  13  -6  -4    0.40    1.28
  13   6  -3    7.13    2.92
  13  -6  -3    4.55    2.63
  13   6  -3    9.15    3.03
  13  -6  -3    6.71    2.21
  13   6  -2    2.74    1.78
  13  -6  -2    3.54    2.67
  13   6  -2    1.96    1.68
  13  -6  -2    6.55    2.80
  13   6  -1    4.37    1.98
  13  -6  -1    6.66    2.95
  13   6  -1    3.20    2.35
  13  -6  -1    9.57    3.13
  13   6   0   -0.76    1.31
  13  -6   0   -0.37    1.32
  13   6   0    2.29    1.47
  13  -6   0    1.80    1.98
  13   6   1    2.27    1.54
  13  -6   1    1.36    1.48
  13   6   1    2.13    1.88
  13  -6   1    4.20    1.42
  13   6   2    4.89    1.64
  13  -6   2    2.13    1.17
  13   6   2    3.71    2.36
  13  -6   2    8.78    2.20
  13   6   3    5.30    2.77
  13  -6   3    6.31    2.75
  13   6   3    5.79    2.28
  13  -6   3    4.24    2.26
  13   6   4   -1.13    1.38
  13  -6   4   -0.69    1.31
  13   6   4    0.02    0.85
  13  -6   4   -2.98    2.25
  13   6   5    1.12    2.02
  13  -6   5   -0.42    1.60
  13   6   5   -0.01    0.80
  13  -6   5   -1.17    1.32
  13   6   6   -1.41    2.56
  13  -6   6    2.02    1.98
  13   6   6    4.28    2.30
  13  -6   6    2.33    2.20
  13   6   7    0.78    1.41
  13  -6   7    2.44    2.05
  13   6   7    4.25    2.31
  13  -6   7   -0.38    1.78
  13   6   8    2.93    2.52
  13  -6   8    4.26    2.80
  13   6   8    1.99    1.51
  13  -6   8   -0.01    2.37
  13   6   9    1.49    2.25
  13  -6   9    4.06    3.43
  13   6   9    5.50    2.51
  13  -6   9    3.90    2.92
  13   6  10    5.46    2.71
  13  -6  10    2.72    1.30
  13   6  10    3.47    1.53
  13  -6  10    5.41    2.50
  13   6  11    6.75    2.71
  13  -6  11    2.98    1.15
  13   6  11    3.81    1.52
  13  -6  11    6.73    1.98
  13   6  12    1.51    2.48
  13  -6  12   -0.38    2.00
  13   6  12   -0.76    1.35
  13  -6  12    1.72    2.21
  13   6  13    3.30    2.82
  13  -6  13    1.80    1.96
  13   6  13    1.62    1.08
  13  -6  13    4.64    2.27
  13   6  14    1.04    2.35
  13  -6  14    1.93    1.30
  13   6  14    1.28    1.99
  13  -6  14   -1.32    1.44
  13  -6  15   -0.62    1.46
  13   6  15    0.72    1.24
  13  -6  15    0.71    1.58
  13  -6  16    2.05    1.91
  13   6  16   -2.15    2.15
  13  -6  16   -1.24    1.51
  13  -6  17   -0.22    2.11
  13   6  17   -2.05    1.33
  13  -6  17    0.35    1.87
  13   6  18    0.09    1.30
  13  -6  18   -4.56    3.86
  13   7 -15    1.94    1.64
  13  -7 -15    4.64    2.91
  13  -7 -15    4.34    2.48
  13   7 -14    7.33    3.41
  13  -7 -14    9.08    3.62
  13  -7 -14    5.13    2.18
  13   7 -13    2.15    1.82
  13  -7 -13    3.19    2.24
  13  -7 -13    3.63    2.78
  13   7 -12    2.58    2.62
  13  -7 -12    0.24    2.20
  13  -7 -12    4.19    3.15
  13   7 -11    3.53    2.29
  13  -7 -11    7.97    3.31
  13  -7 -11    2.84    2.30
  13  -7 -10   28.25    5.59
  13   7 -10   32.15    5.41
  13  -7 -10   29.32    5.10
  13  -7  -9    3.16    2.07
  13   7  -9    8.57    3.08
  13  -7  -9    3.43    2.04
  13  -7  -8    7.11    3.48
  13   7  -8    7.33    3.03
  13  -7  -8    9.45    3.53
  13  -7  -7    4.87    1.69
  13   7  -7    0.60    1.57
  13  -7  -7    5.21    2.78
  13  -7  -6   17.02    3.92
  13   7  -6   28.00    4.65
  13  -7  -6   22.85    4.76
  13  -7  -5   -0.92    1.16
  13   7  -5    3.12    1.57
  13  -7  -5   -0.39    1.79
  13  -7  -4   10.04    2.86
  13   7  -4   20.56    4.30
  13  -7  -4   16.65    3.80
  13   7  -3    7.70    2.68
  13  -7  -3    6.82    2.82
  13  -7  -3   11.52    3.94
  13   7  -2    8.27    3.35
  13  -7  -2    9.36    3.41
  13  -7  -2    8.02    2.67
  13   7  -1    5.34    2.51
  13  -7  -1    0.42    1.66
  13   7  -1    1.98    2.18
  13   7   0    6.02    2.50
  13  -7   0    9.45    3.78
  13   7   0    9.81    3.08
  13  -7   0    7.60    2.61
  13   7   1    8.42    3.13
  13  -7   1    8.26    2.61
  13   7   1    4.65    2.15
  13  -7   1    7.76    2.74
  13   7   2   15.42    3.51
  13  -7   2    7.63    3.14
  13  -7   2    7.62    3.22
  13   7   2    8.63    3.11
  13   7   3    4.38    2.38
  13  -7   3    7.45    2.21
  13  -7   3    8.70    2.77
  13   7   3    9.17    3.48
  13   7   4   17.17    3.89
  13  -7   4   17.81    3.96
  13  -7   4   18.80    4.76
  13   7   4   18.32    4.25
  13   7   5   -1.82    2.33
  13  -7   5    3.00    2.49
  13  -7   5   -0.74    2.44
  13   7   5    1.81    1.53
  13   7   6   24.04    4.95
  13  -7   6   26.91    5.30
  13  -7   6   25.12    5.15
  13   7   6   24.03    4.77
  13   7   7    4.30    2.35
  13  -7   7    6.35    2.14
  13  -7   7    3.19    2.13
  13   7   7    2.62    0.96
  13   7   8    6.77    2.56
  13  -7   8    5.18    2.74
  13  -7   8    5.01    3.10
  13   7   8    7.31    2.95
  13   7   9    4.36    3.41
  13  -7   9    1.96    1.34
  13  -7   9    8.76    2.83
  13   7   9    7.20    2.90
  13   7  10   27.20    5.07
  13   7  10   35.73    5.51
  13  -7  10   34.52    5.96
  13  -7  10   30.82    5.78
  13   7  11    3.64    1.30
  13  -7  11    9.09    3.40
  13  -7  11    0.49    2.86
  13   7  11    3.24    2.18
  13   7  12   -0.36    2.10
  13  -7  12    0.18    1.45
  13  -7  12    2.34    3.08
  13   7  12    0.28    0.93
  13   7  13    3.07    2.18
  13  -7  13    0.73    2.72
  13  -7  13    1.74    2.44
  13   7  13    0.49    1.31
  13   7  14    5.70    2.73
  13  -7  14    4.97    2.71
  13  -7  14    7.35    3.34
  13   7  14    8.87    3.59
  13  -7  15   -1.00    2.47
  13  -7  15   -1.99    2.48
  13   7  15    4.48    2.18
  13   8 -11    1.37    1.90
  13  -8 -11   -0.04    2.28
  13  -8 -11    6.80    2.96
  13   8 -10   -0.33    0.81
  13  -8 -10    1.99    1.89
  13  -8 -10   -1.36    1.77
  13   8  -9    1.32    2.06
  13  -8  -9    3.02    1.85
  13  -8  -9    1.01    1.78
  13   8  -8    3.46    2.38
  13  -8  -8   -2.63    2.62
  13  -8  -8   -0.67    1.91
  13   8  -7    6.40    2.55
  13  -8  -7    1.90    1.96
  13  -8  -7    4.07    2.43
  13  -8  -6    2.67    1.61
  13   8  -6    1.92    2.29
  13  -8  -6    2.14    2.87
  13  -8  -5    0.78    0.91
  13   8  -5   -0.25    1.56
  13  -8  -5    0.40    1.23
  13  -8  -4    1.18    1.51
  13   8  -4   -0.06    1.52
 -13   8  -4    0.79    1.33
  13  -8  -4   -0.14    2.28
  13  -8  -3    2.82    1.88
  13   8  -3    6.49    1.77
  13  -8  -2    5.98    2.66
  13   8  -2    1.18    0.89
  13  -8  -2    4.13    2.06
  13  -8  -1   -0.03    1.10
  13   8  -1   -0.70    1.22
  13  -8  -1    0.63    1.97
  13  -8   0   -0.16    1.01
  13   8   0    5.32    2.77
  13  -8   0   -0.65    1.55
  13   8   0    3.56    2.74
  13  -8   1   -1.70    1.45
  13   8   1    0.17    1.41
  13  -8   1    1.87    1.22
  13   8   1   -2.02    2.83
  13  -8   2    2.12    2.67
  13   8   2    1.73    1.61
  13  -8   2   -0.15    1.37
  13   8   2    0.53    0.92
  13  -8   3    1.65    2.04
  13   8   3   -1.36    1.71
  13  -8   3    4.74    2.78
  13   8   3    4.02    1.56
  13  -8   4   -0.06    1.85
  13   8   4    4.41    3.52
  13  -8   4   -0.52    2.11
  13   8   4    1.83    1.59
  13  -8   5    3.64    2.31
  13   8   5    5.83    3.19
  13  -8   5   -1.53    2.91
  13   8   5    2.47    2.47
  13   8   6    2.37    2.52
  13  -8   6   -2.34    2.47
  13  -8   6    2.53    1.72
  13   8   6    2.35    2.39
  13   8   7    3.93    1.81
  13  -8   7    3.29    2.97
  13  -8   7    4.15    2.53
  13   8   7    2.11    1.97
  13   8   8    2.42    2.42
  13  -8   8    2.61    1.57
  13  -8   8   -2.11    2.43
  13   8   8    5.10    2.99
  13   8   9    0.42    1.76
  13  -8   9   -0.80    1.88
  13  -8   9    2.66    2.72
  13   8   9    3.13    2.89
  13   8  10   -0.32    1.51
  13  -8  10    2.89    2.33
  13   8  10    1.01    1.05
  13   8  11    1.73    2.39
  13  -8  11    1.18    1.90
  13   8  11    3.92    1.57
  13   9  -4   24.94    5.23
 -13   9  -4   17.28    5.91
  13  -9  -4   14.78    4.22
  13  -9  -4   12.67    4.34
  13   9  -3    3.67    2.45
 -13   9  -3    2.73    2.60
  13  -9  -3    3.65    2.15
  13  -9  -3    2.31    1.94
  13  -9  -2    2.61    1.84
  13   9  -2   -1.20    1.26
 -13   9  -2    0.53    1.77
  13  -9  -2    3.16    2.73
  13  -9  -1    1.67    2.90
  13   9  -1    1.86    1.89
 -13   9  -1   -1.19    1.26
  13  -9  -1    0.67    1.62
  13  -9   0   12.51    4.71
  13   9   0    5.24    3.02
 -13   9   0    8.97    3.22
  13  -9   0   11.08    3.34
  13  -9   1    1.92    2.18
  13   9   1   -1.46    2.77
 -13   9   1    0.35    2.06
  13  -9   1   -0.03    1.57
  13  -9   2    2.21    1.16
  13   9   2    2.69    1.09
 -13   9   2    4.97    3.06
  13  -9   2    3.88    2.88
  13   9   2    1.27    2.03
  13  -9   3   -1.02    1.84
  13   9   3    4.17    1.44
 -13   9   3    3.16    2.42
  13  -9   3    2.53    2.82
  13   9   3    1.74    2.49
  13  -9   4   12.35    3.48
  13   9   4    9.65    3.74
 -13   9   4   14.41    4.24
  13   9   4   16.87    4.24
  14   0 -21   23.06    5.58
  14   0 -20    7.79    2.37
  14   0 -19    9.42    3.64
  14   0 -18    1.39    1.86
  14   0 -17    5.45    2.77
  14   0 -16   34.09    5.85
  14   0 -15    2.89    2.05
  14   0 -14   15.85    3.75
  14   0 -13   50.68    6.84
  14   0 -12   66.03    7.59
  14   0 -11    9.34    2.97
  14   0 -10   66.13    7.31
  14   0 -10   78.93    8.50
  14   0  -9    6.62    2.47
  14   0  -9   12.10    3.37
  14   0  -8   10.51    3.27
  14   0  -8   11.10    3.69
  14   0  -7   80.45    8.14
  14   0  -7   80.28    8.39
  14   0  -6  160.19   11.16
  14   0  -6  154.00   11.45
  14   0  -5   48.00    6.38
  14   0  -5   57.03    6.86
  14   0  -4  114.51    9.39
  14   0  -4  113.03    9.81
  14   0  -3   46.30    5.64
  14   0  -3   57.26    6.92
  14   0  -2   40.13    5.52
  14   0  -2   48.38    6.52
  14   0  -1   34.61    5.20
  14   0  -1   55.90    6.83
  14   0   0   90.57    8.50
  14   0   0   97.60    8.88
  14   0   0   87.60    8.12
  14   0   1   37.72    5.47
  14   0   1   45.34    5.94
  14   0   1   36.92    4.97
  14   0   2   38.95    5.46
  14   0   2   34.47    5.20
  14   0   2   35.57    5.09
  14   0   3   56.15    6.74
  14   0   3   56.04    6.89
  14   0   3   54.45    6.35
  14   0   4  109.46    9.19
  14   0   4   94.39    8.65
  14   0   4   95.47    8.19
  14   0   5   51.89    6.61
  14   0   5   56.77    6.37
  14   0   6  128.12   10.27
  14   0   6  152.93   10.53
  14   0   7   83.45    8.27
  14   0   8   15.47    3.62
  14   0   9   10.02    3.32
  14   0  10   67.12    7.35
  14   0  11   12.16    3.26
  14   0  12   53.54    6.71
  14   0  13   34.66    5.57
  14   0  14   16.34    3.78
  14   0  15    1.50    2.02
  14   0  16   27.90    5.34
  14   0  17    5.53    2.56
  14   0  18    1.89    1.85
  14   0  19    8.13    2.54
  14   0  20   18.29    4.63
  14   0  21   17.53    4.42
  14   0  22    5.71    2.84
  14   0  23    4.63    2.84
  14  -1 -22    0.52    2.29
  14  -1 -21    3.81    2.39
  14  -1 -20    1.52    2.24
  14  -1 -19    4.61    2.49
  14  -1 -18   -0.14    0.99
  14  -1 -17   -0.26    1.31
  14   1 -16    3.66    2.68
  14  -1 -16    2.64    1.93
  14   1 -15    3.72    2.10
  14  -1 -15    3.83    1.78
  14   1 -14   -0.87    1.88
  14  -1 -14    0.14    1.48
  14   1 -13    1.62    1.29
  14  -1 -13    2.56    2.03
  14   1 -12    1.31    1.52
  14  -1 -12   -1.22    1.41
  14  -1 -11    0.20    1.30
  14  -1 -11   -0.20    1.60
  14   1 -11   -0.16    1.71
  14  -1 -10    6.23    2.53
  14  -1 -10    4.12    1.62
  14   1 -10    5.11    2.11
  14  -1  -9    7.79    2.75
  14   1  -9    9.37    2.78
  14  -1  -9    9.43    2.72
  14   1  -9    6.87    2.29
  14   1  -9   11.11    3.05
  14  -1  -8    2.57    2.62
  14   1  -8    1.37    1.09
  14  -1  -8   -0.11    1.06
  14   1  -8    2.55    1.38
  14   1  -8    1.19    2.13
  14   1  -7   20.12    4.15
  14  -1  -7   15.36    3.52
  14  -1  -7   16.95    4.03
  14   1  -7   17.73    3.73
  14   1  -7   16.77    3.93
  14  -1  -6    3.11    2.11
  14   1  -6    1.45    0.63
  14  -1  -6    1.87    0.90
  14   1  -6    1.33    0.78
  14   1  -6    2.80    1.54
  14  -1  -5   -0.15    0.85
  14   1  -5   -0.19    1.37
  14  -1  -5    1.88    1.99
  14   1  -5    0.64    1.53
  14   1  -5    2.20    2.26
  14  -1  -4    6.97    1.76
  14   1  -4    6.32    2.23
  14  -1  -4    5.21    2.06
  14   1  -4    7.03    2.38
  14   1  -4    6.82    2.06
  14  -1  -3    8.89    2.70
  14  -1  -3    5.78    2.49
  14   1  -3    7.20    2.77
  14   1  -3    8.29    3.14
  14   1  -3    7.67    2.91
  14  -1  -2   29.52    4.75
  14   1  -2   34.87    5.34
  14  -1  -2   24.77    4.58
  14   1  -2   37.18    5.54
  14   1  -2   31.80    4.77
  14  -1  -1   33.56    5.23
  14   1  -1   35.75    5.24
  14  -1  -1   36.29    5.86
  14   1  -1   34.32    5.07
  14   1  -1   31.20    5.00
  14  -1   0   33.78    5.12
  14   1   0   27.54    4.47
  14  -1   0   34.29    5.16
  14   1   0   34.16    4.93
  14   1   0   25.27    4.51
  14  -1   1   31.51    4.71
  14   1   1   36.36    5.27
  14  -1   1   23.91    4.51
  14   1   1   39.04    5.68
  14   1   1   31.68    4.84
  14  -1   2   32.26    5.14
  14   1   2   23.29    4.63
  14  -1   2   28.74    4.95
  14   1   2   27.81    4.71
  14   1   2   28.75    4.59
  14  -1   3    8.30    2.55
  14  -1   3    4.69    1.82
  14   1   3    7.41    2.46
  14   1   3    5.71    2.23
  14   1   3    4.49    2.49
  14   1   4    7.57    2.18
  14  -1   4   10.28    2.69
  14  -1   4    5.61    2.81
  14   1   4    5.52    2.23
  14   1   5   -0.63    1.09
  14  -1   5    2.04    2.05
  14  -1   5    2.09    2.33
  14   1   5   -0.29    0.99
  14   1   6    1.14    1.35
  14  -1   6    1.49    1.42
  14   1   6   -0.57    1.73
  14   1   7   14.02    3.60
  14  -1   7   13.82    3.30
  14   1   7   24.87    4.33
  14   1   8    3.13    1.85
  14  -1   8    5.23    2.05
  14   1   8    4.93    2.20
  14   1   9   12.38    3.47
  14  -1   9    6.82    2.39
  14   1   9   16.99    4.02
  14   1  10    3.84    1.48
  14  -1  10    1.48    1.89
  14   1  10    1.72    1.42
  14   1  11    1.80    1.49
  14  -1  11   -2.61    2.03
  14   1  11   -0.67    1.06
  14   1  12    3.84    1.46
  14  -1  12    0.33    1.94
  14   1  13    1.75    0.82
  14  -1  13    1.54    2.01
  14   1  14    1.40    1.64
  14  -1  14    3.43    1.87
  14   1  15    4.78    2.24
  14  -1  15   11.39    3.65
  14   1  16    0.26    0.99
  14  -1  16    1.42    1.24
  14   1  17   -1.34    2.23
  14  -1  17    2.40    2.11
  14   1  18    2.84    1.08
  14  -1  18    3.15    2.19
  14   1  19    0.78    1.56
  14  -1  19    1.34    1.90
  14   1  20   -1.30    2.47
  14  -1  20    2.55    1.10
  14   1  21   -1.59    2.65
  14  -1  21   -0.50    1.58
  14   1  22    0.10    1.23
  14  -1  22   -0.44    1.66
  14  -2 -22    8.74    2.92
  14  -2 -21    7.73    2.28
  14  -2 -20   11.36    3.88
  14  -2 -19    2.62    1.95
  14  -2 -18   -2.30    1.74
  14  -2 -17    4.46    2.31
  14  -2 -16   32.94    5.94
  14  -2 -15    5.13    2.33
  14  -2 -14   34.85    5.76
  14   2 -14   34.23    5.22
  14  -2 -13   11.67    3.83
  14  -2 -13   11.68    3.25
  14   2 -13   11.62    3.22
  14  -2 -12   19.24    4.11
  14  -2 -12   22.40    4.40
  14   2 -12   28.95    5.05
  14  -2 -11    0.08    0.98
  14  -2 -11    0.15    1.30
  14  -2 -10   26.99    4.75
  14  -2 -10   30.38    5.07
  14   2 -10   37.10    5.68
  14   2 -10   32.93    5.36
  14  -2  -9   28.33    4.72
  14  -2  -9   34.21    5.75
  14   2  -9   37.11    5.43
  14   2  -9   41.57    5.77
  14  -2  -8   18.46    4.26
  14   2  -8   16.77    4.05
  14  -2  -8    7.44    2.67
  14   2  -8   12.59    3.68
  14   2  -8   11.23    2.92
  14  -2  -7    6.57    2.82
  14  -2  -7   11.95    3.41
  14   2  -7    7.78    2.28
  14   2  -7   11.35    2.65
  14   2  -7    7.30    2.19
  14  -2  -6   36.28    5.59
  14   2  -6   34.65    4.90
  14  -2  -6   36.22    5.54
  14   2  -6   40.12    5.54
  14   2  -6   43.40    6.16
  14  -2  -5   30.59    5.13
  14   2  -5   33.49    4.94
  14  -2  -5   36.20    5.59
  14   2  -5   35.01    5.18
  14   2  -5   37.52    5.54
  14  -2  -4   60.14    6.96
  14   2  -4   53.96    6.34
  14  -2  -4   58.59    7.22
  14   2  -4   56.82    6.63
  14   2  -4   67.00    7.07
  14  -2  -3   22.71    4.26
  14  -2  -3   15.83    3.68
  14   2  -3   22.11    4.38
  14   2  -3   16.19    3.35
  14   2  -3   12.55    3.16
  14  -2  -2    9.08    3.36
  14  -2  -2    9.03    2.85
  14   2  -2    3.30    1.90
  14   2  -2    2.46    0.93
  14   2  -2    6.90    2.61
  14   2  -1    4.49    2.33
  14  -2  -1    7.08    2.38
  14  -2  -1    6.41    2.98
  14   2  -1   10.51    2.91
  14   2  -1   11.23    2.58
  14  -2   0  107.05    9.28
  14   2   0  102.93    8.88
  14  -2   0  100.24    9.34
  14   2   0   93.10    8.65
  14   2   0  104.10    9.10
  14   2   1   11.36    3.23
  14  -2   1    6.33    2.45
  14  -2   1    6.97    2.59
  14   2   1   12.59    3.62
  14   2   1    5.06    2.89
  14   2   2    6.22    2.55
  14  -2   2    3.81    1.94
  14  -2   2    4.68    1.79
  14   2   2    3.30    1.75
  14   2   2    5.83    2.40
  14   2   3   17.06    3.43
  14  -2   3   22.38    4.11
  14  -2   3   13.55    3.44
  14   2   3   16.95    4.16
  14  -2   4   52.76    6.83
  14   2   4   57.88    6.88
  14  -2   4   61.13    7.37
  14   2   4   51.38    6.53
  14  -2   5   23.82    4.85
  14   2   5   33.00    5.10
  14  -2   5   26.80    4.68
  14   2   5   29.67    4.91
  14  -2   6   37.60    5.58
  14   2   6   40.69    5.75
  14  -2   6   50.75    6.89
  14   2   6   43.94    6.02
  14   2   7   12.68    3.63
  14  -2   7    7.85    2.32
  14  -2   7   10.24    2.65
  14   2   7   12.96    3.33
  14   2   8   12.68    3.22
  14  -2   8   10.08    2.98
  14   2   8   12.13    3.46
  14  -2   9   47.77    6.27
  14   2   9   41.42    6.02
  14   2   9   29.40    5.14
  14  -2  10   29.04    5.11
  14   2  10   24.73    4.85
  14   2  10   30.51    5.33
  14   2  11    4.95    2.38
  14  -2  11    3.07    1.45
  14   2  11    2.08    0.93
  14   2  12   21.64    4.36
  14  -2  12   24.16    4.90
  14   2  12   27.01    4.47
  14   2  13    9.31    2.71
  14  -2  13   11.46    3.76
  14  -2  14   33.49    5.65
  14   2  14   28.17    5.16
  14   2  15    8.56    3.28
  14  -2  15    5.05    2.79
  14  -2  16   31.30    5.33
  14   2  16   28.77    5.00
  14   2  17    8.37    2.74
  14  -2  17    2.44    2.40
  14   2  18    0.42    1.54
  14  -2  18    2.43    2.35
  14   2  19    1.09    1.14
  14  -2  19    1.41    2.23
  14   2  20   16.57    4.23
  14  -2  20   18.90    4.94
  14   2  21    6.45    2.86
  14  -2  21    3.14    2.61
  14   2  22    2.08    1.31
  14  -2  22    3.55    1.53
  14  -3 -21   -1.48    1.73
  14  -3 -20    3.36    1.27
  14  -3 -19   -0.43    1.75
  14  -3 -18   -2.61    2.46
  14  -3 -17   -0.95    1.06
  14   3 -17    4.52    2.48
  14  -3 -16    7.40    2.91
  14   3 -16    8.83    3.00
  14  -3 -15   -0.82    2.09
  14   3 -15   -0.53    1.01
  14  -3 -14    6.22    2.26
  14  -3 -14    0.17    1.22
  14   3 -14    8.78    2.61
  14  -3 -13    1.18    1.60
  14  -3 -13   -0.38    1.68
  14   3 -13    0.92    1.10
  14  -3 -12    1.23    1.53
  14  -3 -12    1.43    1.06
  14   3 -12    0.01    2.02
  14  -3 -11    2.39    1.59
  14   3 -11    1.90    1.09
  14  -3 -10   20.14    4.28
  14  -3 -10   25.04    4.59
  14   3 -10   23.36    4.40
  14  -3  -9    2.65    0.89
  14  -3  -9    1.80    2.01
  14   3  -9   -0.86    1.17
  14  -3  -8    1.22    1.57
  14  -3  -8    0.28    1.07
  14   3  -8    2.78    1.69
  14  -3  -7    0.34    1.29
  14  -3  -7    3.21    2.19
  14   3  -7   -1.85    1.20
  14   3  -7    3.06    2.09
  14  -3  -6    8.67    3.05
  14  -3  -6    7.30    2.63
  14   3  -6    4.19    2.18
  14   3  -6    5.31    1.80
  14  -3  -5    9.75    3.29
  14  -3  -5    8.58    3.01
  14   3  -5    2.94    2.46
  14   3  -5    7.61    2.89
  14   3  -4    1.76    1.11
  14  -3  -4    0.20    1.45
  14  -3  -4    0.38    1.00
  14   3  -4    0.30    1.84
  14   3  -4    0.74    1.49
  14   3  -3    9.27    2.71
  14  -3  -3   10.29    2.84
  14  -3  -3    9.82    3.19
  14   3  -3   14.68    3.73
  14   3  -3   10.35    3.26
  14  -3  -2   70.17    7.78
  14   3  -2   62.70    6.97
  14  -3  -2   65.06    7.52
  14   3  -2   70.76    7.53
  14   3  -2   59.97    6.84
  14   3  -1   10.73    2.83
  14   3  -1   11.38    2.89
  14  -3  -1   11.83    2.86
  14  -3  -1   16.74    3.96
  14   3  -1   12.29    3.09
  14  -3   0   68.29    7.67
  14  -3   0   63.07    7.44
  14   3   0   64.67    7.08
  14   3   0   59.37    7.07
  14   3   0   53.91    6.50
  14   3   1   20.98    4.12
  14   3   1   17.24    3.85
  14  -3   1   20.50    4.05
  14  -3   1   17.70    3.94
  14   3   1   20.70    4.11
  14  -3   2   57.43    6.89
  14  -3   2   67.38    7.76
  14   3   2   58.78    6.89
  14   3   2   65.96    7.24
  14   3   3    7.41    2.53
  14   3   3    8.58    2.82
  14  -3   3   12.39    3.46
  14  -3   3    6.69    2.90
  14   3   4    0.59    1.22
  14   3   4   -0.46    1.45
  14  -3   4   -0.27    1.45
  14  -3   4    0.44    1.42
  14   3   5    9.72    3.23
  14   3   5    5.95    2.57
  14  -3   5    8.84    3.11
  14  -3   5    9.32    2.46
  14   3   6    3.62    2.03
  14   3   6    4.89    2.17
  14  -3   6    3.44    1.87
  14  -3   6    1.14    1.00
  14   3   7    3.18    2.43
  14   3   7    1.79    1.60
  14  -3   7    1.52    1.16
  14  -3   7    0.23    1.42
  14   3   8    0.47    1.16
  14   3   8    3.40    1.96
  14  -3   8    0.64    2.07
  14  -3   8   -1.14    1.88
  14   3   9    1.80    1.50
  14   3   9    3.05    2.13
  14  -3   9   -0.46    1.43
  14  -3   9    5.54    2.13
  14   3  10   19.89    4.01
  14  -3  10   19.80    4.16
  14   3  10   22.08    4.51
  14   3  11    2.28    1.45
  14   3  11    1.28    1.32
  14  -3  11    5.07    2.07
  14   3  12    4.13    2.94
  14   3  12    1.63    1.59
  14  -3  12    1.17    1.19
  14   3  13    3.61    2.77
  14  -3  13    1.17    1.62
  14   3  14    3.40    2.66
  14  -3  14    3.97    2.35
  14   3  15    4.13    1.63
  14  -3  15   -2.05    2.35
  14   3  16    6.69    2.39
  14  -3  16    4.98    2.72
  14   3  17    0.36    0.77
  14  -3  17   -1.14    1.73
  14   3  18    1.75    1.28
  14  -3  18    1.50    1.55
  14   3  19   -0.78    1.75
  14  -3  19   -1.37    1.12
  14   3  20    3.62    2.60
  14  -3  20    2.44    2.22
  14   3  21    0.28    1.82
  14  -3  21   -1.47    1.72
  14  -4 -20   16.24    4.09
  14   4 -20   15.73    4.96
  14  -4 -19   -1.03    2.42
  14   4 -19   -0.65    1.93
  14  -4 -18    5.54    1.94
  14   4 -18    6.06    2.78
  14  -4 -17   15.58    4.33
  14   4 -17   26.39    5.11
  14  -4 -16   14.38    3.56
  14   4 -16   12.11    3.60
  14  -4 -15   -0.01    2.08
  14   4 -15    1.59    0.93
  14  -4 -14   16.97    4.66
  14  -4 -14   15.62    4.51
  14   4 -14   18.75    4.15
  14  -4 -13    6.90    3.10
  14  -4 -13    6.88    2.84
  14   4 -13    3.83    2.10
  14  -4 -12   19.81    4.45
  14  -4 -12   20.33    4.40
  14   4 -12   18.22    4.11
  14  -4 -11   22.61    4.83
  14  -4 -11   28.48    5.29
  14   4 -11   27.48    5.08
  14  -4 -10   16.57    4.35
  14  -4 -10   21.69    4.67
  14   4 -10   24.65    4.34
  14  -4  -9   27.03    4.79
  14   4  -9   24.34    4.85
  14  -4  -9   29.93    5.23
  14  -4  -8    9.94    3.27
  14  -4  -8   10.00    3.59
  14   4  -8   10.02    3.25
  14   4  -7    9.73    3.27
  14  -4  -7    7.75    2.37
  14  -4  -7    6.64    2.42
  14  -4  -6   41.74    6.43
  14   4  -6   39.24    5.81
  14  -4  -6   33.43    5.87
  14   4  -5    7.01    2.70
  14   4  -5    9.96    2.63
  14  -4  -5    8.52    3.70
  14  -4  -5    7.83    2.53
  14  -4  -4   45.88    6.39
  14  -4  -4   44.54    6.46
  14   4  -4   30.25    5.02
  14   4  -4   37.07    5.60
  14  -4  -3   25.58    4.72
  14   4  -3   31.75    4.86
  14  -4  -3   19.54    4.39
  14   4  -3   37.01    5.66
  14   4  -2    6.41    2.76
  14   4  -2    8.55    2.40
  14  -4  -2    8.23    2.51
  14  -4  -2    6.16    2.31
  14   4  -1   16.57    3.57
  14   4  -1   14.55    3.28
  14  -4  -1   14.94    3.64
  14  -4  -1   17.73    4.00
  14  -4   0  191.82   12.92
  14  -4   0  230.99   14.55
  14   4   0  196.33   12.64
  14   4   1   14.68    3.28
  14   4   1   13.05    3.19
  14  -4   1   18.60    4.19
  14  -4   1   13.72    3.44
  14   4   1   11.42    3.58
  14   4   2    8.44    2.82
  14   4   2    8.93    2.57
  14  -4   2    6.03    1.86
  14  -4   2    4.28    2.54
  14   4   3   25.24    4.45
  14  -4   3   32.73    5.41
  14  -4   3   26.37    5.48
  14   4   3   33.58    5.53
  14  -4   4   34.70    5.77
  14  -4   4   38.79    6.08
  14   4   4   48.09    6.48
  14   4   4   45.89    6.27
  14   4   5    5.67    2.28
  14   4   5    7.99    2.70
  14  -4   5    7.53    3.01
  14  -4   5    5.69    2.79
  14  -4   6   33.90    5.36
  14  -4   6   40.14    6.02
  14   4   6   27.21    4.80
  14   4   6   36.23    5.19
  14   4   7    5.53    2.22
  14   4   7    5.68    2.83
  14  -4   7    6.67    2.43
  14  -4   7    4.95    2.67
  14   4   8   10.30    2.92
  14   4   8   10.75    3.35
  14  -4   8    7.18    2.33
  14  -4   8   18.26    4.10
  14  -4   9   28.54    5.21
  14  -4   9   31.43    5.58
  14   4   9   31.63    5.35
  14   4   9   31.23    5.41
  14   4  10   22.05    4.56
  14   4  10   17.40    4.47
  14  -4  10   22.04    4.48
  14  -4  10   19.70    4.59
  14   4  11   20.31    4.33
  14   4  11   14.90    3.76
  14  -4  11   14.69    3.15
  14  -4  11   23.70    4.72
  14   4  12   19.14    4.51
  14   4  12   22.07    4.55
  14  -4  12   23.31    4.73
  14  -4  12   18.28    4.52
  14   4  13    2.61    1.43
  14   4  13   10.71    3.41
  14  -4  13    7.71    3.48
  14  -4  13   11.16    3.55
  14   4  14    5.90    2.71
  14  -4  14   21.57    4.60
  14   4  15    3.54    2.10
  14  -4  15    1.99    1.12
  14   4  16   12.83    3.32
  14  -4  16   16.20    4.52
  14   4  17   13.73    3.93
  14  -4  17   22.95    5.12
  14   4  18    3.91    2.13
  14  -4  18    0.74    1.48
  14   4  19    0.31    0.95
  14  -4  19   -0.60    2.74
  14   4  20   15.61    4.27
  14  -4  20   16.16    5.05
  14  -5 -18    3.84    2.41
  14   5 -18    1.10    1.42
  14  -5 -17    2.97    2.67
  14   5 -17    1.82    1.87
  14  -5 -16    5.73    2.93
  14   5 -16    1.77    1.90
  14  -5 -16    4.10    3.58
  14  -5 -15    0.16    1.25
  14   5 -15    0.70    2.04
  14  -5 -15    1.22    2.23
  14  -5 -14    7.83    2.78
  14  -5 -14    5.38    2.57
  14   5 -14    5.20    1.94
  14  -5 -13    1.95    1.86
  14  -5 -13    5.66    2.70
  14   5 -13    1.39    1.70
  14  -5 -12    6.75    2.49
  14  -5 -12    4.86    2.92
  14   5 -12    5.75    2.36
  14   5 -11    3.51    2.27
  14  -5 -11    4.66    2.35
  14  -5 -11    5.34    2.80
  14   5 -10    6.88    2.97
  14  -5 -10    8.67    3.15
  14  -5 -10    5.65    2.60
  14   5  -9    7.34    2.26
  14  -5  -9    6.28    2.81
  14  -5  -9    8.68    3.54
  14   5  -8    4.30    2.35
  14  -5  -8    0.91    1.50
  14  -5  -8    2.48    2.13
  14   5  -7    1.67    1.17
  14  -5  -7    1.98    1.96
  14  -5  -7    3.16    1.67
  14   5  -6   -0.06    0.88
  14  -5  -6   -0.30    0.78
  14  -5  -6    0.78    1.13
  14   5  -5    4.16    2.21
  14  -5  -5    2.01    1.19
  14  -5  -5   -0.16    1.56
  14   5  -4    2.32    1.66
  14  -5  -4    9.99    3.11
  14   5  -4    8.95    3.58
  14  -5  -4   11.51    4.33
  14   5  -3    1.90    1.55
  14  -5  -3    4.55    1.73
  14   5  -3    2.10    1.92
  14  -5  -3    2.12    1.78
  14   5  -2    4.17    2.59
  14  -5  -2    4.79    2.65
  14   5  -2    1.91    1.88
  14  -5  -2    3.31    2.40
  14   5  -1    8.72    2.71
  14  -5  -1   21.34    4.70
  14   5  -1   14.15    3.91
  14  -5  -1   14.08    3.93
  14  -5   0   30.63    5.36
  14  -5   0   50.28    6.67
  14   5   0   47.75    6.40
  14   5   0   53.79    6.90
  14   5   1   19.21    3.99
  14  -5   1   19.17    4.05
  14   5   1   11.17    3.42
  14  -5   1   18.50    4.15
  14   5   2    3.60    1.67
  14  -5   2    2.60    1.79
  14   5   2    5.85    3.03
  14  -5   2    5.92    2.89
  14   5   3    3.41    1.76
  14  -5   3    2.79    2.86
  14   5   3   -0.22    1.87
  14  -5   3    1.08    2.38
  14   5   4    6.90    1.80
  14  -5   4    2.70    1.71
  14   5   4   10.18    3.15
  14  -5   4    6.59    2.27
  14   5   5    1.98    1.12
  14  -5   5    1.61    2.02
  14   5   5    0.09    0.77
  14  -5   5    0.67    2.16
  14   5   6   -2.13    2.29
  14  -5   6   -1.72    1.72
  14   5   6   -0.47    1.12
  14  -5   6   -0.09    1.34
  14   5   7    1.37    1.25
  14  -5   7    0.78    1.42
  14   5   7    3.60    2.07
  14  -5   7    1.65    1.31
  14   5   8   -0.28    1.38
  14  -5   8    2.44    1.60
  14   5   8    3.63    2.71
  14  -5   8    1.01    1.21
  14   5   9    8.06    2.73
  14  -5   9    7.80    2.69
  14   5   9    4.82    1.98
  14  -5   9    3.89    2.50
  14   5  10    8.58    2.26
  14  -5  10    9.22    2.44
  14   5  10    6.63    2.94
  14  -5  10    9.06    3.36
  14   5  11    2.96    2.34
  14  -5  11    2.07    1.28
  14   5  11    3.57    1.76
  14  -5  11    6.44    3.26
  14   5  12    7.99    2.28
  14  -5  12    8.14    2.70
  14   5  12    7.93    3.06
  14  -5  12    5.34    1.21
  14   5  13    3.69    2.41
  14  -5  13    4.31    2.91
  14   5  13    2.66    2.19
  14  -5  13    1.97    1.45
  14  -5  14    5.24    2.56
  14   5  14    8.78    3.02
  14  -5  14    3.79    2.40
  14  -5  15    0.40    1.90
  14   5  15   -2.27    2.24
  14  -5  15   -1.34    2.19
  14  -5  16    1.66    1.57
  14   5  16    1.22    1.92
  14  -5  16    3.46    3.37
  14  -5  17    2.57    2.39
  14   5  17   -0.01    1.00
  14  -5  17    1.54    2.21
  14  -5  18   -2.58    2.68
  14   5  18    2.21    2.71
  14  -6 -16    8.31    2.87
  14  -6 -16    7.88    4.11
  14   6 -16   14.20    4.22
  14  -6 -15    0.08    1.39
  14  -6 -15    1.29    2.27
  14   6 -15   -3.09    2.94
  14  -6 -14   -2.29    1.35
  14  -6 -14    6.09    3.66
  14   6 -14    2.58    2.24
  14   6 -13    3.22    2.12
  14  -6 -13    4.70    2.77
  14  -6 -13    4.15    1.77
  14   6 -12   18.49    4.10
  14  -6 -12   12.17    3.85
  14  -6 -12   17.48    4.80
  14  -6 -11    0.63    0.93
  14  -6 -11    3.03    1.11
  14  -6 -10   39.25    6.47
  14  -6 -10   28.11    5.60
  14   6 -10   30.13    5.60
  14   6  -9   16.23    4.20
  14  -6  -9   15.40    4.06
  14  -6  -9    9.47    3.46
  14   6  -8    2.38    1.97
  14  -6  -8   -0.46    1.19
  14   6  -7   11.40    4.00
  14  -6  -7    6.91    2.66
  14  -6  -7   10.23    3.70
  14  -6  -6   38.68    6.25
  14  -6  -6   44.52    6.72
  14   6  -6   43.48    6.36
  14   6  -5   -0.43    1.27
  14  -6  -5   -1.19    1.01
  14  -6  -5    2.02    2.35
  14  -6  -4   33.89    5.52
  14  -6  -4   30.92    5.65
  14   6  -4   43.93    6.17
  14   6  -3   18.60    4.29
  14  -6  -3   19.67    4.66
  14  -6  -3   19.62    4.79
  14   6  -2   17.57    4.40
  14  -6  -2    6.52    2.67
  14   6  -2   12.36    3.32
  14  -6  -2    8.31    3.06
  14   6  -1   15.05    3.59
  14  -6  -1    7.64    2.60
  14   6  -1    7.85    3.12
  14  -6  -1   13.26    3.97
  14  -6   0  108.93   10.49
  14   6   0  122.96   10.45
  14  -6   0   91.06    9.29
  14   6   0   88.46    9.08
  14   6   1   12.25    3.32
  14  -6   1   10.76    3.59
  14   6   1   11.57    3.02
  14  -6   1   15.42    4.37
  14   6   2   10.13    3.52
  14  -6   2   10.14    3.18
  14   6   2    8.75    3.39
  14  -6   2   12.08    3.73
  14   6   3   23.76    4.87
  14   6   3   17.25    4.09
  14  -6   3   18.81    4.33
  14  -6   3   16.04    4.27
  14  -6   4   32.48    5.55
  14   6   4   24.64    4.91
  14  -6   4   33.40    5.84
  14   6   4   29.91    5.48
  14   6   5    1.62    1.87
  14  -6   5    1.97    1.25
  14   6   5    1.37    0.92
  14  -6   5    0.12    1.38
  14  -6   6   49.01    7.13
  14  -6   6   44.12    7.07
  14   6   6   42.92    6.18
  14   6   7   10.33    2.91
  14  -6   7    3.19    2.97
  14   6   7    9.95    3.37
  14  -6   7   11.91    3.75
  14   6   8    4.86    2.49
  14  -6   8    5.11    2.52
  14   6   8    1.68    1.81
  14  -6   8    2.33    2.06
  14   6   9   14.00    3.30
  14  -6   9   13.52    3.95
  14   6   9   11.59    3.44
  14  -6   9   12.65    3.77
  14  -6  10   37.88    6.37
  14   6  10   51.37    7.05
  14  -6  10   36.00    6.08
  14   6  10   40.24    6.06
  14   6  11    0.92    1.34
  14  -6  11    2.23    1.25
  14   6  11    2.13    0.79
  14   6  12   15.49    3.88
  14  -6  12   12.75    3.54
  14   6  12    9.20    2.82
  14  -6  12   10.58    3.34
  14   6  13    2.06    1.97
  14  -6  13    9.40    2.88
  14   6  13   -1.71    2.10
  14  -6  13   11.83    4.68
  14   6  14    2.14    1.29
  14  -6  14    2.36    2.63
  14   6  14    0.47    0.92
  14  -6  14   -0.75    2.06
  14  -6  15    4.48    3.04
  14   6  15    1.22    1.57
  14  -6  15    0.89    1.88
  14  -6  16   12.86    4.83
  14   6  16   12.36    3.68
  14  -6  16   10.92    3.36
  14   7 -13    2.24    2.08
  14  -7 -13    3.32    2.24
  14  -7 -13    3.20    2.57
  14   7 -12    3.52    1.67
  14  -7 -12    3.46    2.24
  14  -7 -12    3.00    1.79
  14   7 -11    0.57    1.38
  14  -7 -11    2.66    2.17
  14  -7 -11    0.88    1.18
  14  -7 -10    2.47    2.16
  14   7 -10    2.36    2.34
  14  -7 -10    1.25    0.99
  14  -7  -9    1.60    2.01
  14   7  -9   -1.29    1.59
  14  -7  -9    3.47    3.25
  14   7  -8    6.21    2.12
  14  -7  -8    7.93    1.23
  14  -7  -7   -0.66    0.92
  14   7  -7    3.45    2.82
  14  -7  -7    0.96    2.59
  14   7  -6   11.27    3.13
  14  -7  -6    6.27    2.51
  14  -7  -6   15.38    4.75
  14   7  -5   10.40    3.93
  14  -7  -5   14.28    4.07
  14  -7  -5    5.42    2.47
  14   7  -4    3.70    2.82
  14  -7  -4    4.08    1.65
  14  -7  -4    1.95    1.90
  14   7  -3    5.19    2.34
  14  -7  -3    3.16    2.17
  14  -7  -3    3.40    1.44
  14   7  -2    7.17    2.86
  14  -7  -2    5.64    2.45
  14  -7  -2    6.22    2.45
  14   7  -1   -1.47    1.52
  14  -7  -1   -2.37    2.78
  14  -7  -1    1.44    1.96
  14   7   0   19.43    3.99
  14  -7   0   21.69    4.46
  14   7   0   14.00    3.52
  14  -7   0   15.79    3.50
  14   7   1    1.19    1.91
  14  -7   1    0.32    2.59
  14   7   1   -1.74    2.80
  14  -7   1    3.29    1.44
  14   7   2    8.08    2.74
  14  -7   2    5.46    2.71
  14   7   2    5.59    2.59
  14  -7   2   10.09    3.37
  14   7   3    6.88    2.96
  14  -7   3    5.28    2.09
  14   7   3    4.90    3.00
  14  -7   3    2.86    1.98
  14   7   4   -0.96    1.71
  14   7   4    1.02    0.96
  14  -7   4   -0.42    1.09
  14   7   5   10.66    3.25
  14  -7   5   12.69    3.95
  14   7   5    8.69    3.28
  14  -7   5   12.11    3.37
  14   7   6    8.96    2.99
  14  -7   6    7.62    2.79
  14   7   6    7.46    2.68
  14  -7   6    9.53    3.79
  14   7   7    5.12    3.50
  14  -7   7    1.51    1.04
  14   7   7    4.39    2.63
  14  -7   7    1.82    2.16
  14   7   8    8.05    3.21
  14  -7   8    3.85    1.96
  14   7   8    2.93    1.90
  14  -7   8    4.70    3.03
  14   7   9    0.55    1.83
  14  -7   9    1.82    2.26
  14   7   9   -1.38    1.95
  14  -7   9    2.83    2.51
  14   7  10    1.33    1.15
  14  -7  10   -1.27    1.72
  14   7  10    2.41    2.57
  14  -7  10   -0.88    1.92
  14   7  11   -0.45    1.33
  14  -7  11    1.16    2.11
  14   7  11    1.13    1.46
  14  -7  11    0.68    2.57
  14   7  12    2.52    1.24
  14  -7  12    7.41    3.54
  14   7  12    0.96    1.25
  14  -7  12    6.34    3.42
  14   7  13   -0.19    1.84
  14  -7  13    3.00    1.01
  14   7  13    4.44    2.41
  14  -7  13    2.24    3.12
  14   8  -8    2.33    1.98
  14  -8  -8    4.15    2.41
  14  -8  -8    3.76    2.54
  14  -8  -7    0.11    2.31
  14   8  -7    1.58    1.30
  14  -8  -7    6.04    3.86
  14  -8  -6    3.82    2.44
  14   8  -6    4.53    2.32
  14  -8  -6    6.42    3.17
  14  -8  -5    0.78    2.12
  14   8  -5   -1.29    1.80
  14  -8  -5    1.16    1.90
  14  -8  -4    5.76    3.36
  14   8  -4   13.56    3.49
  14  -8  -4   14.01    3.78
  14  -8  -3    4.84    2.52
  14   8  -3    5.90    3.59
  14  -8  -3    1.85    2.23
  14  -8  -2   -0.63    1.91
  14   8  -2    1.74    2.56
  14  -8  -2   -1.38    2.43
  14  -8  -1    7.28    3.02
  14   8  -1    5.09    2.93
  14  -8  -1    2.41    2.07
  14  -8   0   -1.19    1.28
  14   8   0    0.70    1.59
  14  -8   0    1.28    2.05
  14  -8   1    0.23    1.38
  14   8   1    2.45    0.83
  14   8   1    1.74    1.78
  14  -8   1    0.89    2.44
  14   8   2    3.07    1.31
  14  -8   2    2.82    1.54
  14   8   2   -0.25    1.82
  14  -8   2    0.85    2.64
  14   8   3    2.68    1.79
  14  -8   3   -0.75    2.44
  14   8   3    1.70    2.14
  14  -8   3    4.69    3.15
  14   8   4    4.91    2.55
  14  -8   4   10.88    3.44
  14   8   4   10.67    3.55
  14  -8   4   13.59    3.83
  14   8   5    1.03    1.59
  14  -8   5   -0.12    0.86
  14  -8   5   -0.83    1.85
  14   8   5    1.29    1.67
  14   8   6    4.86    2.42
  14  -8   6    6.41    2.93
  14  -8   6    3.74    3.18
  14   8   6    4.06    2.85
  14   8   7    0.25    2.54
  14  -8   7    3.11    2.26
  14  -8   7   -2.46    1.66
  14   8   8    4.77    3.68
  14  -8   8    4.55    1.38
  14  -8   8    8.84    4.43
  14   8   8    5.37    2.78
  15   0 -20    0.77    1.04
  15   0 -19   -0.84    1.89
  15   0 -18    0.64    1.11
  15   0 -17    5.92    3.56
  15   0 -16    2.20    2.27
  15   0 -15    1.98    1.81
  15   0 -14   -0.29    0.90
  15   0 -13    1.21    1.14
  15   0 -12    0.18    1.54
  15   0 -11   -0.43    1.87
  15   0 -10    0.67    2.65
  15   0 -10   -0.57    1.00
  15   0  -9    0.04    1.35
  15   0  -9    0.60    1.81
  15   0  -8   -0.62    0.80
  15   0  -8   -0.56    1.16
  15   0  -7    0.40    0.74
  15   0  -7   -0.67    0.87
  15   0  -6   -0.68    0.71
  15   0  -6   -0.75    1.30
  15   0  -5   -0.96    1.71
  15   0  -5    1.04    1.62
  15   0  -4    1.29    2.16
  15   0  -4    0.59    1.48
  15   0  -3   -0.41    0.88
  15   0  -3    0.81    2.04
  15   0  -2    0.24    1.13
  15   0  -2   -0.06    0.79
  15   0  -1   -0.17    1.15
  15   0  -1    0.60    0.96
  15   0   0   -0.09    1.15
  15   0   0    2.07    0.75
  15   0   1    1.83    2.05
  15   0   1    0.34    1.33
  15   0   2    0.38    0.89
  15   0   2    0.22    0.81
  15   0   3   -0.41    0.80
  15   0   3    0.04    1.59
  15   0   4    0.23    1.40
  15   0   4   -0.49    0.79
  15   0   5    1.98    2.57
  15   0   5    0.63    1.54
  15   0   6    0.43    1.39
  15   0   7   -1.04    1.05
  15   0   8    0.41    0.81
  15   0   9    0.89    1.16
  15   0  10   -2.23    1.78
  15   0  11    0.03    1.90
  15   0  12    0.76    1.27
  15   0  13   -1.99    2.25
  15   0  14    0.22    1.66
  15   0  15    2.08    2.56
  15   0  16    0.44    1.75
  15   0  17   -0.79    1.41
  15   0  18    0.82    1.79
  15   0  19   -1.50    2.10
  15   0  20    1.21    1.68
  15   0  21    3.84    3.06
  15  -1 -21    3.49    2.40
  15  -1 -20    0.42    1.90
  15  -1 -19    9.40    3.11
  15  -1 -18    0.19    1.78
  15  -1 -17   12.97    3.46
  15  -1 -16   13.28    3.55
  15   1 -15    7.05    3.61
  15  -1 -15    1.84    1.06
  15   1 -14    8.59    3.32
  15  -1 -14    1.23    1.20
  15   1 -13   78.26    8.48
  15  -1 -13   79.69    8.59
  15   1 -12   21.15    4.55
  15  -1 -12   13.71    3.90
  15  -1 -11    3.02    1.95
  15  -1 -11    4.00    2.41
  15   1 -11    1.16    1.76
  15  -1 -10    8.42    2.56
  15  -1 -10    4.31    1.77
  15   1 -10    5.63    2.35
  15  -1  -9    1.36    0.82
  15   1  -9   -1.61    1.21
  15  -1  -9    3.12    2.22
  15   1  -9    0.53    2.02
  15  -1  -8   14.16    3.78
  15   1  -8   12.86    3.62
  15  -1  -8   18.13    3.93
  15   1  -8   13.21    3.67
  15   1  -8   15.66    3.69
  15  -1  -7   61.37    7.26
  15   1  -7   50.64    6.36
  15  -1  -7   59.08    7.16
  15   1  -7   64.86    7.67
  15   1  -7   59.28    6.91
  15  -1  -6    1.98    1.26
  15   1  -6    4.19    2.35
  15  -1  -6    1.68    1.21
  15   1  -6    1.61    1.75
  15   1  -6    3.92    0.68
  15  -1  -5   11.99    2.95
  15   1  -5   19.66    3.77
  15  -1  -5    8.85    3.42
  15   1  -5   14.44    4.16
  15   1  -5   11.30    3.33
  15  -1  -4   18.85    3.47
  15   1  -4   17.62    3.97
  15  -1  -4   19.12    4.34
  15   1  -4   17.18    3.90
  15   1  -4   25.16    4.59
  15  -1  -3   46.18    6.36
  15   1  -3   43.43    6.11
  15  -1  -3   42.15    6.03
  15   1  -3   41.29    6.12
  15   1  -3   48.20    6.23
  15  -1  -2    1.47    1.39
  15   1  -2    1.46    0.80
  15  -1  -2    1.31    1.06
  15   1  -2    1.23    1.03
  15   1  -2    1.34    0.92
  15  -1  -1    0.48    0.89
  15  -1  -1    0.71    2.34
  15   1  -1    0.72    1.41
  15   1  -1    0.35    0.98
  15   1  -1   -0.71    1.48
  15  -1   0    1.47    1.49
  15  -1   0   -0.85    1.02
  15   1   0   -1.53    2.04
  15   1   0    0.11    1.05
  15   1   0   -0.81    0.84
  15  -1   1   -0.51    1.26
  15  -1   1    0.74    0.99
  15   1   1    0.43    1.68
  15   1   1   -0.44    0.83
  15   1   1    1.29    1.49
  15  -1   2    0.82    1.24
  15  -1   2    0.80    1.02
  15   1   2    1.51    0.77
  15   1   2   -0.54    1.25
  15   1   2    1.87    1.62
  15  -1   3   39.73    5.92
  15   1   3   34.83    5.52
  15  -1   3   45.33    6.57
  15   1   3   30.17    5.64
  15   1   3   47.31    5.99
  15  -1   4   25.04    4.56
  15  -1   4   13.69    3.22
  15   1   4   17.95    4.10
  15   1   4   18.72    3.85
  15   1   4   17.09    4.02
  15   1   5   18.88    4.23
  15  -1   5   14.07    3.68
  15  -1   5   13.28    3.52
  15   1   5   17.44    3.89
  15   1   6    3.48    2.87
  15  -1   6    8.10    3.25
  15  -1   6    2.46    2.50
  15   1   6    7.15    2.94
  15  -1   7   56.15    6.89
  15   1   7   56.92    7.10
  15   1   7   52.35    6.46
  15   1   8   16.72    4.20
  15  -1   8    8.87    2.99
  15   1   8   11.63    3.04
  15   1   9    1.92    1.27
  15  -1   9    3.07    1.83
  15   1   9    3.55    1.16
  15   1  10    4.64    2.85
  15  -1  10    5.56    2.01
  15   1  10    5.08    2.19
  15   1  11    2.85    1.44
  15  -1  11    2.57    2.08
  15   1  11    2.88    1.88
  15   1  12   13.15    3.59
  15  -1  12    8.24    2.97
  15  -1  13   87.03    8.92
  15   1  13   72.12    8.10
  15   1  14    6.25    3.50
  15  -1  14    5.29    2.77
  15   1  15   -0.11    2.05
  15  -1  15    2.66    2.08
  15   1  16    7.31    2.62
  15  -1  16   11.04    3.12
  15   1  17   19.76    4.04
  15  -1  17   16.34    3.77
  15   1  18    3.23    2.45
  15  -1  18    3.42    2.51
  15   1  19   13.66    4.19
  15  -1  19    4.65    2.76
  15   1  20    0.47    1.19
  15  -1  20    1.92    2.66
  15   1  21    1.48    1.88
  15  -1  21    0.90    1.34
  15  -2 -20    2.49    2.40
  15  -2 -19    4.40    2.50
  15  -2 -18   -1.61    1.48
  15  -2 -17   -2.28    2.29
  15  -2 -16    3.61    2.38
  15  -2 -15   10.91    3.33
  15  -2 -14   10.11    3.72
  15  -2 -13   16.86    3.93
  15   2 -13   23.01    4.60
  15  -2 -12   -0.64    1.20
  15  -2 -12    1.24    1.33
  15   2 -12    1.27    1.15
  15  -2 -11    0.40    1.06
  15  -2 -11    0.52    1.33
  15  -2 -10    6.91    2.83
  15  -2 -10    9.36    3.13
  15   2 -10   10.93    3.55
  15  -2  -9   -0.02    1.30
  15  -2  -9    4.84    2.29
  15   2  -9    0.50    0.99
  15   2  -9    0.97    1.56
  15  -2  -8    0.93    0.73
  15  -2  -8    1.15    1.27
  15   2  -8   -0.60    1.91
  15   2  -8    4.38    2.76
  15  -2  -7    7.98    2.67
  15   2  -7   13.35    3.11
  15  -2  -7    9.07    2.87
  15   2  -7    9.66    2.75
  15   2  -7    9.73    3.45
  15  -2  -6    0.25    0.94
  15  -2  -6    1.26    1.52
  15   2  -6    1.69    1.96
  15   2  -6    2.33    1.48
  15   2  -6    3.87    2.31
  15  -2  -5    9.85    3.16
  15  -2  -5   10.82    3.25
  15   2  -5    4.86    2.28
  15   2  -5    5.16    2.16
  15   2  -5    4.01    1.03
  15  -2  -4    1.02    1.12
  15  -2  -4    4.74    2.85
  15   2  -4    2.69    1.34
  15   2  -4    2.18    2.20
  15   2  -4    1.31    1.80
  15  -2  -3    0.33    0.73
  15  -2  -3    0.01    0.78
  15   2  -3    0.53    1.56
  15   2  -3    0.52    1.78
  15   2  -3   -0.01    0.74
  15  -2  -2   -0.63    0.83
  15  -2  -2    2.33    2.25
  15   2  -2    1.97    1.30
  15   2  -2    0.45    1.29
  15   2  -2   -0.25    1.42
  15  -2  -1    2.49    1.97
  15  -2  -1    0.83    1.64
  15   2  -1    1.23    1.50
  15   2  -1    0.48    1.12
  15   2  -1    0.46    0.89
  15  -2   0    0.04    1.04
  15  -2   0    1.20    2.20
  15   2   0   -0.42    1.52
  15   2   0    2.12    2.52
  15   2   0    0.19    0.93
  15   2   1    1.53    1.84
  15  -2   1    1.47    1.57
  15  -2   1    4.52    2.09
  15   2   1    2.29    1.50
  15   2   1    2.84    2.43
  15   2   2    0.06    0.86
  15  -2   2    0.93    1.31
  15  -2   2    2.80    2.45
  15   2   2    0.23    1.22
  15   2   2    0.88    0.80
  15   2   3    4.40    2.07
  15  -2   3    0.15    1.14
  15  -2   3    0.08    1.58
  15   2   3    1.16    1.96
  15   2   3   -1.27    1.65
  15   2   4   -0.22    1.24
  15  -2   4    2.37    2.07
  15  -2   4    2.75    1.79
  15   2   4    3.63    2.00
  15   2   5    4.50    2.45
  15  -2   5    7.26    2.55
  15  -2   5    6.52    3.26
  15   2   5    5.87    2.55
  15   2   6    3.07    2.00
  15  -2   6    3.63    2.32
  15  -2   6    1.61    1.90
  15   2   6    2.42    1.92
  15   2   7   13.39    3.84
  15  -2   7    7.31    2.81
  15  -2   7    7.58    2.39
  15   2   7   10.57    3.09
  15   2   8    0.56    0.91
  15  -2   8    1.82    1.85
  15  -2   8    1.06    1.92
  15   2   8    4.16    2.13
  15   2   9    4.10    1.27
  15  -2   9   -1.25    1.31
  15   2   9    4.36    2.63
  15   2  10    9.65    3.25
  15  -2  10    6.02    2.78
  15   2  10    6.18    2.62
  15   2  11    5.99    2.75
  15  -2  11    3.95    2.19
  15   2  11    1.79    1.21
  15   2  12    3.08    2.40
  15  -2  12    1.14    2.06
  15   2  13   18.32    3.65
  15  -2  13   17.69    4.34
  15   2  14    9.11    2.96
  15  -2  14    6.53    2.64
  15   2  15    6.21    2.39
  15  -2  15    8.18    2.50
  15   2  16   12.44    3.96
  15  -2  16    7.11    3.00
  15   2  17    2.40    1.93
  15  -2  17    0.28    1.05
  15   2  18    1.91    2.05
  15  -2  18    2.95    1.96
  15   2  19    1.71    1.43
  15  -2  19    4.74    2.22
  15   2  20    0.86    2.55
  15  -2  20   -1.53    1.62
  15  -3 -20    1.91    1.23
  15  -3 -19    0.95    1.85
  15  -3 -18   14.41    3.93
  15  -3 -17   28.95    5.35
  15  -3 -16    7.92    3.56
  15   3 -16   -0.67    2.01
  15  -3 -15    3.11    2.13
  15   3 -15    4.13    1.64
  15  -3 -14    5.70    2.18
  15   3 -14    7.38    3.00
  15  -3 -13    5.01    2.65
  15  -3 -13    6.21    2.52
  15   3 -13    2.32    1.52
  15  -3 -12   26.04    5.35
  15  -3 -12   16.56    4.15
  15   3 -12   29.75    5.25
  15  -3 -11    7.29    3.11
  15  -3 -11   11.53    3.79
  15   3 -11    8.58    2.62
  15  -3 -10    1.01    1.20
  15  -3 -10    2.19    2.86
  15   3 -10    0.07    1.46
  15  -3  -9    3.93    1.22
  15  -3  -9    7.94    3.29
  15   3  -9    6.14    2.16
  15  -3  -8   11.09    3.79
  15  -3  -8   14.71    3.55
  15   3  -8   18.74    3.72
  15  -3  -7   15.46    3.86
  15  -3  -7   12.06    3.85
  15   3  -7    6.67    2.42
  15  -3  -6   16.52    3.74
  15  -3  -6   10.40    3.42
  15   3  -6   12.40    3.14
  15   3  -6   17.59    3.94
  15  -3  -5    8.39    3.13
  15  -3  -5    8.84    2.88
  15   3  -5   12.18    3.23
  15   3  -5   11.67    3.34
  15  -3  -4    6.72    2.42
  15   3  -4   18.67    4.92
  15  -3  -4   11.21    3.49
  15   3  -4    9.40    2.71
  15   3  -4   13.80    3.82
  15  -3  -3   43.68    6.01
  15   3  -3   53.88    6.75
  15  -3  -3   47.26    6.59
  15   3  -3   45.58    5.96
  15   3  -3   38.42    5.73
  15   3  -2   17.97    3.79
  15  -3  -2   14.06    3.82
  15  -3  -2   12.04    3.31
  15   3  -2   22.71    4.37
  15   3  -2   13.01    3.72
  15   3  -1   12.94    3.63
  15  -3  -1   18.65    4.18
  15  -3  -1   11.97    3.81
  15   3  -1   14.65    3.19
  15   3  -1   16.01    3.51
  15   3   0   13.17    3.60
  15  -3   0   15.89    3.97
  15  -3   0   23.25    4.58
  15   3   0   23.33    4.31
  15   3   0   16.60    3.44
  15   3   1   13.95    3.30
  15  -3   1    9.92    2.95
  15  -3   1   14.87    3.62
  15   3   1   13.42    3.64
  15   3   1   12.09    3.35
  15   3   2   12.83    3.37
  15  -3   2   17.80    3.79
  15  -3   2   15.48    4.09
  15   3   2   17.88    4.21
  15   3   2   17.52    3.83
  15  -3   3   45.20    6.45
  15  -3   3   46.43    6.47
  15   3   3   45.18    6.45
  15   3   3   47.75    6.27
  15   3   4    7.10    2.02
  15   3   4   12.05    2.80
  15  -3   4   10.61    3.03
  15  -3   4   13.69    3.25
  15   3   5    9.17    2.59
  15   3   5    9.56    3.33
  15  -3   5    9.89    3.30
  15  -3   5   15.66    3.70
  15   3   6    9.84    3.11
  15   3   6   10.45    3.47
  15  -3   6   11.53    3.33
  15  -3   6   16.39    4.00
  15   3   7   10.78    3.17
  15   3   7    8.28    2.17
  15  -3   7   15.63    3.72
  15  -3   7   16.24    3.90
  15   3   8   12.80    3.83
  15   3   8   13.12    3.55
  15  -3   8   13.95    3.99
  15  -3   8   22.15    5.07
  15   3   9    4.12    2.39
  15   3   9    8.95    2.22
  15  -3   9    6.15    2.27
  15  -3   9    4.00    1.57
  15   3  10   -0.76    1.77
  15  -3  10    2.23    2.05
  15  -3  10    3.00    2.21
  15   3  10   -0.53    1.44
  15   3  11   11.63    3.15
  15  -3  11   12.32    3.44
  15  -3  11   11.50    4.02
  15   3  11    4.90    2.33
  15  -3  12   25.99    5.17
  15   3  12   27.66    4.98
  15   3  12   32.74    5.84
  15   3  13    1.56    2.04
  15  -3  13    1.83    1.49
  15   3  14   12.76    4.12
  15  -3  14    9.20    2.74
  15   3  15    3.03    1.66
  15  -3  15    7.21    3.00
  15   3  16    1.70    1.33
  15  -3  16    2.43    2.03
  15   3  17   20.09    5.01
  15  -3  17   20.04    4.86
  15   3  18   11.19    3.40
  15  -3  18    7.95    2.37
  15   3  19   -0.90    1.02
  15  -3  19   -2.25    2.34
  15   3  20    3.49    3.00
  15  -3  20    0.50    1.80
  15  -4 -18    0.22    1.84
  15   4 -18   -0.42    1.68
  15  -4 -17    4.91    2.64
  15   4 -17    2.58    1.87
  15  -4 -16    5.45    3.33
  15   4 -16    2.75    2.36
  15  -4 -15   10.95    3.27
  15   4 -15    4.45    2.11
  15  -4 -14    7.64    2.82
  15  -4 -14   14.25    4.12
  15   4 -14    9.27    2.86
  15  -4 -13    2.78    1.81
  15  -4 -13   11.26    2.91
  15   4 -13   10.79    3.50
  15  -4 -12    1.94    1.03
  15  -4 -12    3.52    2.21
  15   4 -12    2.82    1.71
  15  -4 -11   12.12    3.39
  15  -4 -11   16.30    3.99
  15   4 -11   19.33    4.31
  15  -4 -10    1.79    1.45
  15  -4 -10    3.27    1.53
  15   4 -10    2.62    2.31
  15  -4  -9    5.10    3.06
  15  -4  -9    3.16    1.61
  15   4  -9    4.47    2.28
  15  -4  -8   11.11    3.28
  15  -4  -8   13.14    3.72
  15   4  -8    9.16    3.29
  15  -4  -7   23.20    4.76
  15  -4  -7   16.11    3.69
  15   4  -7   14.11    3.48
  15  -4  -6   10.33    3.10
  15  -4  -6   11.03    3.04
  15   4  -6   15.38    3.95
  15   4  -5    5.43    2.00
  15  -4  -5    4.31    2.09
  15  -4  -5    8.10    2.93
  15   4  -4    3.56    2.38
  15   4  -4    3.89    1.74
  15  -4  -4    3.62    1.92
  15  -4  -4    3.54    2.35
  15   4  -3    0.44    1.58
  15   4  -3    0.43    1.21
  15  -4  -3    1.10    1.44
  15  -4  -3   -1.11    2.63
  15   4  -2    2.08    1.00
  15   4  -2    0.39    1.63
  15  -4  -2    1.28    1.55
  15  -4  -2    1.51    1.94
  15   4  -1    5.27    1.89
  15   4  -1    5.33    2.63
  15  -4  -1    7.66    2.67
  15  -4  -1    3.80    2.72
  15   4   0    4.01    2.01
  15  -4   0    7.85    2.84
  15  -4   0    5.64    1.95
  15   4   1    8.43    2.54
  15   4   1    2.65    1.53
  15  -4   1    2.41    1.85
  15  -4   1    3.47    2.16
  15   4   2   -0.88    1.44
  15   4   2    2.75    1.65
  15  -4   2    0.03    1.17
  15  -4   2    1.95    2.14
  15   4   3   -1.26    0.95
  15   4   3    3.71    2.20
  15  -4   3    3.75    0.91
  15  -4   3    3.36    2.73
  15   4   4    4.78    1.73
  15   4   4    9.48    3.23
  15  -4   4    8.66    2.86
  15  -4   4    2.94    2.10
  15   4   5    4.67    2.07
  15   4   5   13.22    3.11
  15  -4   5    9.00    3.00
  15  -4   5    5.14    2.03
  15   4   6    5.17    2.84
  15   4   6    8.83    2.81
  15  -4   6    3.26    1.69
  15  -4   6    6.25    2.89
  15   4   7   18.69    4.46
  15   4   7   19.72    4.53
  15  -4   7   16.94    3.79
  15  -4   7   13.92    4.24
  15   4   8   16.25    4.46
  15   4   8    8.62    2.55
  15  -4   8    6.11    2.80
  15  -4   8   13.65    3.79
  15   4   9    4.62    2.78
  15   4   9    6.95    2.71
  15  -4   9    5.83    1.96
  15  -4   9    8.69    3.36
  15   4  10    3.66    1.95
  15   4  10    0.20    1.08
  15  -4  10    1.96    1.86
  15  -4  10    1.76    1.02
  15   4  11   20.98    4.67
  15   4  11   12.13    3.48
  15  -4  11   17.50    4.02
  15  -4  11   23.49    5.08
  15   4  12    2.29    1.15
  15   4  12    1.21    1.46
  15  -4  12    2.25    1.42
  15  -4  12    4.80    2.74
  15   4  13   11.97    3.66
  15  -4  13   16.47    4.24
  15  -4  13    7.94    3.36
  15   4  14   10.34    2.76
  15  -4  14   13.87    3.98
  15  -4  14   12.25    4.11
  15   4  15    2.97    2.34
  15  -4  15    8.78    3.95
  15   4  16    6.61    2.79
  15  -4  16    1.01    1.08
  15   4  17    3.70    2.26
  15  -4  17    0.86    1.68
  15   4  18    1.45    2.28
  15  -4  18    2.41    2.32
  15  -5 -16    1.07    1.98
  15   5 -16    3.28    1.76
  15  -5 -15    2.57    2.36
  15   5 -15    4.45    1.92
  15  -5 -15    0.74    1.74
  15  -5 -14    8.38    3.33
  15  -5 -14    6.80    2.62
  15   5 -14    8.72    3.76
  15  -5 -13   15.09    4.01
  15  -5 -13   17.23    4.22
  15   5 -13   13.64    3.62
  15  -5 -12    4.79    3.05
  15  -5 -12    5.54    3.31
  15   5 -12    3.98    2.29
  15  -5 -11    4.83    2.49
  15  -5 -11    2.64    1.01
  15   5 -11    5.31    2.44
  15  -5 -10   14.88    3.64
  15  -5 -10    7.62    2.74
  15   5 -10   10.86    2.75
  15  -5  -9   29.79    5.24
  15  -5  -9   38.60    6.38
  15   5  -9   35.11    5.77
  15   5  -8    0.14    2.42
  15  -5  -8    2.48    2.02
  15  -5  -8    5.30    2.99
  15   5  -7    9.61    2.93
  15  -5  -7   11.49    3.43
  15  -5  -7   12.36    4.03
  15   5  -6    8.27    2.85
  15  -5  -6    5.69    2.38
  15  -5  -6   14.60    3.89
  15   5  -5   -1.29    0.88
  15  -5  -5    1.54    1.59
  15  -5  -5    0.79    1.82
  15   5  -4   11.05    3.85
  15  -5  -4   12.36    3.24
  15  -5  -4    6.53    2.77
  15   5  -3   23.77    4.48
  15  -5  -3   42.05    6.49
  15   5  -3   39.57    6.14
  15  -5  -3   32.15    5.68
  15   5  -2    1.32    1.26
  15   5  -2    1.10    2.13
  15  -5  -2    4.19    2.56
  15  -5  -2    1.44    1.22
  15  -5  -1   34.00    5.72
  15   5  -1   18.53    4.27
  15  -5  -1   24.96    4.92
  15   5  -1   30.01    5.24
  15  -5   0   28.74    4.90
  15   5   0   17.15    4.40
  15  -5   0   23.48    4.78
  15   5   0   29.62    5.44
  15  -5   1   34.88    5.53
  15  -5   1   32.43    5.77
  15   5   1   35.41    5.62
  15   5   1   35.73    5.54
  15   5   2    2.40    1.83
  15  -5   2   -0.69    1.60
  15   5   2    3.57    1.94
  15  -5   2    0.37    1.26
  15  -5   3   34.83    5.83
  15  -5   3   30.37    5.79
  15   5   3   34.81    5.50
  15   5   3   43.50    6.17
  15   5   4    5.50    2.47
  15  -5   4    5.75    2.24
  15   5   4    9.19    3.29
  15  -5   4    2.76    2.59
  15   5   5    1.82    1.20
  15  -5   5   -0.77    1.18
  15   5   5    0.44    1.26
  15  -5   5   -1.10    1.94
  15   5   6    7.62    2.64
  15  -5   6    9.76    2.71
  15   5   6   16.06    3.88
  15  -5   6    9.36    3.03
  15   5   7    8.14    2.56
  15  -5   7    6.71    2.68
  15   5   7    5.17    2.33
  15  -5   7    8.91    3.68
  15   5   8    2.23    1.30
  15  -5   8    2.14    2.75
  15   5   8    2.57    2.23
  15  -5   8    3.01    1.70
  15   5   9   26.52    4.70
  15  -5   9   35.76    6.29
  15  -5   9   32.96    5.74
  15   5   9   33.79    5.79
  15   5  10   14.22    3.76
  15  -5  10    8.85    2.95
  15   5  10    9.73    2.71
  15  -5  10   11.78    3.79
  15   5  11    3.22    1.99
  15  -5  11    4.10    2.08
  15   5  11    6.06    2.31
  15  -5  11    2.13    2.41
  15   5  12    4.66    1.18
  15  -5  12    2.09    1.77
  15   5  12    1.48    1.53
  15   5  13    8.07    1.90
  15  -5  13   20.34    4.96
  15   5  13   15.66    4.07
  15  -5  13   13.30    4.17
  15  -5  14    3.96    2.66
  15   5  14    4.04    2.17
  15  -5  14    3.12    2.67
  15  -5  15    4.57    2.65
  15   5  15    2.44    0.88
  15  -5  15    8.67    4.26
  15  -5  16    1.84    1.61
  15   5  16    4.46    2.96
  15  -5  16    2.41    2.08
  15  -6 -14    1.50    2.77
  15  -6 -14    4.18    2.71
  15   6 -14    2.24    1.72
  15  -6 -13   -2.96    2.08
  15  -6 -13   -0.10    1.26
  15   6 -13    1.17    1.48
  15  -6 -12    0.20    1.20
  15  -6 -12    5.79    3.30
  15   6 -12    2.42    2.43
  15   6 -11    1.32    1.73
  15  -6 -11    1.54    2.76
  15  -6 -11    3.75    2.86
  15   6 -10    5.51    2.28
  15  -6 -10    8.68    2.90
  15  -6 -10    9.76    3.02
  15   6  -9    0.99    1.10
  15  -6  -9    1.04    2.01
  15  -6  -9    2.58    2.61
  15   6  -8    2.21    2.29
  15  -6  -8    1.48    2.90
  15  -6  -8   -0.53    1.40
  15   6  -7    1.13    0.95
  15  -6  -7    0.90    2.02
  15  -6  -7   -0.43    1.22
  15   6  -6    0.63    1.27
  15  -6  -6    0.82    1.66
  15  -6  -6   -0.03    2.09
  15   6  -5    1.25    1.87
  15  -6  -5    3.50    2.06
  15  -6  -5    0.67    1.11
  15   6  -4    8.24    3.39
  15  -6  -4   12.20    2.91
  15  -6  -4    9.71    3.14
  15   6  -3    1.34    1.65
  15  -6  -3   -0.59    1.15
  15  -6  -3    0.15    1.92
  15   6  -2   12.95    3.64
  15  -6  -2   15.13    3.95
  15  -6  -2   14.24    4.36
  15   6  -1   15.00    3.15
  15  -6  -1    3.89    2.10
  15   6  -1    9.02    3.11
  15  -6  -1    8.75    3.81
  15   6   0   16.75    3.77
  15  -6   0    9.59    3.61
  15   6   0   14.53    4.03
  15  -6   0   14.95    3.57
  15   6   1    9.50    3.35
  15  -6   1   18.08    4.31
  15   6   1   13.46    3.60
  15  -6   1    9.94    3.50
  15   6   2   11.22    3.38
  15  -6   2    4.70    2.42
  15   6   2    5.62    2.62
  15  -6   2    8.71    3.12
  15   6   3    2.70    2.70
  15  -6   3    0.59    0.87
  15   6   3    1.40    1.90
  15  -6   3   -0.01    1.50
  15   6   4   12.49    3.78
  15  -6   4    9.78    3.04
  15   6   4    9.69    3.09
  15  -6   4   11.26    3.89
  15   6   5    2.08    2.17
  15  -6   5    0.86    1.20
  15   6   5    6.59    2.97
  15  -6   5    2.85    2.85
  15   6   6    5.48    3.30
  15  -6   6    3.08    2.51
  15   6   6    0.76    1.32
  15  -6   6    1.24    2.40
  15   6   7    2.11    2.98
  15  -6   7    0.87    1.40
  15   6   7    2.88    2.55
  15  -6   7   -0.64    2.35
  15   6   8   -0.40    2.30
  15  -6   8    2.60    2.74
  15   6   8   -0.28    1.27
  15  -6   8    2.68    2.24
  15   6   9    1.35    2.25
  15  -6   9    0.88    1.03
  15   6   9    0.81    1.00
  15  -6   9   -0.21    1.60
  15   6  10    7.23    2.89
  15  -6  10    4.00    1.37
  15   6  10    7.44    3.09
  15  -6  10    4.81    3.19
  15   6  11   -0.52    2.39
  15  -6  11    3.10    1.94
  15   6  11    4.12    2.97
  15  -6  11    0.38    1.23
  15   6  12    5.69    3.08
  15  -6  12    2.61    1.06
  15   6  12    2.39    2.31
  15  -6  12    1.58    1.92
  15   6  13    1.49    3.17
  15  -6  13    0.26    1.33
  15   6  13   -0.12    1.55
  15  -6  13   -2.03    2.20
  15  -6  14   -0.65    2.16
  15   6  14   -1.16    1.35
  15  -6  14    1.34    2.57
  15  -7 -10    2.91    1.14
  15   7 -10    5.62    2.11
  15  -7 -10    7.42    2.88
  15  -7  -9   12.57    4.13
  15   7  -9   13.41    3.17
  15  -7  -9    8.51    3.15
  15   7  -8   -0.55    1.68
  15  -7  -8    0.54    1.42
  15  -7  -8    2.29    1.75
  15   7  -7    0.46    1.31
  15  -7  -7    8.37    3.27
  15  -7  -7    8.73    2.99
  15   7  -6    1.72    1.05
  15  -7  -6   -0.86    0.88
  15  -7  -6    1.53    1.25
  15   7  -5   -0.61    0.99
  15  -7  -5   -0.36    1.30
  15   7  -4   12.34    3.70
  15  -7  -4    9.38    3.27
  15  -7  -4    1.23    1.77
  15   7  -3    7.87    2.01
  15  -7  -3    7.89    3.18
  15  -7  -3   15.43    4.15
  15   7  -2    0.94    2.05
  15  -7  -2    0.80    1.48
  15  -7  -2    2.17    1.81
  15   7  -1   10.37    3.42
  15  -7  -1    9.41    2.86
  15  -7  -1   10.23    3.41
  15   7   0   10.03    3.81
  15  -7   0    4.80    2.20
  15   7   0    2.64    2.01
  15  -7   0    6.95    3.40
  15   7   1   13.21    3.41
  15  -7   1    7.97    2.85
  15   7   1    8.08    2.76
  15  -7   1   13.87    4.26
  15   7   2    0.68    1.98
  15  -7   2   -0.65    2.03
  15   7   2   -1.37    2.19
  15  -7   2   -0.58    1.37
  15   7   3   11.71    3.44
  15  -7   3    9.48    3.14
  15   7   3    7.54    2.38
  15  -7   3   12.48    4.20
  15   7   4    0.57    1.70
  15  -7   4    4.07    2.89
  15   7   4    2.92    2.63
  15  -7   4    0.07    1.53
  15   7   5    3.70    2.28
  15  -7   5    3.21    2.87
  15   7   5    4.12    2.38
  15  -7   5    2.23    2.36
  15   7   6    2.73    1.44
  15  -7   6   -0.16    1.53
  15   7   6   -1.24    1.17
  15  -7   6    1.13    1.25
  15   7   7    6.55    3.23
  15  -7   7   10.66    3.98
  15   7   7    4.47    1.37
  15  -7   7    5.59    3.86
  15   7   8   -1.00    2.11
  15  -7   8   -2.53    2.82
  15   7   8   -0.87    1.02
  15  -7   8    0.37    1.74
  15   7   9    9.10    3.67
  15  -7   9   11.11    2.96
  15   7   9   11.68    3.82
  15  -7   9   10.77    3.54
  15   7  10    4.17    2.59
  15  -7  10    7.69    3.54
  15   7  10    2.20    2.03
  15  -7  10    1.97    2.42
  15  -8  -3    0.75    1.25
  15   8  -3    0.41    1.26
  15  -8  -3    0.91    1.60
  15   8  -2    6.41    2.32
  15  -8  -2    3.36    2.78
  15  -8  -2    2.90    2.23
  15   8  -1    3.09    1.75
  15  -8  -1   -0.09    2.20
  15  -8  -1    1.92    2.26
  15   8   0    2.34    1.10
  15  -8   0    3.36    1.09
  15  -8   0    6.94    4.13
  15   8   1    2.93    1.96
  15  -8   1    3.11    2.62
  15  -8   1    0.65    1.78
  15   8   2    5.36    1.80
  15  -8   2    8.57    3.25
  15   8   2    3.52    2.74
  15  -8   2    8.73    3.66
  15   8   3    3.58    2.42
  15  -8   3    0.33    1.79
  15   8   3    0.61    2.02
  15  -8   3    0.21    2.25
  16   0 -18   18.42    4.78
  16   0 -17   18.00    4.27
  16   0 -16    2.09    2.28
  16   0 -15    5.30    1.27
  16   0 -14    1.98    1.95
  16   0 -13   74.93    8.80
  16   0 -12    3.99    1.20
  16   0 -11   13.57    3.79
  16   0 -10   13.77    3.67
  16   0  -9   12.32    3.61
  16   0  -9    7.82    3.05
  16   0  -8   15.27    3.72
  16   0  -8    1.18    1.72
  16   0  -7   66.76    7.80
  16   0  -7   70.23    8.28
  16   0  -6    6.23    2.67
  16   0  -6    5.30    2.71
  16   0  -5    0.18    1.04
  16   0  -5    2.96    1.79
  16   0  -4   14.38    3.70
  16   0  -4   18.40    4.68
  16   0  -3   56.84    7.14
  16   0  -3   57.31    7.23
  16   0  -2   64.24    7.51
  16   0  -2   62.48    7.60
  16   0  -1   11.68    3.26
  16   0  -1   13.42    3.64
  16   0   0    2.82    2.31
  16   0   0    6.35    3.14
  16   0   1   13.01    3.18
  16   0   1    6.13    2.00
  16   0   2   75.05    7.99
  16   0   2   63.20    7.54
  16   0   3   55.75    7.03
  16   0   3   43.10    6.19
  16   0   4   30.26    5.32
  16   0   4   25.34    4.96
  16   0   5    2.39    1.15
  16   0   5    1.41    1.82
  16   0   6    9.66    3.19
  16   0   6    1.27    0.82
  16   0   7   72.96    8.09
  16   0   8   12.33    3.43
  16   0   9   12.07    3.38
  16   0  10    7.38    3.41
  16   0  11   13.80    3.30
  16   0  12    7.70    1.89
  16   0  13   79.28    8.70
  16   0  14    2.42    0.90
  16   0  15    6.54    3.13
  16   0  16    8.03    3.42
  16   0  17   29.86    5.80
  16   0  18   11.31    4.04
  16   0  19   45.92    7.06
  16  -1 -19    2.79    1.99
  16  -1 -18    2.96    2.00
  16  -1 -17    1.92    1.09
  16  -1 -16    0.97    1.41
  16  -1 -15    3.51    1.06
  16   1 -14   -3.91    1.95
  16  -1 -14    6.75    3.17
  16   1 -13    3.93    2.88
  16  -1 -13    4.00    1.43
  16   1 -12    2.08    2.06
  16  -1 -12    2.56    3.02
  16  -1 -11    1.07    0.98
  16   1 -11   -0.26    2.49
  16  -1 -10    0.38    1.76
  16  -1 -10    2.81    2.28
  16   1 -10    0.35    2.20
  16  -1  -9    7.84    2.54
  16  -1  -9    4.03    2.19
  16   1  -9    6.59    3.40
  16  -1  -8    3.48    1.64
  16   1  -8    0.77    1.52
  16  -1  -8    0.29    1.52
  16   1  -8    0.66    1.06
  16  -1  -7    0.01    0.97
  16   1  -7    1.14    1.66
  16  -1  -7    3.99    2.46
  16   1  -7    0.48    1.69
  16  -1  -6    0.02    0.81
  16   1  -6    1.02    1.30
  16   1  -6    2.24    1.93
  16   1  -6    0.55    0.98
  16  -1  -5    8.79    2.73
  16   1  -5    5.97    2.57
  16  -1  -5    7.19    2.54
  16   1  -5   14.94    4.08
  16   1  -5    5.37    2.35
  16  -1  -4    1.14    1.69
  16   1  -4   -0.44    1.51
  16  -1  -4   -0.04    1.31
  16   1  -4    0.11    1.05
  16   1  -4   -1.58    1.68
  16  -1  -3   10.12    2.70
  16   1  -3   11.03    3.30
  16  -1  -3   15.74    3.73
  16   1  -3    9.27    3.18
  16   1  -3   16.06    4.25
  16  -1  -2    0.58    1.59
  16   1  -2    4.39    2.11
  16  -1  -2    0.47    1.27
  16   1  -2    2.04    1.79
  16   1  -2    2.05    1.66
  16  -1  -1    3.50    0.73
  16   1  -1    0.88    1.10
  16  -1  -1    0.50    1.15
  16   1  -1    3.14    2.16
  16   1  -1    5.21    1.92
  16  -1   0    2.64    1.50
  16  -1   0    3.79    2.84
  16   1   0    1.87    1.24
  16   1   0    1.05    1.33
  16   1   0    4.33    2.38
  16  -1   1    3.97    1.05
  16  -1   1    4.95    2.94
  16   1   1    5.49    2.25
  16   1   1    4.58    1.91
  16   1   1    2.31    2.16
  16  -1   2    1.72    1.26
  16  -1   2    2.06    1.04
  16   1   2   -0.01    1.04
  16   1   2    1.42    1.66
  16   1   2    1.52    0.83
  16   1   3   22.24    4.40
  16  -1   3    9.57    3.21
  16  -1   3   15.32    3.85
  16   1   3   11.44    3.51
  16   1   3   11.15    3.21
  16  -1   4   -0.26    1.67
  16  -1   4    0.52    0.81
  16   1   4    0.74    0.99
  16   1   4   -0.69    1.51
  16   1   4    0.54    1.02
  16  -1   5   10.30    3.43
  16  -1   5   10.83    3.04
  16   1   5    8.48    3.09
  16   1   5   12.07    2.99
  16   1   5    9.03    2.61
  16  -1   6    1.26    1.16
  16  -1   6    0.27    1.87
  16   1   6    2.01    1.60
  16   1   6    4.20    2.59
  16  -1   7    0.54    1.41
  16  -1   7    1.91    1.90
  16   1   7    1.01    0.92
  16   1   7    0.20    1.48
  16  -1   8    0.87    1.39
  16  -1   8   -1.81    2.06
  16   1   8    5.17    2.57
  16   1   8    2.29    1.07
  16  -1   9    1.60    2.05
  16   1   9    4.03    2.45
  16   1   9    6.72    3.14
  16   1  10    0.24    0.93
  16  -1  10   -0.15    1.17
  16   1  10    1.51    1.40
  16   1  11    2.04    1.65
  16  -1  11   -1.43    1.20
  16   1  12    0.10    1.98
  16  -1  12   -1.36    1.87
  16   1  13    1.16    1.47
  16  -1  13    0.30    1.39
  16   1  14    7.72    3.00
  16  -1  14    7.24    2.83
  16   1  15    4.14    2.38
  16  -1  15    0.91    1.84
  16   1  16   -0.16    2.06
  16  -1  16    0.43    1.63
  16   1  17    4.26    2.17
  16  -1  17    6.68    3.27
  16   1  18    1.15    1.39
  16  -1  18    0.14    1.85
  16   1  19    0.55    1.38
  16  -1  19   -1.29    1.75
  16  -2 -19    3.44    1.50
  16  -2 -18    6.80    3.38
  16  -2 -17   27.54    5.49
  16  -2 -16    4.49    2.26
  16  -2 -15    1.24    2.38
  16  -2 -14    7.58    3.86
  16  -2 -13   30.24    5.62
  16  -2 -12    7.45    2.78
  16   2 -12   14.07    4.27
  16  -2 -11    8.90    3.19
  16  -2 -11    5.52    3.24
  16   2 -11   14.95    3.47
  16  -2 -10    2.73    1.05
  16  -2 -10    2.90    1.38
  16   2 -10    2.61    1.08
  16  -2  -9   10.76    3.30
  16  -2  -9    8.41    2.76
  16   2  -9    5.80    2.55
  16  -2  -8    5.42    2.46
  16  -2  -8    3.62    1.89
  16   2  -8    8.55    4.00
  16   2  -8    1.94    1.08
  16  -2  -7   31.89    5.43
  16  -2  -7   35.78    6.10
  16   2  -7   33.00    5.84
  16   2  -7   26.24    4.67
  16  -2  -6    1.11    0.96
  16   2  -6    4.26    2.20
  16  -2  -6    1.20    1.81
  16   2  -6    4.48    1.64
  16   2  -6    2.86    2.35
  16  -2  -5    6.98    2.38
  16  -2  -5    1.69    1.64
  16   2  -5    4.84    2.13
  16   2  -5    9.03    3.06
  16   2  -5    2.57    2.17
  16  -2  -4    8.23    3.02
  16  -2  -4    3.10    2.54
  16   2  -4    6.11    2.84
  16   2  -4    2.77    2.35
  16   2  -4    5.28    2.72
  16  -2  -3   42.15    6.31
  16   2  -3   48.89    6.52
  16  -2  -3   33.50    5.82
  16   2  -3   39.67    6.03
  16   2  -3   43.17    5.96
  16  -2  -2    2.04    1.72
  16  -2  -2    7.08    2.86
  16   2  -2    7.13    2.95
  16   2  -2    3.45    2.01
  16   2  -2    0.65    0.84
  16  -2  -1    1.80    2.00
  16  -2  -1    3.84    2.52
  16   2  -1    4.77    2.59
  16   2  -1    2.89    1.94
  16   2  -1    5.72    2.35
  16  -2   0    0.57    0.95
  16  -2   0    2.62    1.16
  16   2   0    0.95    2.22
  16   2   0    0.25    1.88
  16   2   0    3.38    2.30
  16  -2   1    6.34    1.97
  16  -2   1    1.67    1.68
  16   2   1    4.73    2.79
  16   2   1    5.68    2.65
  16   2   1    7.20    2.60
  16  -2   2    5.03    2.10
  16  -2   2    3.15    1.96
  16   2   2    5.13    2.12
  16   2   2    8.18    2.75
  16   2   2    3.15    1.59
  16  -2   3   41.44    6.35
  16   2   3   37.40    5.91
  16  -2   3   38.70    5.91
  16   2   3   35.22    5.52
  16   2   3   36.90    5.63
  16   2   4    2.25    2.26
  16  -2   4    1.63    1.06
  16  -2   4    6.31    2.69
  16   2   4    3.32    2.02
  16   2   4    0.92    1.30
  16  -2   5    1.62    0.97
  16  -2   5    2.90    1.59
  16   2   5    4.05    2.19
  16   2   6    3.69    2.00
  16  -2   6    2.66    2.16
  16  -2   6    5.30    2.58
  16   2   6    1.37    0.88
  16  -2   7   29.31    5.47
  16   2   7   35.58    5.87
  16  -2   7   31.78    5.59
  16   2   7   25.15    4.93
  16   2   8    1.60    0.99
  16  -2   8    4.26    2.92
  16  -2   8    6.21    2.47
  16   2   8    2.99    2.08
  16   2   9    4.07    2.44
  16  -2   9    7.69    2.85
  16  -2   9    5.43    3.09
  16   2   9    6.42    3.14
  16   2  10    1.91    0.83
  16  -2  10    4.19    1.91
  16  -2  10    2.44    1.75
  16   2  10    4.56    1.27
  16   2  11   14.96    3.88
  16  -2  11   16.05    4.07
  16   2  11   11.97    3.57
  16   2  12   13.13    3.62
  16  -2  12   13.84    3.94
  16   2  13   34.87    5.79
  16  -2  13   28.20    5.17
  16   2  14    4.93    2.59
  16  -2  14   -1.28    1.85
  16   2  15    0.65    2.17
  16  -2  15    1.19    1.67
  16   2  16    5.25    3.25
  16  -2  16    2.13    1.10
  16   2  17   33.44    6.07
  16  -2  17   25.26    4.96
  16   2  18    5.96    2.77
  16  -2  18    7.60    2.85
  16   2  19    0.12    1.27
  16  -2  19    6.22    3.26
  16  -3 -18    2.06    2.48
  16  -3 -17   -2.03    2.21
  16  -3 -16    2.16    3.03
  16  -3 -15    0.88    1.69
  16   3 -15    0.94    0.93
  16  -3 -14    1.79    2.44
  16   3 -14    0.40    1.24
  16  -3 -13   -0.10    1.61
  16   3 -13    0.34    1.45
  16  -3 -12   -0.99    2.31
  16  -3 -12    1.07    1.69
  16   3 -12   -2.41    2.40
  16  -3 -11    4.68    2.92
  16  -3 -11    8.57    3.64
  16   3 -11    6.92    3.14
  16  -3 -10    1.76    1.04
  16  -3 -10    1.46    1.73
  16   3 -10    0.66    2.24
  16  -3  -9    3.57    1.57
  16  -3  -9    2.69    2.84
  16   3  -9    1.72    1.36
  16  -3  -8    0.56    1.74
  16  -3  -8   -0.04    1.51
  16   3  -8    0.46    0.85
  16  -3  -7    4.43    2.01
  16  -3  -7    2.73    1.76
  16   3  -7    2.76    2.12
  16  -3  -6   -1.41    0.94
  16   3  -6   -0.39    0.84
  16  -3  -5    3.84    1.96
  16  -3  -5    2.45    1.85
  16   3  -5    2.22    1.43
  16   3  -5    2.42    1.47
  16  -3  -4    1.33    1.58
  16  -3  -4    2.17    2.33
  16   3  -4    2.95    2.15
  16   3  -4    0.98    1.76
  16  -3  -3   -1.62    2.42
  16  -3  -3   -0.40    1.86
  16   3  -3   -5.49    2.22
  16   3  -3   -1.01    1.00
  16   3  -3    1.75    2.21
  16  -3  -2   -0.06    0.94
  16  -3  -2    2.01    2.27
  16   3  -2    2.04    2.43
  16   3  -2   -0.66    1.62
  16   3  -2    0.64    1.41
  16   3  -1    1.69    1.69
  16  -3  -1    1.49    2.51
  16  -3  -1    0.90    1.29
  16   3  -1    0.77    1.41
  16   3  -1    1.29    1.07
  16   3   0   -0.97    0.91
  16  -3   0    0.85    1.01
  16  -3   0    2.37    1.74
  16   3   0   -0.36    1.03
  16   3   0   -0.65    0.92
  16   3   1    3.33    2.17
  16  -3   1    2.29    1.63
  16  -3   1    7.12    3.11
  16   3   1    4.85    2.61
  16   3   1   -1.87    1.08
  16   3   2    0.92    1.23
  16  -3   2   -1.09    1.22
  16  -3   2    0.22    1.66
  16   3   2    0.23    1.45
  16   3   2    1.20    0.89
  16   3   3   -1.20    1.91
  16  -3   3    1.69    2.42
  16  -3   3   -0.96    1.61
  16   3   3   -1.15    1.13
  16   3   3    3.32    2.05
  16   3   4    1.20    1.81
  16  -3   4    0.18    1.66
  16  -3   4    1.38    1.20
  16   3   4    0.68    1.35
  16   3   4    1.54    1.61
  16   3   5    4.45    2.20
  16  -3   5    1.80    2.26
  16  -3   5    3.21    2.10
  16   3   5    0.74    1.36
  16   3   6   -0.24    1.81
  16  -3   6   -0.44    1.43
  16  -3   6   -0.23    2.35
  16   3   6   -0.86    1.09
  16   3   7    2.74    1.30
  16  -3   7    2.21    2.35
  16  -3   7   -0.10    1.06
  16   3   8    4.34    2.49
  16  -3   8    1.63    1.88
  16  -3   8    2.23    0.97
  16   3   8    2.75    2.20
  16   3   9    0.60    1.00
  16  -3   9    0.70    2.39
  16  -3   9    0.45    2.38
  16   3   9    1.94    1.62
  16   3  10    2.39    2.13
  16  -3  10    0.64    0.97
  16  -3  10    0.26    1.30
  16   3  10    0.19    1.10
  16   3  11    3.93    1.05
  16  -3  11    7.20    2.74
  16  -3  11    8.57    3.41
  16   3  11    2.16    1.60
  16   3  12    0.73    2.10
  16  -3  12   -1.77    1.07
  16  -3  12    2.17    1.74
  16   3  13   -1.50    1.30
  16  -3  13    0.76    1.35
  16   3  14    0.61    2.29
  16  -3  14    4.10    2.98
  16   3  15   -0.99    1.75
  16  -3  15    1.36    1.20
  16   3  16   -0.38    1.28
  16  -3  16    0.26    1.10
  16   3  17   -2.12    2.71
  16  -3  17   -0.58    1.61
  16   3  18   -0.62    1.84
  16  -3  18   -0.84    1.37
  16  -4 -16    3.19    2.39
  16   4 -16    4.51    2.58
  16  -4 -15    0.74    1.63
  16   4 -15    4.45    2.56
  16  -4 -14    1.78    1.35
  16   4 -14    3.50    2.60
  16  -4 -13   26.25    5.48
  16  -4 -13   42.47    6.82
  16   4 -13   43.66    6.50
  16  -4 -12    8.79    3.29
  16  -4 -12   14.84    4.68
  16   4 -12    5.03    2.25
  16  -4 -11   15.80    4.02
  16  -4 -11   11.39    3.47
  16   4 -11    6.47    3.30
  16  -4 -10    4.14    3.18
  16  -4 -10    8.76    3.33
  16   4 -10   12.96    3.75
  16  -4  -9   14.27    3.91
  16  -4  -9   17.77    4.25
  16   4  -9   19.16    4.47
  16  -4  -8    0.25    2.02
  16  -4  -8    1.30    2.36
  16   4  -8   -2.13    1.18
  16  -4  -7   19.82    4.69
  16   4  -7   25.08    5.06
  16  -4  -7   25.47    5.24
  16  -4  -6    1.72    1.76
  16  -4  -6   -0.39    1.64
  16   4  -6    0.65    1.61
  16  -4  -5   10.36    3.61
  16  -4  -5    8.78    3.09
  16   4  -5    5.64    2.51
  16  -4  -4    1.15    0.82
  16  -4  -4    1.98    0.84
  16   4  -4    6.41    3.03
  16   4  -4    2.41    2.40
  16  -4  -3   41.51    6.04
  16   4  -3   35.94    5.78
  16  -4  -3   40.37    6.36
  16   4  -3   46.88    6.41
  16   4  -2   13.25    3.83
  16  -4  -2    4.90    1.74
  16  -4  -2    3.57    2.48
  16   4  -2   11.02    3.20
  16   4  -1   11.21    3.68
  16   4  -1    5.27    2.57
  16  -4  -1   13.84    3.83
  16  -4  -1   13.39    4.61
  16   4   0    0.33    1.31
  16   4   0   -0.18    0.89
  16  -4   0    3.05    2.11
  16  -4   0    0.52    1.29
  16   4   1    6.21    1.97
  16   4   1   12.56    4.11
  16  -4   1   12.05    3.21
  16  -4   1    9.83    3.31
  16   4   2    6.40    1.88
  16   4   2    5.96    2.97
  16  -4   2    4.50    1.73
  16  -4   2    0.24    1.86
  16  -4   3   37.52    5.97
  16  -4   3   48.74    7.08
  16   4   3   45.21    6.15
  16   4   3   36.85    6.26
  16   4   4    2.33    1.18
  16   4   4    4.70    1.80
  16  -4   4    6.87    2.76
  16  -4   4    7.30    2.66
  16   4   5   12.70    3.68
  16   4   5   14.44    3.57
  16  -4   5   13.45    3.41
  16  -4   5    9.58    3.04
  16   4   6    4.54    2.56
  16   4   6    1.29    1.16
  16  -4   6    2.39    1.02
  16  -4   6    1.42    2.23
  16   4   7   25.65    4.95
  16  -4   7   16.90    3.97
  16   4   7   25.28    5.00
  16  -4   7   19.08    3.92
  16   4   8   -0.06    2.19
  16   4   8   -1.20    1.77
  16  -4   8    1.72    1.02
  16  -4   8    1.73    2.46
  16   4   9   17.49    4.13
  16   4   9   13.38    3.62
  16  -4   9   19.02    4.00
  16  -4   9   19.34    4.50
  16   4  10    1.52    1.88
  16   4  10    3.07    2.29
  16  -4  10    7.48    2.82
  16  -4  10    8.00    2.00
  16   4  11    7.22    2.54
  16   4  11   13.25    3.85
  16  -4  11    7.12    1.81
  16  -4  11    8.25    2.82
  16   4  12    1.98    1.23
  16   4  12    8.82    3.38
  16  -4  12    5.99    2.85
  16  -4  12    6.24    2.74
  16  -4  13   25.68    5.28
  16  -4  13   39.81    6.79
  16   4  13   36.92    6.14
  16   4  14    3.03    1.93
  16  -4  14   -1.01    2.07
  16  -4  14   -0.94    2.13
  16   4  15    5.24    3.22
  16  -4  15    2.95    2.61
  16  -4  15   -0.57    1.73
  16   4  16    4.17    2.59
  16  -4  16    5.31    2.85
  16  -4  16    6.39    3.49
  16  -5 -14    3.96    2.57
  16  -5 -14    8.27    3.27
  16   5 -14    5.10    2.07
  16  -5 -13   -0.20    1.62
  16  -5 -13    1.78    1.23
  16   5 -13   -1.50    2.13
  16  -5 -12    2.06    1.69
  16  -5 -12    1.46    2.23
  16   5 -12   -0.10    2.33
  16  -5 -11    4.04    2.91
  16  -5 -11    5.29    3.76
  16   5 -11    6.76    2.84
  16  -5 -10    5.41    2.03
  16  -5 -10    4.45    2.31
  16   5 -10   11.72    3.52
  16  -5  -9    0.99    1.89
  16  -5  -9    2.49    0.92
  16   5  -9    3.89    2.68
  16  -5  -8   -1.24    1.58
  16  -5  -8   -0.69    2.07
  16   5  -8   -1.51    1.99
  16  -5  -7    0.43    1.42
  16  -5  -7    1.28    2.38
  16   5  -7    0.61    1.79
  16   5  -6   -0.80    1.58
  16  -5  -6    3.10    2.48
  16  -5  -6    0.83    1.59
  16   5  -5    5.49    2.65
  16  -5  -5    4.54    2.42
  16  -5  -5    5.40    2.81
  16   5  -4    4.24    0.88
  16  -5  -4    4.69    2.14
  16  -5  -4    0.53    1.63
  16   5  -3    7.48    2.99
  16  -5  -3    4.27    1.64
  16  -5  -3    4.31    2.25
  16   5  -2    1.31    0.87
  16   5  -2    2.85    1.85
  16  -5  -2    0.03    1.80
  16  -5  -2   -0.90    2.06
  16   5  -1    7.68    2.97
  16   5  -1    7.26    2.60
  16  -5  -1    7.77    2.40
  16  -5  -1   10.74    3.43
  16   5   0   -0.02    0.93
  16   5   0    0.10    1.78
  16  -5   0    2.31    2.30
  16  -5   0   -1.53    1.20
  16   5   1    4.11    2.17
  16   5   1    5.48    2.59
  16  -5   1    6.70    2.61
  16  -5   1    8.13    3.35
  16   5   2    4.53    1.16
  16   5   2    2.04    1.60
  16  -5   2    0.15    0.86
  16  -5   2    0.46    1.33
  16   5   3    1.90    1.60
  16   5   3    4.48    2.37
  16  -5   3    2.11    1.51
  16  -5   3    0.11    1.53
  16   5   4    8.03    2.18
  16   5   4   -0.33    1.90
  16  -5   4    1.56    2.28
  16  -5   4    5.71    3.07
  16   5   5   11.14    3.29
  16   5   5    9.56    3.20
  16  -5   5    6.24    2.46
  16  -5   5    5.26    2.36
  16   5   6    0.94    1.17
  16   5   6    0.56    1.43
  16  -5   6   -1.29    1.78
  16  -5   6   -1.21    2.35
  16   5   7   -1.11    1.51
  16  -5   7   -0.73    1.96
  16   5   7    0.84    1.22
  16  -5   7    2.99    2.78
  16   5   8    0.70    1.94
  16  -5   8   -1.68    3.28
  16   5   8    0.89    1.98
  16  -5   8    1.46    2.36
  16   5   9    0.26    1.39
  16   5   9    0.62    1.86
  16  -5   9    0.48    1.49
  16  -5   9    0.31    2.22
  16   5  10    4.87    2.47
  16  -5  10    4.80    2.87
  16   5  10    3.21    1.98
  16  -5  10    2.96    1.84
  16   5  11    3.31    3.23
  16  -5  11    3.63    1.35
  16   5  11    3.31    3.12
  16  -5  11   -0.64    1.48
  16   5  12    2.85    2.46
  16  -5  12    0.13    1.02
  16   5  12    4.56    2.53
  16  -5  12    2.44    1.83
  16   5  13    2.58    1.45
  16  -5  13    2.18    2.25
  16  -5  13    1.09    1.39
  16   5  14   12.49    3.98
  16  -5  14   10.37    3.68
  16  -5  14    8.58    3.41
  16  -6 -11    3.35    2.06
  16  -6 -11    5.16    2.98
  16   6 -11    4.16    2.11
  16  -6 -10    4.53    2.31
  16  -6 -10    6.24    3.01
  16   6 -10    6.29    2.82
  16   6  -9   18.76    4.01
  16  -6  -9   15.71    4.57
  16  -6  -9   18.46    4.61
  16   6  -8    2.60    1.26
  16  -6  -8   -1.09    2.34
  16  -6  -8    4.79    2.62
  16   6  -7   20.48    4.59
  16  -6  -7   13.40    3.82
  16  -6  -7   16.99    4.27
  16   6  -6    4.10    2.71
  16  -6  -6    2.45    2.36
  16  -6  -6    0.51    1.59
  16   6  -5   -1.07    0.95
  16  -6  -5   -2.81    2.26
  16  -6  -5   -0.28    1.36
  16   6  -4    9.12    3.15
  16  -6  -4    6.20    2.99
  16  -6  -4    5.76    2.67
  16  -6  -3   16.16    4.22
  16  -6  -3   26.14    5.66
  16   6  -3   29.52    5.82
  16   6  -2   17.71    4.07
  16  -6  -2   19.58    4.60
  16  -6  -2   26.29    5.64
  16   6  -1   16.24    4.13
  16  -6  -1   18.34    4.45
  16   6  -1   16.78    4.95
  16  -6  -1   12.50    3.33
  16   6   0    1.57    2.02
  16  -6   0    2.16    2.41
  16   6   0    1.36    2.44
  16  -6   0   -1.10    2.05
  16   6   1   19.91    4.17
  16  -6   1   25.38    4.88
  16   6   1   14.50    3.61
  16  -6   1   14.35    4.16
  16   6   2   25.89    4.80
  16  -6   2   19.41    5.04
  16   6   2   26.07    5.43
  16  -6   2   20.79    5.31
  16   6   3   26.80    5.39
  16  -6   3   21.75    5.25
  16  -6   3   22.39    4.76
  16   6   3   25.76    5.32
  16   6   4    7.15    2.74
  16  -6   4    2.28    1.57
  16   6   4    8.61    2.94
  16  -6   4    4.59    1.58
  16   6   5    0.28    2.22
  16  -6   5   -1.50    1.69
  16   6   5    1.36    1.24
  16  -6   5    1.47    1.13
  16   6   6    0.80    1.28
  16  -6   6    4.34    3.32
  16   6   6    2.88    2.24
  16  -6   6    0.66    1.94
  16   6   7   20.13    4.53
  16  -6   7   16.07    4.12
  16   6   7   13.63    4.39
  16  -6   7   13.58    3.87
  16   6   8   -1.59    2.27
  16  -6   8   -1.21    1.36
  16   6   8    3.00    2.19
  16  -6   8    2.72    2.54
  16   6   9   22.87    5.17
  16  -6   9   22.13    4.72
  16   6   9   14.25    3.90
  16  -6   9   20.52    4.89
  16   6  10    5.93    1.99
  16  -6  10    6.27    3.19
  16   6  10    5.30    1.13
  16  -6  10    4.90    2.65
  16   6  11    1.45    1.86
  16  -6  11    3.14    1.96
  16   6  11    5.16    3.01
  16  -6  11    8.74    3.15
  16   7  -6    0.32    1.29
  16  -7  -6    2.36    2.90
  16  -7  -6    2.02    1.28
  16   7  -5    7.44    2.44
  16  -7  -5   10.97    3.40
  16  -7  -5    9.38    2.68
  16   7  -4    1.43    1.20
  16  -7  -4   -0.79    1.96
  16  -7  -4   -0.56    2.04
  16   7  -3    4.49    2.08
  16  -7  -3    6.65    2.37
  16  -7  -3    2.77    2.72
  16   7  -2   -1.33    1.49
  16  -7  -2    0.49    1.12
  16  -7  -2    0.43    1.82
  16   7  -1    0.11    1.59
  16  -7  -1   -0.30    1.05
  16  -7  -1   -2.97    2.43
  16   7   0    1.41    2.16
  16  -7   0   -1.44    1.14
  16  -7   0   -2.44    2.41
  16   7   1   -0.29    2.57
  16  -7   1    2.12    2.83
  16   7   1    1.92    1.71
  16  -7   1   -2.09    2.32
  16   7   2    1.77    1.71
  16  -7   2   -0.29    1.06
  16   7   2    1.34    1.33
  16  -7   2    2.94    1.92
  16   7   3   -0.11    1.75
  16  -7   3    8.69    3.28
  16   7   3    6.31    2.56
  16  -7   3    4.92    2.79
  16   7   4    2.83    2.61
  16  -7   4   -1.12    1.92
  16   7   4   -0.33    1.15
  16  -7   4    4.45    2.77
  16   7   5    2.72    2.52
  16  -7   5    5.49    2.16
  16   7   5    5.54    2.08
  16  -7   5    7.09    3.68
  16   7   6    0.81    1.66
  16  -7   6    0.26    1.96
  16   7   6    3.85    2.31
  16  -7   6    4.18    2.25
  17   0 -16   -1.72    1.24
  17   0 -15   -0.39    1.51
  17   0 -14    0.04    1.36
  17   0 -13    2.83    2.25
  17   0 -12    1.57    1.47
  17   0 -11   -2.79    2.04
  17   0 -10    0.24    1.92
  17   0  -9   -0.36    1.99
  17   0  -8    0.82    0.98
  17   0  -8    1.99    2.03
  17   0  -7   -0.88    1.16
  17   0  -7   -0.71    1.82
  17   0  -6    0.13    2.12
  17   0  -6    0.82    1.92
  17   0  -5   -0.27    0.90
  17   0  -5    3.31    2.59
  17   0  -4    0.45    1.33
  17   0  -4    1.80    1.86
  17   0  -3    0.14    1.62
  17   0  -3   -0.18    1.28
  17   0  -2    1.76    1.56
  17   0  -2    0.16    1.10
  17   0  -1   -0.30    1.32
  17   0  -1   -0.27    1.63
  17   0   0   -1.14    1.15
  17   0   0   -0.74    1.76
  17   0   1   -0.47    0.79
  17   0   1   -0.01    1.03
  17   0   2    2.98    2.16
  17   0   2   -1.03    1.75
  17   0   3    0.64    1.95
  17   0   3    0.80    0.87
  17   0   4    1.06    2.06
  17   0   4    0.63    2.11
  17   0   5    0.89    1.65
  17   0   5   -0.56    1.59
  17   0   6   -1.20    0.70
  17   0   6   -1.29    2.15
  17   0   7   -0.56    1.49
  17   0   7   -0.31    1.61
  17   0   8   -0.37    1.33
  17   0   9   -0.16    1.57
  17   0  10    1.10    2.33
  17   0  11   -0.48    1.64
  17   0  12   -0.42    2.23
  17   0  13    0.54    1.33
  17   0  14   -0.16    2.22
  17   0  15   -1.57    2.00
  17   0  16    0.16    1.22
  17   0  17   -2.07    2.60
  17  -1 -17   17.45    4.22
  17  -1 -16    9.34    3.67
  17  -1 -15    5.24    2.33
  17  -1 -14    5.46    3.06
  17  -1 -13   -0.19    1.72
  17   1 -12   24.51    6.25
  17  -1 -12   14.92    4.54
  17  -1 -11   20.71    4.68
  17   1 -11   27.29    5.37
  17  -1 -10   13.33    4.47
  17  -1 -10   19.51    4.49
  17   1 -10    7.41    2.32
  17  -1  -9   11.03    4.01
  17  -1  -9   11.95    3.41
  17   1  -9    6.79    3.37
  17  -1  -8    7.09    2.62
  17  -1  -8    3.95    2.19
  17   1  -8   11.52    3.06
  17  -1  -7    2.37    0.84
  17   1  -7    5.41    2.56
  17  -1  -7    2.14    3.06
  17   1  -7    2.14    1.59
  17  -1  -6   10.15    3.14
  17   1  -6   10.60    3.46
  17  -1  -6    4.17    1.40
  17   1  -6    2.68    2.16
  17  -1  -5    7.57    3.42
  17   1  -5    8.13    2.80
  17  -1  -5    5.04    2.30
  17   1  -5    8.36    3.13
  17  -1  -4   34.60    5.92
  17   1  -4   28.43    5.31
  17   1  -4   42.56    6.57
  17  -1  -4   30.63    5.36
  17   1  -4   27.94    5.45
  17  -1  -3   28.48    5.44
  17   1  -3   28.42    5.05
  17   1  -3   37.26    6.08
  17  -1  -3   25.23    5.16
  17   1  -3   22.29    4.07
  17  -1  -2   19.14    4.27
  17   1  -2   17.30    4.31
  17  -1  -2   21.15    4.77
  17   1  -2   19.43    3.98
  17  -1  -1   11.37    3.77
  17   1  -1    7.68    2.67
  17  -1  -1    8.51    3.33
  17   1  -1   10.01    3.43
  17   1  -1    6.90    2.73
  17   1   0   28.79    4.93
  17  -1   0   22.59    4.60
  17  -1   0   27.44    5.38
  17   1   0   31.50    5.76
  17   1   0   28.00    4.65
  17  -1   1    9.62    3.12
  17  -1   1    8.82    2.64
  17   1   1    5.71    2.21
  17   1   1    6.38    2.50
  17   1   1    9.19    2.87
  17  -1   2   19.86    4.41
  17  -1   2   27.98    5.44
  17   1   2   14.16    4.32
  17   1   2   18.55    4.24
  17   1   2   25.18    5.02
  17  -1   3   27.96    5.05
  17  -1   3   30.37    5.52
  17   1   3   36.90    6.03
  17   1   3   27.04    4.80
  17   1   3   23.54    5.04
  17  -1   4   24.79    4.76
  17  -1   4   22.76    4.70
  17   1   4   18.24    4.15
  17   1   4   26.53    4.88
  17  -1   5    7.70    2.65
  17  -1   5   11.10    3.82
  17   1   5    9.02    3.57
  17   1   5    8.38    2.71
  17   1   5    4.78    2.27
  17  -1   6    7.76    3.44
  17  -1   6    6.45    2.41
  17   1   6    9.64    2.75
  17   1   6    7.83    2.45
  17   1   6    2.60    1.49
  17  -1   7    2.68    1.90
  17  -1   7    2.67    2.08
  17   1   7    4.56    2.58
  17   1   7    6.15    2.75
  17  -1   8    8.22    2.93
  17  -1   8    7.89    2.65
  17   1   8    8.34    2.82
  17   1   8   10.73    3.37
  17  -1   9    6.77    2.01
  17  -1   9   11.90    3.52
  17   1   9    6.41    2.40
  17   1   9    5.34    2.78
  17  -1  10    8.23    3.39
  17   1  10   11.56    3.39
  17  -1  11   25.54    5.16
  17   1  11   24.25    5.09
  17  -1  12   11.83    3.68
  17   1  12    6.23    2.90
  17  -1  13    2.36    2.43
  17   1  13    4.33    2.64
  17  -1  14   12.85    3.53
  17   1  14    8.19    3.32
  17  -1  15    1.26    1.35
  17   1  15    5.98    3.27
  17  -1  16    0.83    2.18
  17   1  16    9.34    3.29
  17  -1  17   21.12    4.70
  17   1  17   16.71    4.69
  17  -2 -17    7.28    3.43
  17  -2 -16    0.33    1.55
  17  -2 -15    1.46    1.32
  17  -2 -14    1.76    1.37
  17  -2 -13    0.40    2.13
  17  -2 -12    1.44    1.88
  17  -2 -11    2.51    2.65
  17  -2 -11    0.72    1.26
  17  -2 -10    3.93    2.53
  17  -2 -10    1.65    1.90
  17   2 -10    3.04    2.31
  17  -2  -9   10.41    3.54
  17  -2  -9    9.26    3.15
  17   2  -9    6.89    2.67
  17  -2  -8    3.66    2.51
  17  -2  -8    4.09    2.03
  17   2  -8    4.32    2.21
  17  -2  -7    2.80    1.97
  17  -2  -7    2.73    1.58
  17   2  -7    0.57    2.76
  17   2  -7    1.81    1.54
  17  -2  -6    3.02    2.43
  17   2  -6    5.56    2.61
  17  -2  -6    2.66    1.87
  17   2  -6    4.37    2.43
  17   2  -6    1.44    1.44
  17  -2  -5    2.26    1.35
  17   2  -5    1.69    1.23
  17  -2  -5    3.18    2.12
  17   2  -5    4.07    2.73
  17   2  -5   -0.25    1.23
  17  -2  -4    3.77    2.65
  17   2  -4    4.48    2.08
  17  -2  -4    2.00    2.21
  17   2  -4   -0.35    1.38
  17   2  -4    3.76    2.97
  17  -2  -3   -1.46    2.25
  17  -2  -3   -1.71    2.14
  17   2  -3   -0.18    1.71
  17   2  -3   -0.53    1.22
  17   2  -3    1.35    1.42
  17  -2  -2    2.37    1.47
  17  -2  -2    0.44    1.51
  17   2  -2    0.93    1.51
  17   2  -2    0.54    2.29
  17   2  -2    2.21    1.36
  17  -2  -1    0.33    1.12
  17  -2  -1    0.76    1.64
  17   2  -1   -0.41    1.68
  17   2  -1    0.70    1.88
  17   2  -1    0.30    1.18
  17  -2   0    2.78    2.08
  17  -2   0   -0.60    1.95
  17   2   0    0.45    1.62
  17   2   0   -0.83    1.28
  17   2   0   -0.49    0.92
  17  -2   1    0.92    1.54
  17  -2   1    2.58    1.59
  17   2   1    0.69    2.54
  17   2   1   -0.52    1.56
  17   2   1   -0.45    2.21
  17  -2   2    1.50    1.70
  17  -2   2    2.68    2.00
  17   2   2    0.09    1.42
  17   2   2    0.48    1.55
  17   2   2    1.72    2.29
  17  -2   3   -0.57    1.16
  17  -2   3   -0.48    1.96
  17   2   3    1.57    1.76
  17   2   3    1.70    1.44
  17   2   3    0.29    0.99
  17  -2   4    2.51    1.80
  17  -2   4    2.83    1.19
  17   2   4    3.92    1.78
  17   2   4   -0.61    1.94
  17   2   4    0.34    0.82
  17  -2   5   -1.73    0.98
  17  -2   5    2.36    1.54
  17   2   5    2.30    2.31
  17   2   5    0.25    0.89
  17   2   5    3.26    2.52
  17   2   6    4.50    2.67
  17  -2   6    5.08    2.62
  17  -2   6    6.32    3.17
  17   2   6    2.16    1.89
  17   2   7    2.11    1.15
  17  -2   7    1.10    1.01
  17  -2   7    0.68    1.27
  17   2   7   -0.20    1.40
  17   2   8    6.35    2.82
  17  -2   8    7.37    2.53
  17  -2   8    9.81    3.11
  17   2   8    5.04    2.83
  17   2   9    6.36    2.54
  17  -2   9    9.40    3.34
  17  -2   9    5.61    2.39
  17   2   9   10.42    3.56
  17   2  10    1.64    1.74
  17  -2  10    0.05    1.61
  17  -2  10    1.79    1.88
  17   2  10    2.54    2.68
  17   2  11    1.93    2.45
  17  -2  11    2.98    2.66
  17  -2  11    0.28    1.03
  17   2  12    2.10    2.73
  17  -2  12    1.25    0.89
  17   2  13    1.42    2.57
  17  -2  13    3.95    2.24
  17   2  14   -0.46    2.02
  17  -2  14    4.53    3.50
  17   2  15    1.64    1.57
  17  -2  15    4.84    2.68
  17   2  16    1.14    1.91
  17  -2  16    0.11    1.54
  17   2  17    4.25    2.63
  17  -2  17    9.15    3.37
  17  -3 -16    4.16    1.27
  17  -3 -15   10.96    3.18
  17  -3 -14    3.38    3.04
  17   3 -14    8.42    3.64
  17  -3 -13    5.78    2.35
  17   3 -13    4.24    2.78
  17  -3 -12    1.24    2.22
  17  -3 -12    3.36    3.28
  17   3 -12    0.58    1.60
  17  -3 -11    7.10    3.34
  17  -3 -11   12.18    3.54
  17   3 -11    6.06    2.30
  17  -3 -10   12.39    3.56
  17  -3 -10   16.43    4.24
  17   3 -10   16.09    3.89
  17  -3  -9    3.38    2.34
  17  -3  -9    6.89    3.16
  17   3  -9    8.85    2.59
  17  -3  -8    0.04    2.07
  17  -3  -8   -0.29    1.39
  17   3  -8   -0.01    1.49
  17  -3  -7   13.08    4.16
  17  -3  -7   13.71    3.81
  17   3  -7    9.73    3.20
  17  -3  -6    0.28    0.93
  17  -3  -6   -0.40    1.30
  17   3  -6    0.98    1.04
  17  -3  -5   30.34    5.35
  17  -3  -5   28.54    5.50
  17   3  -5   25.52    4.85
  17  -3  -4   18.54    4.08
  17  -3  -4   23.14    4.77
  17   3  -4   16.45    4.52
  17   3  -4   20.05    4.35
  17  -3  -3   -0.65    1.09
  17   3  -3   -0.45    1.49
  17   3  -3    2.53    1.03
  17  -3  -2   23.45    4.69
  17  -3  -2   21.22    3.83
  17   3  -2   28.40    5.39
  17   3  -2   22.27    4.66
  17  -3  -1   46.11    7.05
  17   3  -1   65.96    7.72
  17  -3  -1   72.81    8.46
  17   3  -1   72.35    8.78
  17   3  -1   56.41    6.96
  17  -3   0    0.61    1.47
  17  -3   0   -0.05    1.44
  17   3   0    0.82    1.31
  17   3   0   -0.37    1.05
  17   3   0    1.80    1.77
  17  -3   1   69.77    8.11
  17   3   1   54.98    7.13
  17  -3   1   70.08    8.46
  17   3   1   54.15    7.36
  17   3   1   45.14    6.41
  17  -3   2   17.55    4.06
  17   3   2   29.48    5.36
  17  -3   2   29.96    5.46
  17   3   2   33.89    5.93
  17   3   2   15.16    4.26
  17   3   3    4.03    2.80
  17  -3   3    1.44    1.01
  17  -3   3    0.61    1.35
  17   3   3    4.60    1.89
  17   3   3    1.82    1.99
  17   3   4   18.32    4.32
  17  -3   4   16.83    4.28
  17  -3   4   21.31    4.08
  17   3   4   23.11    5.33
  17   3   4   24.84    5.08
  17   3   5   22.37    4.64
  17  -3   5   23.61    4.88
  17  -3   5   31.13    5.66
  17   3   5   23.99    4.73
  17   3   5   19.64    4.47
  17   3   6    0.06    1.52
  17  -3   6    1.48    2.46
  17  -3   6   -0.13    1.26
  17   3   6   -0.82    2.24
  17   3   7    9.58    2.94
  17  -3   7   10.91    3.86
  17  -3   7    7.25    3.67
  17   3   7    8.63    3.19
  17   3   8    1.95    1.30
  17  -3   8    0.75    0.88
  17  -3   8   -1.66    1.90
  17   3   8    2.12    2.34
  17   3   9    3.23    1.56
  17  -3   9    4.41    2.82
  17  -3   9    5.26    1.58
  17   3   9    9.56    3.48
  17   3  10   11.91    3.22
  17  -3  10   15.32    4.17
  17  -3  10   16.43    4.09
  17   3  10   11.88    3.73
  17   3  11    7.66    2.77
  17  -3  11    5.59    2.15
  17   3  11    1.00    1.47
  17   3  12   -0.75    1.02
  17  -3  12    1.85    1.57
  17  -3  12   -0.29    1.45
  17   3  13    0.38    0.94
  17  -3  13    6.48    3.03
  17  -3  13    5.05    3.14
  17   3  14    8.58    2.75
  17  -3  14    2.62    2.01
  17  -3  14    5.03    2.40
  17   3  15   13.78    4.24
  17  -3  15   15.34    4.68
  17  -3  15    7.80    2.20
  17   3  16    6.71    2.67
  17  -4 -14    0.18    1.09
  17   4 -14    3.68    2.15
  17  -4 -13    8.85    3.60
  17  -4 -13    8.22    3.42
  17   4 -13    7.53    2.99
  17  -4 -12    3.84    2.26
  17  -4 -12    8.72    4.03
  17   4 -12    3.84    1.94
  17  -4 -11    1.07    1.71
  17  -4 -11    0.84    1.47
  17   4 -11    5.17    2.54
  17  -4 -10    3.47    2.44
  17  -4 -10   -0.35    1.45
  17   4 -10   -1.48    1.41
  17  -4  -9    1.14    1.63
  17  -4  -9    4.23    1.03
  17   4  -9    1.74    1.92
  17  -4  -8    4.00    2.03
  17  -4  -8    0.96    2.60
  17   4  -8    4.23    3.19
  17  -4  -7   -0.26    1.24
  17  -4  -7    3.48    2.75
  17   4  -7    3.05    2.78
  17  -4  -6   11.69    3.73
  17  -4  -6    4.62    2.59
  17   4  -6    3.58    2.85
  17  -4  -5   12.80    3.88
  17  -4  -5   13.13    3.77
  17   4  -5   10.64    2.44
  17  -4  -4    2.97    2.66
  17  -4  -4   -1.03    1.94
  17   4  -4    2.38    2.67
  17  -4  -3    2.04    2.30
  17  -4  -3    1.31    2.17
  17   4  -3    1.83    1.65
  17   4  -3    2.79    2.81
  17   4  -2    5.46    2.50
  17  -4  -2    7.38    2.72
  17  -4  -2    7.22    1.57
  17   4  -2    8.64    3.13
  17   4  -1    5.56    1.90
  17  -4  -1   14.39    3.90
  17  -4  -1    3.58    1.62
  17   4  -1   12.70    3.60
  17   4   0    8.62    3.82
  17  -4   0    9.55    3.71
  17  -4   0    3.60    2.70
  17   4   0   10.74    3.27
  17   4   1    9.52    2.82
  17  -4   1   15.75    3.82
  17  -4   1   16.30    4.37
  17   4   1    8.82    3.08
  17   4   2    7.57    2.89
  17  -4   2    5.11    2.55
  17  -4   2    3.48    1.36
  17   4   2    5.72    2.14
  17   4   3    1.16    1.00
  17  -4   3    1.29    1.02
  17  -4   3    1.51    2.02
  17   4   3    0.04    0.99
  17   4   4    1.97    2.03
  17  -4   4    4.32    2.77
  17  -4   4    0.83    1.43
  17   4   4   -1.33    1.88
  17   4   5   16.12    4.00
  17  -4   5    8.76    2.69
  17  -4   5   19.58    4.62
  17   4   5    6.62    2.86
  17   4   6    2.35    1.29
  17  -4   6    4.75    2.28
  17  -4   6    3.30    2.71
  17   4   6    4.63    2.21
  17   4   7    2.24    1.01
  17  -4   7    3.03    1.54
  17  -4   7   -0.64    2.19
  17   4   7    0.35    1.65
  17   4   8    5.10    2.95
  17  -4   8    0.23    1.92
  17  -4   8    3.85    1.87
  17   4   8    0.93    1.63
  17   4   9    2.47    2.09
  17  -4   9    0.26    0.93
  17  -4   9   -0.70    1.57
  17   4   9   -0.03    1.42
  17   4  10    0.54    1.46
  17  -4  10    2.82    2.23
  17  -4  10   -0.62    1.99
  17   4  10    1.67    1.39
  17   4  11    4.40    2.55
  17  -4  11    1.00    1.43
  17  -4  11    7.57    3.01
  17   4  11    4.32    2.60
  17   4  12    6.21    2.98
  17  -4  12    8.43    3.80
  17  -4  12    4.36    1.54
  17   4  13   12.56    3.46
  17  -4  13    9.27    3.38
  17  -4  13    6.64    2.88
  17   4  14    7.88    3.56
  17  -4  14    4.07    2.33
  17  -4  14    5.53    1.96
  17  -5 -11    5.44    2.61
  17  -5 -11   12.96    3.99
  17   5 -11    9.59    3.91
  17  -5 -10   17.21    4.82
  17  -5 -10   22.95    4.51
  17   5 -10   15.68    3.79
  17  -5  -9    2.71    1.83
  17  -5  -9   -0.42    2.16
  17   5  -9    2.94    2.96
  17  -5  -8    2.62    1.45
  17  -5  -8    4.67    2.66
  17   5  -8    2.57    1.39
  17  -5  -7    3.28    1.70
  17  -5  -7   10.56    4.33
  17   5  -7   13.69    4.03
  17  -5  -6   20.73    4.86
  17  -5  -6   33.31    6.01
  17   5  -6   19.53    4.44
  17  -5  -5    7.25    3.01
  17  -5  -5    5.03    2.74
  17   5  -5    9.98    2.94
  17  -5  -4    5.13    2.55
  17  -5  -4    4.92    1.96
  17   5  -4    6.08    2.60
  17   5  -3    8.12    3.54
  17  -5  -3    4.35    1.92
  17  -5  -3    6.64    3.03
  17   5  -2    0.60    1.65
  17  -5  -2    2.82    2.55
  17  -5  -2    4.10    2.16
  17   5  -1    3.93    2.32
  17   5  -1    7.20    1.99
  17  -5  -1    9.86    3.59
  17  -5  -1   11.74    3.80
  17   5   0   16.24    4.08
  17   5   0   10.99    3.86
  17  -5   0   16.52    4.18
  17  -5   0    9.27    3.17
  17   5   1    4.11    2.17
  17   5   1    6.74    2.95
  17  -5   1    7.88    3.10
  17  -5   1   11.44    3.95
  17   5   2    2.14    1.91
  17   5   2    3.33    1.49
  17  -5   2    1.97    1.43
  17   5   3    5.94    2.59
  17   5   3   12.01    3.72
  17  -5   3    2.59    2.18
  17  -5   3    5.49    2.89
  17   5   4    2.89    2.56
  17   5   4    4.46    2.13
  17  -5   4    5.49    2.73
  17  -5   4    7.81    3.19
  17   5   5    7.74    3.27
  17   5   5   11.02    3.71
  17  -5   5    9.34    3.62
  17  -5   5    5.84    2.83
  17   5   6   21.73    4.75
  17   5   6   15.96    4.12
  17  -5   6   20.62    4.62
  17  -5   6   18.07    4.87
  17   5   7   10.18    3.68
  17   5   7    8.26    3.10
  17  -5   7   13.65    3.99
  17  -5   7    4.63    1.80
  17   5   8    5.06    2.97
  17   5   8    2.40    1.63
  17  -5   8    5.53    2.73
  17  -5   8    3.01    2.10
  17   5   9    0.61    1.26
  17   5   9    2.57    2.19
  17  -5   9    3.26    2.25
  17  -5   9   -1.05    1.40
  17   5  10   14.23    3.64
  17   5  10   25.77    5.22
  17  -5  10   22.71    4.94
  17  -5  10   15.42    4.22
  17   5  11    6.66    3.63
  17   5  11    9.86    3.46
  17  -5  11    9.53    3.92
  17  -5  11    5.80    2.23
  17   6  -7    2.19    1.92
  17  -6  -7    1.00    1.50
  17  -6  -7    6.52    2.46
  17   6  -6   -1.78    2.17
  17  -6  -6    0.05    1.60
  17  -6  -6    2.56    2.12
  17   6  -5    1.21    1.76
  17  -6  -5   -1.82    1.96
  17  -6  -5    0.95    1.57
  17   6  -4   -0.48    1.80
  17  -6  -4    1.53    1.66
  17  -6  -4    1.89    1.58
  17   6  -3    2.03    1.80
  17  -6  -3    0.10    1.07
  17   6  -2    2.49    1.25
  17  -6  -2    3.06    2.33
  17  -6  -2    5.03    2.69
  17   6  -1    1.93    2.08
  17  -6  -1    1.44    2.18
  17  -6  -1    0.45    2.12
  17   6   0   -0.46    1.09
  17   6   0    1.66    2.28
  17  -6   0    0.23    1.07
  17  -6   0   -2.97    2.83
  17   6   1   -0.49    1.38
  17  -6   1    0.94    1.01
  17   6   1   -0.57    1.79
  17  -6   1   -0.56    2.66
  17   6   2    3.37    1.36
  17  -6   2    0.05    1.98
  17   6   2    0.35    1.28
  17  -6   2    1.47    1.81
  17   6   3    2.73    1.43
  17  -6   3    1.77    1.31
  17   6   3    0.96    1.30
  17  -6   3    3.23    2.85
  17   6   4   -0.32    1.64
  17  -6   4    2.48    1.57
  17   6   4    1.73    0.95
  17  -6   4    0.94    1.98
  17   6   5    2.21    1.22
  17  -6   5    0.11    2.02
  17   6   5   -0.28    2.41
  17  -6   5    2.13    1.98
  17   6   6    2.48    1.77
  17  -6   6    7.31    3.11
  17   6   6    3.01    1.75
  17  -6   6    0.91    1.95
  17   6   7    1.72    3.22
  17  -6   7    0.17    2.08
  17   6   7    0.39    2.49
  17  -6   7    2.43    2.19
  18   0 -15  124.59   12.14
  18   0 -14    1.24    1.68
  18   0 -13    8.76    2.37
  18   0 -12   16.95    4.36
  18   0 -11  150.22   12.83
  18   0 -10   16.81    4.46
  18   0  -9   15.68    3.74
  18   0  -8   11.17    4.29
  18   0  -8    7.44    2.57
  18   0  -7    1.81    1.46
  18   0  -7    4.38    2.38
  18   0  -6    2.78    1.64
  18   0  -6    0.64    1.22
  18   0  -5   49.64    7.19
  18   0  -5   60.20    8.18
  18   0  -4   45.86    6.75
  18   0  -4   48.53    7.28
  18   0  -3   51.50    7.37
  18   0  -3   44.24    6.58
  18   0  -2   11.79    3.73
  18   0  -2   12.60    3.51
  18   0  -1   40.87    6.56
  18   0  -1   41.82    7.26
  18   0   0   11.40    3.36
  18   0   0   12.29    3.30
  18   0   1   21.94    4.45
  18   0   1   39.35    6.24
  18   0   2   10.93    3.20
  18   0   2   18.37    4.44
  18   0   3   42.95    6.62
  18   0   3   53.37    7.15
  18   0   4   50.93    7.27
  18   0   4   52.22    7.21
  18   0   5   60.47    7.69
  18   0   5   67.48    8.10
  18   0   6    1.51    2.19
  18   0   6    0.52    1.18
  18   0   7    2.40    1.56
  18   0   7    7.18    3.87
  18   0   8   13.04    3.30
  18   0   8    9.36    3.33
  18   0   9   23.57    4.89
  18   0   9   19.78    5.01
  18   0  10   12.85    4.03
  18   0  11  161.52   12.72
  18   0  12   17.92    4.76
  18   0  13   12.20    3.90
  18   0  14   -0.18    1.03
  18   0  15  148.12   12.77
  18  -1 -15    9.69    3.61
  18  -1 -14   -1.84    1.34
  18  -1 -13   -1.07    2.08
  18  -1 -12    1.61    1.37
  18  -1 -11   -0.28    1.48
  18   1 -11   -5.29    2.36
  18  -1 -10   26.21    5.35
  18   1 -10   19.77    4.63
  18  -1  -9    4.03    2.96
  18  -1  -9   -0.53    1.67
  18   1  -9    3.16    1.20
  18  -1  -8    5.99    3.09
  18  -1  -8    2.49    1.99
  18   1  -8    3.37    2.45
  18  -1  -7    1.27    1.37
  18   1  -7   -3.97    1.98
  18  -1  -7    2.17    2.40
  18   1  -7    4.11    2.83
  18  -1  -6   10.07    2.95
  18   1  -6    6.38    3.58
  18  -1  -6   10.28    3.64
  18   1  -6   11.55    4.16
  18  -1  -5   -0.16    1.37
  18   1  -5    2.60    2.21
  18  -1  -5   -0.42    1.09
  18   1  -5   -1.25    2.22
  18  -1  -4    0.64    1.46
  18   1  -4   -0.71    1.40
  18  -1  -4   -0.58    1.67
  18   1  -4    0.43    1.77
  18  -1  -3    1.52    1.58
  18   1  -3    1.00    1.69
  18  -1  -3   -0.56    0.98
  18   1  -3    1.43    1.22
  18  -1  -2   -1.93    1.76
  18   1  -2    0.76    1.09
  18  -1  -2    0.06    0.95
  18   1  -2   -0.71    1.40
  18   1  -1    1.41    0.78
  18  -1  -1    1.44    1.40
  18   1  -1   -0.41    1.43
  18  -1   0    1.70    2.75
  18   1   0    1.85    2.05
  18  -1   0    0.72    1.41
  18   1   0    1.22    2.09
  18  -1   1    6.42    2.66
  18   1   1   -0.15    1.06
  18  -1   1    2.86    2.24
  18   1   1    2.79    1.42
  18  -1   2    0.27    1.37
  18   1   2   -0.65    1.26
  18  -1   2    1.81    2.21
  18   1   2   -0.06    1.30
  18   1   2    0.53    1.38
  18  -1   3    0.53    2.47
  18   1   3    1.16    2.15
  18  -1   3    1.04    1.50
  18   1   3   -0.14    1.46
  18   1   3    3.93    2.17
  18  -1   4   -1.15    2.37
  18  -1   4    0.35    2.03
  18   1   4    3.15    2.30
  18   1   4   -0.95    1.93
  18   1   4    0.97    1.95
  18  -1   5    1.37    1.10
  18  -1   5    0.27    1.11
  18   1   5   -1.34    1.30
  18   1   5    0.03    1.35
  18  -1   6   11.84    3.36
  18  -1   6    8.51    3.11
  18   1   6   13.55    3.61
  18   1   6   10.61    2.96
  18  -1   7    0.77    1.56
  18  -1   7    0.45    1.84
  18   1   7    6.33    2.74
  18   1   7    2.38    1.39
  18  -1   8    1.27    2.05
  18  -1   8   -0.01    0.97
  18   1   8   -0.59    1.05
  18   1   8    3.31    2.76
  18  -1   9    3.54    1.27
  18  -1   9    3.84    1.81
  18  -1  10   24.95    5.14
  18  -1  10   29.19    5.74
  18   1  10   16.42    4.28
  18  -1  11    3.65    2.35
  18  -1  11    1.69    2.35
  18   1  11    0.90    1.43
  18  -1  12    3.10    2.47
  18   1  12    0.46    1.40
  18  -1  13    1.65    1.63
  18   1  13    0.36    1.50
  18  -1  14   -1.97    2.03
  18   1  14   -0.13    1.42
  18  -1  15   11.30    3.71
  18   1  15    7.43    2.51
  18  -2 -14    5.51    2.86
  18  -2 -13    4.72    3.10
  18  -2 -12   -1.78    1.71
  18  -2 -11   11.60    3.69
  18  -2 -10    7.81    2.87
  18  -2 -10   17.46    4.64
  18  -2  -9    1.34    2.07
  18  -2  -9    0.84    2.10
  18  -2  -8   -0.19    1.41
  18  -2  -8    2.17    1.67
  18   2  -8    1.69    1.09
  18  -2  -7    1.28    1.91
  18  -2  -7    0.82    1.62
  18   2  -7    0.56    1.90
  18  -2  -6   10.49    3.94
  18  -2  -6   11.10    3.41
  18   2  -6   11.10    3.16
  18  -2  -5   28.40    5.18
  18  -2  -5   34.01    6.20
  18   2  -5   36.54    7.03
  18   2  -5   20.61    4.47
  18   2  -5   30.21    5.51
  18  -2  -4   18.24    4.39
  18   2  -4   16.00    4.32
  18  -2  -4   19.20    5.35
  18   2  -4   14.55    3.75
  18   2  -4   18.85    4.75
  18  -2  -3    4.13    2.32
  18   2  -3    6.12    2.47
  18  -2  -3    7.83    3.03
  18   2  -3    1.91    1.79
  18   2  -3    3.06    1.90
  18  -2  -2    3.91    1.89
  18   2  -2    1.47    2.04
  18  -2  -2    8.88    3.08
  18   2  -2    8.25    3.66
  18   2  -2    0.01    1.82
  18  -2  -1   42.31    6.31
  18   2  -1   35.18    6.22
  18   2  -1   39.39    6.60
  18  -2  -1   30.26    5.06
  18   2  -1   32.95    5.69
  18  -2   0   25.51    5.01
  18  -2   0   29.38    5.70
  18   2   0   17.52    4.19
  18   2   0   16.93    4.17
  18   2   0   16.27    3.90
  18  -2   1   40.47    6.25
  18   2   1   42.05    6.56
  18  -2   1   26.88    5.43
  18   2   1   33.38    5.92
  18   2   1   23.51    4.40
  18  -2   2    8.24    2.60
  18  -2   2    4.68    2.76
  18   2   2   16.68    3.76
  18   2   2    8.67    3.33
  18   2   2    7.80    2.95
  18  -2   3    5.16    2.43
  18  -2   3   13.72    3.75
  18   2   3    7.31    2.90
  18   2   3    2.45    2.53
  18   2   3    3.81    2.88
  18  -2   4   16.49    3.80
  18  -2   4   11.68    3.75
  18   2   4   18.66    4.55
  18   2   4   11.77    3.93
  18   2   4   21.81    4.94
  18   2   5   22.29    5.05
  18  -2   5   28.07    5.21
  18  -2   5   29.55    5.76
  18   2   5   30.51    5.99
  18   2   5   34.42    6.03
  18  -2   6   10.32    3.56
  18  -2   6   19.11    4.20
  18   2   6   11.81    2.85
  18   2   6   15.43    4.38
  18   2   6   10.52    4.04
  18  -2   7    1.79    0.99
  18  -2   7    2.79    1.87
  18   2   7   -0.75    2.12
  18   2   7    1.94    1.35
  18   2   7    5.87    2.58
  18  -2   8   -0.50    1.84
  18  -2   8   -0.18    1.92
  18   2   8   -1.01    1.40
  18   2   8    0.47    1.21
  18  -2   9   -1.07    1.71
  18  -2   9    0.85    1.06
  18   2   9    1.42    1.89
  18   2   9   -2.18    1.96
  18   2  10   17.37    4.07
  18  -2  10   11.44    2.52
  18  -2  10   15.42    4.00
  18   2  11   16.69    3.97
  18  -2  11   16.85    4.39
  18  -2  11   15.22    4.55
  18   2  12    0.50    2.79
  18  -2  12   -0.07    1.38
  18  -2  12   -1.90    1.65
  18   2  13    4.50    2.68
  18  -2  13    5.32    2.38
  18  -2  13    4.68    3.06
  18   2  14    5.29    2.70
  18  -2  14    2.49    1.78
  18  -3 -13    6.23    2.23
  18   3 -13   10.39    3.37
  18  -3 -12    4.63    2.13
  18   3 -12    7.69    3.61
  18  -3 -11    1.39    1.69
  18  -3 -11    3.24    2.63
  18   3 -11    0.81    1.44
  18  -3 -10    3.00    2.09
  18  -3 -10   -0.60    1.93
  18   3 -10    2.03    2.04
  18  -3  -9   -0.70    1.59
  18  -3  -9   -0.51    1.32
  18  -3  -8    3.91    3.25
  18  -3  -8    1.49    2.09
  18   3  -8   -1.20    1.05
  18  -3  -7    0.23    1.51
  18  -3  -7   -0.81    1.39
  18   3  -7    2.09    2.04
  18  -3  -6   15.05    4.20
  18  -3  -6   21.80    4.62
  18   3  -6   19.01    4.14
  18  -3  -5    0.67    1.56
  18  -3  -5   -1.32    1.66
  18   3  -5    3.48    2.56
  18  -3  -4    8.36    2.87
  18  -3  -4    5.71    1.60
  18   3  -4    8.97    3.70
  18   3  -4    1.92    0.88
  18  -3  -3    3.25    2.46
  18  -3  -3   -0.81    2.16
  18   3  -3   -1.31    1.75
  18   3  -3    2.19    2.47
  18  -3  -2    0.85    1.20
  18  -3  -2    1.24    1.96
  18   3  -2    0.72    2.27
  18   3  -2    3.69    2.24
  18  -3  -1    1.62    2.14
  18  -3  -1    0.01    1.35
  18   3  -1    1.10    0.77
  18   3  -1    1.31    1.12
  18  -3   0   -0.38    1.08
  18  -3   0    4.01    1.54
  18   3   0    1.21    2.40
  18   3   0    4.12    2.05
  18  -3   1   -3.25    2.55
  18  -3   1    2.23    2.97
  18   3   1    3.72    4.11
  18   3   1   -1.25    2.28
  18   3   1    1.70    2.36
  18  -3   2    0.28    1.30
  18  -3   2    0.46    1.12
  18   3   2   -0.88    2.53
  18   3   2   -0.24    1.73
  18   3   2    1.92    1.29
  18  -3   3   -0.45    1.31
  18  -3   3    0.97    1.83
  18   3   3    1.57    1.63
  18   3   3   -1.84    1.93
  18   3   3    0.36    1.99
  18   3   4    5.44    2.95
  18  -3   4    6.85    2.81
  18  -3   4    4.90    1.98
  18   3   4    4.63    2.37
  18   3   4    7.18    3.39
  18   3   5    0.43    1.54
  18  -3   5    2.86    2.34
  18  -3   5   -0.99    0.97
  18   3   5    0.30    1.58
  18   3   5    0.88    1.51
  18   3   6   19.77    4.39
  18  -3   6   15.13    4.15
  18  -3   6   24.22    4.84
  18   3   6   18.83    4.56
  18   3   6   20.59    4.78
  18   3   7    2.02    1.36
  18  -3   7    2.93    2.67
  18  -3   7    0.63    1.77
  18   3   7    0.85    1.04
  18   3   8    0.75    2.00
  18  -3   8    0.87    1.76
  18  -3   8    4.20    2.00
  18   3   8   -1.24    1.46
  18   3   9    1.84    2.59
  18  -3   9    3.43    2.66
  18  -3   9    0.26    2.55
  18   3   9    3.20    2.76
  18   3  10    1.64    1.57
  18  -3  10    2.71    1.75
  18  -3  10   -0.55    1.91
  18   3  11   -1.13    1.82
  18  -3  11    0.86    1.89
  18  -3  11    1.29    1.77
  18   3  12    5.15    3.16
  18  -3  12    7.28    3.03
  18   3  13    1.55    1.12
  18  -3  13    4.40    2.74
  18  -3  13    5.66    3.46
  18  -4 -11    4.59    2.93
  18   4 -11    6.57    2.62
  18  -4 -10   12.73    4.46
  18  -4 -10   13.00    3.77
  18   4 -10   10.96    3.79
  18  -4  -9    7.18    2.63
  18  -4  -9    4.32    1.51
  18   4  -9    8.91    2.82
  18  -4  -8    3.48    2.13
  18  -4  -8    3.78    2.90
  18   4  -8    3.92    2.65
  18  -4  -7   10.32    3.59
  18  -4  -7   23.58    4.98
  18   4  -7   18.53    4.76
  18  -4  -6   22.21    5.05
  18  -4  -6   25.61    5.15
  18   4  -6   28.25    5.46
  18  -4  -5   24.67    4.85
  18  -4  -5   35.51    6.54
  18  -4  -4   -2.35    1.18
  18   4  -4   -0.29    1.56
  18  -4  -3   -0.85    1.51
  18  -4  -3   -1.16    2.15
  18   4  -3    0.88    2.46
  18  -4  -2    0.54    1.67
  18  -4  -2    1.48    1.94
  18   4  -2    3.79    3.03
  18   4  -2    2.51    1.16
  18  -4  -1   25.08    4.99
  18  -4  -1   17.93    4.12
  18   4  -1   32.97    5.42
  18   4  -1   26.28    5.48
  18   4   0   17.68    4.28
  18  -4   0   26.38    5.21
  18  -4   0   20.89    4.82
  18   4   0   23.10    4.94
  18   4   1   28.71    5.55
  18  -4   1   22.74    4.86
  18  -4   1   15.01    4.74
  18   4   1   30.19    5.32
  18   4   2    1.63    1.65
  18  -4   2   -0.27    0.90
  18  -4   2    0.51    1.15
  18   4   2    0.79    1.52
  18   4   3   -0.27    1.27
  18  -4   3    1.04    1.00
  18  -4   3    2.70    2.12
  18   4   3    0.33    1.86
  18   4   4    0.99    1.93
  18  -4   4    3.40    2.33
  18  -4   4   -1.70    1.69
  18   4   4   -0.19    2.18
  18   4   5   30.12    5.24
  18  -4   5   31.77    5.65
  18  -4   5   33.58    6.18
  18   4   5   21.48    5.11
  18  -4   6   27.24    5.23
  18   4   6   31.91    5.67
  18  -4   6   34.84    6.57
  18   4   6   29.64    5.29
  18   4   7   12.12    3.44
  18  -4   7   20.25    4.61
  18  -4   7   16.56    4.15
  18   4   7   17.25    4.92
  18   4   8    3.95    1.39
  18  -4   8    0.19    1.17
  18  -4   8    0.12    2.11
  18   4   8   -1.15    2.16
  18   4   9    5.92    2.81
  18  -4   9    2.99    2.71
  18  -4   9    4.02    1.18
  18   4   9    4.43    2.44
  18   4  10   17.01    4.03
  18  -4  10    8.25    3.03
  18  -4  10   20.57    4.98
  18   4  10   10.37    3.57
  18   4  11   14.77    4.26
  18  -4  11   12.55    4.14
  18  -4  11   14.16    4.00
  18  -5  -7   -1.51    1.96
  18  -5  -7    1.47    2.57
  18   5  -7   -1.53    2.50
  18  -5  -6    1.00    1.38
  18  -5  -6    3.36    2.33
  18   5  -6    3.67    1.84
  18  -5  -5    0.71    1.23
  18  -5  -5   -0.25    1.39
  18   5  -5   -0.36    1.71
  18  -5  -4    5.10    3.01
  18  -5  -4    6.49    3.42
  18   5  -4    4.20    2.14
  18  -5  -3   -0.95    0.84
  18  -5  -3   -1.44    2.05
  18   5  -3   -1.02    2.50
  18  -5  -2    0.73    1.59
  18  -5  -2   -1.83    2.61
  18   5  -2    0.64    1.73
  18   5  -1    5.61    3.59
  18  -5  -1    2.51    2.89
  18  -5  -1    1.61    1.62
  18   5  -1   -0.33    1.10
  18   5   0   -1.52    1.07
  18  -5   0    0.56    2.45
  18  -5   0    0.54    1.22
  18   5   0   -0.03    1.23
  18   5   1    5.36    2.68
  18  -5   1    8.12    3.15
  18  -5   1    4.11    2.99
  18   5   1    0.42    1.36
  18   5   2   -1.33    1.54
  18   5   2    3.30    2.52
  18  -5   2   -1.75    2.61
  18  -5   2   -0.52    2.28
  18   5   3    0.96    2.24
  18   5   3   -0.44    1.10
  18  -5   3    0.15    1.42
  18  -5   3    1.44    1.79
  18   5   4    1.95    1.62
  18   5   4    6.64    3.11
  18  -5   4    4.91    2.32
  18  -5   4    2.19    1.20
  18   5   5    0.43    1.49
  18   5   5    2.50    2.52
  18  -5   5    3.78    2.35
  18  -5   5   -3.02    2.48
  18   5   6    1.30    1.82
  18   5   6    0.27    1.95
  18  -5   6    3.78    1.60
  18  -5   6    0.08    1.63
  18   5   7   -0.54    1.39
  18   5   7    2.25    1.70
  18  -5   7    1.51    1.64
  18  -5   7   -2.55    2.92
  19   0 -12    0.62    2.44
  19   0 -11    2.48    2.31
  19   0 -10   -0.69    1.64
  19   0  -9   -2.71    2.17
  19   0  -8    1.45    3.06
  19   0  -7    0.54    1.75
  19   0  -7    0.04    1.52
  19   0  -6    0.01    1.66
  19   0  -6    2.07    2.38
  19   0  -5    0.03    1.51
  19   0  -5    1.31    1.68
  19   0  -4    1.32    1.26
  19   0  -4    0.71    1.10
  19   0  -3    1.38    1.92
  19   0  -3    1.58    2.46
  19   0  -2   -0.05    1.31
  19   0  -2   -0.75    1.46
  19   0  -1    0.37    1.77
  19   0  -1   -0.53    1.29
  19   0   0    1.01    1.69
  19   0   0    1.25    1.32
  19   0   1    1.24    1.46
  19   0   1   -0.93    1.30
  19   0   2    1.41    2.06
  19   0   2   -1.28    1.35
  19   0   3    1.00    1.26
  19   0   3    0.58    1.27
  19   0   4    0.08    1.07
  19   0   4   -0.56    1.01
  19   0   5    1.45    2.25
  19   0   5   -1.60    1.23
  19   0   6    1.65    1.50
  19   0   6   -0.18    1.38
  19   0   7   -1.13    1.82
  19   0   7   -1.41    2.10
  19   0   8   -1.18    1.12
  19   0   8    2.91    2.75
  19   0   9   -0.07    1.04
  19   0   9    0.81    2.02
  19   0  10    0.50    1.03
  19   0  10    1.04    3.05
  19   0  11    0.29    1.30
  19   0  11   -1.85    1.41
  19   0  12    0.04    1.86
  19  -1 -12    1.82    1.60
  19  -1 -11   17.58    4.85
  19  -1 -10   18.49    4.54
  19  -1  -9    5.84    2.23
  19  -1  -8    3.23    1.84
  19   1  -8    2.47    1.56
  19  -1  -7   12.69    3.73
  19  -1  -7   11.38    3.07
  19   1  -7   12.58    3.46
  19  -1  -6   10.40    3.51
  19  -1  -6   12.96    4.13
  19   1  -6   14.95    4.89
  19  -1  -5   11.42    3.33
  19   1  -5   13.58    4.26
  19  -1  -5   24.62    5.42
  19   1  -5   21.55    5.28
  19  -1  -4   11.46    2.95
  19   1  -4   12.46    3.29
  19  -1  -4    5.05    1.91
  19   1  -4    7.19    2.65
  19  -1  -3    2.71    1.66
  19   1  -3    7.33    2.91
  19  -1  -3    5.22    2.61
  19   1  -3    3.87    1.26
  19  -1  -2   41.03    6.47
  19   1  -2   25.06    5.40
  19  -1  -2   33.17    5.83
  19   1  -2   24.80    5.59
  19  -1  -1   26.62    5.13
  19   1  -1   14.94    3.67
  19  -1  -1   26.89    5.48
  19   1  -1   23.54    4.73
  19  -1   0    0.78    1.21
  19   1   0    3.30    1.93
  19  -1   0    0.32    1.17
  19   1   0    2.75    2.72
  19  -1   1   16.80    4.44
  19   1   1   23.43    5.07
  19  -1   1   20.04    4.61
  19   1   1   25.82    5.69
  19  -1   2   32.51    5.99
  19   1   2   33.35    5.93
  19  -1   2   23.18    4.93
  19   1   2   29.18    5.78
  19  -1   3    3.97    1.88
  19   1   3    4.63    2.17
  19  -1   3    7.07    2.66
  19   1   3    0.53    1.46
  19  -1   4   14.58    3.95
  19   1   4    7.99    2.07
  19  -1   4   11.98    4.25
  19   1   4   13.58    3.89
  19  -1   5   18.21    4.25
  19   1   5   12.56    3.80
  19  -1   5   16.87    4.77
  19   1   5   26.08    5.32
  19  -1   6   17.62    4.16
  19   1   6   13.10    3.61
  19  -1   6   12.83    3.44
  19   1   6   14.31    4.27
  19  -1   7   12.04    3.65
  19  -1   7    6.44    3.40
  19   1   7   10.38    3.62
  19   1   7   17.67    5.01
  19  -1   8    8.40    2.73
  19  -1   8    9.28    3.12
  19   1   8    4.53    2.27
  19   1   8    6.41    3.17
  19  -1   9    7.76    3.53
  19  -1   9    5.83    3.79
  19   1   9    6.26    3.29
  19   1   9    4.65    2.40
  19  -1  10   14.09    3.68
  19  -1  10   17.70    4.72
  19   1  10   26.81    5.51
  19  -1  11   20.58    4.71
  19  -1  11   17.71    4.66
  19   1  11   24.75    4.86
  19  -1  12    0.68    2.01
  19  -1  12    0.22    1.21
  19   1  12    3.32    2.39
  19  -2 -11    2.98    2.41
  19  -2 -10    1.57    1.59
  19  -2  -9    1.12    1.39
  19  -2  -9    1.03    0.93
  19  -2  -8    0.66    1.29
  19  -2  -8    0.71    1.80
  19  -2  -7    3.60    1.35
  19  -2  -7    4.88    3.48
  19  -2  -6    2.76    2.19
  19  -2  -6    5.10    3.53
  19   2  -6    8.20    2.37
  19  -2  -5    5.93    2.77
  19   2  -5    6.45    2.47
  19  -2  -4    3.84    2.49
  19   2  -4    3.64    2.13
  19  -2  -4    3.07    2.62
  19   2  -4    9.15    3.50
  19  -2  -3    2.27    1.60
  19   2  -3    1.95    1.47
  19  -2  -3    0.05    2.06
  19   2  -3    1.37    1.87
  19   2  -3    4.50    2.31
  19  -2  -2    2.88    0.98
  19   2  -2    2.52    2.01
  19  -2  -2    2.70    1.12
  19   2  -2    4.12    3.03
  19   2  -2    0.95    1.95
  19  -2  -1    4.40    1.34
  19   2  -1    6.60    3.40
  19  -2  -1    3.34    1.33
  19   2  -1    9.29    3.78
  19   2  -1    3.68    1.37
  19  -2   0    3.18    2.20
  19  -2   0    2.05    1.73
  19   2   0    2.85    2.52
  19   2   0    4.53    2.49
  19   2   0    5.01    2.15
  19  -2   1    3.67    2.03
  19  -2   1    0.76    1.17
  19   2   1    7.13    2.86
  19   2   1    3.93    2.32
  19   2   1    6.05    2.70
  19  -2   2    2.90    2.16
  19  -2   2    0.77    1.21
  19   2   2    2.51    1.55
  19   2   2    4.70    1.68
  19   2   2    1.28    2.91
  19  -2   3    1.87    2.32
  19  -2   3    2.02    1.62
  19   2   3    2.67    2.44
  19   2   3    2.69    1.13
  19   2   3    2.11    1.88
  19  -2   4    1.13    0.97
  19  -2   4    2.78    1.79
  19   2   4    4.17    1.84
  19   2   4    2.99    2.65
  19   2   4    1.21    2.27
  19  -2   5   11.68    3.77
  19  -2   5   14.36    4.65
  19   2   5    5.51    2.79
  19   2   5    5.75    2.11
  19   2   5    7.91    3.09
  19  -2   6    9.61    3.37
  19  -2   6    5.70    2.27
  19   2   6   13.86    4.00
  19   2   6    8.77    3.32
  19   2   6    9.14    3.71
  19  -2   7    2.95    2.25
  19  -2   7    0.95    2.35
  19   2   7    1.76    1.22
  19   2   7    4.61    1.98
  19   2   7    7.71    3.26
  19  -2   8    0.09    2.04
  19  -2   8    0.75    1.47
  19   2   8    3.45    2.56
  19   2   8    3.30    2.94
  19   2   8    2.28    1.76
  19  -2   9    2.43    3.04
  19  -2   9    0.65    0.95
  19   2   9    1.43    1.46
  19   2   9    0.75    1.16
  19  -2  10   -0.99    2.03
  19  -2  10    1.49    1.55
  19   2  10    2.83    1.46
  19  -2  11    3.37    2.94
  19  -2  11    4.51    2.52
  19   2  11    4.96    2.94
  19  -3  -9    3.35    1.22
  19  -3  -9    4.61    3.23
  19   3  -9    7.74    2.80
  19  -3  -8   18.77    4.43
  19  -3  -8   17.70    4.45
  19   3  -8   13.23    3.52
  19  -3  -7    3.47    2.06
  19  -3  -7    0.56    1.91
  19   3  -7    5.51    3.16
  19  -3  -6    1.57    1.09
  19  -3  -6    6.22    2.55
  19   3  -6    4.05    3.02
  19  -3  -5   -0.15    1.73
  19  -3  -5    3.20    1.99
  19   3  -5    5.74    2.59
  19  -3  -4   -2.42    1.37
  19  -3  -4   -0.12    1.74
  19   3  -4    0.04    1.92
  19  -3  -3    1.65    2.60
  19  -3  -3    4.57    2.64
  19   3  -3    3.70    2.66
  19   3  -3    2.06    1.59
  19  -3  -2    4.49    2.77
  19  -3  -2    4.21    2.26
  19   3  -2    6.02    2.84
  19   3  -2    9.47    3.76
  19  -3  -1    1.42    1.33
  19  -3  -1    5.16    2.70
  19   3  -1    2.43    2.04
  19   3  -1    3.23    2.19
  19  -3   0    1.51    1.89
  19  -3   0   -0.49    1.47
  19   3   0    0.24    1.14
  19   3   0    3.82    2.93
  19  -3   1    5.52    2.86
  19  -3   1    8.62    3.07
  19   3   1    5.13    2.85
  19   3   1    2.70    3.12
  19  -3   2   10.56    3.08
  19  -3   2    8.89    3.33
  19   3   2    7.78    2.78
  19   3   2    6.26    2.97
  19  -3   3    6.03    2.55
  19  -3   3    2.90    2.78
  19   3   3    3.64    3.14
  19   3   3    5.57    2.44
  19   3   3   -0.28    2.11
  19  -3   4    3.80    2.18
  19  -3   4    2.06    1.32
  19   3   4    0.97    1.98
  19   3   4    3.28    2.33
  19   3   4    4.01    2.29
  19  -3   5    3.02    1.73
  19  -3   5    8.64    2.53
  19   3   5    3.79    1.52
  19   3   5    3.75    3.69
  19   3   5    5.86    2.93
  19  -3   6    5.98    2.46
  19  -3   6    8.21    3.61
  19   3   6    4.49    2.75
  19   3   6    3.33    2.24
  19   3   6    2.62    2.28
  19   3   7    2.89    2.40
  19  -3   7    0.36    1.15
  19  -3   7    4.84    3.55
  19   3   7    8.53    3.14
  19   3   7    2.60    1.66
  19   3   8    5.80    2.67
  19   3   8    5.23    2.39
  19   3   8    8.98    2.82
  19   3   9    3.18    1.96
  19  -3   9    5.00    2.31
  19  -3   9    5.15    3.32
  19   3   9    3.75    3.14
  19  -4  -6    1.13    1.81
  19  -4  -6    2.59    2.14
  19   4  -6   -0.84    1.31
  19  -4  -5   -2.33    2.29
  19  -4  -5   -2.72    2.21
  19   4  -5    0.51    1.74
  19  -4  -4    0.02    1.18
  19  -4  -4    4.78    3.02
  19   4  -4    6.30    2.29
  19  -4  -3    2.17    1.77
  19  -4  -3    0.97    1.12
  19   4  -3    2.20    1.74
  19  -4  -2    0.40    1.44
  19   4  -2    2.32    1.36
  19  -4  -1    2.85    2.17
  19  -4  -1   -2.53    2.48
  19   4  -1   -1.81    2.69
  19   4  -1   -1.02    1.27
  19  -4   0    8.42    2.70
  19  -4   0    0.35    2.37
  19   4   0    8.51    3.43
  19   4   0    3.71    2.26
  19  -4   1   -0.72    1.24
  19  -4   1   -1.97    1.70
  19   4   1    1.31    1.06
  19   4   1    1.62    1.24
  19  -4   2    4.99    2.97
  19  -4   2    5.40    2.77
  19   4   2    1.60    2.09
  19   4   2    2.58    1.49
  19   4   3    0.55    1.08
  19  -4   3    5.52    2.25
  19  -4   3    1.96    1.59
  19   4   3    2.24    1.24
  19   4   4   -1.27    2.05
  19  -4   4    0.96    1.98
  19  -4   4    1.09    1.23
  19   4   4    0.14    2.17
  19   4   5    0.56    1.91
  19  -4   5    0.01    1.44
  19  -4   5   -1.26    1.42
  19   4   5    1.54    1.69
  19   4   6    2.83    1.92
  19  -4   6   -0.32    0.95
  19  -4   6    0.38    1.29
  19   4   6    4.56    3.00
  20   0  -8   64.52    8.57
  20   0  -7    1.20    2.23
  20   0  -6    0.46    1.97
  20   0  -6    0.18    1.21
  20   0  -5   27.52    5.46
  20   0  -5   22.02    4.67
  20   0  -4   91.78   10.15
  20   0  -4   89.79   10.35
  20   0  -3    0.65    2.91
  20   0  -3    0.69    1.96
  20   0  -2   94.51   10.02
  20   0  -2   94.16   10.69
  20   0  -1    4.35    2.60
  20   0  -1    4.27    2.69
  20   0   0    1.22    2.05
  20   0   0    1.83    1.55
  20   0   1    6.30    3.18
  20   0   1    4.98    3.02
  20   0   2  125.92   11.50
  20   0   2   98.85   10.41
  20   0   3   -0.22    1.67
  20   0   3    0.89    1.30
  20   0   4   93.04   10.10
  20   0   4   90.76   10.08
  20   0   5   27.70    5.47
  20   0   5   20.40    5.28
  20   0   6   -0.60    1.93
  20   0   6    0.74    1.49
  20   0   7   -2.63    2.43
  20   0   7    2.46    3.02
  20   0   8   60.57    8.09
  20   0   8   74.71    9.11
  20  -1  -7   -1.31    2.56
  20  -1  -7    1.16    1.33
  20  -1  -6   -0.38    2.00
  20  -1  -6   -1.76    1.91
  20   1  -6    1.66    3.26
  20  -1  -5    2.10    2.07
  20   1  -5    4.82    2.95
  20  -1  -5    1.31    1.33
  20   1  -5    3.10    2.36
  20  -1  -4   -0.86    2.09
  20   1  -4    1.80    2.68
  20  -1  -4   -1.59    1.73
  20   1  -4    0.14    1.41
  20  -1  -3    1.32    1.03
  20   1  -3    5.51    2.30
  20  -1  -3    5.43    2.53
  20  -1  -2    2.43    1.17
  20   1  -2    4.94    3.48
  20  -1  -2    2.12    1.30
  20   1  -2   -1.51    2.06
  20  -1  -1    2.27    2.62
  20   1  -1    1.74    1.27
  20  -1  -1    1.63    1.27
  20   1  -1    3.27    2.57
  20  -1   0   -0.34    1.06
  20   1   0    1.28    1.31
  20  -1   0    1.47    2.34
  20   1   0   -0.33    2.78
  20  -1   1    1.32    1.04
  20   1   1    1.76    2.13
  20  -1   1    0.07    2.46
  20   1   1    1.69    1.40
  20  -1   2    3.42    2.08
  20   1   2    1.57    1.89
  20  -1   2    2.30    2.67
  20   1   2    1.18    2.73
  20  -1   3   13.33    4.01
  20   1   3    9.09    3.76
  20  -1   3    8.94    3.06
  20   1   3    6.38    3.08
  20  -1   4   -0.65    2.01
  20   1   4   -0.17    1.41
  20  -1   4   -1.30    1.91
  20   1   4   -0.73    2.72
  20  -1   5    4.51    2.16
  20   1   5    0.21    1.61
  20  -1   5    6.02    3.18
  20   1   5    2.98    3.47
  20  -1   6    2.25    1.63
  20   1   6    0.15    1.59
  20  -1   6    0.36    1.85
  20   1   6    1.71    2.65
  20  -1   7    1.35    1.76
  20   1   7    1.66    1.86
  20  -1   7   -0.83    2.34
  20   1   7    1.27    2.44
  20  -2  -6    2.83    1.17
  20  -2  -6    4.51    2.57
  20  -2  -5    2.65    2.42
  20  -2  -5   -1.79    2.52
  20  -2  -4    7.28    2.54
  20  -2  -4    4.20    2.52
  20  -2  -3    0.77    1.63
  20   2  -3    3.54    3.00
  20  -2  -3    0.98    1.90
  20  -2  -2   38.00    6.45
  20   2  -2   39.56    6.71
  20  -2  -2   42.32    6.82
  20   2  -2   48.69    6.93
  20  -2  -1   -0.17    2.04
  20   2  -1    0.66    1.15
  20  -2  -1    2.56    2.34
  20   2  -1    4.15    2.38
  20   2  -1    1.28    2.38
  20  -2   0    1.76    1.27
  20   2   0   -0.84    3.01
  20  -2   0    0.85    1.79
  20   2   0   -1.32    2.85
  20   2   0    4.47    3.22
  20  -2   1    4.41    3.31
  20   2   1    2.32    1.57
  20  -2   1    0.75    1.08
  20   2   1    0.48    1.76
  20   2   1    1.57    1.89
  20  -2   2   44.91    6.90
  20  -2   2   36.46    6.70
  20   2   2   28.15    5.47
  20   2   2   41.51    6.56
  20   2   2   37.38    6.08
  20  -2   3   -0.09    1.02
  20  -2   3   -1.14    2.57
  20   2   3    1.72    1.50
  20   2   3   -1.89    1.70
  20   2   3    1.42    1.56
  20  -2   4    4.16    2.34
  20  -2   4    6.86    3.38
  20   2   4    6.84    3.55
  20   2   4    4.72    2.63
  20   2   4    8.80    2.67
  20  -2   5    0.70    1.94
  20  -2   5    0.04    1.64
  20   2   5    1.13    1.82
  20   2   5    0.62    2.22
  20   2   5    0.39    1.83
  20  -2   6    5.77    2.81
  20  -2   6    3.09    1.68
  20   2   6    3.82    1.84
  20   2   6    5.09    2.47
  20   2   6    5.08    2.89
  20  -3  -1   -1.40    1.90
  20  -3  -1    2.59    2.23
  20   3  -1    0.45    1.12
  20   3  -1    2.53    2.55
  20  -3   0   -0.13    1.34
  20  -3   0    0.32    2.47
  20   3   0    0.42    1.85
  20   3   0    0.11    1.99
  20  -3   1    0.52    1.09
  20   3   1   -1.38    1.34
  20   3   1   -1.00    1.82
   0   0   0    0.00    0.00
TITL 005_270K_SulfamerazineF1_ in Pna2(1)
REM Pna2(1) (#33, found as Pbn2(1) in ba-c setting)
CELL 0.68890  14.495037   8.209368  21.948926  90.0000  90.0000  90.0000
ZERR    8.00   0.000141   0.000088   0.000321   0.0000   0.0000   0.0000
LATT -1
SYMM -x,-y, z+1/2
SYMM  x+1/2,-y+1/2, z
SYMM -x+1/2, y+1/2, z+1/2
SFAC C H N O S
UNIT 88.00 96.00 32.00 16.00 8.00
TREF
HKLF 4
END
_computing_structure_solution     'SHELXT 2014/5 (Sheldrick, 2014)'
;
_shelx_hkl_checksum              85565
loop_
_space_group_symop_operation_xyz
'x, y, z'
'-x, -y, z+1/2'
'x+1/2, -y+1/2, z'
'-x+1/2, y+1/2, z+1/2'
loop_
_atom_site_label
_atom_site_type_symbol
_atom_site_fract_x
_atom_site_fract_y
_atom_site_fract_z
_atom_site_U_iso_or_equiv
_atom_site_adp_type
_atom_site_occupancy
_atom_site_site_symmetry_order
_atom_site_calc_flag
_atom_site_refinement_flags_posn
_atom_site_refinement_flags_adp
_atom_site_refinement_flags_occupancy
_atom_site_disorder_assembly
_atom_site_disorder_group
S1 S 0.64672(6) 0.49583(10) 0.34444(5) 0.0372(2) Uani 1 1 d . . . . .
S2 S 0.57765(6) 0.49498(10) 0.65239(5) 0.0366(2) Uani 1 1 d . . . . .
O1 O 0.69010(19) 0.3718(3) 0.30901(13) 0.0481(7) Uani 1 1 d . . . . .
O2 O 0.54985(18) 0.5226(3) 0.33762(15) 0.0477(6) Uani 1 1 d . . . . .
O3 O 0.67522(17) 0.4672(3) 0.65856(14) 0.0464(6) Uani 1 1 d . . . . .
O4 O 0.53552(19) 0.6220(3) 0.68685(13) 0.0480(7) Uani 1 1 d . . . . .
N1 N 0.8431(3) 1.1156(4) 0.3124(2) 0.0555(10) Uani 1 1 d . . . . .
N2 N 0.6560(2) 0.4492(4) 0.41707(17) 0.0423(7) Uani 1 1 d . . . . .
N3 N 0.8151(2) 0.4096(4) 0.41788(16) 0.0421(7) Uani 1 1 d . . . . .
N4 N 0.7282(2) 0.4286(5) 0.50945(17) 0.0593(10) Uani 1 1 d . . . . .
N5 N 0.3805(3) -0.1200(4) 0.6960(2) 0.0713(13) Uani 1 1 d . . . . .
H5A H 0.4076 -0.2116 0.6895 0.093 Uiso 1 1 calc R U . . .
H5B H 0.3243 -0.1182 0.7085 0.093 Uiso 1 1 calc R U . . .
N6 N 0.5682(2) 0.5359(5) 0.57917(17) 0.0455(8) Uani 1 1 d . . . . .
N7 N 0.4101(2) 0.5850(4) 0.57973(16) 0.0453(8) Uani 1 1 d . . . . .
N8 N 0.4965(2) 0.5664(5) 0.48765(18) 0.0589(10) Uani 1 1 d . . . . .
C1 C 0.7057(2) 0.6779(4) 0.33432(19) 0.0336(7) Uani 1 1 d . . . . .
C2 C 0.7952(2) 0.6793(4) 0.31071(17) 0.0365(7) Uani 1 1 d . . . . .
H2 H 0.8239 0.5822 0.2999 0.047 Uiso 1 1 calc R U . . .
C3 C 0.8407(2) 0.8254(4) 0.30358(19) 0.0361(8) Uani 1 1 d . . . . .
H3 H 0.9006 0.8262 0.2884 0.047 Uiso 1 1 calc R U . . .
C4 C 0.7979(3) 0.9724(4) 0.31882(18) 0.0400(8) Uani 1 1 d . . . . .
C5 C 0.7072(3) 0.9691(4) 0.3425(2) 0.0427(8) Uani 1 1 d . . . . .
H5 H 0.6780 1.0659 0.3531 0.056 Uiso 1 1 calc R U . . .
C6 C 0.6621(2) 0.8227(4) 0.3500(2) 0.0407(8) Uani 1 1 d . . . . .
H6 H 0.6025 0.8208 0.3656 0.053 Uiso 1 1 calc R U . . .
C7 C 0.7379(2) 0.4292(5) 0.44926(18) 0.0399(8) Uani 1 1 d . . . . .
C8 C 0.8064(3) 0.4027(9) 0.5405(3) 0.0796(17) Uani 1 1 d . . . . .
H8 H 0.8038 0.3983 0.5829 0.104 Uiso 1 1 calc R U . . .
C9 C 0.8896(3) 0.3826(7) 0.5125(3) 0.0736(15) Uani 1 1 d . . . . .
H9 H 0.9429 0.3654 0.5352 0.096 Uiso 1 1 calc R U . . .
C10 C 0.8926(3) 0.3883(5) 0.4503(2) 0.0524(10) Uani 1 1 d . . . . .
C11 C 0.9797(3) 0.3711(7) 0.4148(3) 0.0714(14) Uani 1 1 d . . . . .
H11A H 0.9792 0.2693 0.3933 0.093 Uiso 1 1 calc R U . . .
H11B H 1.0314 0.3737 0.4421 0.093 Uiso 1 1 calc R U . . .
H11C H 0.9846 0.4591 0.3862 0.093 Uiso 1 1 calc R U . . .
C12 C 0.5192(2) 0.3150(4) 0.66583(17) 0.0357(7) Uani 1 1 d . . . . .
C13 C 0.5632(3) 0.1681(4) 0.6557(2) 0.0486(10) Uani 1 1 d . . . . .
H13 H 0.6239 0.1672 0.6418 0.063 Uiso 1 1 calc R U . . .
C14 C 0.5181(3) 0.0234(4) 0.6659(2) 0.0535(12) Uani 1 1 d . . . . .
H14 H 0.5486 -0.0748 0.6592 0.070 Uiso 1 1 calc R U . . .
C15 C 0.4268(3) 0.0230(4) 0.6863(2) 0.0454(9) Uani 1 1 d . . . . .
C16 C 0.3829(3) 0.1724(4) 0.69647(19) 0.0421(8) Uani 1 1 d . . . . .
H16 H 0.3222 0.1741 0.7102 0.055 Uiso 1 1 calc R U . . .
C17 C 0.4285(2) 0.3166(4) 0.68643(19) 0.0375(8) Uani 1 1 d . . . . .
H17 H 0.3988 0.4152 0.6934 0.049 Uiso 1 1 calc R U . . .
C18 C 0.4871(2) 0.5643(5) 0.54833(18) 0.0399(8) Uani 1 1 d . . . . .
C19 C 0.4188(4) 0.5992(9) 0.4572(2) 0.0803(18) Uani 1 1 d . . . . .
H19 H 0.4212 0.6039 0.4149 0.104 Uiso 1 1 calc R U . . .
C20 C 0.3365(3) 0.6260(8) 0.4849(3) 0.0796(17) Uani 1 1 d . . . . .
H20 H 0.2840 0.6509 0.4624 0.104 Uiso 1 1 calc R U . . .
C21 C 0.3331(3) 0.6150(6) 0.5474(2) 0.0535(10) Uani 1 1 d . . . . .
C22 C 0.2460(3) 0.6341(8) 0.5833(3) 0.0771(15) Uani 1 1 d . . . . .
H22A H 0.2343 0.7477 0.5903 0.100 Uiso 1 1 calc R U . . .
H22B H 0.2522 0.5792 0.6217 0.100 Uiso 1 1 calc R U . . .
H22C H 0.1955 0.5876 0.5610 0.100 Uiso 1 1 calc R U . . .
H1N1 H 0.891(4) 1.121(6) 0.290(3) 0.073(16) Uiso 1 1 d . . . . .
H2N1 H 0.810(3) 1.199(6) 0.315(2) 0.065(14) Uiso 1 1 d . . . . .
H1N2 H 0.615(3) 0.485(5) 0.439(2) 0.044(13) Uiso 1 1 d . . . . .
H1N6 H 0.616(4) 0.504(6) 0.561(3) 0.073(17) Uiso 1 1 d . . . . .
loop_
_atom_site_aniso_label
_atom_site_aniso_U_11
_atom_site_aniso_U_22
_atom_site_aniso_U_33
_atom_site_aniso_U_23
_atom_site_aniso_U_13
_atom_site_aniso_U_12
S1 0.0344(4) 0.0394(4) 0.0378(5) 0.0029(4) -0.0015(4) -0.0024(3)
S2 0.0341(4) 0.0400(4) 0.0359(5) 0.0042(4) -0.0015(4) -0.0023(3)
O1 0.0557(16) 0.0408(13) 0.0477(17) -0.0041(12) 0.0010(13) -0.0015(12)
O2 0.0370(13) 0.0596(15) 0.0465(17) 0.0078(14) -0.0066(14) -0.0056(11)
O3 0.0338(12) 0.0615(16) 0.0439(17) 0.0087(14) -0.0062(13) -0.0030(11)
O4 0.0541(16) 0.0393(13) 0.0507(17) -0.0054(12) -0.0022(14) -0.0012(11)
N1 0.049(2) 0.0423(18) 0.075(3) -0.0095(18) 0.020(2) -0.0061(15)
N2 0.0291(14) 0.0557(18) 0.042(2) 0.0126(16) 0.0006(14) 0.0008(13)
N3 0.0335(14) 0.0470(16) 0.046(2) 0.0036(14) 0.0026(14) 0.0022(12)
N4 0.0410(18) 0.095(3) 0.042(2) 0.008(2) -0.0021(16) 0.0169(18)
N5 0.062(2) 0.0404(17) 0.112(4) -0.004(2) 0.020(2) -0.0094(16)
N6 0.0329(15) 0.066(2) 0.038(2) 0.0123(16) 0.0022(14) 0.0037(14)
N7 0.0373(16) 0.0515(18) 0.047(2) 0.0059(15) 0.0020(14) 0.0038(13)
N8 0.0433(18) 0.088(3) 0.045(2) 0.008(2) -0.0012(17) 0.0140(18)
C1 0.0319(16) 0.0362(15) 0.0327(19) 0.0010(14) 0.0016(14) 0.0004(12)
C2 0.0342(16) 0.0418(17) 0.0336(19) -0.0007(14) 0.0004(15) 0.0036(13)
C3 0.0305(16) 0.0449(19) 0.033(2) -0.0022(15) 0.0037(15) -0.0020(13)
C4 0.0405(19) 0.0411(17) 0.039(2) -0.0035(14) 0.0004(16) -0.0010(13)
C5 0.0420(19) 0.0392(17) 0.047(2) -0.0020(18) 0.006(2) 0.0018(13)
C6 0.0355(16) 0.0413(17) 0.045(2) -0.0018(17) 0.0076(16) 0.0010(13)
C7 0.0342(17) 0.0457(19) 0.040(2) 0.0069(16) -0.0013(16) 0.0024(14)
C8 0.056(3) 0.134(5) 0.049(3) 0.010(3) -0.004(2) 0.026(3)
C9 0.042(2) 0.120(4) 0.059(3) 0.000(3) -0.014(2) 0.022(2)
C10 0.039(2) 0.057(2) 0.061(3) 0.000(2) 0.000(2) 0.0090(17)
C11 0.043(2) 0.089(4) 0.083(4) -0.007(3) 0.007(2) 0.010(2)
C12 0.0353(16) 0.0362(15) 0.0358(19) 0.0004(13) 0.0006(15) 0.0009(12)
C13 0.0365(19) 0.0429(19) 0.066(3) 0.000(2) 0.009(2) 0.0053(14)
C14 0.046(2) 0.0364(18) 0.078(4) -0.0035(19) 0.009(2) 0.0059(14)
C15 0.047(2) 0.0410(18) 0.048(2) -0.0023(16) 0.0052(18) -0.0042(15)
C16 0.0377(18) 0.0464(19) 0.042(2) -0.0064(16) 0.0056(16) -0.0035(14)
C17 0.0384(18) 0.0365(16) 0.038(2) -0.0016(15) 0.0048(16) 0.0022(13)
C18 0.0351(17) 0.0468(18) 0.038(2) 0.0064(16) -0.0006(16) 0.0009(14)
C19 0.058(3) 0.141(6) 0.043(3) 0.003(3) -0.009(2) 0.030(3)
C20 0.049(2) 0.131(5) 0.059(3) -0.003(3) -0.013(3) 0.032(3)
C21 0.040(2) 0.061(2) 0.059(3) -0.003(2) -0.0019(19) 0.0114(18)
C22 0.037(2) 0.102(4) 0.093(4) -0.002(3) 0.006(2) 0.015(2)
loop_
_atom_type_symbol
_atom_type_description
_atom_type_scat_dispersion_real
_atom_type_scat_dispersion_imag
_atom_type_scat_source
C C 0.0033 0.0016 'International Tables Vol C Tables 4.2.6.8 and 6.1.1.4'
H H 0.0000 0.0000 'International Tables Vol C Tables 4.2.6.8 and 6.1.1.4'
N N 0.0061 0.0033 'International Tables Vol C Tables 4.2.6.8 and 6.1.1.4'
O O 0.0106 0.0060 'International Tables Vol C Tables 4.2.6.8 and 6.1.1.4'
S S 0.1246 0.1234 'International Tables Vol C Tables 4.2.6.8 and 6.1.1.4'
loop_
_geom_angle_atom_site_label_1
_geom_angle_atom_site_label_2
_geom_angle_atom_site_label_3
_geom_angle
_geom_angle_site_symmetry_1
_geom_angle_site_symmetry_3
O1 S1 O2 119.05(18) . .
O1 S1 N2 109.03(19) . .
O2 S1 N2 102.57(18) . .
O1 S1 C1 109.12(18) . .
O2 S1 C1 109.74(16) . .
N2 S1 C1 106.52(19) . .
O4 S2 O3 119.14(18) . .
O4 S2 N6 109.43(18) . .
O3 S2 N6 101.88(18) . .
O4 S2 C12 108.94(18) . .
O3 S2 C12 109.29(16) . .
N6 S2 C12 107.46(19) . .
C4 N1 H1N1 120(4) . .
C4 N1 H2N1 116(3) . .
H1N1 N1 H2N1 117(5) . .
C7 N2 S1 126.1(3) . .
C7 N2 H1N2 112(3) . .
S1 N2 H1N2 115(3) . .
C7 N3 C10 116.6(3) . .
C7 N4 C8 114.7(4) . .
C15 N5 H5A 120.0 . .
C15 N5 H5B 120.0 . .
H5A N5 H5B 120.0 . .
C18 N6 S2 125.8(3) . .
C18 N6 H1N6 122(4) . .
S2 N6 H1N6 109(4) . .
C18 N7 C21 116.7(4) . .
C19 N8 C18 114.4(4) . .
C6 C1 C2 120.4(3) . .
C6 C1 S1 118.8(3) . .
C2 C1 S1 120.8(3) . .
C3 C2 C1 119.6(3) . .
C3 C2 H2 120.2 . .
C1 C2 H2 120.2 . .
C2 C3 C4 120.8(3) . .
C2 C3 H3 119.6 . .
C4 C3 H3 119.6 . .
N1 C4 C3 120.7(4) . .
N1 C4 C5 120.3(3) . .
C3 C4 C5 119.0(3) . .
C6 C5 C4 120.1(3) . .
C6 C5 H5 120.0 . .
C4 C5 H5 120.0 . .
C5 C6 C1 120.1(3) . .
C5 C6 H6 119.9 . .
C1 C6 H6 119.9 . .
N4 C7 N3 127.3(4) . .
N4 C7 N2 114.5(3) . .
N3 C7 N2 118.1(3) . .
N4 C8 C9 122.5(5) . .
N4 C8 H8 118.7 . .
C9 C8 H8 118.7 . .
C10 C9 C8 118.4(4) . .
C10 C9 H9 120.8 . .
C8 C9 H9 120.8 . .
N3 C10 C9 120.5(4) . .
N3 C10 C11 116.4(4) . .
C9 C10 C11 123.1(4) . .
C10 C11 H11A 109.5 . .
C10 C11 H11B 109.5 . .
H11A C11 H11B 109.5 . .
C10 C11 H11C 109.5 . .
H11A C11 H11C 109.5 . .
H11B C11 H11C 109.5 . .
C13 C12 C17 119.8(3) . .
C13 C12 S2 119.5(3) . .
C17 C12 S2 120.7(3) . .
C12 C13 C14 120.5(3) . .
C12 C13 H13 119.7 . .
C14 C13 H13 119.7 . .
C13 C14 C15 120.3(3) . .
C13 C14 H14 119.9 . .
C15 C14 H14 119.9 . .
N5 C15 C14 121.1(4) . .
N5 C15 C16 120.2(4) . .
C14 C15 C16 118.7(3) . .
C17 C16 C15 120.7(3) . .
C17 C16 H16 119.7 . .
C15 C16 H16 119.7 . .
C16 C17 C12 120.0(3) . .
C16 C17 H17 120.0 . .
C12 C17 H17 120.0 . .
N7 C18 N8 127.1(4) . .
N7 C18 N6 119.1(3) . .
N8 C18 N6 113.8(3) . .
N8 C19 C20 123.3(5) . .
N8 C19 H19 118.4 . .
C20 C19 H19 118.4 . .
C19 C20 C21 117.9(5) . .
C19 C20 H20 121.0 . .
C21 C20 H20 121.0 . .
N7 C21 C20 120.5(4) . .
N7 C21 C22 116.2(4) . .
C20 C21 C22 123.3(5) . .
C21 C22 H22A 109.5 . .
C21 C22 H22B 109.5 . .
H22A C22 H22B 109.5 . .
C21 C22 H22C 109.5 . .
H22A C22 H22C 109.5 . .
H22B C22 H22C 109.5 . .
loop_
_geom_bond_atom_site_label_1
_geom_bond_atom_site_label_2
_geom_bond_distance
_geom_bond_site_symmetry_2
S1 O1 1.427(3) .
S1 O2 1.429(3) .
S1 N2 1.645(4) .
S1 C1 1.736(3) .
S2 O4 1.425(3) .
S2 O3 1.439(3) .
S2 N6 1.648(4) .
S2 C12 1.728(3) .
N1 C4 1.354(5) .
N1 H1N1 0.85(6) .
N1 H2N1 0.84(5) .
N2 C7 1.392(5) .
N2 H1N2 0.81(5) .
N3 C7 1.324(4) .
N3 C10 1.341(5) .
N4 C7 1.329(5) .
N4 C8 1.340(6) .
N5 C15 1.369(5) .
N5 H5A 0.8600 .
N5 H5B 0.8600 .
N6 C18 1.376(5) .
N6 H1N6 0.83(6) .
N7 C18 1.322(5) .
N7 C21 1.346(5) .
N8 C19 1.338(6) .
N8 C18 1.339(5) .
C1 C6 1.390(5) .
C1 C2 1.398(5) .
C2 C3 1.377(5) .
C2 H2 0.9300 .
C3 C4 1.397(5) .
C3 H3 0.9300 .
C4 C5 1.414(5) .
C5 C6 1.378(5) .
C5 H5 0.9300 .
C6 H6 0.9300 .
C8 C9 1.363(7) .
C8 H8 0.9300 .
C9 C10 1.368(7) .
C9 H9 0.9300 .
C10 C11 1.490(6) .
C11 H11A 0.9600 .
C11 H11B 0.9600 .
C11 H11C 0.9600 .
C12 C13 1.383(5) .
C12 C17 1.390(5) .
C13 C14 1.375(5) .
C13 H13 0.9300 .
C14 C15 1.397(5) .
C14 H14 0.9300 .
C15 C16 1.400(5) .
C16 C17 1.374(5) .
C16 H16 0.9300 .
C17 H17 0.9300 .
C19 C20 1.357(7) .
C19 H19 0.9300 .
C20 C21 1.376(7) .
C20 H20 0.9300 .
C21 C22 1.497(6) .
C22 H22A 0.9600 .
C22 H22B 0.9600 .
C22 H22C 0.9600 .
loop_
_geom_hbond_atom_site_label_D
_geom_hbond_atom_site_label_H
_geom_hbond_atom_site_label_A
_geom_hbond_distance_DH
_geom_hbond_distance_HA
_geom_hbond_distance_DA
_geom_hbond_angle_DHA
_geom_hbond_site_symmetry_A
N5 H5A O4 0.86 2.30 3.095(5) 152.9 1_545
N1 H1N1 O4 0.85(6) 2.50(6) 3.270(5) 151(5) 4_654
N1 H2N1 O1 0.84(5) 2.25(5) 3.057(5) 163(4) 1_565
N2 H1N2 N8 0.81(5) 2.14(5) 2.944(5) 173(5) .
N6 H1N6 N4 0.83(6) 2.09(6) 2.915(5) 175(6) .
loop_
_geom_torsion_atom_site_label_1
_geom_torsion_atom_site_label_2
_geom_torsion_atom_site_label_3
_geom_torsion_atom_site_label_4
_geom_torsion
_geom_torsion_site_symmetry_1
_geom_torsion_site_symmetry_2
_geom_torsion_site_symmetry_3
_geom_torsion_site_symmetry_4
O1 S1 N2 C7 60.5(4) . . . .
O2 S1 N2 C7 -172.4(3) . . . .
C1 S1 N2 C7 -57.1(4) . . . .
O4 S2 N6 C18 -56.4(4) . . . .
O3 S2 N6 C18 176.6(3) . . . .
C12 S2 N6 C18 61.8(4) . . . .
O1 S1 C1 C6 162.1(3) . . . .
O2 S1 C1 C6 30.0(4) . . . .
N2 S1 C1 C6 -80.3(3) . . . .
O1 S1 C1 C2 -17.8(4) . . . .
O2 S1 C1 C2 -149.9(3) . . . .
N2 S1 C1 C2 99.8(3) . . . .
C6 C1 C2 C3 0.6(6) . . . .
S1 C1 C2 C3 -179.5(3) . . . .
C1 C2 C3 C4 -1.0(6) . . . .
C2 C3 C4 N1 179.2(4) . . . .
C2 C3 C4 C5 0.8(6) . . . .
N1 C4 C5 C6 -178.8(4) . . . .
C3 C4 C5 C6 -0.4(6) . . . .
C4 C5 C6 C1 0.1(6) . . . .
C2 C1 C6 C5 -0.2(6) . . . .
S1 C1 C6 C5 179.9(4) . . . .
C8 N4 C7 N3 -1.0(7) . . . .
C8 N4 C7 N2 177.4(5) . . . .
C10 N3 C7 N4 -0.7(6) . . . .
C10 N3 C7 N2 -179.1(4) . . . .
S1 N2 C7 N4 165.4(3) . . . .
S1 N2 C7 N3 -16.0(5) . . . .
C7 N4 C8 C9 1.5(9) . . . .
N4 C8 C9 C10 -0.4(10) . . . .
C7 N3 C10 C9 1.9(6) . . . .
C7 N3 C10 C11 -178.3(4) . . . .
C8 C9 C10 N3 -1.4(8) . . . .
C8 C9 C10 C11 178.8(6) . . . .
O4 S2 C12 C13 -157.7(3) . . . .
O3 S2 C12 C13 -25.9(4) . . . .
N6 S2 C12 C13 83.9(4) . . . .
O4 S2 C12 C17 22.6(4) . . . .
O3 S2 C12 C17 154.4(3) . . . .
N6 S2 C12 C17 -95.8(3) . . . .
C17 C12 C13 C14 -0.1(7) . . . .
S2 C12 C13 C14 -179.9(4) . . . .
C12 C13 C14 C15 0.5(7) . . . .
C13 C14 C15 N5 179.2(5) . . . .
C13 C14 C15 C16 -0.5(7) . . . .
N5 C15 C16 C17 -179.5(4) . . . .
C14 C15 C16 C17 0.2(6) . . . .
C15 C16 C17 C12 0.1(6) . . . .
C13 C12 C17 C16 -0.2(6) . . . .
S2 C12 C17 C16 179.5(3) . . . .
C21 N7 C18 N8 -1.6(6) . . . .
C21 N7 C18 N6 178.9(4) . . . .
C19 N8 C18 N7 2.6(7) . . . .
C19 N8 C18 N6 -177.9(5) . . . .
S2 N6 C18 N7 10.6(5) . . . .
S2 N6 C18 N8 -168.9(3) . . . .
C18 N8 C19 C20 -1.0(9) . . . .
N8 C19 C20 C21 -1.5(11) . . . .
C18 N7 C21 C20 -1.1(7) . . . .
C18 N7 C21 C22 178.5(4) . . . .
C19 C20 C21 N7 2.6(9) . . . .
C19 C20 C21 C22 -177.1(6) . . . .
