#------------------------------------------------------------------------------
#$Date: 2017-09-28 16:19:36 +0300 (Thu, 28 Sep 2017) $
#$Revision: 201446 $
#$URL: file:///home/coder/svn-repositories/cod/cif/1/54/74/1547444.cif $
#------------------------------------------------------------------------------
#
# This file is available in the Crystallography Open Database (COD),
# http://www.crystallography.net/
#
# All data on this site have been placed in the public domain by the
# contributors.
#
data_1547444
loop_
_publ_author_name
'Anuradha R. Pallipurath'
'Jonathan M. Skelton'
'Mark R. Warren'
'Naghmeh Kamali'
'Patrick McArdle'
'Andrea Erxleben'
_publ_section_title
;
 Sulfamerazine: Understanding the Influence of Slip Planes in the
 Polymorphic Phase Transformation through X-Ray Crystallographic Studies
 and ab Initio Lattice Dynamics
;
_journal_name_full               'Molecular Pharmaceutics'
_journal_page_first              3735
_journal_page_last               3748
_journal_paper_doi               10.1021/acs.molpharmaceut.5b00504
_journal_volume                  12
_journal_year                    2015
_chemical_formula_moiety         'C11 H12 N4 O2 S'
_chemical_formula_sum            'C11 H12 N4 O2 S'
_chemical_formula_weight         264.31
_chemical_name_common            Sulfamerazine
_chemical_name_systematic        4-amino-N-(4-methylpyrimidin-2-yl)
_space_group_crystal_system      orthorhombic
_space_group_IT_number           61
_space_group_name_Hall           '-P 2ac 2ab'
_space_group_name_H-M_alt        'P b c a'
_symmetry_space_group_name_Hall  '-P 2ac 2ab'
_symmetry_space_group_name_H-M   'P b c a'
_atom_sites_solution_hydrogens   mixed
_cell_angle_alpha                90
_cell_angle_beta                 90
_cell_angle_gamma                90
_cell_formula_units_Z            8
_cell_length_a                   9.1158(2)
_cell_length_b                   11.6222(2)
_cell_length_c                   22.8715(3)
_cell_measurement_reflns_used    8200
_cell_measurement_temperature    220
_cell_measurement_theta_max      29.5650
_cell_measurement_theta_min      1.7270
_cell_volume                     2423.14(7)
_computing_cell_refinement
;
CrysAlisPro, Agilent Technologies,
Version 1.171.37.34 (release 22-05-2014 CrysAlis171 .NET)
(compiled May 22 2014,16:03:01)
;
_computing_data_collection
;
CrysAlisPro, Agilent Technologies,
Version 1.171.37.34 (release 22-05-2014 CrysAlis171 .NET)
(compiled May 22 2014,16:03:01)
;
_computing_data_reduction
;
CrysAlisPro, Agilent Technologies,
Version 1.171.37.34 (release 22-05-2014 CrysAlis171 .NET)
(compiled May 22 2014,16:03:01)
;
_computing_molecular_graphics    OSCAIL
_computing_structure_refinement  'SHELXL-2014/7 (Sheldrick, 2014)'
_computing_structure_solution    SHELXT
_diffrn_ambient_temperature      220
_diffrn_measured_fraction_theta_full 0.990
_diffrn_measured_fraction_theta_max 0.973
_diffrn_measurement_device       'CrystalLogic Kappa (3 circle)'
_diffrn_measurement_device_type  'Rigaku Saturn724+ (2x2 bin mode)'
_diffrn_measurement_method
;
omega rotation with 1 degree frames
;
_diffrn_measurement_specimen_support 'MiTeGen loop'
_diffrn_radiation_monochromator  'double crystal Silicon 111'
_diffrn_radiation_source         'Diamond Light Source Beamline I19'
_diffrn_radiation_type           Synchrotron
_diffrn_radiation_wavelength     0.68890
_diffrn_reflns_av_R_equivalents  0.0660
_diffrn_reflns_av_unetI/netI     0.0413
_diffrn_reflns_Laue_measured_fraction_full 0.990
_diffrn_reflns_Laue_measured_fraction_max 0.973
_diffrn_reflns_limit_h_max       11
_diffrn_reflns_limit_h_min       -12
_diffrn_reflns_limit_k_max       13
_diffrn_reflns_limit_k_min       -16
_diffrn_reflns_limit_l_max       32
_diffrn_reflns_limit_l_min       -31
_diffrn_reflns_number            21617
_diffrn_reflns_point_group_measured_fraction_full 0.990
_diffrn_reflns_point_group_measured_fraction_max 0.973
_diffrn_reflns_theta_full        24.415
_diffrn_reflns_theta_max         29.476
_diffrn_reflns_theta_min         1.726
_exptl_absorpt_coefficient_mu    0.267
_exptl_absorpt_correction_T_max  1.00000
_exptl_absorpt_correction_T_min  0.94486
_exptl_absorpt_correction_type   multi-scan
_exptl_absorpt_process_details
;
CrysAlisPro, Agilent Technologies,
Version 1.171.36.28 (release 01-02-2013 CrysAlis171 .NET)
Empirical absorption correction using spherical harmonics,
implemented in SCALE3 ABSPACK scaling algorithm.
;
_exptl_crystal_colour            Colourless
_exptl_crystal_density_diffrn    1.449
_exptl_crystal_description       Parallelepiped
_exptl_crystal_F_000             1104
_exptl_crystal_size_max          0.50
_exptl_crystal_size_mid          0.40
_exptl_crystal_size_min          0.20
_refine_diff_density_max         0.366
_refine_diff_density_min         -0.324
_refine_diff_density_rms         0.058
_refine_ls_extinction_coef       .
_refine_ls_extinction_method     none
_refine_ls_goodness_of_fit_ref   0.974
_refine_ls_hydrogen_treatment    mixed
_refine_ls_matrix_type           full
_refine_ls_number_parameters     176
_refine_ls_number_reflns         3595
_refine_ls_number_restraints     0
_refine_ls_restrained_S_all      0.974
_refine_ls_R_factor_all          0.0691
_refine_ls_R_factor_gt           0.0459
_refine_ls_shift/su_max          0.000
_refine_ls_shift/su_mean         0.000
_refine_ls_structure_factor_coef Fsqd
_refine_ls_weighting_details
'w=1/[\s^2^(Fo^2^)+(0.0463P)^2^+1.4827P] where P=(Fo^2^+2Fc^2^)/3'
_refine_ls_weighting_scheme      calc
_refine_ls_wR_factor_gt          0.1065
_refine_ls_wR_factor_ref         0.1211
_reflns_Friedel_coverage         0.000
_reflns_Friedel_fraction_full    .
_reflns_Friedel_fraction_max     .
_reflns_number_gt                2629
_reflns_number_total             3595
_reflns_threshold_expression     'I > 2\s(I)'
_cod_data_source_file            Exp_Form-II2FSynchrotron_Form-II_220K.cif
_cod_data_source_block           220k_smz-f2_a
_cod_database_code               1547444
_shelx_space_group_comment
;
The symmetry employed for this shelxl refinement is uniquely defined
by the following loop, which should always be used as a source of
symmetry information in preference to the above space-group names.
They are only intended as comments.
;
_shelx_estimated_absorpt_t_min   0.878
_shelx_estimated_absorpt_t_max   0.948
_shelx_res_file
;

    220k_smz-f2_a.res created by SHELXL-2014/7

TITL 220k_smz-f2_a.res in Pbca
REM Old TITL 038_220K_SulfamerazineF2_ in Pbca
REM SHELXT solution in Pbca
REM R1 0.113,  Rweak 0.246,  Alpha 0.020,  Orientation as input
REM Formula found by SHELXT:  C12 N3 O2 S
CELL  0.68890   9.1158  11.6222  22.8715   90.000   90.000   90.000
ZERR    8.000   0.0002   0.0002   0.0003    0.000    0.000    0.000
REM SG 61 8 8 Pbca P21/b21/c21/a PGmmm Orthorhombic
LATT 1
REM SG  ASUN  1  .5 .5 .5
REM SG  ORGN  at Inv.cen.
SYMM 0.5-X,-Y,0.5+Z
SYMM -X,0.5+Y,0.5-Z
SYMM 0.5+X,0.5-Y,-Z
SFAC C H N O S
UNIT 88 96  32  16  8
FMAP 2
PLAN -32
BOND $H
L.S. 12
SIZE    0.50  0.40  0.20
ACTA
CONF
REM Instructions for potential hydrogen bonds
EQIV $1 -x+1/2, y+1/2, z
HTAB C6 O1_$1
EQIV $2 -x+1, -y+1, -z+1
HTAB C8 O2_$2
EQIV $3 x+1, y, z
HTAB C9 O2_$3
HTAB N2 N4_$2
EQIV $4 x+1/2, y, -z+1/2
HTAB N1 O2_$4
EQIV $5 -x+1, y+1/2, -z+1/2
HTAB N1 O1_$5
HTAB N1 N3_$5
LIST 4
WGHT    0.046300    1.482700
FVAR       0.54405
S1    5    0.332088    0.346204    0.389720    11.00000    0.02942    0.03030 =
         0.02622   -0.00199   -0.00035   -0.00357
O2    4    0.197377    0.396989    0.409571    11.00000    0.02698    0.04929 =
         0.03093   -0.00209    0.00038   -0.00242
O1    4    0.342140    0.223618    0.386438    11.00000    0.05076    0.02861 =
         0.03540   -0.00132   -0.00087   -0.00650
N4    3    0.666660    0.426253    0.485424    11.00000    0.03062    0.03787 =
         0.03008   -0.00356   -0.00265    0.00216
N3    3    0.655891    0.285201    0.408968    11.00000    0.03456    0.03231 =
         0.03221   -0.00214    0.00311    0.00396
N2    3    0.451525    0.395010    0.437441    11.00000    0.02914    0.03405 =
         0.03115   -0.00892   -0.00238    0.00333
N1    3    0.455262    0.532662    0.154874    11.00000    0.06225    0.04091 =
         0.03547    0.00520    0.01432    0.00315
C1    1    0.375557    0.404006    0.321648    11.00000    0.03146    0.03050 =
         0.02748   -0.00157    0.00223   -0.00223
C2    1    0.447890    0.337252    0.280260    11.00000    0.04791    0.03406 =
         0.03437    0.00049    0.00797    0.00841
AFIX  43
H2    2    0.476587    0.262609    0.289421    11.00000   -1.30000
AFIX   0
C3    1    0.477008    0.381797    0.225666    11.00000    0.04998    0.03702 =
         0.03415   -0.00233    0.01357    0.00709
AFIX  43
H3    2    0.527489    0.337271    0.198525    11.00000   -1.30000
AFIX   0
C4    1    0.431919    0.492974    0.210317    11.00000    0.03554    0.03538 =
         0.03235   -0.00089    0.00398   -0.00518
C5    1    0.359101    0.559278    0.252875    11.00000    0.04314    0.02684 =
         0.03865    0.00139    0.00534   -0.00011
AFIX  43
H5    2    0.328808    0.633568    0.243792    11.00000   -1.30000
AFIX   0
C6    1    0.332176    0.515522    0.307768    11.00000    0.03623    0.02776 =
         0.03349   -0.00517    0.00707   -0.00180
AFIX  43
H6    2    0.284933    0.560543    0.335615    11.00000   -1.30000
AFIX   0
C7    1    0.597968    0.366033    0.443326    11.00000    0.02807    0.02985 =
         0.02657    0.00252    0.00151    0.00154
C8    1    0.808236    0.400710    0.493001    11.00000    0.02999    0.04837 =
         0.03392    0.00150   -0.00348    0.00200
AFIX  43
H8    2    0.860591    0.439773    0.521705    11.00000   -1.30000
AFIX   0
C9    1    0.879573    0.319387    0.460269    11.00000    0.02992    0.04841 =
         0.03728    0.00720    0.00258    0.00673
AFIX  43
H9    2    0.978505    0.303557    0.466089    11.00000   -1.30000
AFIX   0
C10   1    0.798805    0.261564    0.418143    11.00000    0.03455    0.03562 =
         0.03592    0.00694    0.00803    0.00838
C11   1    0.866171    0.168634    0.381542    11.00000    0.04914    0.04786 =
         0.05681   -0.00410    0.01027    0.01554
AFIX 137
H11A  2    0.821392    0.096182    0.390911    11.00000   -1.30000
H11B  2    0.969522    0.164634    0.389343    11.00000   -1.30000
H11C  2    0.850767    0.185536    0.340918    11.00000   -1.30000
AFIX   0
H1N2  2    0.419289    0.447883    0.458863    11.00000    0.04934
H1N1  2    0.510775    0.493853    0.134128    11.00000    0.05306
H2N1  2    0.449461    0.605001    0.147655    11.00000    0.05566
HKLF 4

REM  220k_smz-f2_a.res in Pbca
REM R1 =  0.0459 for    2629 Fo > 4sig(Fo)  and  0.0691 for all    3595 data
REM    176 parameters refined using      0 restraints

END

WGHT      0.0431      0.9966

REM Highest difference peak  0.366,  deepest hole -0.324,  1-sigma level  0.058
Q1    1   0.3669  0.3775  0.3512  11.00000  0.05    0.37
Q2    1   0.3748  0.4578  0.3165  11.00000  0.05    0.31
Q3    1   0.3869  0.3631  0.3042  11.00000  0.05    0.27
Q4    1   0.8455  0.3785  0.4619  11.00000  0.05    0.27
Q5    1   0.3992  0.5287  0.2345  11.00000  0.05    0.26
Q6    1   0.3478  0.5212  0.2771  11.00000  0.05    0.26
Q7    1   0.4232  0.3744  0.4119  11.00000  0.05    0.23
Q8    1   0.6616  0.4018  0.4596  11.00000  0.05    0.23
Q9    1   0.4580  0.5173  0.1894  11.00000  0.05    0.22
Q10   1   0.7791  0.0808  0.3516  11.00000  0.05    0.20
Q11   1   0.5979  0.4576  0.5023  11.00000  0.05    0.20
Q12   1   0.6089  0.2660  0.3828  11.00000  0.05    0.20
Q13   1   0.8494  0.3000  0.4311  11.00000  0.05    0.20
Q14   1   0.1646  0.4822  0.2602  11.00000  0.05    0.20
Q15   1   0.3415  0.1800  0.3685  11.00000  0.05    0.19
Q16   1   0.3566  0.2005  0.3606  11.00000  0.05    0.19
Q17   1   0.6631  0.3588  0.2084  11.00000  0.05    0.19
Q18   1   0.2451  0.3852  0.3984  11.00000  0.05    0.19
Q19   1   0.5917  0.3478  0.2100  11.00000  0.05    0.19
Q20   1   0.6164  0.3037  0.4293  11.00000  0.05    0.19
Q21   1   0.4588  0.3419  0.4924  11.00000  0.05    0.19
Q22   1   0.3716  0.1997  0.3954  11.00000  0.05    0.19
Q23   1   0.8561  0.4821  0.5191  11.00000  0.05    0.18
Q24   1   0.2186  0.3427  0.4111  11.00000  0.05    0.18
Q25   1   0.3907  0.3443  0.2377  11.00000  0.05    0.18
Q26   1   0.6474  0.3533  0.4173  11.00000  0.05    0.18
Q27   1   0.5972  0.5580  0.2515  11.00000  0.05    0.18
Q28   1   0.1779  0.4711  0.3989  11.00000  0.05    0.18
Q29   1   0.3381  0.1582  0.3279  11.00000  0.05    0.18
Q30   1   0.1496  0.3975  0.4118  11.00000  0.05    0.18
Q31   1   0.4323  0.4247  0.2170  11.00000  0.05    0.18
Q32   1   0.3150  0.2625  0.3671  11.00000  0.05    0.17
;
_shelx_res_checksum              45310
_shelx_hkl_file
;
   0   0   2  663.59   13.11
   0   0   2  535.06   11.64
   0   0   3    1.13    1.10
   0   0   3    1.04    1.27
   0   0   4 2867.91   38.81
   0   0   4 2850.21   38.09
   0   0   5   -0.74    1.14
   0   0   5    0.13    0.54
   0   0   6 7347.62   74.62
   0   0   6 7301.37   76.40
   0   0   7    6.60    3.13
   0   0   7    1.92    2.41
   0   0   8 1045.37   32.30
   0   0   8 1115.19   34.27
   0   0   9    4.07    3.84
   0   0   9   -0.13    0.95
   0   0  10 5223.32   80.44
   0   0  10 5544.62   85.06
   0   0  11    0.51    3.58
   0   0  11    0.51    3.05
   0   0  12   -2.14    3.90
   0   0  12   -0.61    1.62
   0   0  13    0.05    1.88
   0   0  13   -1.86    2.73
   0   0  14  727.76   36.84
   0   0  14  751.78   35.61
   0   0  15    1.09    1.89
   0   0  15    1.53    2.74
   0   0  16   18.92    6.64
   0   0  16   14.57    5.90
   0   0  17    0.34    1.48
   0   0  17   -1.20    2.44
   0   0  18 1323.45   54.54
   0   0  18 1397.43   56.83
   0   0  19    8.53    7.17
   0   0  19   -2.46    2.60
   0   0  20  140.24   19.38
   0   0  20   95.15   15.56
   0   0  21    9.00    4.51
   0   0  21    5.04    7.21
   0   0  22  193.08   23.21
   0   0  22  188.85   22.37
   0   0  23   -1.12    4.76
   0   0  23    1.81    4.97
   0   0  24   75.81   14.59
   0   0  24   82.05   15.50
   0   0  25   -2.18    2.70
   0   0  25   -2.29    3.96
   0   0  26   64.87   14.34
   0   0  26   49.33   12.50
   0   0  27    2.41    3.58
   0   0  27    6.48    4.37
   0   0  28   73.77   14.86
   0   0  28   52.30   14.53
   0   0  29   -0.58    1.74
   0   0  29   -0.83    2.36
   0   0  30  266.32   30.78
   0   0  30  267.91   30.64
   0   0  31    1.35    6.28
   0   0  31    5.07    4.05
   0   0  32   -0.03    2.41
   0   0  32   -8.76    7.21
   0  -1   0   -0.22    0.36
   0  -1   0   -0.87    0.70
   0  -1   1   -1.60    1.03
   0   1   1    0.33    0.84
   0  -1   1    0.26    0.52
   0  -1  -1   -0.38    0.39
   0  -1   2    0.56    0.45
   0   1   2    0.53    0.56
   0   1   2    0.35    0.96
   0  -1   2    0.17    0.70
   0  -1   3   -0.69    1.10
   0   1   3   -0.46    0.89
   0   1   3    0.57    0.49
   0  -1   3    0.35    0.96
   0   1   4    1.86    1.67
   0  -1   4   -1.41    1.60
   0  -1   4    0.49    1.52
   0   1   4   -0.74    0.99
   0  -1   4    0.79    0.86
   0  -1   5    0.25    1.20
   0  -1   5   -1.66    1.58
   0   1   5   -0.42    1.18
   0  -1   5   -1.12    1.42
   0   1   5   -1.09    0.62
   0  -1   6   -1.55    1.08
   0  -1   6    0.71    0.84
   0   1   6    0.01    1.64
   0   1   6    3.07    2.72
   0   1   7   -0.51    0.97
   0  -1   7   -0.86    0.95
   0   1   7   -0.57    1.02
   0  -1   7    2.19    1.26
   0   1   8   -1.19    1.95
   0  -1   8   -0.61    2.04
   0   1   8   -1.56    1.09
   0  -1   8    0.80    1.56
   0  -1   9    1.32    2.88
   0  -1   9    3.58    0.94
   0   1   9    0.99    2.23
   0   1   9    1.89    2.69
   0   1  10   -2.85    2.56
   0  -1  10    2.06    2.16
   0  -1  10   -2.10    2.76
   0   1  10   -0.61    1.50
   0   1  11    1.66    1.10
   0   1  11   -0.90    1.56
   0  -1  11    0.26    1.61
   0  -1  11    2.47    3.03
   0  -1  12    0.95    1.20
   0   1  12    4.24    3.36
   0   1  12   -0.71    2.29
   0  -1  12    4.08    4.87
   0  -1  13    1.78    2.11
   0  -1  13    0.24    2.80
   0   1  13   -0.72    2.08
   0   1  13   -2.44    3.53
   0  -1  14   -2.02    1.60
   0   1  14   -0.30    3.41
   0   1  14   -1.73    2.18
   0  -1  14    0.90    1.80
   0   1  15   -0.04    1.79
   0  -1  15   -2.58    1.63
   0   1  15    0.24    1.87
   0  -1  15    0.69    3.15
   0   1  16    8.63    4.93
   0   1  16    3.02    2.69
   0  -1  16   -2.89    3.72
   0  -1  16   -0.89    2.92
   0   1  17   -1.15    3.25
   0   1  17   -0.85    4.07
   0  -1  17   -1.67    4.60
   0  -1  17    0.27    3.72
   0   1  18    1.44    2.64
   0  -1  18    6.83    6.15
   0   1  18   -2.48    2.08
   0  -1  18   -0.96    2.78
   0   1  19    1.07    4.43
   0  -1  19   -2.22    2.33
   0   1  19    4.72    5.18
   0  -1  19    6.57    5.77
   0   1  20   -3.11    4.02
   0  -1  20   -1.82    2.43
   0   1  20   -1.23    4.02
   0  -1  20    1.28    1.69
   0   1  21    5.33    5.56
   0  -1  21   -4.02    6.39
   0  -1  21    0.47    3.51
   0   1  21    1.74    3.66
   0   1  22    0.48    5.92
   0   1  22   -3.23    3.46
   0  -1  22    4.24    6.99
   0  -1  22    1.50    2.11
   0  -1  23   -0.71    3.09
   0  -1  23    1.03    5.11
   0   1  23   -4.19    3.78
   0   1  23   -1.87    3.86
   0  -1  24   -0.22    4.05
   0   1  24    3.70    5.15
   0   1  24    3.19    3.42
   0  -1  24    0.53    3.46
   0  -1  25    5.56    7.76
   0   1  25   10.65    5.88
   0   1  25    2.36    2.80
   0  -1  25   -3.79    5.23
   0   1  26    0.57    3.11
   0  -1  26    3.19    5.27
   0  -1  26    5.90    5.82
   0   1  26    7.01    7.49
   0   1  27    7.69    6.12
   0  -1  27    0.97    6.17
   0   1  27   -5.25    6.77
   0  -1  27   -2.19    6.22
   0  -1  28   -1.51    4.42
   0   1  28    6.69    8.25
   0   1  28   -7.31    6.73
   0  -1  28   -3.71    5.81
   0   1  29    2.78    1.90
   0  -1  29   -3.64    3.40
   0   1  29   -5.50    7.39
   0  -1  29    2.53    2.61
   0   1  30   -3.59    4.17
   0   1  30    3.64    6.78
   0  -1  30   -0.60    3.27
   0  -1  30    5.65    6.45
   0  -1  31    0.68    4.37
   0  -1  31    6.45    5.89
   0   1  31    1.52    2.02
   0   1  31    1.74    8.07
   0   1  32   10.92   11.29
   0  -1  32   -1.09    2.78
   0   1  32    3.29    2.66
   0  -1  32    2.04    6.88
   0  -2   0    5.78    1.98
   0  -2   0    4.73    1.34
   0   2   1 8107.13   62.40
   0  -2   1 7972.18   63.26
   0  -2  -1 8077.64   66.08
   0   2   2 4068.64   45.63
   0  -2   2 4149.90   50.03
   0  -2   2 4099.46   45.77
   0  -2  -2 4108.73   48.51
   0   2   2 4068.94   37.16
   0  -2   3 9320.59   72.91
   0  -2  -3 9663.10   79.70
   0  -2   3 9826.59   79.89
   0   2   3 9527.99   75.96
   0   2   3 9999.00   64.77
   0  -2   4 7817.99   70.82
   0  -2   4 7878.74   76.49
   0   2   4 7914.38   66.15
   0  -2  -4 8033.42   76.95
   0   2   4 7854.22   73.06
   0  -2   5 7908.91   76.74
   0   2   5 7971.18   79.80
   0  -2   6 7713.81   80.99
   0  -2   6 7800.86   82.42
   0   2   6 7870.05   78.23
   0   2   6 7742.89   83.04
   0   2   7   77.60    8.88
   0  -2   7   76.78    9.18
   0   2   7   66.75    8.00
   0  -2   7   83.75    8.99
   0   2   8  522.89   23.92
   0  -2   8  480.25   23.27
   0   2   8  535.42   23.26
   0  -2   8  533.83   24.63
   0  -2   8  512.29   24.28
   0  -2   9 1841.42   47.59
   0  -2   9 1755.46   45.61
   0  -2   9 1839.72   48.16
   0   2   9 1828.05   45.82
   0   2   9 1721.62   45.59
   0   2  10  892.65   33.94
   0   2  10  923.08   34.77
   0  -2  10  830.81   34.01
   0  -2  10  876.60   33.87
   0  -2  11 1226.56   41.37
   0   2  11 1232.74   41.84
   0   2  11 1246.10   42.22
   0  -2  11 1194.85   42.73
   0  -2  12  539.88   29.20
   0  -2  12  547.85   29.04
   0   2  12  544.28   28.74
   0   2  12  536.57   28.97
   0   2  13  125.96   14.36
   0  -2  13  156.96   16.87
   0   2  13  161.89   16.23
   0  -2  13  130.31   15.05
   0   2  14  733.00   36.05
   0  -2  14  746.45   37.63
   0  -2  14  701.51   35.71
   0   2  14  657.90   34.47
   0  -2  15   20.64    5.99
   0   2  15   23.45    6.25
   0   2  15   29.14    7.70
   0  -2  15   23.79    7.56
   0  -2  16   55.49   10.78
   0   2  16   82.48   13.12
   0   2  16   87.89   13.59
   0   2  17  499.04   32.97
   0   2  17  451.68   30.92
   0  -2  17  472.40   32.25
   0  -2  17  504.02   33.52
   0  -2  18  233.32   23.25
   0   2  18  236.66   23.47
   0   2  18  228.59   22.79
   0  -2  18  251.97   24.87
   0  -2  19  693.58   42.13
   0  -2  19  685.22   40.04
   0   2  19  630.20   37.99
   0   2  19  706.90   41.00
   0  -2  20   86.04   14.40
   0   2  20   81.69   14.78
   0   2  20   87.17   14.07
   0  -2  20   79.00   13.80
   0   2  21   59.52   12.94
   0  -2  21   68.17   12.84
   0   2  21   51.18   11.19
   0  -2  21   70.98   14.15
   0  -2  22    2.31    4.49
   0  -2  22    2.91    5.11
   0   2  22   -1.75    4.00
   0   2  22    5.91    6.51
   0  -2  23  500.01   37.98
   0   2  23  460.63   36.26
   0  -2  23  467.11   35.76
   0   2  23  479.76   35.99
   0  -2  24    5.49    4.46
   0  -2  24    0.66    2.21
   0   2  24    0.20    3.34
   0  -2  25    7.55    5.03
   0   2  25    7.52    4.44
   0  -2  25   17.48    5.70
   0   2  25    5.68    1.72
   0   2  26   74.47   15.24
   0  -2  26   87.87   16.30
   0   2  26  100.67   17.68
   0  -2  26   93.21   16.67
   0  -2  27    8.28    3.69
   0   2  27   19.98    7.93
   0   2  27    8.24    4.84
   0  -2  27   12.46    7.80
   0   2  28   24.20    8.42
   0  -2  28   10.61    3.26
   0  -2  28    8.82    4.48
   0   2  28   21.55    9.21
   0   2  29  103.26   18.42
   0  -2  29   66.18   13.57
   0  -2  29   56.89   14.11
   0   2  29   73.88   16.21
   0   2  30   -3.81    8.09
   0  -2  30    1.35    5.99
   0  -2  30    7.53    8.73
   0   2  30    5.87    6.53
   0   2  31   -1.69    7.85
   0   2  31    7.94    6.59
   0  -2  31   -0.98    2.72
   0  -2  31   -2.80    7.21
   0   2  32   65.10   17.09
   0   2  32   26.20   10.11
   0  -2  32   25.37   10.94
   0  -2  32   38.00   11.58
   0  -3   0    0.29    1.40
   0  -3   0    3.61    2.07
   0  -3   1   -0.48    1.31
   0   3   1    1.72    1.22
   0  -3   1   -0.26    1.30
   0  -3  -1    3.27    3.03
   0   3   2    0.97    1.88
   0  -3  -2    1.35    1.34
   0  -3   2   -0.43    0.72
   0   3   2   -1.35    1.40
   0  -3   2    1.98    2.07
   0  -3  -3    0.98    1.69
   0   3   3    0.38    1.10
   0   3   3   -1.20    1.05
   0  -3   3    2.91    2.49
   0  -3   3   -0.25    1.67
   0  -3  -4   -1.83    1.00
   0   3   4    0.42    1.41
   0   3   4   -0.08    1.19
   0  -3   4    0.60    2.45
   0  -3   4   -1.00    0.99
   0   3   5   -1.57    1.33
   0  -3  -5   -0.69    1.78
   0  -3   5   -0.53    1.43
   0  -3   5    0.06    2.03
   0   3   5   -1.60    2.53
   0  -3   6    0.22    2.28
   0  -3   6   -0.04    1.58
   0   3   6    0.95    2.04
   0  -3  -6   -0.89    2.26
   0   3   6    1.61    1.34
   0   3   7   -0.39    0.84
   0   3   7    1.18    1.87
   0  -3   7   -1.91    1.42
   0  -3   7   -0.95    1.46
   0   3   8    0.38    2.20
   0  -3   8    0.14    1.43
   0  -3   8    0.62    1.23
   0  -3   8   -1.61    2.32
   0   3   8   -0.43    2.63
   0  -3   9    3.51    3.41
   0  -3   9    0.75    3.25
   0   3   9    1.19    1.89
   0  -3   9    2.50    3.33
   0   3   9   -1.64    1.95
   0  -3  10   -1.53    1.82
   0   3  10   -0.87    2.21
   0  -3  10    0.87    3.79
   0   3  10    0.54    2.24
   0  -3  10    0.53    3.29
   0  -3  11    0.09    3.02
   0  -3  11    1.28    2.93
   0  -3  11    0.07    3.26
   0   3  11    1.98    3.65
   0   3  11    6.30    4.42
   0   3  12    1.25    1.63
   0   3  12    1.50    1.75
   0  -3  12    1.86    2.77
   0  -3  12   -1.85    2.67
   0  -3  12    0.12    1.85
   0   3  13    0.49    1.41
   0  -3  13    1.50    1.75
   0   3  13   -0.87    2.12
   0  -3  13   -2.03    1.70
   0  -3  14    4.30    3.38
   0   3  14    1.59    3.05
   0   3  14   -3.56    2.35
   0  -3  14   -2.06    1.85
   0   3  15   -0.94    4.00
   0  -3  15   -0.80    1.27
   0   3  15    1.50    3.94
   0  -3  15   -2.06    1.71
   0  -3  16    2.54    3.18
   0   3  16    0.27    3.81
   0   3  16   -1.12    3.07
   0  -3  16    1.13    3.61
   0   3  17    4.03    4.90
   0  -3  17    0.85    2.11
   0  -3  17   -0.05    2.26
   0   3  17    3.49    6.47
   0   3  18    0.19    3.95
   0   3  18    0.91    3.89
   0  -3  18   -0.19    1.95
   0  -3  18    2.83    2.25
   0   3  19    2.61    4.22
   0   3  19    3.04    4.57
   0  -3  19    5.46    6.38
   0  -3  19   -0.32    3.05
   0  -3  20   -1.11    3.73
   0  -3  20   -2.33    4.60
   0   3  20    1.53    3.80
   0   3  20    1.82    4.20
   0   3  21    1.95    3.30
   0  -3  21   -0.55    2.09
   0  -3  21   -0.02    2.31
   0   3  21    4.07    2.90
   0  -3  22   -2.03    2.83
   0   3  22    3.50    6.31
   0   3  22    0.11    3.57
   0  -3  22   -0.15    3.44
   0   3  23    4.55    7.66
   0  -3  23   -0.83    1.81
   0   3  23    6.40    7.10
   0  -3  23    2.28    3.16
   0  -3  24    0.34    2.00
   0   3  24    1.74    3.82
   0   3  24    1.72    7.51
   0  -3  24    3.39    3.39
   0   3  25    8.93    5.53
   0   3  25   -2.00    5.73
   0  -3  25   -1.09    3.59
   0  -3  25   -3.03    5.22
   0  -3  26   -3.17    5.77
   0   3  26   -4.70    5.13
   0  -3  26   -4.83    7.50
   0   3  26    3.73    4.76
   0   3  27    1.19    4.98
   0  -3  27   -0.65    2.79
   0  -3  27   -2.51    8.01
   0   3  27    3.20    7.43
   0   3  28    2.18    5.77
   0  -3  28   -4.57    6.59
   0   3  28    1.28    3.37
   0  -3  28   -6.61    7.09
   0  -3  29    0.43    3.65
   0   3  29    0.08    4.44
   0   3  29    3.11    5.28
   0  -3  29    9.93    9.79
   0   3  30    1.43    4.24
   0  -3  30   -2.66    4.60
   0   3  30   -2.29    5.65
   0  -3  30   -5.73    7.72
   0  -3  31    9.46    6.80
   0   3  31   -3.33    5.03
   0  -3  31    0.63    5.21
   0   3  31    3.22    4.11
   0  -3  32   -5.60    7.76
   0   3  32    1.64    6.90
   0  -3  32   12.20    7.48
   0   3  32    7.91    7.15
   0  -4   0 3960.01   60.77
   0  -4   0 3987.38   64.94
   0  -4   1 1435.18   39.85
   0   4   1 1427.09   29.41
   0  -4   1 1387.36   36.86
   0  -4  -1 1461.19   39.69
   0  -4  -1 1476.61   36.31
   0   4   2 1699.94   32.69
   0  -4   2 1667.47   42.96
   0  -4   2 1629.34   40.19
   0  -4  -2 1678.82   42.48
   0  -4  -3  112.76   10.99
   0   4   3  115.85    8.72
   0   4   3   98.89    9.73
   0  -4   3   99.01    9.94
   0   4   4  204.81   14.55
   0  -4   4  210.69   14.39
   0  -4   4  188.29   15.03
   0  -4  -4  220.37   15.85
   0   4   4  195.16   11.59
   0  -4   5  259.30   16.37
   0  -4   5  241.84   17.07
   0   4   5  232.38   13.77
   0  -4  -5  283.27   18.32
   0   4   5  262.50   17.03
   0   4   6  695.65   25.26
   0  -4   6  742.71   28.36
   0   4   6  681.18   28.69
   0  -4   6  674.71   29.63
   0  -4  -6  723.75   31.01
   0   4   7  345.92   20.93
   0  -4  -7  317.62   20.88
   0   4   7  319.98   17.82
   0  -4   7  340.77   21.50
   0  -4   7  332.19   19.61
   0  -4   8  287.10   20.34
   0   4   8  229.75   17.84
   0  -4  -8  285.57   20.49
   0   4   8  263.05   16.95
   0  -4   8  268.80   18.30
   0   4   9   20.31    6.05
   0  -4  -9   10.17    3.91
   0  -4   9    7.84    4.00
   0   4   9   11.36    3.82
   0  -4   9   18.78    4.87
   0  -4   9   23.26    6.36
   0  -4  10   -0.15    2.05
   0   4  10    0.59    2.63
   0  -4 -10    1.49    3.43
   0  -4  10    3.06    4.40
   0  -4  10   -0.38    1.79
   0   4  10   -0.71    1.62
   0   4  11  102.37   12.26
   0   4  11   93.35   12.35
   0  -4  11  102.54   13.49
   0  -4  11  103.02   13.41
   0  -4  11   88.02   11.63
   0  -4  12    2.94    3.83
   0  -4  12    2.21    3.39
   0  -4  12   -3.00    3.99
   0   4  12    1.07    3.56
   0   4  12   10.23    6.44
   0   4  13    2.00    4.12
   0  -4  13    2.57    2.42
   0   4  13    3.64    3.74
   0  -4  13    7.86    4.79
   0  -4  13    1.76    2.81
   0  -4  14  187.59   19.65
   0  -4  14  189.00   18.50
   0  -4  14  183.14   18.92
   0   4  14  131.73   15.38
   0   4  14  193.30   19.18
   0  -4  15   81.55   12.81
   0   4  15   86.79   12.45
   0  -4  15   74.23   12.55
   0   4  15  108.29   14.05
   0   4  16  162.77   18.69
   0   4  16  173.09   19.18
   0  -4  16  160.32   18.26
   0  -4  16  132.36   16.95
   0  -4  17  506.90   33.35
   0   4  17  583.99   35.79
   0   4  17  570.91   35.77
   0  -4  17  593.56   37.76
   0   4  18 1446.44   58.48
   0   4  18 1350.97   56.98
   0  -4  18 1428.20   59.61
   0  -4  18 1455.56   58.34
   0   4  19  402.72   31.30
   0  -4  19  374.21   31.97
   0  -4  19  433.73   32.61
   0   4  19  377.63   30.77
   0  -4  20    7.02    7.66
   0   4  20    3.13    2.63
   0  -4  20   -0.36    2.67
   0   4  20   14.47    7.70
   0   4  21   44.54   10.76
   0   4  21   56.65   12.47
   0  -4  21   59.29   14.06
   0  -4  21   41.61   11.28
   0   4  22   -1.57    2.87
   0  -4  22    6.41    6.41
   0   4  22    3.33    3.21
   0  -4  22   -0.41    4.36
   0  -4  23  118.49   18.62
   0  -4  23  111.97   18.78
   0   4  23  107.89   17.01
   0   4  23  110.23   17.72
   0  -4  24  312.54   30.46
   0  -4  24  252.28   27.90
   0   4  24  266.36   28.19
   0   4  24  250.44   27.24
   0  -4  25   92.74   16.54
   0   4  25  116.90   19.05
   0   4  25  104.17   18.22
   0   4  26   11.82    7.92
   0   4  26    9.20    7.73
   0  -4  26   18.60    7.28
   0  -4  26    5.73    6.70
   0  -4  27    0.69    4.36
   0   4  27    5.77    3.92
   0  -4  27    0.71    3.75
   0   4  27   -0.15    2.25
   0   4  28   29.83    8.91
   0  -4  28   35.38   10.15
   0  -4  28   54.57   14.17
   0   4  28   38.79   11.18
   0  -4  29   21.73    9.63
   0   4  29   22.88   10.54
   0  -4  29   29.61   10.96
   0   4  29   30.63   13.13
   0   4  30   -5.12    4.90
   0   4  30   15.21    8.58
   0  -4  30    9.82    9.43
   0  -4  30    3.71    5.28
   0  -4  31   -3.07    5.78
   0   4  31    0.47    4.27
   0  -4  31   11.36    9.85
   0   4  31    2.71    5.25
   0  -5   0   -1.25    2.58
   0  -5   0   -2.26    2.72
   0  -5   1    2.64    3.70
   0  -5   1    0.13    0.98
   0  -5  -1    1.42    2.17
   0  -5  -1    4.89    2.45
   0  -5   2    2.42    1.88
   0   5   2   -1.16    0.91
   0  -5  -2    2.16    3.83
   0  -5  -2   -0.43    1.81
   0  -5   2   -1.06    1.50
   0  -5   3   -0.92    3.96
   0   5   3    0.47    1.87
   0  -5   3    1.37    3.12
   0  -5  -3   -0.66    3.09
   0  -5   4   -0.42    2.24
   0  -5   4    0.12    1.78
   0  -5  -4    0.69    1.79
   0   5   4   -2.44    3.09
   0   5   4    0.87    2.06
   0   5   5    2.00    1.48
   0  -5   5    0.18    2.79
   0  -5   5    0.49    2.05
   0   5   5    1.01    3.09
   0  -5  -5   -1.27    3.63
   0   5   6   -0.67    1.03
   0  -5  -6   -0.46    2.26
   0   5   6   -0.94    1.67
   0  -5   6    2.33    2.55
   0  -5   6    3.74    4.69
   0  -5   7   -0.60    1.18
   0   5   7   -0.72    1.43
   0  -5   7    3.77    4.76
   0   5   7   -0.10    0.88
   0  -5  -7    1.90    2.42
   0   5   8   -2.11    1.45
   0  -5   8   -0.14    1.54
   0  -5  -8    3.05    3.15
   0   5   8    1.80    1.02
   0  -5   8   -0.54    1.79
   0   5   9   -1.77    2.96
   0   5   9   -0.42    2.15
   0  -5   9    1.93    2.02
   0  -5   9    3.10    4.04
   0  -5  -9   -0.96    1.73
   0  -5  10    0.35    2.74
   0  -5 -10   -1.24    1.89
   0  -5  10   -0.72    2.22
   0  -5  10    1.07    1.63
   0   5  10   -1.98    3.02
   0   5  10    1.95    3.81
   0  -5 -11   -2.76    2.28
   0  -5  11    1.02    2.19
   0  -5  11   -0.78    1.84
   0  -5  11   -0.67    2.86
   0   5  11   -0.23    2.13
   0   5  11   -0.49    1.68
   0   5  12    0.36    2.36
   0  -5  12   -1.68    3.25
   0  -5  12    1.52    2.78
   0   5  12    2.25    3.31
   0  -5  12    1.15    4.12
   0  -5 -12    1.40    3.53
   0   5  13   -2.34    3.66
   0  -5  13   -2.36    3.76
   0  -5  13   -2.45    3.65
   0   5  13   -2.10    2.42
   0  -5 -13    0.78    4.12
   0  -5  13    0.52    2.79
   0   5  14   -1.84    4.14
   0   5  14    2.68    4.55
   0  -5  14   -0.43    1.08
   0  -5  14   -6.25    5.64
   0  -5  14    3.22    4.81
   0  -5 -14   -0.77    3.87
   0  -5  15    1.26    1.66
   0   5  15   -3.42    5.79
   0  -5 -15   -1.71    3.50
   0  -5  15    0.23    3.28
   0  -5  15   -3.94    6.23
   0   5  15   -1.55    2.44
   0  -5  16   -4.29    4.50
   0   5  16   -0.37    1.32
   0  -5  16   -0.33    4.15
   0   5  16    5.84    4.99
   0  -5  16   -0.26    2.24
   0   5  17    3.70    6.83
   0  -5  17    4.06    5.63
   0  -5  17    0.14    2.50
   0   5  17    0.65    1.80
   0  -5  18    8.60    5.86
   0   5  18    1.33    3.17
   0  -5  18   -1.17    5.16
   0   5  18    1.84    3.03
   0  -5  19    1.53    1.50
   0   5  19   -0.90    2.12
   0   5  19    0.37    4.40
   0  -5  19    6.21    5.89
   0  -5  20    0.99    4.09
   0  -5  20   -2.37    2.53
   0   5  20    0.06    3.67
   0   5  20   -0.97    3.89
   0   5  21   -2.17    3.07
   0  -5  21    2.36    2.77
   0  -5  21   -1.76    3.43
   0   5  21    0.78    2.40
   0   5  22   -4.64    5.07
   0   5  22   -0.92    2.00
   0  -5  22   -2.79    2.19
   0  -5  22   -1.40    3.38
   0  -5  23    5.58    5.06
   0  -5  23    7.02    4.99
   0   5  23    0.87    2.82
   0   5  23    7.13    5.98
   0  -5  24   -1.50    3.15
   0  -5  24    2.40    4.39
   0   5  24    8.44    7.36
   0   5  24   -3.86    6.39
   0  -5  25   -4.03    5.40
   0   5  25    1.24    5.87
   0  -5  25   -1.83    4.43
   0   5  25    3.08    7.62
   0   5  26    2.25    4.54
   0  -5  26   -0.82    3.13
   0   5  26    0.81    5.77
   0  -5  26   -1.22    3.60
   0   5  27   -0.59    4.50
   0  -5  27    1.94    4.97
   0  -5  27   -1.11    3.64
   0   5  27    7.59    6.88
   0   5  28   -4.16    7.09
   0  -5  28    3.85    5.43
   0   5  28   -1.71    4.11
   0  -5  28   -3.88    5.81
   0   5  29    2.22    2.75
   0   5  29   -1.03    1.89
   0  -5  29   -2.24    3.28
   0  -5  30   -5.50    7.68
   0   5  30    0.39    3.33
   0  -5  30    6.88    5.22
   0   5  30    2.91    7.44
   0   5  31   -3.80    6.11
   0  -5  31   10.21    7.86
   0  -5  31   -1.60    4.32
   0   5  31   -1.90    4.90
   0  -6   0   26.00    6.06
   0  -6   0   20.58    6.69
   0  -6   1 3766.50   73.77
   0  -6  -1 3705.47   76.67
   0  -6  -1 3645.47   70.98
   0  -6   2 1270.87   45.23
   0   6   2 1271.11   34.32
   0  -6  -2 1257.57   41.31
   0  -6  -2 1208.30   44.12
   0  -6   2 1267.33   42.86
   0  -6  -3  231.95   19.26
   0   6   3  243.88   15.63
   0  -6   3  224.79   18.16
   0  -6   3  238.07   19.69
   0  -6   4  613.55   31.77
   0   6   4  614.54   24.87
   0  -6   4  573.41   28.63
   0  -6  -4  601.77   31.06
   0   6   5   30.17    6.21
   0   6   5   23.31    5.46
   0  -6   5   25.81    6.20
   0  -6  -5   23.40    5.96
   0  -6   5   20.30    6.23
   0  -6   6    7.07    2.69
   0   6   6    3.26    1.60
   0  -6   6    3.74    1.78
   0  -6  -6    2.35    1.23
   0   6   6    5.94    4.37
   0   6   7  305.88   19.06
   0   6   7  278.48   20.88
   0  -6  -7  312.12   22.96
   0  -6   7  315.29   23.34
   0  -6   7  287.16   20.85
   0   6   8   71.97   10.58
   0  -6   8   68.68   11.51
   0  -6   8   67.53   10.05
   0   6   8   61.58    8.75
   0  -6  -8   65.13   11.38
   0   6   9   46.32    8.22
   0   6   9   52.14    9.62
   0  -6   9   42.94    8.82
   0  -6  -9   43.73    9.15
   0  -6   9   52.45    9.49
   0   6  10   59.01   10.56
   0  -6  10   73.37   12.39
   0   6  10   53.46    8.82
   0  -6 -10   57.93   11.14
   0  -6  10   55.08    9.45
   0  -6  11   -1.25    3.46
   0  -6  11   -0.94    3.34
   0   6  11    5.28    6.23
   0  -6 -11    6.62    4.71
   0   6  11    1.14    3.03
   0  -6  11   -0.71    1.45
   0  -6  12 3312.98   79.06
   0  -6  12 3154.98   78.64
   0  -6  12 3105.87   81.85
   0   6  12 3212.22   74.16
   0  -6 -12 3173.16   82.54
   0   6  12 3124.36   79.56
   0  -6  13   -0.77    2.81
   0   6  13   -1.97    2.16
   0  -6  13    2.15    3.83
   0   6  13    2.31    3.39
   0  -6 -13   -1.86    3.26
   0  -6  13   -0.33    2.51
   0   6  14  280.69   24.66
   0  -6 -14  331.86   27.79
   0  -6  14  313.63   26.81
   0  -6  14  277.32   23.94
   0   6  14  307.87   24.61
   0  -6  14  293.93   25.40
   0  -6  15  542.36   35.73
   0   6  15  532.94   34.81
   0  -6  15  524.95   33.12
   0  -6  15  551.83   36.23
   0   6  15  484.11   31.83
   0  -6 -15  529.79   35.84
   0  -6  16   78.71   13.84
   0   6  16   43.42   10.35
   0   6  16   54.00   11.33
   0  -6  16   73.31   13.64
   0  -6 -16   63.76   12.33
   0  -6  16   76.74   13.37
   0  -6  17   83.26   13.97
   0  -6  17   58.02   12.27
   0  -6 -17   52.45   11.79
   0   6  17   91.12   15.04
   0  -6  17   90.70   14.75
   0   6  17   73.52   13.40
   0   6  18  444.26   32.58
   0  -6  18  490.36   36.06
   0  -6 -18  485.16   36.47
   0   6  18  448.68   33.85
   0  -6  18  455.12   34.71
   0  -6  18  444.58   33.84
   0  -6  19  318.00   29.62
   0  -6  19  267.74   26.29
   0   6  19  287.07   27.10
   0   6  19  287.13   27.27
   0  -6 -19  259.64   28.10
   0  -6  20   74.65   14.73
   0  -6  20   67.59   13.33
   0   6  20   61.19   12.97
   0  -6 -20   75.32   15.24
   0   6  20   53.33   11.64
   0   6  21  413.00   34.08
   0  -6 -21  386.32   34.14
   0  -6  21  371.87   33.39
   0   6  21  402.14   33.52
   0  -6  21  352.27   32.31
   0  -6  22  242.18   26.87
   0   6  22  254.09   27.26
   0   6  22  186.22   23.73
   0  -6  22  203.15   25.43
   0  -6  23    5.86    6.03
   0  -6 -23   13.76    5.22
   0   6  23    0.76    4.20
   0   6  23    8.20    1.88
   0  -6  23   13.02    6.42
   0  -6  24   50.36   13.65
   0  -6 -24   61.00   14.93
   0   6  24   26.87    9.76
   0   6  24   49.41   14.12
   0  -6  24   63.87   14.01
   0  -6 -25  144.73   21.60
   0  -6  25  126.93   21.17
   0  -6  25  117.13   19.61
   0   6  25  128.36   20.13
   0   6  25  129.12   20.92
   0  -6 -26  149.66   21.89
   0  -6  26  147.06   22.27
   0   6  26  151.19   23.10
   0   6  26  138.12   21.34
   0  -6  26  175.35   25.24
   0  -6  27    5.88    2.74
   0  -6 -27   -5.02    7.11
   0   6  27   -3.85    3.99
   0   6  27   -1.26    5.86
   0  -6  27   -2.06    5.47
   0  -6 -28   72.87   17.49
   0  -6  28   73.49   16.44
   0   6  28   83.96   17.63
   0   6  28   86.00   18.19
   0  -6  28   91.01   17.29
   0  -6  29    9.14    7.05
   0  -6  29    7.99    4.04
   0   6  29   14.40    8.44
   0  -6 -29   15.00    8.16
   0   6  29    5.54    3.82
   0  -6  30   -3.28    3.31
   0   6  30    5.47    6.82
   0   6  30   -3.97    6.76
   0  -6 -30    9.47    6.31
   0  -6  30    4.03    6.38
   0  -7   0   -2.27    1.41
   0  -7   0   -1.74    1.81
   0  -7   1    5.42    4.59
   0  -7  -1    2.83    4.99
   0  -7   1    0.72    3.43
   0  -7  -1    1.85    2.32
   0  -7  -2    4.21    2.39
   0  -7  -2    3.27    2.49
   0  -7   2   -2.34    3.42
   0  -7   2    0.94    3.22
   0   7   3    1.78    2.26
   0  -7  -3   -1.51    1.73
   0  -7   3    0.25    2.50
   0  -7  -3    0.77    1.40
   0  -7   3   -0.12    2.39
   0  -7  -4   -5.00    3.52
   0  -7   4    0.59    3.76
   0   7   4    0.59    1.10
   0  -7   4    2.74    2.76
   0   7   5    0.04    1.83
   0  -7   5   -1.21    1.45
   0  -7  -5    2.81    3.10
   0  -7   5    1.77    2.32
   0  -7   6    2.16    3.08
   0   7   6   -0.95    1.00
   0  -7  -6    1.53    4.79
   0  -7   6   -2.03    1.93
   0   7   6   -0.99    2.68
   0  -7   7    2.82    2.90
   0  -7  -7    2.60    1.74
   0  -7   7    0.85    2.06
   0   7   7    0.30    2.43
   0   7   7   -1.00    1.93
   0  -7  -8   -1.86    4.23
   0   7   8    1.29    3.10
   0  -7   8    3.27    3.48
   0   7   8   -0.75    1.89
   0  -7   8    2.08    3.07
   0  -7  -9    0.03    2.26
   0   7   9    5.53    4.62
   0  -7   9   -0.05    3.03
   0  -7   9    3.71    4.37
   0   7   9    1.04    3.66
   0  -7  10   -0.86    1.83
   0  -7  10   -0.25    3.98
   0   7  10    0.13    1.50
   0   7  10    0.02    2.85
   0  -7 -10   -0.99    1.62
   0  -7  11    2.75    4.78
   0  -7  11   -2.07    1.34
   0  -7 -11   -1.30    3.29
   0  -7  11    5.51    4.52
   0   7  11   -2.37    3.09
   0   7  11   -0.51    1.71
   0  -7 -12   -0.07    3.31
   0  -7  12    5.94    4.51
   0  -7  12    0.63    1.73
   0   7  12    0.33    2.43
   0   7  12    1.48    1.47
   0  -7  12   -0.32    4.03
   0   7  13    2.32    2.25
   0  -7 -13    7.47    6.99
   0   7  13   -1.51    3.02
   0  -7  13    3.76    2.76
   0  -7  13    4.40    3.86
   0  -7  13    1.71    4.56
   0  -7  14   -2.51    3.47
   0   7  14    2.60    2.94
   0  -7  14   -1.78    3.56
   0  -7  14   -6.32    4.70
   0  -7 -14   -2.61    3.46
   0   7  14   -2.63    3.67
   0   7  15    2.12    5.77
   0  -7  15   11.44    7.29
   0  -7 -15    2.80    4.46
   0   7  15    0.20    3.70
   0  -7  15    0.29    2.51
   0  -7  15    5.23    3.77
   0  -7 -16   -4.29    7.73
   0  -7  16    2.63    3.26
   0  -7  16    5.96    4.60
   0  -7  16   -1.65    3.14
   0   7  16    1.90    4.76
   0   7  16    1.67    2.28
   0  -7 -17   -2.95    4.06
   0  -7  17    0.88    3.15
   0   7  17    0.78    2.64
   0   7  17   -2.42    5.67
   0  -7  17    3.98    4.45
   0  -7  17   -1.07    3.66
   0  -7 -18    0.09    5.73
   0  -7  18   -0.76    1.68
   0   7  18    0.14    2.07
   0  -7  18    0.67    3.04
   0  -7  18    4.67    5.04
   0   7  18    0.12    4.15
   0  -7  19   -1.59    2.63
   0  -7  19    6.20    5.75
   0   7  19   -1.59    4.77
   0  -7 -19    0.27    5.33
   0   7  19    0.47    3.57
   0  -7  19   -3.96    3.43
   0  -7 -20    0.54    1.88
   0   7  20    1.25    2.41
   0  -7  20   -0.12    5.06
   0   7  20    3.31    5.96
   0  -7  20   -4.02    5.81
   0  -7  20    6.91    7.76
   0  -7  21    6.62    6.96
   0   7  21    1.03    3.65
   0  -7 -21   -0.27    4.53
   0   7  21    1.22    5.98
   0  -7  21   -6.14    6.24
   0   7  22   -8.94    7.18
   0  -7 -22   -3.01    3.65
   0  -7  22   -4.17    7.46
   0  -7  22   -6.14    7.84
   0   7  22   -4.62    5.38
   0  -7 -23   -4.20    3.45
   0  -7  23   -2.71    7.53
   0   7  23   -1.37    4.28
   0   7  23    2.88    5.87
   0  -7  23    2.79    4.88
   0  -7  24   -0.19    4.39
   0  -7 -24    2.00    6.47
   0   7  24   -1.15    4.12
   0   7  24   -4.11    8.35
   0  -7  24    0.61    3.30
   0  -7  25    2.74    2.51
   0   7  25    2.65    6.13
   0   7  25   -5.63    4.32
   0  -7  25   -9.61    7.31
   0  -7 -25    2.78    5.84
   0   7  26   -2.46    3.28
   0  -7  26   -2.83    4.39
   0  -7  26    1.44    6.19
   0  -7 -26   -1.14    3.46
   0   7  26   -4.43    7.92
   0  -7  27    2.50    3.82
   0  -7 -27   10.16    7.94
   0  -7  27    3.04    2.45
   0   7  27  -11.20    7.88
   0   7  27   -5.91    5.15
   0  -7  28   -4.32    6.09
   0   7  28   -1.18    5.02
   0   7  28    5.15    5.98
   0  -7  28    7.09    6.40
   0  -7 -28   -5.69    7.93
   0  -7 -29    4.34    6.83
   0  -7  29    0.18    6.89
   0   7  29   11.05    6.33
   0  -7  29   -0.38    6.78
   0   7  29   -1.22    4.91
   0  -8   0  423.96   30.57
   0  -8   0  415.81   28.40
   0  -8   1   23.11    6.27
   0  -8  -1   26.13    7.01
   0  -8   1    6.16    4.05
   0  -8  -1   26.27    7.39
   0  -8  -2   32.94    7.38
   0  -8   2   34.41    9.81
   0  -8   2   37.28    8.61
   0  -8  -2   36.26    9.07
   0  -8   3    4.63    4.12
   0  -8  -3   15.37    6.93
   0  -8   3   16.29    6.90
   0  -8  -3    7.06    5.41
   0  -8  -4  189.85   18.34
   0  -8   4  190.84   19.76
   0  -8  -4  194.85   20.00
   0   8   4  188.01   16.31
   0  -8   4  175.17   17.96
   0  -8  -5   81.75   12.19
   0  -8   5   84.02   12.50
   0  -8   5   59.71   12.05
   0   8   5   59.63    9.46
   0  -8  -5   57.90   11.22
   0   8   6  240.53   19.26
   0  -8   6  229.00   22.40
   0  -8  -6  220.34   21.93
   0  -8   6  213.53   20.35
   0  -8   7 1137.47   50.10
   0  -8  -7 1153.35   49.96
   0  -8   7 1045.24   45.03
   0   8   7 1082.39   40.41
   0  -8   8  454.13   31.21
   0  -8   8  504.03   31.01
   0   8   8  520.49   32.66
   0  -8  -8  449.03   31.62
   0   8   8  440.52   27.05
   0   8   9  200.19   18.40
   0  -8   9  174.61   18.59
   0  -8   9  204.81   21.43
   0   8   9  226.34   21.34
   0  -8  -9  205.61   21.33
   0   8  10  145.42   17.44
   0  -8  10  155.45   17.88
   0   8  10  161.35   17.22
   0  -8 -10  150.08   18.34
   0  -8  10  166.94   19.91
   0  -8  11 1398.59   54.01
   0  -8  11 1337.05   53.45
   0  -8  11 1375.10   58.28
   0   8  11 1404.57   55.49
   0   8  11 1313.31   49.34
   0  -8 -11 1329.90   56.24
   0  -8  12   54.30   11.62
   0   8  12   38.22   10.07
   0  -8 -12   34.11    7.36
   0   8  12   21.99    5.05
   0  -8  12   51.15   11.57
   0  -8  12   28.90    8.04
   0  -8  13  168.02   19.85
   0   8  13  170.12   20.56
   0  -8  13  163.36   20.31
   0  -8  13  138.40   17.83
   0  -8 -13  171.36   20.81
   0   8  13  149.80   17.23
   0  -8  14  199.26   21.45
   0  -8  14  181.61   20.58
   0   8  14  157.60   19.00
   0   8  14  174.13   19.80
   0  -8  14  174.44   22.09
   0  -8 -14  183.30   21.86
   0  -8  15  731.26   43.76
   0   8  15  687.07   39.61
   0  -8 -15  679.79   42.60
   0  -8  15  729.55   42.15
   0   8  15  717.67   42.16
   0  -8  15  780.00   45.51
   0  -8  16    7.45    3.73
   0  -8 -16    3.64    2.22
   0   8  16   -3.04    4.67
   0  -8  16   -4.85    2.06
   0  -8  16    2.09    1.83
   0   8  16    3.22    4.37
   0   8  17  687.91   41.42
   0  -8  17  610.77   41.07
   0  -8  17  670.34   43.41
   0  -8 -17  606.82   41.81
   0   8  17  628.12   40.42
   0   8  18   70.33   15.23
   0  -8  18   72.34   15.64
   0  -8  18   52.52   12.41
   0   8  18   52.71   11.93
   0  -8 -18   64.41   13.67
   0  -8  18   58.97   12.61
   0  -8  19  214.36   25.74
   0   8  19  201.44   24.09
   0  -8  19  190.69   24.28
   0  -8  19  188.24   23.17
   0   8  19  182.42   23.29
   0  -8 -19  178.77   23.91
   0  -8  20   -1.72    5.01
   0  -8 -20    3.96    6.27
   0   8  20    1.09    5.82
   0  -8  20   -2.58    3.13
   0  -8  20    5.87    6.31
   0   8  20    7.52    8.08
   0   8  21  180.87   22.42
   0  -8 -21  138.49   20.66
   0  -8  21  188.34   24.22
   0  -8  21  162.50   23.54
   0  -8  21  227.34   26.77
   0   8  21  205.50   25.55
   0  -8  22    9.22    5.34
   0  -8  22    3.97    5.28
   0   8  22   19.75    8.86
   0   8  22   19.22    9.73
   0  -8 -22    0.67    4.73
   0  -8 -23  117.13   19.33
   0  -8  23  119.73   20.45
   0   8  23  113.02   18.76
   0  -8  23  102.05   18.29
   0   8  23  109.15   19.57
   0  -8 -24   21.46    8.58
   0   8  24   27.89    9.45
   0  -8  24   20.95    8.99
   0  -8  24   33.23   12.37
   0   8  24   27.43    8.34
   0   8  25  203.79   27.15
   0   8  25  228.27   27.01
   0  -8  25  231.53   29.01
   0  -8 -25  225.88   28.31
   0  -8  25  209.91   26.53
   0  -8 -26   -0.88    5.48
   0  -8  26    3.28    5.62
   0   8  26    8.50    7.97
   0   8  26   -4.48    5.89
   0  -8  26   -2.61    4.87
   0   8  27   41.31   12.22
   0  -8  27   33.46    9.85
   0  -8  27   55.45   13.93
   0  -8 -27   62.16   15.27
   0   8  27   44.64   14.62
   0  -8  28   15.68    7.96
   0   8  28   20.24    7.52
   0   8  28    0.36    3.54
   0  -8 -28    9.22    7.90
   0  -8  28   17.70   10.31
   0  -9   0   -1.86    2.32
   0  -9   0   -1.83    4.62
   0  -9   1    0.38    3.35
   0  -9  -1    0.97    4.00
   0  -9  -1    1.00    2.92
   0  -9   1    0.05    4.19
   0  -9   2    2.26    3.46
   0  -9   2    1.73    3.40
   0  -9  -2   -0.17    3.14
   0  -9  -2    3.47    7.14
   0  -9  -3    0.82    1.69
   0  -9  -3   -5.77    6.55
   0  -9   3    0.63    5.48
   0  -9   3    2.88    2.19
   0  -9   4    4.10    4.02
   0  -9  -4    0.10    3.60
   0  -9  -4   -0.94    3.06
   0  -9   4    2.08    3.55
   0  -9  -5    6.12    6.14
   0  -9  -5    4.89    4.22
   0  -9   5    0.61    4.63
   0  -9   5    1.31    2.94
   0   9   5    1.74    1.13
   0  -9   6   -4.65    5.50
   0  -9   6   -0.77    3.89
   0  -9  -6   -3.03    3.86
   0  -9  -6    0.25    3.30
   0   9   6    0.88    2.35
   0   9   7    1.88    2.46
   0  -9   7    2.31    2.53
   0  -9  -7   -1.58    5.39
   0  -9   7   -2.10    3.36
   0   9   8    0.51    3.38
   0  -9   8    4.74    3.44
   0  -9   8   -4.56    4.01
   0  -9  -8   -0.44    1.79
   0  -9  -9    0.29    2.09
   0  -9   9   -2.35    3.79
   0  -9   9    1.59    3.00
   0   9   9   -2.74    4.82
   0  -9  10    5.16    7.14
   0  -9 -10   -2.47    3.67
   0   9  10   -2.03    2.76
   0   9  10    1.65    1.34
   0  -9  10    2.89    2.84
   0  -9 -11   -0.64    1.61
   0  -9  11    2.09    1.91
   0  -9  11   -0.82    3.92
   0   9  11    2.64    2.81
   0  -9  11   -1.74    4.06
   0   9  11    2.19    2.72
   0  -9  12    0.72    2.76
   0   9  12   -2.12    4.78
   0   9  12    2.80    3.44
   0  -9  12    0.46    5.66
   0  -9 -12    1.73    2.49
   0  -9  12   -1.82    2.13
   0  -9  13    0.43    4.85
   0  -9  13    4.41    5.70
   0  -9 -13    3.94    3.34
   0   9  13    0.28    3.82
   0  -9  13    0.19    4.19
   0   9  13    0.60    5.15
   0  -9  14    6.94    4.42
   0  -9  14    8.80    6.70
   0  -9  14    1.34    3.25
   0   9  14   -0.75    3.40
   0   9  14   -0.38    3.61
   0  -9 -14    8.24    6.74
   0   9  15   -1.92    3.46
   0  -9  15   -0.32    3.89
   0  -9  15   -0.11    3.22
   0   9  15    0.97    3.58
   0  -9  15   -1.16    3.43
   0  -9 -15   -1.45    2.59
   0  -9  16   -0.55    3.50
   0  -9  16   -3.56    3.74
   0   9  16   -1.95    5.31
   0   9  16    0.47    4.70
   0  -9  16   -2.42    4.60
   0  -9 -16   -1.06    2.29
   0   9  17    0.12    3.82
   0  -9  17   -1.70    2.16
   0  -9  17    0.46    2.07
   0  -9  17    2.97    6.40
   0   9  17   -0.86    6.05
   0  -9 -17    0.21    2.99
   0  -9  18    1.04    2.23
   0  -9  18   -2.37    4.46
   0   9  18    6.48    5.60
   0  -9 -18    2.08    2.01
   0   9  18   -7.17    6.78
   0  -9  18    4.21    6.17
   0   9  19   -2.48    4.80
   0   9  19   -0.43    3.14
   0  -9  19   -0.78    2.32
   0  -9  19   -2.83    4.07
   0  -9 -19   -6.97    6.14
   0  -9  20    3.66    2.54
   0  -9 -20    2.36    5.36
   0  -9  20    3.42    7.46
   0   9  20   -0.42    3.11
   0  -9  20    3.45    7.36
   0   9  20    6.19    6.47
   0  -9  21    4.28    7.26
   0  -9  21    6.35    2.30
   0  -9 -21    0.79    4.25
   0  -9  21    1.74    4.11
   0   9  21   -1.13    2.46
   0  -9  22   -2.78    4.40
   0   9  22   -8.28    6.18
   0  -9 -22    3.81    4.77
   0  -9  22    5.05    6.62
   0  -9  22    1.02    8.98
   0   9  22   -8.56    5.45
   0  -9  23    5.62    8.14
   0  -9  23   -1.08    6.38
   0  -9 -23    3.15    9.27
   0   9  23   -6.30    7.03
   0   9  24   -0.08    4.14
   0  -9  24   -4.89    7.88
   0  -9 -24   -1.57    3.81
   0  -9  24   -0.95    2.60
   0  -9  25   -9.64    8.19
   0  -9  25    8.94    7.92
   0  -9 -25    4.77    6.66
   0   9  25    7.98    6.78
   0  -9 -26   -0.84    5.73
   0   9  26   -2.41    6.54
   0  -9  26   -6.60    6.98
   0  -9  26   -1.78    6.40
   0   9  27    6.53    5.92
   0  -9  27    3.07    4.77
   0  -9  27    1.05    4.91
   0  -9 -27   -4.40    5.54
   0 -10   0   14.57    7.05
   0 -10   0   37.42    8.95
   0 -10   1   11.07    5.20
   0 -10  -1   19.51    7.54
   0 -10  -1   16.02    5.75
   0 -10   1   13.27    6.67
   0 -10  -2   11.92    5.24
   0 -10  -2   11.71    6.41
   0 -10   2   15.33    6.53
   0 -10   2    1.01    4.65
   0 -10   3    0.42    2.53
   0 -10  -3    4.82    5.69
   0 -10   3    2.56    4.38
   0 -10  -3   -2.34    2.09
   0 -10   4  264.11   26.49
   0 -10  -4  249.09   24.02
   0 -10   4  240.71   23.38
   0 -10   5  249.46   24.02
   0 -10  -5  261.24   25.48
   0 -10   5  234.57   24.84
   0 -10  -5  230.64   23.05
   0 -10  -6  294.39   26.20
   0 -10   6  232.26   23.28
   0  10   6  236.25   20.13
   0 -10  -6  224.40   24.28
   0 -10   6  242.49   25.20
   0  10   7   67.86   11.42
   0 -10  -7   75.16   12.58
   0 -10  -7   70.10   13.99
   0 -10   7   78.00   14.27
   0 -10   7   91.09   14.50
   0 -10   8  672.29   41.74
   0 -10  -8  663.81   42.45
   0  10   8  611.02   35.28
   0 -10  -8  630.30   38.50
   0 -10   8  693.38   40.51
   0 -10   9   45.10   11.66
   0  10   9   61.67   11.67
   0 -10  -9   51.40   13.45
   0 -10   9   58.75   11.76
   0 -10  10    0.70    2.52
   0 -10  10    0.96    1.77
   0 -10 -10    0.32    5.77
   0 -10  11  354.42   29.32
   0 -10  11  306.26   27.40
   0 -10  11  331.21   30.61
   0 -10 -11  323.33   30.11
   0  10  12   76.62   13.24
   0 -10  12   62.99   12.49
   0 -10  12   76.43   14.18
   0 -10 -12   99.58   16.67
   0 -10  12   94.62   17.81
   0 -10  13   46.30   12.39
   0  10  13   50.74   10.12
   0 -10  13   50.52   11.56
   0 -10  13   71.26   14.86
   0 -10 -13   60.54   12.99
   0  10  14  240.07   26.62
   0 -10  14  262.00   26.87
   0 -10  14  303.42   29.22
   0 -10  14  266.36   28.54
   0 -10 -14  288.49   28.90
   0  10  15    5.08    3.91
   0 -10  15    9.28    6.79
   0 -10 -15    5.74    5.74
   0 -10  15   11.25    4.53
   0 -10  15    2.80    3.70
   0 -10  16    0.89    4.58
   0  10  16    1.18    2.69
   0 -10  16   -5.61    6.29
   0 -10  16    0.60    2.20
   0 -10 -16   -0.96    3.93
   0  10  17    7.08    3.10
   0 -10  17    1.30    4.39
   0 -10  17   -4.37    4.27
   0 -10  17   17.09    6.54
   0 -10 -17   17.51    8.38
   0 -10  18  129.39   20.26
   0 -10 -18  152.24   22.31
   0 -10  18  124.71   19.98
   0 -10  18  140.59   20.15
   0  10  18  107.30   17.11
   0 -10  19    5.83    3.90
   0  10  19   19.32    8.20
   0 -10  19    7.73    6.45
   0 -10  19   14.46    8.64
   0 -10 -19    8.52    2.76
   0 -10  20    2.37    4.97
   0 -10  20   16.43    9.83
   0 -10  20   11.39    6.88
   0  10  20    1.93    6.77
   0 -10 -20   20.89   10.72
   0 -10  21   36.74   11.12
   0  10  21   55.12   12.94
   0 -10  21   44.27   11.88
   0 -10 -21   36.21   10.20
   0 -10  21   52.10   13.40
   0 -10  22  250.51   29.44
   0  10  22  341.61   31.97
   0 -10 -22  237.93   28.77
   0 -10  22  228.16   29.58
   0 -10  22  276.87   31.39
   0 -10 -23    2.44    6.41
   0 -10  23   -4.52    8.20
   0 -10  23    0.95    5.35
   0  10  23    6.30    5.44
   0 -10  23   11.54    5.82
   0 -10  24    3.48    6.33
   0  10  24   11.57    4.93
   0 -10 -24   18.47    7.79
   0 -10 -25   81.78   16.77
   0 -10  25   80.46   17.80
   0  10  25   97.10   17.80
   0 -10  25   79.36   17.72
   0 -10  26   43.79   14.02
   0 -10  26   49.25   15.12
   0  10  26   29.15   12.15
   0 -11   0    4.46    5.72
   0 -11   0   -3.73    4.19
   0 -11  -1    5.54    4.73
   0 -11   1   -4.59    5.16
   0 -11  -1    0.99    3.58
   0 -11   1   -4.23    3.27
   0 -11   2    0.99    1.98
   0 -11  -2    5.76    4.80
   0 -11   2    0.30    3.85
   0 -11  -2   -1.24    3.26
   0 -11  -3   -0.84    2.71
   0 -11   3    0.35    2.90
   0 -11  -3    3.04    2.60
   0 -11   3    2.95    4.04
   0 -11   4   -2.21    4.56
   0 -11  -4   -0.90    5.76
   0 -11   4    3.21    4.45
   0 -11  -4    2.98    3.26
   0 -11   5    0.95    1.39
   0 -11  -5    6.88    6.44
   0 -11  -5    4.61    3.44
   0 -11   5    3.45    4.90
   0 -11   6    4.80    7.22
   0 -11  -6   -0.89    3.08
   0 -11   6    7.30    2.14
   0 -11  -6    1.30    2.90
   0 -11  -7   -4.57    4.19
   0 -11   7    2.75    5.36
   0 -11  -7   -2.94    1.53
   0 -11   7   -3.08    4.27
   0 -11   8    1.93    4.48
   0 -11  -8    1.78    3.83
   0 -11  -8    6.01    5.77
   0 -11   8   -1.63    4.34
   0 -11  -9   -2.25    5.51
   0 -11   9   -3.89    5.28
   0 -11  -9   -5.34    8.14
   0 -11   9    4.87    5.73
   0 -11  10   -4.05    5.01
   0 -11 -10    3.41    4.50
   0 -11  10    0.23    2.64
   0 -11  11   -1.89    3.38
   0 -11  11    0.84    3.61
   0 -11 -11   -1.24    2.88
   0 -11  12    4.14    3.48
   0 -11 -12   -4.40    5.29
   0 -11  12    4.51    5.32
   0 -11 -13    5.38    8.27
   0 -11  13   -5.78    4.14
   0 -11  13   -5.72    4.26
   0 -11  14   -0.66    3.95
   0 -11  14    0.34    1.60
   0 -11 -14    2.17    3.72
   0  11  15    1.82    5.30
   0 -11 -15   -2.32    4.80
   0 -11  15   -1.19    3.36
   0 -11  15    2.96    4.45
   0 -11  16    1.59    4.27
   0 -11  16    6.69    6.81
   0 -11 -16    3.60    2.89
   0  11  16   13.46    7.09
   0 -11  17    2.11    2.09
   0 -11  17    0.59    5.15
   0  11  17   -0.55    2.87
   0 -11 -17   11.51    7.05
   0 -11  18   -6.60    4.33
   0 -11  18   -1.74    4.31
   0  11  18   -2.86    5.87
   0 -11 -18   -2.82    4.94
   0 -11  19    2.22    2.35
   0 -11 -19   15.28    8.99
   0  11  19    5.38    7.35
   0 -11  19    5.21    5.24
   0 -11  20   -1.54    6.78
   0  11  20   -6.17    6.66
   0 -11  20  -10.40    6.13
   0 -11 -20   -1.03    5.73
   0 -11  20    8.37    9.30
   0  11  21   -1.57    5.39
   0 -11  21   -0.55    2.54
   0 -11  21    5.85    7.25
   0 -11 -21   -2.91    5.26
   0  11  22    3.83    4.96
   0 -11  22   -6.38    5.06
   0 -11  22    2.39    6.03
   0 -11  22    4.87    6.12
   0 -11 -22    0.37    4.00
   0 -11  23    6.18    5.78
   0 -11  23   -4.14    6.48
   0 -11 -23   -5.26    6.48
   0 -11  23  -11.90    6.81
   0  11  23   -0.42    2.38
   0 -11  24   -1.25    4.02
   0 -11  24  -15.47    7.73
   0 -11 -24   -2.79    4.31
   0  11  24    3.96    5.09
   0 -11  24    4.30    8.83
   0 -12   0  180.47   22.99
   0 -12   0  168.00   22.15
   0 -12  -1    9.07    6.20
   0 -12  -1   -3.64    5.73
   0 -12   1   -2.46    2.47
   0 -12   1    3.71    2.57
   0 -12  -2    1.42    3.33
   0 -12   2    3.04    4.25
   0 -12  -2    1.26    5.63
   0 -12   2    0.44    4.69
   0 -12  -3  142.91   20.40
   0 -12   3  118.96   18.35
   0 -12   3  156.71   21.28
   0 -12  -3  102.89   17.56
   0 -12  -4   14.54    7.17
   0 -12   4    1.48    2.30
   0 -12  -4    6.59    7.24
   0 -12   4    1.38    2.26
   0 -12   5  104.44   17.26
   0 -12  -5  114.82   18.30
   0 -12   5  120.40   17.95
   0 -12  -5   99.19   17.52
   0 -12   6    7.12    5.03
   0 -12  -6    5.40    2.94
   0 -12  -6    4.01    3.16
   0 -12   6    8.52    5.04
   0 -12  -7   35.05   10.34
   0 -12   7   33.77    9.65
   0 -12   7   21.49    7.93
   0 -12  -7   47.01   10.37
   0 -12  -8   32.87    9.45
   0 -12   8   24.36    9.78
   0 -12  -8   27.48    8.28
   0 -12   8   18.06    8.34
   0 -12   9   27.10    8.88
   0 -12  -9   15.19    5.36
   0 -12   9    4.08    4.39
   0 -12  -9   25.24    8.84
   0 -12 -10  272.11   27.62
   0 -12 -10  292.80   30.58
   0 -12  10  317.32   30.78
   0 -12  10  340.06   31.05
   0 -12  11  143.06   21.19
   0 -12 -11  129.23   19.29
   0 -12  11  127.13   18.60
   0 -12 -11  135.48   21.57
   0 -12  12   44.81   11.74
   0 -12  12   43.92   11.39
   0 -12 -12   31.29   11.79
   0 -12 -12   45.25   11.72
   0 -12  13   -0.02    2.88
   0 -12 -13    1.02    3.16
   0 -12  13    1.52    5.47
   0 -12  14   19.04    7.65
   0 -12 -14   22.20   10.69
   0 -12  14    9.50    5.83
   0 -12 -15    0.08    5.55
   0 -12  15   -2.88    6.28
   0 -12  15    3.37    3.18
   0 -12 -16    6.61    6.41
   0 -12  16   -3.45    2.20
   0 -12  16    5.19    4.52
   0 -12  17    4.52    7.98
   0 -12  17    2.17    4.43
   0 -12 -17    2.56    4.01
   0 -12  18    8.11    2.18
   0 -12 -18   15.50    6.68
   0  12  18   12.40    7.69
   0 -12  18   23.05    8.51
   0 -12 -19   -1.48    3.19
   0 -12  19   10.00    7.33
   0  12  19   -0.45    4.59
   0 -12  19    0.16    3.13
   0  12  20    4.79    4.87
   0 -12 -20   26.13    9.51
   0 -12  20   17.37    6.85
   0 -12  20    9.72    7.39
   0 -12  21   40.01   11.29
   0  12  21   28.83   11.65
   0 -12  21   23.12   10.20
   0 -12 -21   51.76   14.31
   0 -12  22    8.89    6.16
   0  12  22   12.44    8.65
   0 -12 -22    4.75    6.02
   0 -12  22   28.52   11.26
   0 -13   0    2.03    2.20
   0 -13   0    3.50    5.22
   0 -13  -1   10.15    8.66
   0 -13   1    1.76    3.47
   0 -13   1   -2.64    3.79
   0 -13  -1    2.98    4.59
   0 -13   2   -4.44    6.40
   0 -13  -2    3.20    6.28
   0 -13  -2   -3.50    3.59
   0 -13   2   -1.34    3.68
   0 -13   3   -2.99    4.37
   0 -13  -3    7.02    5.64
   0 -13  -3   -0.84    4.90
   0 -13   3   -1.25    2.71
   0 -13   4    0.45    5.46
   0 -13  -4   -3.98    5.46
   0 -13  -4   -1.94    5.26
   0 -13   4    5.49    5.80
   0 -13  -5    5.05    5.95
   0 -13   5   -4.33    5.52
   0 -13   5   -4.26    8.05
   0 -13  -5    2.15    6.32
   0 -13   6   -1.65    2.77
   0 -13   6   10.85    6.76
   0 -13  -6   -2.91    4.33
   0 -13  -6    6.85    7.46
   0 -13  -7    5.51    7.69
   0 -13  -7   -8.14    6.75
   0 -13   7    3.17    6.97
   0 -13   7   -0.09    2.95
   0 -13   8    8.59    6.91
   0 -13   8    5.67    8.26
   0 -13  -8    4.38    7.02
   0 -13  -8    1.85    4.09
   0 -13   9    4.06    6.35
   0 -13   9    2.93    3.99
   0 -13  -9   -2.97    4.48
   0 -13  -9    0.26    6.77
   0 -13 -10   -4.05    6.81
   0 -13  10    1.58    2.89
   0 -13 -10    0.94    3.41
   0 -13  11    9.41    9.14
   0 -13  11    4.77    5.55
   0 -13 -11   -4.18    3.71
   0 -13 -11   -1.12    5.07
   0 -13 -12   -1.00    3.35
   0 -13  12   -4.03    3.39
   0 -13 -12   -5.13    4.28
   0 -13  12   -0.91    2.28
   0 -13  13    0.95    5.69
   0 -13  13    4.76    5.67
   0 -13 -13   -4.53    6.16
   0 -13 -13    3.35    2.96
   0 -13 -14   -4.43    2.46
   0 -13  14   -1.08    2.83
   0 -13 -14   -3.70    2.92
   0 -13  14   -0.55    2.55
   0 -13  15    5.38    6.43
   0 -13  15    5.17    5.04
   0 -13 -15   13.00    7.54
   0 -13 -15   -2.90    3.94
   0 -13  16    0.72    3.78
   0 -13  16   -1.08    5.47
   0 -13 -16   -4.87    2.61
   0 -13  17    0.87    3.59
   0 -13  17   -0.65    5.74
   0 -13 -17   -1.27    3.37
   0 -13  18    4.25    5.97
   0 -13  18   22.81   12.59
   0 -13 -18    4.02    5.82
   0 -13 -19   -2.66    6.27
   0 -13  19    0.71    3.19
   0 -13  19   -0.48    5.20
   0 -13 -20   -2.93    6.55
   0 -13  20   -5.00    6.26
   0 -13  20   -0.54    3.68
   0 -14   0   28.28    9.29
   0 -14   0   23.79    9.61
   0 -14  -1   56.38   13.38
   0 -14   1   66.79   15.07
   0 -14  -1   57.30   14.17
   0 -14   1   50.39   12.25
   0 -14   2    4.19    6.99
   0 -14   2    1.29    3.86
   0 -14  -2    3.05    6.10
   0 -14  -2    1.88    3.84
   0 -14  -3    7.49    7.46
   0 -14   3   13.46    6.07
   0 -14  -3    5.83    3.21
   0 -14   3   15.47    8.84
   0 -14  -4   33.28   11.56
   0 -14  -4    8.59    7.45
   0 -14   4   23.95    9.09
   0 -14   4   47.74   14.03
   0 -14   5    3.00    5.92
   0 -14  -5    1.42    5.06
   0 -14  -5    2.63    3.04
   0 -14   5    4.05    5.59
   0 -14   6   40.85   10.69
   0 -14  -6   45.54   13.05
   0 -14  -6   21.16   10.07
   0 -14   6   40.32   12.53
   0 -14  -7  125.02   20.52
   0 -14   7  143.17   21.20
   0 -14   7  149.85   21.51
   0 -14  -7  110.77   19.99
   0 -14  -8   69.41   15.98
   0 -14   8   81.60   16.28
   0 -14   8   77.09   16.34
   0 -14  -8   92.25   19.28
   0 -14  -9    1.23    3.12
   0 -14  -9   -0.44    3.89
   0 -14   9   10.08    7.37
   0 -14   9    4.04    3.81
   0 -14 -10   80.21   15.52
   0 -14  10  106.67   19.37
   0 -14 -10   77.63   16.50
   0 -14  10   64.78   13.76
   0 -14 -11   15.56    9.97
   0 -14 -11    4.34    3.76
   0 -14  11    2.48    2.92
   0 -14  11    8.42    5.78
   0 -14  12   21.19    9.96
   0 -14  12   38.15   10.97
   0 -14 -12   25.77    9.89
   0 -14 -12   41.23   12.89
   0 -14  13   70.76   15.92
   0 -14 -13   69.94   14.49
   0 -14 -13   75.06   15.84
   0 -14  13   87.73   19.02
   0 -14  14   58.10   15.34
   0 -14 -14   49.36   12.93
   0 -14  14   55.75   14.51
   0 -14 -14   63.02   14.27
   0 -14 -15    2.79    5.82
   0 -14  15   -2.09    2.76
   0 -14  15   -7.00    3.48
   0 -14 -15   -1.25    4.82
   0 -14 -16   11.36    7.06
   0 -14 -16    3.06    5.41
   0 -14  16    3.84    6.50
   0 -14  16   16.13    9.45
   0 -14 -17   -1.98    5.73
   0 -14  17    9.41    8.70
   0 -14 -17    7.08    2.87
   0 -14  17    6.73    7.86
   0 -15   0    3.64    6.45
   0 -15   0   -7.60    7.93
   0 -15   1    1.92    2.36
   0 -15   1   -1.25    2.66
   0 -15   2   -3.22    5.80
   0 -15  -2   -0.47    4.36
   0 -15   2   -4.57    6.30
   0 -15  -2   -2.93    3.38
   0 -15   3   -8.96    9.19
   0 -15   3    1.39    2.86
   0 -15  -3   -4.55    6.60
   0 -15  -3    6.20    4.95
   0 -15  -4    7.35    6.45
   0 -15   4    8.81    7.94
   0 -15   4   -4.15    4.96
   0 -15  -4   -5.81    7.35
   0 -15  -5    1.08    5.51
   0 -15  -5   -2.72    4.14
   0 -15   5    0.99    7.98
   0 -15   5    3.06    6.34
   0 -15  -6    3.71    5.24
   0 -15  -6   -7.08    7.17
   0 -15   6   -3.33    5.65
   0 -15   6   -6.04    7.95
   0 -15  -7    6.77    8.89
   0 -15  -7    5.79    6.87
   0 -15   7   -0.35    4.19
   0 -15   7   -1.66    3.86
   0 -15   8   -1.78    2.42
   0 -15  -8    0.25    3.57
   0 -15  -8   -9.18    6.92
   0 -15   8   -8.36    7.38
   0 -15   9    4.86    7.51
   0 -15  -9   -8.00    3.97
   0 -15  -9    6.76    6.86
   0 -15   9   -0.35    3.06
   0 -15 -10   -5.59    4.72
   0 -15  10    4.83    8.84
   0 -15  10   -3.38    5.90
   0 -15 -10    7.55    7.45
   0 -15  11    5.23    4.84
   0 -15 -11   -7.31    7.48
   0 -15 -11   -0.17    2.71
   0 -15  11    9.15    6.59
   0 -15  12    4.48    6.96
   0 -15  12  -11.15    5.64
   0 -15 -12   -0.59    6.79
   0 -15 -12    5.85    7.19
   0 -15 -13   -3.52    3.43
   0 -15  13    0.74    4.42
   0 -15  13   -7.60    6.20
   0 -15 -13   -0.03    4.52
   0 -15  14    6.94    6.82
   0 -15 -14   -5.42    4.70
   0 -15 -14    3.95    4.91
   0 -16   0  141.25   23.61
   0 -16   0  138.96   22.59
   0 -16  -1   -1.91    5.87
   0 -16   1    3.08    5.56
   0 -16  -1    0.38    5.45
   0 -16   1   -2.25    5.21
   0 -16   2    8.15    6.46
   0 -16   2   20.60    9.78
   0 -16  -2   11.02    3.64
   0 -16  -2   19.86    8.51
   0 -16  -3    2.19    3.68
   0 -16  -3   12.16    7.22
   0 -16   3   19.25   10.85
   0 -16   3   24.51   10.66
   0 -16  -4  242.45   29.81
   0 -16   4  264.28   31.50
   0 -16   4  232.94   29.06
   0 -16  -4  234.61   30.04
   0 -16   5    5.76    6.69
   0 -16  -5    3.09    6.80
   0 -16   5    1.97    5.33
   0 -16  -5    1.46    5.15
   0 -16  -6    4.75    5.19
   0 -16   6   -2.59    2.99
   0 -16  -6   -1.88    2.94
   0 -16   7   27.02    9.87
   0 -16   7   16.49    9.61
   0 -16  -7   35.20   12.75
   0 -16  -7    8.64    3.84
   0 -16   8   10.44    3.70
   0 -16   8   16.23    6.13
   0 -16  -8   40.49   13.10
   0 -16  -8   31.89   11.25
  -1   0   0   -0.73    0.47
   1   0   1    0.22    0.35
  -1   0   1    0.81    0.36
  -1   0   2 2543.69   24.42
  -1   0   2 2571.97   31.62
  -1   0   3   -0.48    0.55
   1   0   3   -0.25    1.44
  -1   0   3   -0.60    0.40
   1   0   4 1676.49   30.64
  -1   0   4 1681.49   32.07
  -1   0   4 1768.67   29.05
  -1   0   5    0.75    1.05
  -1   0   5   -0.64    0.96
   1   0   5    0.51    2.05
  -1   0   6 3026.36   46.74
   1   0   6 3046.15   50.37
  -1   0   6 3063.02   50.75
  -1   0   7    2.42    1.90
  -1   0   7    0.28    2.39
   1   0   7    0.69    0.93
   1   0   7   -1.30    2.32
   1   0   8 3029.07   56.86
  -1   0   8 3179.51   55.26
  -1   0   8 3175.81   59.01
   1   0   8 3107.47   58.52
  -1   0   9   -0.25    2.18
   1   0   9    0.62    1.57
   1   0   9    0.29    1.30
  -1   0   9   -2.05    1.65
   1   0  10    8.22    2.73
   1   0  10   -0.26    2.73
  -1   0  10    3.49    2.39
   1   0  11   -1.37    2.32
  -1   0  11    1.66    3.07
  -1   0  11    2.36    2.58
   1   0  11    1.00    2.11
   1   0  12 1727.21   51.38
  -1   0  12 1648.10   51.31
  -1   0  12 1632.29   48.89
   1   0  12 1712.31   51.02
  -1   0  13    0.28    1.04
   1   0  13   -2.05    3.12
  -1   0  13    1.10    1.54
   1   0  13    0.70    2.55
   1   0  14  684.47   35.67
   1   0  14  692.98   35.32
  -1   0  14  713.98   36.03
  -1   0  14  724.18   35.11
  -1   0  15    0.68    1.28
   1   0  15   -2.09    2.40
  -1   0  15    0.88    3.10
   1   0  15   -2.37    3.84
   1   0  16 2065.32   66.64
  -1   0  16 2053.34   64.91
  -1   0  16 2031.90   64.05
   1   0  16 1982.03   62.43
   1   0  17    2.58    4.70
   1   0  17    2.88    3.54
  -1   0  17   -0.59    4.03
  -1   0  17    2.03    2.60
   1   0  18    0.16    2.46
  -1   0  18    0.10    2.63
   1   0  18    4.17    3.45
  -1   0  18    5.53    5.27
   1   0  19    4.08    3.97
  -1   0  19   -3.08    3.73
  -1   0  19   -5.64    2.96
   1   0  19   -0.63    2.92
   1   0  20   92.28   14.46
  -1   0  20   82.70   14.84
  -1   0  20   78.74   13.49
   1   0  20  104.14   16.72
  -1   0  21   -2.78    3.68
   1   0  21    1.84    4.37
  -1   0  21    5.29    5.28
   1   0  21    2.55    5.86
   1   0  22   52.51   11.40
   1   0  22   52.39   11.78
  -1   0  22   62.30   12.96
  -1   0  22   45.33   12.09
   1   0  23    0.06    1.82
  -1   0  23    1.87    4.63
   1   0  23    0.36    3.43
  -1   0  23   -0.68    4.29
  -1   0  24  311.69   30.62
  -1   0  24  317.84   31.54
   1   0  24  317.84   31.10
   1   0  24  332.27   31.64
   1   0  25   -2.71    7.51
  -1   0  25    1.15    5.66
   1   0  25   -4.45    7.86
  -1   0  25    2.59    6.05
   1   0  26  376.04   34.26
  -1   0  26  377.86   35.11
   1   0  26  418.96   37.66
  -1   0  26  436.28   36.49
  -1   0  27   -1.95    6.10
   1   0  27    1.21    4.20
   1   0  27    4.44    4.06
  -1   0  27    1.71    2.98
  -1   0  28   -1.63    4.07
   1   0  28    3.33    4.24
  -1   0  28    6.15    6.37
   1   0  28    5.22    7.19
  -1   0  29   -5.85    3.11
  -1   0  29   -1.58    5.47
   1   0  29   -5.44    6.30
   1   0  29    7.07    5.85
  -1   0  30   27.68   13.56
   1   0  30   29.49   10.64
  -1   0  30   23.25    9.44
   1   0  30   38.92   11.69
  -1   0  31    2.77    5.68
   1   0  31   -3.46    3.81
  -1   0  31   -1.59    2.14
   1   0  31   -4.76    5.13
  -1   0  32    0.38    3.91
   1   0  32    7.45    6.78
   1   0  32   -4.39    8.13
  -1   0  32   17.07    7.32
  -1  -1   0   -1.08    0.83
  -1   1   0   -0.18    0.94
   1  -1   0   -0.62    0.57
   1  -1   0   -0.10    0.22
  -1  -1  -1  931.94   17.03
   1  -1  -1  904.50   16.48
  -1  -1   1  903.32   18.47
   1  -1   1  916.49   19.17
  -1   1   1  951.66   20.56
  -1  -1   1  913.30   14.29
   1  -1   1  947.38   15.16
  -1  -1   2 2726.22   30.61
  -1   1   2 2847.50   34.08
  -1  -1   2 2798.19   35.40
   1  -1   2 2780.69   28.89
  -1   1   2 2843.55   36.88
   1  -1   2 2897.21   36.46
   1   1   2 2676.95   30.63
  -1  -1   3  497.25   15.22
   1  -1   3  460.84   15.93
  -1   1   3  478.96   15.32
   1   1   3  435.16   14.26
  -1   1   3  497.74   16.60
   1  -1   3  465.99   13.54
  -1  -1   3  510.22   16.70
  -1  -1   3  486.16   12.28
   1   1   4  154.27    8.89
   1   1   4  149.31    9.29
  -1  -1   4  145.60    9.73
   1  -1   4  151.54    8.75
  -1  -1   4  152.43    8.26
  -1   1   4  162.55    9.70
   1  -1   4  156.82    9.92
  -1  -1   4  157.99    9.67
  -1   1   4  143.91    9.71
   1   1   5  608.63   19.48
   1  -1   5  657.73   22.11
  -1   1   5  603.70   21.70
  -1  -1   5  609.29   18.70
   1   1   5  647.44   21.43
  -1  -1   5  613.06   20.93
  -1  -1   5  574.47   20.91
   1  -1   5  560.15   19.00
  -1   1   5  608.47   20.63
  -1  -1   6  146.44   11.19
   1   1   6  134.00    9.77
  -1   1   6  132.45   10.23
   1  -1   6  148.62   11.13
  -1  -1   6  130.80    9.68
  -1   1   6  138.21   10.97
  -1  -1   6  136.78   11.01
   1   1   6  135.38   10.71
  -1  -1   7  339.30   16.98
  -1   1   7  345.33   18.43
   1  -1   7  317.50   18.04
   1   1   7  345.27   18.06
   1   1   7  376.88   18.47
  -1   1   7  376.17   18.45
  -1  -1   7  353.40   18.71
  -1  -1   8  367.35   20.15
  -1   1   8  335.08   18.49
   1   1   8  372.70   19.44
  -1   1   8  394.22   20.80
   1   1   8  367.63   19.77
  -1  -1   8  398.82   19.92
   1  -1   8  379.37   20.25
   1  -1   9   87.50   10.19
   1  -1   9   85.06   10.16
   1   1   9   96.44   10.50
  -1  -1   9  113.73   10.94
   1   1   9  104.64   10.81
  -1   1   9   79.12    9.37
  -1   1   9   68.06    9.26
  -1  -1   9   93.10   10.61
   1  -1  10   22.49    5.88
   1   1  10   23.39    5.87
  -1   1  10   23.53    5.45
  -1  -1  10   39.81    7.24
   1   1  10   25.58    5.78
  -1   1  10   17.28    5.06
   1  -1  10   23.46    5.28
  -1  -1  10   17.70    4.85
   1  -1  11  269.27   19.95
  -1   1  11  276.87   19.59
   1  -1  11  303.51   21.09
   1   1  11  257.67   19.24
  -1  -1  11  242.86   17.99
  -1  -1  11  272.58   20.15
  -1   1  11  249.81   19.26
   1   1  11  291.96   20.13
   1  -1  12   51.91    8.71
   1  -1  12   31.45    6.72
   1   1  12   35.42    7.75
  -1  -1  12   36.09    7.39
   1   1  12   29.48    6.05
  -1   1  12   33.16    6.44
  -1  -1  12   32.76    6.73
  -1   1  12   30.29    6.61
   1   1  13  573.45   30.97
   1  -1  13  630.61   32.86
   1   1  13  621.36   32.58
  -1  -1  13  604.33   30.65
   1  -1  13  564.10   32.01
  -1   1  13  678.74   33.78
  -1  -1  13  577.54   31.79
  -1   1  13  602.58   31.40
   1   1  14   82.02   12.39
  -1   1  14   84.89   12.15
   1  -1  14   61.70   10.97
  -1  -1  14   64.49   10.30
  -1   1  14   79.16   12.12
  -1  -1  14   58.05    9.57
   1   1  14   63.37   11.17
   1  -1  14   65.56   10.78
  -1   1  15   60.97   10.73
  -1   1  15   79.51   11.67
   1  -1  15   82.97   12.43
   1   1  15   82.93   12.91
  -1  -1  15   84.30   11.97
   1  -1  15   61.95   11.03
   1   1  15   78.23   12.31
  -1  -1  15   79.14   12.05
   1  -1  16  151.30   17.98
   1   1  16  184.19   19.50
  -1   1  16  154.21   17.82
  -1  -1  16  163.25   17.42
  -1   1  16  156.04   17.34
   1  -1  16  165.89   17.94
   1   1  16  153.58   17.73
  -1  -1  16  141.85   17.00
   1   1  17  866.15   43.19
  -1  -1  17  862.11   43.69
  -1   1  17  779.56   41.03
   1   1  17  790.85   41.77
   1  -1  17  866.24   42.93
   1  -1  17  796.92   41.83
  -1  -1  17  753.65   38.80
  -1   1  17  836.88   42.16
  -1   1  18    5.30    2.34
   1   1  18    3.08    2.21
  -1   1  18    7.84    4.85
   1  -1  18    1.91    2.01
   1  -1  18    6.40    5.05
  -1  -1  18   -0.92    1.59
   1   1  18    8.49    4.91
  -1  -1  18   -1.00    1.27
  -1  -1  19    6.47    4.41
  -1  -1  19   22.59    6.69
   1  -1  19   10.70    3.32
   1   1  19   19.19    7.72
   1   1  19    9.34    6.17
  -1   1  19    4.63    2.23
   1  -1  19   15.50    7.11
  -1   1  19   14.15    7.09
   1  -1  20  506.32   34.87
   1   1  20  473.44   35.20
  -1  -1  20  464.03   35.05
  -1   1  20  460.94   34.09
   1  -1  20  477.11   36.43
  -1   1  20  524.52   35.99
  -1  -1  20  494.81   34.81
   1   1  20  471.44   35.02
  -1  -1  21    1.69    6.21
  -1   1  21    4.63    6.38
  -1   1  21   -0.82    2.98
   1   1  21   -0.20    3.74
   1  -1  21    5.37    5.96
  -1  -1  21    6.79    6.27
   1  -1  21    3.12    5.38
   1   1  21    3.09    4.93
   1  -1  22   89.40   15.28
  -1   1  22  104.15   16.44
  -1   1  22  107.26   16.67
   1   1  22  132.21   19.26
  -1  -1  22  106.16   16.78
  -1  -1  22   86.24   15.51
   1   1  22   88.92   15.84
   1  -1  22   71.84   14.37
  -1   1  23   86.08   14.95
   1   1  23  108.46   17.02
  -1  -1  23  105.19   17.90
   1  -1  23   91.38   17.12
   1  -1  23  122.73   18.47
  -1  -1  23   94.14   16.59
   1   1  23   92.65   16.97
  -1   1  23   69.18   14.49
  -1   1  24   -0.42    3.82
   1  -1  24   -4.13    4.15
   1   1  24    9.43    8.91
  -1  -1  24    2.21    4.50
  -1   1  24   -0.18    3.99
   1   1  24    0.87    2.66
  -1  -1  24   -2.41    3.38
   1  -1  24   -0.04    2.18
   1  -1  25   69.02   13.93
  -1  -1  25   94.85   17.54
   1   1  25   80.25   14.32
  -1  -1  25   63.06   15.61
   1  -1  25   71.24   15.28
  -1   1  25   83.84   17.83
  -1   1  25   85.84   16.20
   1   1  25   68.32   14.53
  -1   1  26   87.49   16.49
   1  -1  26   86.82   16.31
   1  -1  26   85.78   16.12
  -1  -1  26   75.93   15.30
   1   1  26   83.52   16.76
  -1   1  26   70.93   14.75
   1   1  26   54.45   13.95
  -1  -1  26   62.34   13.20
   1  -1  27   -1.53    5.42
  -1  -1  27   -3.07    4.69
  -1   1  27   -2.05    3.41
   1  -1  27    0.77    5.42
   1   1  27    3.77    2.79
  -1  -1  27   -0.20    4.63
   1   1  27   -3.08    3.49
  -1   1  27    5.23    6.53
  -1  -1  28    8.27    5.00
   1  -1  28   -2.71    4.79
  -1   1  28    2.66    3.41
   1   1  28   -3.39    5.29
   1   1  28   -1.61    4.98
  -1   1  28   -3.13    5.18
   1  -1  28    0.05    5.40
  -1  -1  28    0.58    4.59
   1  -1  29   -1.41    4.51
   1   1  29    6.80    4.40
  -1  -1  29   -4.49    3.45
  -1   1  29   -2.64    3.36
   1   1  29   -2.13    5.80
   1  -1  29    2.85    2.73
  -1  -1  29    3.84    3.94
  -1   1  29    1.83    2.46
   1   1  30   -1.11    3.86
  -1  -1  30    1.67    3.49
   1   1  30    4.03    4.54
   1  -1  30   -1.22    2.58
   1  -1  30   -1.59    6.99
  -1  -1  30   -8.81    8.65
  -1   1  30   -7.60    2.68
  -1   1  30    1.80    1.87
  -1   1  31   15.97    8.19
   1  -1  31    9.45    8.03
   1   1  31   -0.57    2.64
   1   1  31    2.27    4.28
  -1   1  31    7.48    3.04
  -1  -1  31   -1.38    3.19
   1  -1  31    6.11    6.73
  -1  -1  31    5.77    5.62
   1  -1  32    7.58    6.74
  -1  -1  32   22.97    8.40
   1  -1  32   30.37   10.13
  -1  -1  32   29.17   13.08
  -1   1  32   19.69   10.16
   1   1  32   28.38   10.58
   1   1  32   21.63    9.09
  -1   1  32   31.53    9.63
   1  -2   0   -0.84    1.30
  -1  -2   0   -2.02    1.75
   1  -2   0    0.51    1.51
  -1   2   0    1.57    1.47
   1  -2   1  112.52    7.66
  -1  -2   1  121.42    6.53
  -1   2   1  117.37    8.65
   1  -2   1  120.46    8.73
   1  -2  -1  133.15    8.29
   1   2   1  116.82    6.69
  -1  -2   1  121.07    8.74
  -1  -2  -1  112.15    8.24
   1  -2  -1  119.16    8.31
  -1   2   2  411.10   16.06
  -1  -2   2  418.28   11.94
   1   2   2  449.58   14.43
   1  -2   2  396.67   16.11
  -1  -2  -2  443.21   16.23
  -1   2   2  404.67   16.22
  -1  -2   2  433.13   17.00
   1  -2   2  442.64   15.46
  -1  -2   2  419.13   12.21
   1  -2  -3 8005.22   74.10
   1  -2   3 7933.41   74.83
   1  -2   3 7832.39   68.40
   1   2   3 8007.41   51.67
   1   2   3 8246.63   67.64
  -1  -2   3 7758.00   61.77
  -1   2   3 7983.58   73.00
  -1  -2   3 8017.32   76.13
  -1  -2  -3 8015.82   72.30
  -1  -2   3 8039.70   57.93
  -1   2   3 8051.22   71.82
   1   2   4  322.41   14.73
  -1   2   4  323.04   15.39
  -1  -2   4  306.78   13.92
  -1  -2   4  324.57   12.97
  -1  -2   4  334.82   16.30
   1  -2   4  295.62   15.07
  -1   2   4  335.48   15.74
   1   2   4  351.30   12.58
   1  -2   4  325.15   14.85
  -1  -2  -4  330.10   15.64
  -1  -2   5 7250.28   80.35
  -1  -2   5 6980.36   73.42
  -1  -2  -5 6747.39   75.10
   1  -2   5 6951.19   76.86
   1   2   5 7081.64   75.04
  -1  -2   5 6883.41   65.65
  -1   2   5 7175.61   76.67
  -1   2   5 6969.88   75.76
   1  -2   5 7115.27   74.39
   1   2   5 6469.23   63.82
   1  -2   6 1000.98   29.48
  -1   2   6  924.70   29.32
   1  -2   6  972.50   30.80
   1   2   6  938.40   28.96
  -1  -2   6 1000.75   30.03
  -1   2   6  967.27   30.06
  -1  -2   6  979.15   31.03
   1   2   6 1057.18   28.03
   1  -2   7  348.51   19.01
   1  -2   7  373.53   18.96
  -1  -2   7  307.65   18.35
   1   2   7  335.65   18.77
  -1  -2   7  328.71   16.91
  -1   2   7  358.83   19.56
  -1   2   7  339.94   18.77
   1   2   7  376.54   18.31
  -1  -2   7  370.36   19.51
   1  -2   8   67.68    9.19
   1   2   8   81.48    9.60
  -1  -2   8   80.91    8.72
  -1  -2   8   85.77   10.24
   1   2   8  103.34   10.41
  -1   2   8   94.86   10.28
  -1   2   8   94.25   10.36
   1  -2   8   86.01    9.63
  -1  -2   8  101.55   11.05
  -1   2   9  496.70   24.88
  -1  -2   9  554.54   26.72
  -1   2   9  545.87   25.76
   1  -2   9  540.97   25.70
   1  -2   9  500.94   24.65
  -1  -2   9  520.98   23.92
   1   2   9  546.78   26.16
  -1  -2   9  559.54   26.97
   1   2   9  584.69   26.00
   1   2  10 2480.21   59.23
   1   2  10 2617.74   57.98
  -1   2  10 2468.71   57.95
  -1  -2  10 2367.48   58.40
  -1   2  10 2694.21   60.81
  -1  -2  10 2545.30   56.12
   1  -2  11  173.23   16.00
  -1  -2  11  178.97   16.03
  -1   2  11  174.90   16.07
   1   2  11  184.15   16.17
   1  -2  11  161.84   15.38
  -1   2  11  181.00   16.24
  -1  -2  11  152.62   14.51
   1   2  11  177.43   16.30
  -1  -2  12   50.56    9.28
  -1   2  12   40.93    8.08
   1   2  12   38.58    7.78
  -1   2  12   55.69    9.45
   1  -2  12   42.22    8.01
   1  -2  12   23.94    5.60
  -1  -2  12   36.24    7.87
   1   2  12   42.55    8.30
   1   2  13  543.27   30.25
  -1  -2  13  672.16   34.64
   1   2  13  662.31   33.86
  -1   2  13  634.28   32.45
   1  -2  13  673.14   34.89
   1  -2  13  652.93   33.37
  -1  -2  13  643.75   32.48
  -1   2  13  596.88   32.00
   1  -2  14   84.66   12.26
   1  -2  14   63.72   10.93
  -1   2  14   77.51   12.32
  -1  -2  14   75.52   11.92
   1   2  14   81.24   12.63
  -1  -2  14   57.80   10.27
   1   2  14   67.93   10.70
  -1   2  14   64.23   10.58
   1  -2  15  513.00   32.09
  -1   2  15  516.71   30.99
   1  -2  15  495.60   31.27
  -1   2  15  499.79   30.99
   1   2  15  514.92   31.52
   1   2  15  499.29   31.65
  -1  -2  15  485.76   31.62
  -1  -2  15  462.02   29.86
   1  -2  16  147.17   17.31
   1  -2  16  157.73   18.09
  -1  -2  16  146.51   17.55
  -1   2  16  156.46   17.72
  -1   2  16  123.34   16.00
  -1  -2  16  155.03   17.57
   1   2  16  153.25   18.07
   1   2  16  136.53   16.85
  -1  -2  17   59.38   11.23
  -1  -2  17   74.01   13.66
   1   2  17   75.94   14.15
  -1   2  17   95.49   14.51
  -1   2  17   72.29   12.73
   1   2  17   77.68   12.45
   1  -2  17  107.93   15.32
   1  -2  17   90.20   14.88
  -1  -2  18   11.36    6.47
  -1   2  18    9.02    3.52
  -1   2  18    8.17    4.41
   1   2  18   13.86    6.38
   1   2  18   14.25    5.35
  -1  -2  18   13.52    6.19
   1  -2  18   13.30    5.94
   1  -2  18    5.46    6.37
  -1  -2  19  106.75   15.44
   1  -2  19   77.18   14.77
  -1   2  19   55.59   11.33
  -1  -2  19   85.10   14.08
  -1   2  19   89.40   14.80
   1  -2  19   75.49   13.07
   1   2  19   77.52   14.12
   1   2  19   91.70   15.10
   1   2  20 1059.14   51.49
  -1   2  20  974.95   49.72
  -1   2  20 1037.31   50.16
   1   2  20 1039.21   51.67
   1  -2  20 1103.12   53.75
   1  -2  20  996.15   50.61
  -1  -2  20 1002.90   51.39
  -1  -2  20  945.53   47.87
   1   2  21   69.33   13.85
   1  -2  21   79.46   15.00
  -1   2  21   81.44   14.11
   1  -2  21   65.37   12.16
   1   2  21   96.36   15.59
  -1  -2  21   57.17   11.49
  -1   2  21   79.76   13.96
  -1  -2  21  101.97   15.57
  -1  -2  22   50.91   11.30
   1   2  22   41.40    9.61
   1   2  22   25.04    8.19
  -1   2  22   34.44   10.04
   1  -2  22   57.96   13.02
  -1  -2  22   34.64   10.69
   1  -2  22   32.81    9.86
  -1   2  22   54.03   13.52
  -1  -2  23   96.85   16.71
   1  -2  23  109.50   18.11
  -1   2  23  111.97   17.71
  -1   2  23   67.97   13.62
   1   2  23   70.58   14.05
  -1  -2  23   80.90   14.91
   1   2  23  108.30   16.98
   1  -2  23   98.99   16.59
  -1  -2  24   33.18   10.81
   1   2  24   28.72    8.15
  -1  -2  24   25.10    7.96
   1   2  24   11.18    6.55
  -1   2  24   37.92   10.39
   1  -2  24   33.33    9.73
   1  -2  24   28.18    9.51
  -1   2  24   42.52   11.47
  -1  -2  25   27.76    9.11
  -1  -2  25    8.20    6.88
  -1   2  25   10.38    5.79
   1  -2  25    6.81    5.12
   1   2  25    8.55    5.91
  -1   2  25   16.47    9.40
   1   2  25    0.79    4.95
   1  -2  25   14.96    5.47
  -1  -2  26   60.01   13.24
   1   2  26   54.96   12.42
   1  -2  26   21.03    7.58
  -1   2  26   47.24   12.34
  -1  -2  26   64.36   16.12
   1  -2  26   50.22   11.74
   1   2  26   51.62   11.98
  -1   2  26   40.96   11.57
   1   2  27  143.57   20.60
   1  -2  27  105.19   18.98
  -1   2  27  129.73   21.13
   1  -2  27   89.27   17.97
   1   2  27  114.79   19.92
  -1  -2  27   94.65   17.70
  -1   2  27   92.28   17.94
  -1  -2  27  148.53   21.93
   1   2  28    0.97    4.27
  -1   2  28   -6.71    6.75
   1   2  28    0.08    7.07
   1  -2  28   19.02   10.07
  -1  -2  28    8.21    6.77
  -1   2  28   15.36    7.45
  -1  -2  28    9.51    9.05
   1  -2  28   10.26    7.56
   1   2  29    1.35    3.14
  -1   2  29   12.53    7.83
  -1  -2  29    7.07    5.48
   1  -2  29   -2.21    4.28
  -1   2  29   12.12    7.38
  -1  -2  29   -2.52    8.05
   1   2  29   -1.29    3.81
   1  -2  29    8.89    5.08
   1  -2  30   75.32   16.71
   1   2  30   61.55   15.49
   1   2  30   56.99   14.17
  -1   2  30   79.05   17.57
  -1   2  30   47.21   12.40
  -1  -2  30   49.83   12.41
   1  -2  30   71.34   16.12
  -1  -2  30   59.15   16.44
   1   2  31   42.24   12.58
   1  -2  31   52.91   13.53
  -1   2  31   20.32    8.94
   1   2  31   23.26    9.56
   1  -2  31   29.94   10.05
  -1  -2  31   31.77    9.77
  -1  -2  31    9.90    2.80
  -1   2  31   29.72    9.11
   1  -2  32   -0.56    6.15
  -1   2  32    0.18    3.27
  -1  -2  32   -0.32    4.34
   1   2  32    2.23    3.82
  -1   2  32   -0.66    4.31
   1   2  32    7.50    4.68
  -1  -2  32   -2.42    3.12
   1  -2  32   -3.88    5.44
  -1  -3   0    2.94    3.20
   1  -3   0   -0.12    2.63
  -1  -3   0   -1.88    0.77
  -1   3   0    2.34    1.98
   1  -3   0    1.56    1.11
   1  -3   1 1846.44   38.55
   1  -3  -1 1822.64   37.60
  -1  -3   1 1852.81   21.74
  -1   3   1 1821.00   37.37
   1   3   1 1755.44   32.62
  -1  -3   1 1832.76   40.24
  -1  -3  -1 1794.15   39.25
   1  -3   1 1773.42   39.62
  -1  -3   1 1790.25   32.22
   1  -3  -1 1780.94   37.66
  -1   3   2  374.84   16.77
  -1  -3  -2  380.96   17.89
   1  -3   2  366.76   18.19
  -1  -3   2  366.58   18.32
  -1  -3   2  394.54   12.39
  -1  -3   2  390.39   15.23
   1   3   2  377.79   15.86
   1  -3   2  364.74   17.10
   1  -3  -2  388.29   17.69
   1  -3   3 2461.67   46.92
   1   3   3 2565.99   43.48
   1   3   3 2405.79   27.91
   1  -3  -3 2610.77   47.46
  -1  -3   3 2476.04   49.08
  -1  -3  -3 2492.28   47.45
  -1   3   3 2512.10   45.07
  -1  -3   3 2532.00   36.66
  -1  -3   3 2445.21   39.09
  -1   3   3 2543.88   47.00
   1  -3   3 2423.52   45.70
   1  -3  -4  255.81   15.58
  -1   3   4  246.34   14.23
   1   3   4  281.80   15.22
  -1  -3   4  272.48   13.42
  -1  -3   4  295.56   13.97
   1  -3   4  256.13   15.29
  -1  -3  -4  267.76   16.01
   1  -3   4  287.87   16.70
  -1   3   4  266.24   15.63
   1   3   4  283.07   11.06
  -1  -3   4  281.99   16.85
  -1  -3   5  809.22   24.77
  -1   3   5  753.26   27.76
   1  -3   5  745.26   27.16
  -1   3   5  774.27   26.38
  -1  -3   5  797.67   24.94
   1  -3   5  818.82   27.89
   1   3   5  746.73   25.93
   1  -3  -5  768.97   28.63
  -1  -3   5  817.64   29.99
   1   3   6  423.52   20.79
   1  -3   6  469.21   22.27
  -1   3   6  489.83   23.27
  -1   3   6  468.16   21.51
  -1  -3   6  465.35   23.53
   1   3   6  456.21   17.88
  -1  -3   6  482.63   20.96
   1  -3   6  494.01   22.74
  -1  -3  -6  446.81   22.16
   1  -3  -6  512.37   24.29
  -1  -3   6  505.61   20.73
   1   3   7   78.95    9.46
  -1  -3   7   65.25    8.36
  -1  -3  -7   84.24   10.06
  -1  -3   7   79.21    9.17
  -1   3   7   63.36    8.35
   1   3   7   64.51    7.42
   1  -3   7   54.09    7.68
   1  -3   7   71.61    9.06
  -1   3   7   70.67    9.34
  -1  -3   7   90.85   10.60
   1   3   8 2659.54   56.83
   1   3   8 2558.23   50.20
  -1  -3   8 2793.95   53.37
  -1   3   8 2514.54   55.96
   1  -3   8 2605.37   57.17
  -1   3   8 2522.93   54.04
  -1  -3   8 2533.81   55.21
  -1  -3   8 2646.30   59.32
   1  -3   8 2651.83   57.46
  -1  -3   9  235.67   18.22
   1   3   9  246.76   16.78
  -1   3   9  290.69   19.90
   1   3   9  218.08   16.77
  -1  -3   9  240.88   17.69
   1  -3   9  251.06   18.19
  -1   3   9  236.73   17.63
   1  -3   9  258.58   18.62
  -1  -3   9  256.57   17.15
  -1  -3  10  555.80   26.67
  -1   3  10  635.40   30.24
   1   3  10  640.75   28.07
   1  -3  10  619.52   29.94
   1  -3  10  605.76   29.81
  -1   3  10  621.53   29.82
   1   3  10  633.11   30.18
  -1  -3  10  638.57   30.45
  -1  -3  10  584.27   29.85
  -1   3  11   74.20   11.01
  -1  -3  11   61.83   10.81
   1   3  11   59.49    9.58
   1  -3  11   61.58    9.79
  -1   3  11   80.05   11.78
  -1  -3  11   70.83    9.95
   1   3  11   71.78   10.16
   1  -3  11   66.32    9.79
  -1  -3  11   65.48   10.32
   1  -3  12  135.49   14.43
   1  -3  12  120.88   14.29
   1   3  12  120.46   13.64
   1  -3  12  145.62   15.41
  -1  -3  12  124.80   13.61
  -1  -3  12  117.14   14.41
  -1  -3  12  144.87   15.81
   1   3  12  125.76   13.53
  -1   3  12  131.28   15.03
  -1   3  12  148.03   15.93
   1   3  13    6.99    3.60
   1   3  13    9.78    3.91
   1  -3  13    4.63    1.68
  -1   3  13   -0.22    1.15
   1  -3  13    6.28    3.68
  -1  -3  13    9.78    4.89
  -1   3  13    1.44    2.87
  -1  -3  13   10.30    4.45
  -1  -3  14   93.68   13.56
   1   3  14  101.17   12.81
  -1  -3  14   92.28   13.00
   1  -3  14  104.33   13.93
   1   3  14   79.55   12.04
  -1   3  14   88.39   12.51
  -1   3  14  117.56   14.76
   1  -3  14   85.41   13.21
  -1  -3  15    3.19    3.27
   1   3  15   -3.96    4.51
   1  -3  15    6.40    4.71
   1   3  15    0.24    2.64
  -1   3  15    1.74    2.73
   1  -3  15   -0.23    2.25
  -1  -3  15    2.86    4.05
  -1   3  15    0.32    1.91
  -1  -3  16   -0.79    2.95
   1   3  16    0.61    2.19
  -1   3  16    1.71    3.00
  -1   3  16    0.57    2.96
   1   3  16   -1.89    1.98
   1  -3  16   -0.15    1.65
  -1  -3  16    0.65    1.99
   1  -3  16   -3.82    3.51
  -1  -3  17   50.28   11.19
  -1  -3  17   49.73   10.02
  -1   3  17   65.70   11.33
   1   3  17   39.92    9.20
   1   3  17   43.70    9.45
  -1   3  17   45.92   10.25
   1  -3  17   54.20   10.60
   1  -3  17   53.20   10.99
   1  -3  18   47.26   10.08
  -1   3  18   43.89   10.81
  -1  -3  18   43.56    9.21
   1  -3  18   63.58   11.88
   1   3  18   49.84   10.44
   1   3  18   63.18   11.63
  -1  -3  18   37.07   10.51
  -1   3  18   57.99   11.79
   1  -3  19  649.27   40.73
   1   3  19  704.10   41.40
  -1   3  19  594.31   38.72
  -1  -3  19  589.09   38.30
  -1   3  19  575.76   38.20
  -1  -3  19  628.01   38.88
   1   3  19  617.79   38.61
   1  -3  19  646.42   40.33
   1   3  20   88.16   14.59
   1  -3  20  124.41   18.28
   1  -3  20  122.09   17.35
  -1  -3  20  102.41   16.19
   1   3  20   76.32   14.30
  -1   3  20   90.71   14.95
  -1  -3  20  115.16   17.66
  -1   3  20   87.51   15.49
  -1  -3  21  174.56   21.24
   1  -3  21  140.39   19.43
   1   3  21  137.79   19.29
  -1   3  21  123.82   18.67
   1  -3  21  169.90   21.96
  -1  -3  21  137.55   19.52
   1   3  21  169.46   21.09
  -1   3  21  145.38   19.84
   1   3  22   39.39    9.74
   1   3  22    9.78    3.23
  -1  -3  22   26.20   10.23
  -1   3  22   22.39    9.22
  -1   3  22   33.62   10.72
   1  -3  22   26.41    8.61
   1  -3  22   14.15    5.67
  -1  -3  22   24.10    8.89
   1   3  23   49.41   11.91
  -1  -3  23   64.66   13.53
   1  -3  23   55.35   12.96
  -1   3  23   55.67   13.03
  -1  -3  23   62.05   14.29
  -1   3  23   65.17   13.65
   1   3  23   52.16   11.65
   1  -3  23   56.58   12.65
   1  -3  24    2.23    6.10
   1   3  24    2.53    2.21
   1   3  24   -9.61    6.91
  -1   3  24    0.78    6.46
  -1   3  24   -0.34    3.22
  -1  -3  24    5.69    5.55
  -1  -3  24   -2.45    3.69
   1  -3  24   -1.66    4.26
   1   3  25   43.03   11.96
  -1   3  25   48.03   11.94
   1  -3  25   39.23   12.38
  -1   3  25   46.21   12.84
   1  -3  25   53.58   12.48
   1   3  25   31.57   10.79
  -1  -3  25   37.12   11.85
  -1  -3  25   32.37    8.79
   1  -3  26   36.41   10.68
   1  -3  26    9.47    6.20
  -1   3  26   20.60    9.46
   1   3  26   12.40    4.37
  -1  -3  26   14.01    6.06
   1   3  26   17.31    7.71
  -1  -3  26   16.56    6.78
  -1   3  26    7.81    5.81
   1  -3  27    7.27    6.24
  -1  -3  27    3.65    5.77
  -1   3  27    7.88    8.65
   1  -3  27   -3.53    6.97
  -1   3  27    5.21    5.68
   1   3  27    7.71    7.17
  -1  -3  27    2.31    2.71
   1   3  27   -1.74    4.13
  -1   3  28    4.25    4.66
  -1   3  28    8.69    8.44
   1  -3  28   -7.17    8.61
  -1  -3  28    7.58    5.81
  -1  -3  28    6.30    5.88
   1   3  28    5.40    5.54
   1  -3  28    5.00    7.52
   1   3  28    2.94    4.82
   1  -3  29   10.45    6.96
  -1  -3  29   -0.28    4.11
  -1   3  29  -12.03    9.56
  -1  -3  29    1.61    5.59
   1   3  29   13.58    9.01
  -1   3  29   -1.10    4.38
   1  -3  29    1.36    3.07
   1   3  29    3.05    5.02
   1   3  30    2.45    4.83
   1  -3  30    9.08    7.98
   1   3  30    9.19    4.39
  -1  -3  30    5.08    6.70
  -1  -3  30    5.13    2.73
   1  -3  30   13.96    8.04
  -1   3  30   11.79    9.83
  -1   3  30    9.07    4.23
   1   3  31   36.62   11.69
  -1  -3  31   40.01   14.52
   1  -3  31   19.40    9.56
   1  -3  31   26.25   10.66
  -1   3  31   47.41   13.13
  -1  -3  31   27.82   10.82
   1   3  31   23.64    8.79
  -1   3  31   19.63    8.08
  -1   3  32   16.03    8.64
   1  -3  32   10.25    7.59
   1  -3  32    7.02    7.26
   1   3  32   13.42    9.80
   1   3  32   -3.49    9.14
  -1  -3  32   -5.94    5.46
  -1  -3  32    2.98    3.50
  -1   3  32    3.02    4.72
   1  -4   0   -0.27    1.90
  -1  -4   0    0.23    2.51
  -1   4   0   -0.39    1.40
  -1  -4   0   -0.41    1.63
   1  -4   0    4.49    2.51
  -1   4   1   10.78    2.74
  -1  -4   1    8.02    3.15
  -1  -4   1   10.17    2.22
   1  -4   1    7.14    2.28
   1  -4  -1   15.71    4.03
   1  -4   1    9.38    3.37
   1  -4  -1   16.05    4.00
  -1  -4  -1   15.04    4.26
   1  -4  -2 2026.50   46.51
   1  -4   2 2003.26   46.06
  -1  -4   2 2007.50   48.49
   1  -4   2 2001.09   47.16
  -1  -4  -2 1903.65   46.54
   1   4   2 1914.52   40.60
  -1  -4   2 1986.02   40.98
   1   4   2 1959.56   24.40
   1  -4  -2 1942.80   44.78
  -1   4   2 1973.41   42.36
  -1  -4   3   36.14    6.75
   1   4   3   37.15    3.67
   1  -4   3   26.99    5.30
  -1  -4  -3   34.02    6.26
   1   4   3   30.47    5.66
  -1   4   3   33.67    5.69
  -1  -4   3   31.54    5.30
   1  -4  -3   26.39    5.49
   1  -4   3   22.15    4.74
  -1  -4   3   28.25    3.99
   1   4   4  698.59   18.64
  -1  -4  -4  672.16   28.09
   1   4   4  661.56   25.37
   1  -4  -4  728.65   28.66
   1  -4   4  689.81   28.08
  -1  -4   4  710.20   22.79
  -1  -4   4  678.95   24.83
  -1   4   4  715.06   26.85
  -1  -4   4  676.88   28.89
  -1   4   4  708.26   27.78
   1  -4   4  693.65   27.86
   1   4   5  899.54   22.74
   1  -4   5  926.69   33.10
  -1  -4  -5  922.63   33.13
   1  -4  -5  908.12   33.73
  -1  -4   5  862.45   27.28
  -1   4   5  918.02   32.38
  -1  -4   5  891.84   28.50
  -1   4   5  876.15   29.59
   1  -4   5  931.27   33.25
  -1  -4   5  906.31   33.55
   1   4   5  857.14   30.17
   1   4   6  480.94   19.08
  -1   4   6  459.63   23.66
  -1  -4   6  471.04   21.48
   1  -4   6  467.81   24.10
   1  -4   6  493.96   24.70
   1  -4  -6  467.87   24.78
  -1   4   6  460.36   22.20
  -1  -4   6  498.45   22.05
   1   4   6  424.26   22.03
  -1  -4  -6  431.32   23.44
  -1  -4   6  415.38   23.70
  -1  -4   7 1019.96   38.63
   1  -4   7 1063.36   37.02
   1  -4   7  961.71   36.11
  -1  -4   7 1003.15   33.26
   1   4   7 1033.78   29.81
  -1   4   7 1041.43   37.23
   1   4   7  980.11   34.48
  -1   4   7 1035.48   34.83
   1  -4  -7 1115.66   39.21
  -1  -4   7 1048.85   33.49
   1   4   8 1961.58   50.92
  -1  -4   8 1779.65   46.87
   1   4   8 1764.48   41.64
   1  -4  -8 1818.69   52.45
  -1  -4   8 1824.57   53.19
  -1   4   8 1822.73   48.33
  -1  -4  -8 1788.90   50.93
  -1  -4   8 1841.29   46.70
   1  -4   8 1809.20   49.51
   1  -4   8 1802.10   50.63
  -1   4   8 1745.82   49.73
  -1  -4   9 1639.80   47.05
   1   4   9 1565.65   42.12
   1  -4   9 1646.63   49.01
  -1  -4  -9 1591.05   49.83
  -1  -4   9 1584.44   45.06
  -1   4   9 1503.62   45.30
  -1  -4   9 1617.14   50.81
   1  -4   9 1574.11   48.76
  -1   4   9 1620.91   49.37
   1   4   9 1643.05   48.00
   1  -4  -9 1575.52   49.99
  -1   4  10  479.38   27.17
  -1  -4 -10  475.87   28.08
  -1  -4  10  407.13   24.16
  -1   4  10  501.37   26.55
   1   4  10  445.55   23.95
   1   4  10  465.67   26.66
  -1  -4  10  530.32   29.80
   1  -4  10  442.71   26.23
  -1  -4  10  493.48   27.02
   1  -4  10  515.73   28.20
  -1  -4  11    4.86    1.79
   1  -4  11   12.62    3.25
   1   4  11    4.17    2.79
  -1   4  11    7.47    4.31
   1   4  11    6.74    2.39
   1  -4  11    5.00    2.42
  -1  -4  11    4.39    3.14
  -1  -4  11    3.71    3.14
  -1   4  11    0.71    1.84
  -1  -4 -11    6.80    4.83
   1  -4  12   72.45   11.31
   1  -4  12   69.98   11.14
  -1   4  12   74.27   11.58
  -1  -4  12   76.28   10.32
   1   4  12   85.09   11.52
  -1  -4  12   91.18   12.71
  -1  -4 -12   70.56   11.87
  -1  -4  12   91.54   12.35
  -1   4  12   84.38   12.02
   1   4  12   72.71   11.46
  -1  -4  13   88.65   13.67
   1  -4  13   73.12   11.66
   1  -4  13   80.83   12.96
  -1  -4  13   82.13   12.94
  -1   4  13   80.01   11.55
  -1   4  13   72.93   11.97
   1   4  13   67.30   10.99
  -1  -4  13   55.10    9.65
   1  -4  13   91.20   13.10
   1   4  13   71.63   10.56
  -1  -4  14  450.33   30.45
  -1   4  14  373.60   27.09
   1   4  14  430.54   27.63
   1  -4  14  483.37   31.04
   1  -4  14  362.51   26.98
  -1  -4  14  464.51   31.15
  -1  -4  14  384.92   26.50
   1   4  14  406.62   28.19
   1  -4  14  422.95   28.52
  -1   4  14  395.00   27.69
  -1   4  15   47.56   10.52
  -1  -4  15   28.28    8.02
   1   4  15   27.97    7.61
  -1  -4  15   39.88    9.16
   1  -4  15   23.64    7.81
   1   4  15   51.03   10.37
   1  -4  15   41.54   10.34
  -1   4  15   44.76   10.13
  -1  -4  16   25.03    7.39
   1   4  16   26.47    5.90
  -1   4  16   37.14    9.16
   1  -4  16   47.52   10.12
  -1  -4  16   44.27   11.07
   1   4  16   31.45    7.63
   1  -4  16   29.01    8.83
  -1   4  16   28.93    9.05
  -1  -4  17  304.14   27.42
   1  -4  17  316.08   26.35
  -1  -4  17  261.13   24.94
   1   4  17  325.44   26.78
   1   4  17  284.24   25.30
  -1   4  17  334.75   27.42
   1  -4  17  361.11   29.71
  -1   4  17  277.45   25.42
   1  -4  18  204.85   21.56
   1  -4  18  202.23   22.42
  -1  -4  18  170.81   21.55
   1   4  18  211.71   22.52
  -1   4  18  225.83   24.05
   1   4  18  172.77   19.67
  -1  -4  18  223.83   24.15
  -1   4  18  182.62   20.53
   1   4  19  120.49   17.60
   1  -4  19  111.91   16.50
  -1  -4  19  110.79   16.79
  -1   4  19   92.18   15.12
   1  -4  19  124.76   17.61
  -1   4  19  126.76   17.69
   1   4  19  118.76   16.32
  -1  -4  19  132.39   18.53
  -1   4  20    1.94    2.96
  -1  -4  20    5.87    6.47
  -1   4  20    3.65    6.20
   1  -4  20    1.46    4.37
  -1  -4  20    3.10    3.41
   1  -4  20    2.29    4.02
   1   4  20    1.87    4.78
   1   4  20    8.12    6.49
   1   4  21   83.85   14.65
  -1  -4  21   65.23   13.32
   1   4  21   75.00   13.79
  -1   4  21   80.47   14.97
   1  -4  21   81.38   14.54
   1  -4  21   92.27   17.36
  -1   4  21   92.46   15.52
  -1  -4  21   76.75   14.43
  -1   4  22   46.97    9.90
  -1  -4  22   46.33   11.32
   1   4  22   33.02    9.91
  -1  -4  22   35.25    9.46
   1  -4  22   39.30   10.59
  -1   4  22   27.95    8.37
   1   4  22   52.49   12.06
   1  -4  22   32.64    9.72
   1   4  23  226.04   24.91
   1   4  23  265.99   27.50
   1  -4  23  270.79   29.22
  -1   4  23  228.88   26.31
  -1  -4  23  284.07   29.39
  -1  -4  23  255.29   27.07
  -1   4  23  241.00   26.33
   1  -4  23  204.62   24.66
  -1   4  24   -0.36    2.17
  -1  -4  24   11.67    5.93
  -1  -4  24    0.93    5.73
   1   4  24   -3.90    6.87
  -1   4  24    4.58    4.44
   1  -4  24   11.37    4.81
   1  -4  24    1.42    3.42
   1   4  24   -1.45    2.41
  -1  -4  25   -2.97    5.67
   1   4  25   -3.24    3.81
  -1   4  25    0.16    3.76
   1  -4  25   -0.35    2.88
  -1   4  25    3.75    6.01
  -1  -4  25   -5.84    8.05
   1  -4  25   -0.02    4.55
   1   4  25    0.32    2.73
  -1  -4  26   19.05    9.81
   1  -4  26   23.97    7.47
   1   4  26   19.52    5.43
  -1   4  26   12.32    7.25
  -1  -4  26   27.38   10.09
   1   4  26   18.48    6.30
   1  -4  26   22.84    7.57
  -1   4  26   28.93    8.77
   1   4  27   40.31   10.05
   1  -4  27   32.38   10.92
  -1   4  27   11.93    3.97
  -1  -4  27   34.15   10.21
   1  -4  27   36.17   10.84
  -1  -4  27   25.50    8.17
  -1   4  27   20.69    7.38
   1   4  27   32.33    9.99
   1   4  28   -5.90    6.23
   1  -4  28   -1.15    2.52
  -1  -4  28   -4.87    4.70
   1   4  28    1.14    4.92
   1  -4  28    4.96    3.92
  -1   4  28   -1.31    5.30
  -1   4  28    6.05    6.43
  -1  -4  28   -7.82    4.78
  -1  -4  29   -0.22    3.50
   1  -4  29    2.51    6.85
   1   4  29   18.17    7.95
   1   4  29    1.04    3.49
  -1   4  29    2.13    4.40
   1  -4  29    4.75    6.12
  -1  -4  29    0.19    5.75
  -1   4  29    0.73    4.49
   1  -4  30   36.12   11.14
   1   4  30   39.38   12.03
  -1  -4  30   25.22   10.89
   1   4  30   20.82   10.19
  -1   4  30   38.02   12.12
  -1   4  30   14.85    4.86
  -1  -4  30   24.54   11.08
   1  -4  30    3.06    3.38
   1   4  31   19.74    8.38
  -1  -4  31   17.55    9.53
  -1   4  31    9.68    5.69
  -1  -4  31   20.69    6.68
   1  -4  31   27.25    8.80
   1   4  31   16.87    6.95
  -1   4  31   30.31    9.43
   1  -4  31   21.27    8.90
  -1  -5   0    2.17    2.83
   1  -5   0   -0.53    2.45
  -1  -5   0    3.61    1.10
   1  -5   0   -0.68    1.73
  -1  -5   1  661.96   30.42
   1  -5   1  694.05   30.40
  -1  -5   1  654.73   26.20
  -1  -5  -1  726.00   26.90
  -1   5   1  624.33   26.03
   1  -5  -1  730.58   30.95
   1  -5  -1  673.05   29.09
  -1  -5  -1  661.65   30.11
   1  -5   1  694.77   30.38
   1  -5  -2   13.32    4.36
  -1  -5  -2    9.27    3.52
  -1  -5   2    5.51    2.75
   1  -5  -2   13.43    5.34
   1   5   2    6.03    1.58
  -1   5   2    6.06    2.53
   1  -5   2    4.42    1.60
  -1  -5   2    7.20    2.87
   1  -5   2    5.75    3.73
   1   5   3   24.18    3.45
  -1  -5  -3   33.04    6.41
   1  -5   3   28.21    5.98
   1  -5  -3   37.08    7.28
   1   5   3   34.96    6.52
  -1   5   3   16.73    4.04
  -1  -5   3   28.19    6.66
   1  -5   3   20.29    5.65
  -1  -5   3   19.85    5.39
  -1  -5   4   76.34   10.76
   1  -5   4   91.33   11.10
   1   5   4   76.24    9.32
   1   5   4   89.65    7.03
  -1  -5  -4   61.90    9.93
   1  -5  -4   98.90   11.40
  -1  -5   4   87.07    9.47
   1  -5   4   67.54    9.53
  -1   5   4   67.17    8.52
  -1  -5   5   66.17    9.96
   1  -5  -5  109.40   12.14
   1   5   5   71.97    9.31
  -1  -5  -5   74.54   10.41
   1  -5   5   90.76   11.14
  -1   5   5   74.61    9.19
  -1  -5   5   72.98    9.24
  -1  -5   5   82.11    8.82
   1  -5   5   66.80   10.00
   1   5   5   73.75    6.93
  -1   5   5   53.83    9.05
   1   5   6   63.98    8.73
  -1  -5  -6   73.50   10.58
   1  -5   6   60.65    9.38
   1  -5  -6   87.29   11.55
  -1  -5   6   62.10    8.25
  -1   5   6   80.04   10.64
  -1  -5   6   73.35    9.64
  -1   5   6   72.10    9.12
   1  -5   6   66.93    9.97
   1   5   6   72.80    7.38
  -1  -5   6   78.82   10.62
   1  -5   7    2.96    2.04
  -1  -5   7   -1.22    2.00
  -1   5   7   -1.00    1.24
   1   5   7    0.62    0.75
  -1  -5   7    3.13    3.65
   1  -5  -7   -0.28    3.33
  -1  -5   7    2.47    1.50
   1  -5   7    0.80    1.96
   1   5   7    1.87    2.24
  -1   5   7   -1.06    1.61
  -1  -5  -7   -1.08    3.44
  -1   5   8  697.62   33.21
  -1  -5   8  673.10   29.63
   1  -5   8  614.98   30.39
   1   5   8  628.21   30.78
  -1  -5   8  673.27   30.01
  -1  -5  -8  685.86   33.43
   1   5   8  647.82   25.63
  -1   5   8  667.80   29.88
  -1  -5   8  663.23   33.57
   1  -5   8  690.70   33.23
   1   5   9 1049.90   40.64
   1  -5   9 1020.02   40.10
  -1  -5   9 1072.56   39.75
  -1  -5   9 1066.05   38.78
  -1   5   9 1121.28   42.73
  -1   5   9 1141.34   40.95
   1  -5   9 1032.76   41.88
  -1  -5   9 1076.49   44.11
   1   5   9 1053.06   35.41
   1  -5  -9 1095.76   43.30
   1  -5  10    1.40    3.21
  -1  -5  10    0.57    2.11
  -1  -5 -10    3.15    1.86
  -1   5  10    0.90    2.11
   1  -5  10    3.07    2.08
   1   5  10    0.49    1.24
  -1  -5  10    5.99    3.94
  -1  -5  10    2.32    2.35
   1  -5 -10   -2.25    3.95
  -1   5  10   -3.04    3.09
   1   5  10    1.94    4.08
  -1   5  11  131.01   14.93
   1  -5  11  111.54   14.18
  -1  -5  11  132.54   15.60
   1   5  11  107.24   12.71
  -1   5  11  131.35   15.62
   1  -5 -11  118.55   15.94
   1   5  11  106.42   13.62
  -1  -5  11  134.26   15.03
   1  -5  11  140.35   15.89
  -1  -5 -11  120.91   15.35
  -1  -5  11  132.22   14.58
  -1  -5  12    4.57    3.77
   1   5  12    0.47    1.61
   1  -5 -12    1.76    4.36
  -1   5  12    2.44    1.69
  -1  -5 -12    4.62    5.31
   1  -5  12    2.11    3.54
  -1  -5  12   -1.76    1.57
   1   5  12    1.15    2.73
  -1  -5  12    0.78    2.44
   1  -5  12    1.59    3.56
  -1   5  12    6.83    3.92
  -1   5  13   47.52    9.09
   1  -5  13   48.98    9.86
  -1   5  13   56.00   11.49
   1  -5 -13   65.99   11.45
   1   5  13   51.77    9.11
  -1  -5  13   47.56    9.95
  -1  -5 -13   32.28   10.10
   1   5  13   53.10    9.64
  -1  -5  13   68.37   11.74
   1  -5  13   58.53   11.05
   1  -5  14  149.50   18.60
  -1  -5 -14  215.81   21.64
  -1   5  14  183.02   19.29
   1   5  14  191.43   18.51
  -1   5  14  157.89   17.97
   1   5  14  184.41   19.25
  -1  -5  14  161.37   18.50
   1  -5  14  201.90   20.55
  -1  -5  14  160.94   19.26
   1  -5  14  129.79   16.56
  -1  -5  14  204.74   19.43
  -1  -5  15  113.05   15.94
   1  -5  15  124.01   17.50
  -1  -5 -15  120.58   16.52
   1  -5  15  108.98   15.56
  -1  -5  15   62.88   12.08
   1   5  15  100.13   14.71
   1  -5  15   90.67   14.06
   1   5  15   99.68   13.82
  -1   5  15   80.90   13.25
  -1   5  15  102.88   15.47
  -1  -5  15   88.28   14.21
   1   5  16   84.35   13.77
  -1   5  16   81.60   13.85
  -1   5  16   72.28   13.18
   1   5  16   67.79   12.52
  -1  -5  16   79.91   12.85
  -1  -5  16   56.10   12.03
  -1  -5  16   97.95   15.34
   1  -5  16   74.77   12.68
   1  -5  16   59.27   11.48
   1  -5  16   82.85   13.43
  -1  -5 -16   66.07   12.88
   1  -5  17   43.16   10.30
   1   5  17   39.41   10.87
   1  -5  17   42.41    9.70
   1   5  17   42.52   10.34
  -1  -5  17   45.31   10.63
  -1   5  17   45.51   10.38
  -1  -5 -17   50.12   10.25
  -1   5  17   36.06    9.51
  -1  -5  17   47.62   10.87
  -1  -5 -18    3.34    7.36
  -1   5  18    0.43    3.77
  -1   5  18    5.65    5.95
  -1  -5  18    2.57    4.21
   1  -5  18    2.28    3.14
   1  -5  18   -1.96    3.27
   1   5  18   -0.62    2.90
   1   5  18   -0.04    2.96
  -1  -5  18   -1.19    3.01
  -1   5  19   34.19    9.02
  -1  -5  19   40.99   11.16
  -1  -5  19   40.78    9.62
  -1   5  19   72.95   13.79
   1   5  19   31.76    9.12
   1  -5  19   43.44   10.49
   1  -5  19   27.85   10.08
   1   5  19   23.85    7.62
  -1  -5  20   73.02   14.21
   1  -5  20   82.11   14.76
   1   5  20   76.08   15.59
   1  -5  20   90.50   15.40
  -1   5  20   66.40   13.58
  -1  -5  20   95.78   16.62
   1   5  20   97.02   15.51
  -1   5  20   87.74   14.70
  -1  -5  21   36.94   10.36
  -1  -5  21   47.50   11.38
   1  -5  21   50.64   11.20
   1   5  21   67.40   13.23
  -1   5  21   37.39   10.24
   1   5  21   59.19   12.35
   1  -5  21   75.43   14.05
  -1   5  21   35.76    8.67
  -1   5  22   10.18    6.26
  -1   5  22   21.90    7.72
   1  -5  22   23.47    8.82
   1   5  22   15.97    7.67
   1  -5  22   15.68    4.90
   1   5  22   19.42    5.93
  -1  -5  22   29.75   11.27
  -1  -5  22   27.56   10.11
   1   5  23   20.87    9.30
  -1   5  23   34.50   11.97
  -1  -5  23   33.53   10.82
   1  -5  23   15.60    7.76
  -1  -5  23   42.64   10.49
  -1   5  23   19.76    9.86
   1  -5  23   49.67   13.11
   1   5  23   30.20   10.87
   1   5  24    3.52    4.17
  -1  -5  24   -2.27    4.70
   1   5  24    3.29    5.63
  -1   5  24    3.15    5.21
   1  -5  24    5.13    6.92
  -1   5  24    3.51    6.08
  -1  -5  24    0.87    5.11
   1  -5  24    4.34    7.97
   1   5  25    7.75    6.76
   1   5  25    2.52    6.37
   1  -5  25   -4.53    4.37
  -1   5  25    4.52    5.65
   1  -5  25    1.71    3.67
  -1  -5  25   19.90   10.05
  -1  -5  25    5.37    6.16
  -1   5  25    2.29    4.21
   1  -5  26   24.10    9.05
  -1  -5  26   36.73   10.41
  -1  -5  26   27.32    7.52
   1  -5  26   28.47   10.04
  -1   5  26   62.06   13.53
   1   5  26   43.13   12.73
   1   5  26   39.47   11.08
  -1   5  26   45.65   11.38
  -1  -5  27   -4.89    5.94
   1  -5  27    0.16    5.49
  -1   5  27   -0.50    5.69
   1   5  27   10.50    3.25
  -1   5  27   -0.81    4.38
   1   5  27    3.44    5.01
   1  -5  27   -0.22    7.12
  -1  -5  27    5.96    8.08
   1   5  28   -8.28    9.93
  -1  -5  28    3.49    5.17
   1  -5  28   -0.67    5.18
  -1   5  28    2.91    5.38
  -1   5  28    4.13    7.20
   1  -5  28   12.38    6.85
  -1  -5  28   12.61    8.88
   1   5  28    3.13    2.80
   1   5  29   25.36    8.07
   1   5  29   40.33   11.44
  -1   5  29   29.41    9.88
  -1  -5  29   34.99   12.14
  -1  -5  29   14.48    6.62
  -1   5  29   12.94    9.38
   1  -5  29   36.90   13.22
   1  -5  29   34.20   12.38
   1   5  30   15.12    6.77
   1  -5  30   28.61   10.07
  -1   5  30    8.61    7.16
  -1   5  30   16.23    9.36
  -1  -5  30   18.24   10.06
   1   5  30   27.83   10.79
  -1  -5 -30   -7.84    6.28
   1  -5  30   19.50    9.55
  -1  -5  30    5.87    4.48
   1  -5  31   17.54    8.10
   1  -5  31   32.24   10.86
  -1   5  31   26.05   11.10
  -1   5  31   13.33    5.10
  -1  -5  31   25.68   11.13
  -1  -5 -31   28.97   10.61
   1   5  31   47.23   12.95
   1   5  31   59.46   17.17
  -1  -5  31   22.35   10.85
  -1  -6   0    0.39    3.23
   1  -6   0   -0.72    2.14
   1  -6   0   -1.54    2.61
  -1  -6   0    0.38    1.59
   1  -6   1 2081.55   57.70
  -1  -6   1 1948.32   56.58
   1  -6  -1 1935.26   54.08
   1  -6  -1 2023.02   56.22
  -1  -6  -1 1974.58   49.88
   1  -6   1 2010.09   55.95
  -1  -6   1 1957.93   50.76
  -1  -6  -1 1930.06   55.64
   1  -6   2   15.93    4.99
   1  -6  -2   24.85    6.24
  -1  -6   2   34.64    6.55
  -1  -6  -2   24.43    5.31
  -1   6   2   36.29    7.36
   1  -6   2   41.29    8.12
  -1  -6  -2   42.80    9.20
  -1  -6   2   40.01    7.96
   1  -6  -2   34.65    7.40
   1  -6   3  441.40   25.95
  -1  -6   3  486.77   25.40
   1  -6  -3  455.01   25.77
  -1  -6   3  520.55   29.77
  -1   6   3  471.67   24.46
   1   6   3  463.75   16.64
   1  -6   3  486.56   27.88
  -1  -6  -3  466.78   28.26
   1  -6  -3  466.45   27.20
   1   6   4   39.89    7.69
   1  -6   4   45.93    8.69
   1  -6   4   40.52    7.26
  -1  -6   4   40.95    7.09
  -1  -6   4   33.89    7.48
   1   6   4   41.07    5.20
  -1   6   4   33.02    6.72
   1  -6  -4   42.73    8.53
  -1  -6  -4   30.58    7.19
  -1  -6  -5 1214.36   45.65
   1   6   5 1318.50   31.78
   1  -6   5 1339.59   47.46
   1  -6  -5 1288.10   45.64
  -1  -6   5 1343.49   42.92
  -1  -6   5 1296.75   47.48
   1   6   5 1340.09   43.13
  -1   6   5 1300.17   41.44
   1  -6   5 1294.64   45.08
   1   6   6   39.64    5.79
   1  -6  -6   43.82    8.86
  -1  -6   6   46.52    7.69
  -1   6   6   45.77    7.92
  -1  -6   6   47.21    8.34
  -1  -6   6   43.12    8.70
   1  -6   6   40.82    8.00
  -1   6   6   39.22    7.86
   1   6   6   43.02    8.23
  -1  -6  -6   55.06   10.41
   1  -6   6   60.93   10.20
  -1  -6   7  210.24   17.27
  -1  -6   7  254.19   18.18
  -1   6   7  223.82   19.08
  -1  -6   7  236.56   20.71
   1  -6  -7  213.83   19.41
  -1  -6  -7  240.17   20.62
   1  -6   7  260.92   20.42
   1   6   7  261.15   20.13
   1   6   7  213.80   14.60
  -1   6   7  258.07   19.60
   1  -6   7  261.52   21.23
  -1   6   8  168.25   16.72
   1  -6   8  160.92   17.31
  -1  -6  -8  147.55   16.37
  -1  -6   8  176.26   15.59
   1   6   8  160.90   13.13
   1  -6  -8  155.20   17.07
   1   6   8  152.85   15.71
  -1   6   8  160.00   15.39
   1  -6   8  154.11   15.56
  -1  -6   8  169.96   18.29
  -1  -6   8  145.63   14.48
   1  -6  -9  659.88   35.66
  -1   6   9  611.09   32.99
   1  -6   9  658.61   33.81
  -1  -6  -9  598.69   33.51
   1   6   9  696.19   34.86
  -1  -6   9  637.33   31.43
   1   6   9  531.15   25.65
  -1  -6   9  667.00   32.11
  -1   6   9  646.60   31.78
  -1  -6   9  622.85   35.25
   1  -6   9  704.59   36.08
   1  -6  10  167.35   18.14
   1  -6 -10  136.59   16.63
  -1  -6  10  155.77   17.68
   1  -6  10  148.49   16.43
  -1   6  10  151.57   16.60
  -1  -6 -10  150.71   17.60
  -1  -6  10  147.10   16.11
  -1   6  10  158.69   16.16
   1   6  10  166.47   17.23
  -1  -6  10  149.26   15.63
   1   6  10  157.43   14.59
  -1  -6  11  368.94   27.33
   1   6  11  424.35   24.58
   1  -6 -11  387.84   28.30
  -1  -6  11  454.11   27.69
   1  -6  11  410.85   28.95
  -1  -6  11  404.72   26.95
   1  -6  11  407.70   27.78
  -1   6  11  428.84   27.53
   1   6  11  409.63   27.96
  -1   6  11  385.22   27.52
  -1  -6 -11  432.16   29.93
  -1  -6  12  463.06   31.21
  -1  -6 -12  440.10   30.70
  -1   6  12  422.78   27.93
   1   6  12  467.19   27.49
   1  -6  12  445.83   29.53
   1  -6  12  427.55   29.39
   1  -6 -12  439.21   31.67
  -1   6  12  423.28   29.17
  -1  -6  12  467.47   29.64
  -1  -6  12  508.10   30.84
   1   6  12  432.77   29.64
   1   6  13  255.98   21.33
   1  -6  13  248.17   23.59
   1  -6  13  229.81   22.10
  -1  -6  13  224.21   22.41
   1  -6 -13  221.63   22.60
  -1   6  13  254.84   22.12
  -1   6  13  276.92   24.20
   1   6  13  271.35   23.65
  -1  -6  13  255.20   22.61
  -1  -6  13  259.79   22.24
   1  -6  14   42.53    8.56
   1   6  14   38.00    8.54
   1   6  14   42.18    9.84
   1  -6  14   56.40   11.22
  -1   6  14   28.52    7.26
   1  -6  14   44.39    9.55
   1  -6 -14   46.88   10.35
  -1  -6 -14   34.59    9.17
  -1  -6  14   34.94    8.93
  -1  -6  14   39.54    9.46
  -1   6  14   36.03    8.08
  -1  -6  14   23.08    5.74
  -1  -6  15  188.69   21.06
  -1  -6 -15  178.55   20.72
  -1   6  15  227.48   22.90
  -1  -6  15  201.05   21.16
   1   6  15  207.42   22.07
   1  -6  15  225.18   23.14
   1  -6  15  208.99   22.67
   1  -6  15  205.46   21.96
   1   6  15  195.29   20.18
  -1   6  15  172.71   19.63
  -1  -6  15  197.89   22.22
   1  -6  16    4.89    5.52
   1   6  16    1.97    3.98
   1   6  16    8.69    3.66
   1  -6 -16    7.41    6.40
  -1   6  16   10.30    5.94
  -1  -6 -16   13.85    7.50
  -1  -6  16   13.12    5.55
   1  -6  16    6.14    5.47
  -1  -6  16    3.67    5.28
   1  -6  16   13.81    5.52
  -1  -6  16    3.27    4.73
  -1   6  16    0.74    4.34
  -1   6  17   -1.31    3.45
  -1   6  17   -2.05    2.14
   1  -6 -17    0.27    2.54
   1   6  17    1.99    6.24
  -1  -6  17   -2.60    4.14
   1  -6  17    1.86    2.61
   1  -6  17    0.22    3.00
   1   6  17   -0.63    4.92
  -1  -6 -17   -0.22    3.64
  -1  -6  17    1.36    3.52
  -1  -6  17    3.41    3.26
   1  -6  17    4.39    5.55
  -1   6  18   22.02    7.21
   1  -6 -18   22.10    9.57
  -1  -6  18   31.12    9.39
  -1  -6  18    5.74    4.81
   1  -6  18   25.81    8.81
  -1   6  18   17.41    7.73
  -1  -6  18   26.66    6.56
  -1  -6 -18   33.41    9.69
   1  -6  18   41.28   10.93
   1   6  18   28.13    9.31
   1  -6  18   24.71    9.77
   1   6  18   29.62    8.96
  -1   6  19    2.43    5.24
   1  -6  19    1.23    4.93
   1  -6 -19    1.19    1.86
  -1  -6  19   -1.56    4.83
   1  -6  19   -2.83    2.65
   1   6  19    7.26    6.50
  -1   6  19   -2.75    4.03
  -1  -6 -19    1.49    3.74
  -1  -6  19    4.57    6.12
   1   6  19   -3.90    4.57
  -1   6  20  187.96   22.48
   1   6  20  164.77   21.03
  -1  -6  20  169.23   21.38
  -1   6  20  136.35   19.08
   1  -6  20  145.30   19.87
  -1  -6  20  172.43   23.42
   1  -6  20  180.80   22.43
   1  -6 -20  148.29   20.19
   1   6  20  176.73   22.26
  -1  -6 -20  166.40   22.79
   1  -6  21    4.06    6.65
   1   6  21   -0.68    4.15
   1  -6  21    2.16    6.66
  -1   6  21    7.92    8.46
   1  -6 -21    6.69    6.94
  -1  -6  21    9.14    4.27
  -1   6  21    1.41    5.89
  -1  -6  21   -0.20    4.23
  -1  -6 -21   -1.23    4.61
   1   6  21   -1.05    3.77
  -1   6  22  123.69   20.27
   1   6  22  140.87   21.17
  -1  -6 -22  141.60   20.83
  -1   6  22  145.25   20.95
  -1  -6  22  112.47   17.97
   1  -6 -22  118.95   19.04
   1  -6  22  153.78   22.19
   1  -6  22  111.26   18.59
  -1  -6  22  136.22   20.22
   1   6  22  132.02   19.78
  -1   6  23   26.30   10.30
  -1   6  23   24.23    9.27
   1   6  23   26.61    8.69
  -1  -6  23   23.21    8.70
   1   6  23   17.48    7.08
   1  -6  23   16.43    7.76
  -1  -6 -23    6.17    6.14
  -1  -6  23   27.02    8.22
   1  -6 -23   37.77   10.15
   1  -6  23   22.63    8.00
  -1   6  24   37.86   10.90
   1  -6 -24   16.92    7.91
   1  -6  24   30.77   10.07
   1   6  24   42.60   10.02
  -1  -6 -24   12.86    7.41
   1   6  24   30.63   12.04
  -1  -6  24   34.86   11.49
   1  -6  24   21.76    9.36
  -1   6  24   42.44   12.43
   1  -6  25   10.90    6.13
   1   6  25    1.87    3.59
   1  -6 -25   20.79    8.82
  -1   6  25   11.64    5.69
  -1  -6  25   12.30    8.38
   1   6  25    3.11    2.51
  -1  -6  25   12.31    7.91
  -1  -6 -25   11.42    7.85
   1  -6  25    0.82    4.59
  -1   6  25   -3.80    2.80
  -1   6  26    4.97    2.08
   1  -6 -26   12.45    7.80
  -1  -6  26   11.73    7.79
   1   6  26    7.34    8.24
  -1   6  26    9.15    6.74
   1  -6  26   10.82    7.19
  -1  -6 -26    3.19    5.11
  -1  -6  26   10.69    6.27
   1  -6  26   11.87    7.12
   1   6  26   10.66    6.84
   1   6  27   12.76    7.09
  -1   6  27   17.49    6.96
  -1  -6  27   -1.50    4.14
  -1  -6  27   -0.30    1.99
  -1   6  27    5.77    3.11
   1  -6  27   11.34    7.37
   1   6  27    7.12    2.73
   1  -6  27    1.82    2.99
  -1  -6 -27    7.75    5.60
   1  -6 -27   10.72    3.82
  -1  -6 -28   86.08   18.66
  -1   6  28   58.89   14.25
   1   6  28   90.72   17.22
   1  -6  28   53.97   15.71
  -1  -6  28  103.06   19.01
   1   6  28   90.30   18.40
   1  -6 -28   66.44   17.28
  -1  -6  28   70.38   17.04
  -1   6  28   82.18   16.79
   1  -6  28   70.65   16.15
   1  -6 -29    3.27    7.26
  -1  -6  29   -2.70    6.06
  -1   6  29   -2.54    4.53
  -1  -6  29    7.04    2.52
   1  -6  29    1.87    6.45
   1   6  29   -5.24    6.89
   1   6  29   -1.27    2.93
   1  -6  29   -0.64    5.75
  -1   6  29    1.78    5.51
  -1  -6 -29    1.22    5.42
  -1   6  30   33.63   10.69
  -1  -6 -30   60.37   15.42
  -1  -6  30   41.59   12.92
  -1   6  30   23.55   10.29
   1   6  30   30.26   12.02
   1   6  30   13.60    8.76
   1  -6  30   46.10   14.53
  -1  -6  30   26.89    9.08
   1  -6  30   37.95   11.67
   1  -6 -30   24.00    8.64
  -1  -7   0   -2.60    3.51
  -1  -7   0   -0.72    1.57
   1  -7   0    5.65    3.82
   1  -7   0    2.73    4.43
   1  -7   1  183.84   19.05
   1  -7  -1  178.41   18.20
  -1  -7  -1  175.38   18.09
  -1  -7   1  197.21   19.30
  -1  -7  -1  184.56   16.51
  -1  -7   1  130.92   14.21
   1  -7  -1  182.19   18.15
   1  -7   1  174.31   17.68
  -1  -7  -2   11.24    4.91
  -1  -7  -2    7.75    3.54
   1  -7  -2   15.63    5.21
  -1  -7   2    5.51    2.40
  -1  -7   2    6.44    3.82
  -1   7   2   13.56    3.89
   1  -7   2   12.83    4.77
   1  -7  -2   16.16    5.70
   1  -7   2   12.45    4.41
   1  -7   3   12.87    4.54
  -1  -7   3   16.57    6.93
   1  -7  -3   12.88    5.67
  -1  -7  -3   13.55    4.31
  -1  -7   3   15.17    5.83
   1  -7   3    9.18    3.89
  -1   7   3   13.02    3.82
  -1  -7  -3    8.80    3.70
   1  -7  -3   17.15    5.49
  -1  -7  -4  136.74   16.37
   1  -7  -4  150.53   16.99
   1  -7   4  185.28   17.93
   1  -7  -4  138.26   14.98
   1  -7   4  151.71   16.32
   1   7   4  166.18   11.52
  -1  -7   4  170.84   18.13
  -1   7   4  165.82   15.19
  -1  -7   4  161.01   15.68
   1   7   5  613.66   23.30
  -1  -7   5  571.95   33.37
   1  -7   5  677.48   35.63
   1  -7  -5  614.02   33.98
   1  -7   5  575.91   31.91
  -1  -7  -5  577.37   33.43
  -1  -7   5  592.16   30.21
  -1   7   5  530.13   28.17
  -1  -7  -6  161.72   17.93
  -1   7   6  191.75   17.23
  -1  -7   6  142.86   14.96
   1  -7   6  170.92   18.28
  -1  -7   6  173.40   18.23
   1  -7   6  162.86   17.17
   1   7   6  170.47   13.17
   1   7   6  175.95   16.94
   1  -7  -6  141.02   16.77
  -1  -7   6  205.41   16.18
  -1  -7  -7    8.10    6.61
  -1  -7   7    3.77    3.25
   1  -7  -7    2.70    1.50
  -1   7   7    9.10    5.24
  -1   7   7    7.65    4.37
  -1  -7   7    1.19    2.76
  -1  -7   7    6.05    3.15
   1   7   7    6.07    3.70
   1   7   7    5.35    4.68
   1  -7   7    6.52    4.46
   1  -7   7    1.95    2.08
  -1  -7   8  168.87   18.35
   1   7   8  148.12   13.30
   1   7   8  173.35   17.73
   1  -7  -8  142.22   17.16
  -1  -7   8  140.80   15.11
   1  -7   8  179.36   18.63
  -1   7   8  152.91   17.42
  -1   7   8  175.28   17.05
  -1  -7  -8  152.24   17.65
  -1  -7   8  134.41   14.51
   1  -7   8  203.79   19.25
   1  -7  -9   45.39   10.35
   1   7   9   44.73    7.94
  -1  -7   9   54.82    9.60
   1  -7   9   50.95    9.79
  -1   7   9   38.91    8.61
   1   7   9   38.01    8.04
  -1  -7   9   46.68    8.31
  -1  -7  -9   44.76   10.64
   1  -7   9   50.89   10.41
  -1   7   9   61.98    9.96
  -1  -7   9   32.66    7.84
   1   7  10   97.55   11.82
  -1  -7  10   96.28   13.09
   1  -7  10   77.22   12.25
   1  -7  10   72.12   13.14
  -1  -7  10  107.77   13.93
   1   7  10  135.88   16.31
  -1  -7 -10  107.82   15.42
  -1   7  10   91.37   14.26
  -1   7  10   89.40   12.37
  -1  -7  10  112.68   15.71
   1  -7 -10   95.93   14.46
   1  -7 -11    4.57    3.75
  -1  -7 -11   13.30    6.21
   1  -7  11   12.30    5.05
  -1  -7  11   15.03    6.06
  -1   7  11    4.33    3.20
  -1  -7  11   19.00    5.50
   1  -7  11   17.21    8.49
  -1   7  11    5.42    3.70
   1   7  11   10.31    4.02
  -1  -7  11   15.10    6.06
   1   7  11   13.58    7.58
  -1  -7  12    5.33    1.94
   1  -7 -12   12.66    5.02
   1  -7  12   10.54    5.77
  -1   7  12   16.28    6.78
   1   7  12   15.90    6.46
  -1   7  12    7.18    3.80
   1  -7  12    7.63    3.76
  -1  -7 -12   11.77    4.75
  -1  -7  12   14.81    6.80
  -1  -7  12   10.85    2.97
   1   7  12    7.98    1.68
  -1  -7 -13  317.16   27.46
  -1  -7  13  299.58   26.77
   1  -7  13  361.67   29.13
   1  -7  13  330.47   26.95
  -1  -7  13  359.51   26.86
   1   7  13  307.93   26.45
  -1   7  13  343.28   26.65
  -1  -7  13  366.09   28.13
   1   7  13  346.10   25.33
   1  -7  14  499.81   34.12
  -1   7  14  617.52   38.33
  -1  -7 -14  486.99   35.09
  -1  -7  14  539.48   33.93
  -1  -7  14  512.12   34.48
   1  -7  14  568.23   37.63
   1   7  14  539.07   32.32
   1  -7  14  648.74   38.61
   1   7  14  578.38   36.25
  -1   7  14  557.97   34.57
  -1  -7  14  607.31   38.85
  -1   7  15    2.31    2.73
  -1  -7  15    6.55    6.83
   1  -7  15   12.29    6.47
  -1  -7 -15    4.41    4.84
  -1  -7  15    0.71    4.27
   1   7  15    3.46    5.06
  -1   7  15    2.36    3.82
   1  -7  15   -1.17    3.88
   1   7  15   -0.20    1.68
   1  -7  15    8.00    7.96
   1  -7 -15    0.02    2.77
  -1  -7  15    4.39    1.28
  -1  -7  16    5.82    5.39
   1  -7  16    7.59    3.71
   1  -7  16    4.28    3.80
   1  -7 -16   -2.18    4.75
  -1  -7  16    6.13    6.22
   1   7  16    2.44    4.68
  -1   7  16    5.89    3.95
  -1  -7  16    3.35    2.47
  -1  -7 -16    9.91    5.59
   1  -7  16    4.85    4.91
  -1   7  16    0.83    3.65
   1   7  16    0.14    4.04
  -1   7  17  215.02   23.85
  -1  -7 -17  275.06   28.01
  -1   7  17  239.69   23.96
  -1  -7  17  257.05   25.44
  -1  -7  17  239.02   25.34
   1   7  17  192.96   23.28
   1  -7 -17  231.31   25.94
   1  -7  17  240.98   25.73
   1  -7  17  210.16   23.14
   1   7  17  237.91   23.81
  -1  -7  17  222.26   24.27
   1  -7  17  206.66   23.73
  -1  -7  18   80.01   15.14
   1  -7  18   51.64   11.84
   1  -7  18   55.73   12.29
  -1  -7  18   83.34   13.99
  -1   7  18   64.23   13.15
   1   7  18   88.53   15.98
   1   7  18   59.51   12.75
   1  -7  18   72.70   13.90
  -1  -7 -18   73.69   15.74
  -1  -7  18   77.60   14.53
   1  -7 -18   74.60   15.48
  -1   7  18   70.19   14.11
   1  -7  19  111.39   17.15
  -1   7  19   76.06   14.14
  -1  -7 -19  113.23   17.98
   1  -7  19  105.39   17.46
   1   7  19   91.10   16.01
  -1  -7  19   81.55   14.27
  -1   7  19   69.99   13.96
  -1  -7  19  109.57   18.44
   1   7  19   97.66   15.71
  -1  -7  19  105.15   17.31
  -1   7  20    4.63    1.73
   1  -7  20    8.83    6.11
   1   7  20    4.10    4.27
   1  -7  20    6.34    3.11
  -1  -7  20    0.97    3.22
  -1   7  20    7.84    7.07
   1  -7 -20   15.01    7.37
   1   7  20   -2.62    5.66
  -1  -7  20   10.63    5.94
  -1  -7 -20    1.27    5.04
  -1  -7  20    4.53    5.82
   1  -7  21   10.47    4.77
   1  -7 -21   14.78    7.74
  -1  -7  21    8.00    5.72
  -1   7  21    3.26    2.40
   1   7  21   10.67    5.35
  -1   7  21    1.18    6.44
   1  -7  21    1.55    4.58
  -1  -7 -21   -0.24    6.66
  -1  -7  21    7.37    6.69
   1   7  21    6.50    7.33
   1  -7 -22    1.88    4.25
  -1  -7 -22    4.00    4.76
  -1  -7  22    5.29    5.03
   1  -7  22    2.48    6.51
   1  -7  22    2.08    6.92
  -1   7  22   -2.10    3.06
  -1  -7  22    1.29    4.38
   1   7  22   -3.74    4.73
   1   7  22   -5.24    6.89
  -1   7  22   -2.04    5.36
  -1  -7 -23   78.68   15.70
  -1  -7  23   81.78   16.49
   1  -7  23   46.43   13.10
   1  -7  23   66.93   13.98
  -1   7  23   86.51   16.08
  -1  -7  23   80.89   16.10
   1  -7 -23   81.21   17.01
   1   7  23   77.10   16.02
   1   7  23   56.80   11.62
  -1   7  23   71.87   15.47
   1   7  24    2.28    3.87
  -1  -7  24   -4.55    4.31
   1  -7 -24    2.32    3.22
  -1  -7 -24   -2.36    4.63
  -1   7  24   -4.33    5.51
  -1   7  24   -2.38    5.19
  -1  -7  24    2.38    6.27
   1   7  24    2.19    3.25
   1  -7  24   -1.04    1.87
   1  -7  24   -0.24    5.31
   1  -7 -25    7.13    6.95
   1   7  25    1.79    5.04
   1  -7  25   -1.84    3.40
  -1   7  25   -2.66    6.45
  -1  -7 -25   16.77   10.84
  -1  -7  25    8.11    6.90
  -1   7  25    2.39    5.82
   1  -7  25    3.06    2.34
  -1  -7  25    4.27    4.25
   1   7  25    3.83    4.22
  -1   7  26    3.54    4.44
   1  -7  26   -1.11    3.64
  -1  -7 -26    0.59    2.95
   1  -7 -26    7.42    6.14
   1  -7  26    4.77    6.27
  -1  -7  26    7.60    7.85
   1   7  26    3.22    3.82
   1   7  26    5.20    4.67
  -1  -7  26   12.65    8.08
  -1   7  26    4.47    7.32
   1   7  27   37.29   10.53
   1  -7 -27   34.65   12.62
  -1  -7  27   48.01   14.67
  -1  -7  27   40.64   15.23
  -1   7  27   24.79   10.73
  -1   7  27   55.67   13.90
  -1  -7 -27   40.02   12.70
   1   7  27   63.49   16.24
   1  -7  27   50.22   13.25
   1  -7  27   57.30   15.10
  -1  -7  28   40.27   13.30
   1  -7  28   32.74   11.31
  -1   7  28   54.85   13.99
   1  -7 -28   33.96   12.95
   1   7  28   42.45   11.79
  -1   7  28   41.74   11.69
  -1  -7 -28   74.92   17.86
  -1  -7  28   59.60   16.05
   1   7  28   59.50   14.32
   1  -7  28   49.07   14.62
   1  -7  29   10.67    8.69
  -1  -7 -29   11.99    6.81
  -1  -7  29    2.33    4.32
   1  -7  29    3.86    7.34
  -1   7  29   -5.57    6.92
  -1  -7  29   -0.69    4.09
   1  -7 -29    5.65    5.52
  -1   7  29   11.58    8.74
   1   7  29   14.45   10.02
   1   7  29   -9.69    8.97
  -1  -8   0    2.22    3.70
   1  -8   0   -1.74    3.23
  -1  -8   0    0.54    3.21
   1  -8   0    6.13    5.32
   1  -8   1 1027.33   46.20
  -1  -8   1  961.32   45.24
  -1  -8  -1 1001.59   46.83
   1  -8  -1 1080.16   46.08
   1  -8  -1 1035.01   46.44
  -1  -8  -1  999.46   42.45
   1  -8   1 1048.97   45.93
  -1  -8   1 1053.44   43.83
  -1  -8   2  105.95   14.80
  -1  -8   2  125.88   14.86
  -1  -8  -2  109.00   13.99
   1  -8  -2  124.13   15.12
  -1  -8  -2  126.19   16.57
   1  -8   2  142.43   17.36
   1  -8  -2  132.44   16.46
   1  -8   2  133.28   16.13
  -1  -8   3   36.52    9.19
   1  -8  -3   32.65    8.18
   1  -8  -3   10.26    6.23
  -1  -8   3   19.17    5.17
   1  -8   3   30.54    7.77
  -1  -8  -3   19.95    8.21
  -1  -8  -3   38.31    8.74
  -1   8   3   17.91    5.14
   1  -8   3   25.39    7.37
   1  -8   4   12.36    5.28
  -1  -8  -4    3.60    3.49
   1  -8  -4   12.12    5.66
  -1  -8   4    5.27    2.04
  -1  -8   4    6.01    5.53
  -1   8   4    7.88    4.75
   1  -8   4   10.88    3.34
  -1  -8  -4    9.48    4.72
   1  -8  -4   14.71    4.95
   1  -8   5  987.94   45.58
  -1  -8   5  987.71   41.65
   1   8   5  855.27   30.73
   1  -8  -5  882.49   41.61
   1  -8   5  958.75   43.77
  -1  -8   5  946.82   45.27
  -1   8   5 1105.53   43.58
  -1  -8  -5  943.23   46.16
   1  -8  -5  978.72   45.73
  -1   8   6   39.44    8.92
   1  -8  -6   41.63    9.37
  -1  -8   6   41.60    8.98
   1   8   6   29.67    6.41
  -1  -8  -6   38.16   10.10
  -1  -8   6   31.90    6.29
   1  -8   6   27.41    6.47
  -1  -8   6   33.74    8.09
   1  -8   6   31.73    8.51
  -1   8   7  268.62   21.67
   1   8   7  272.21   18.57
  -1  -8  -7  254.37   23.97
   1   8   7  299.36   24.57
   1  -8  -7  261.88   24.57
   1  -8   7  273.71   23.43
  -1  -8   7  330.10   27.30
   1  -8   7  308.34   25.66
  -1  -8   7  282.46   21.01
  -1  -8   7  314.34   23.95
   1  -8   8   14.33    5.77
  -1  -8  -8   12.70    5.14
  -1  -8   8   16.83    5.57
   1   8   8   29.36    7.79
  -1  -8   8   14.65    6.42
   1   8   8   22.77    5.46
   1  -8  -8   21.02    7.01
  -1   8   8   22.03    5.11
  -1  -8   8   12.83    4.32
   1  -8   8   17.45    6.23
   1   8   9 1790.35   50.58
  -1  -8  -9 1725.33   63.70
   1  -8  -9 1825.12   64.87
  -1  -8   9 1875.43   66.57
   1   8   9 1831.53   60.94
  -1  -8   9 1821.10   57.33
  -1   8   9 1707.67   62.06
  -1   8   9 1825.77   59.37
  -1  -8   9 1839.92   59.44
   1  -8   9 1890.12   62.62
   1  -8   9 1746.37   63.03
  -1   8  10   54.31   10.37
   1  -8 -10   56.28   12.43
  -1  -8  10   28.92    7.90
   1  -8  10   30.54    8.38
  -1  -8  10   28.58    8.91
   1   8  10   60.12   11.64
  -1  -8 -10   26.15    7.80
   1   8  10   43.90    8.63
   1  -8  10   30.44    8.41
  -1   8  10   36.34    9.24
  -1  -8  10   46.08   10.11
   1  -8  11   18.13    6.06
  -1  -8 -11   16.20    6.11
   1   8  11   18.41    4.97
  -1  -8  11   10.08    5.64
  -1  -8  11   21.63    6.75
   1   8  11   23.55    8.77
  -1  -8  11   14.57    6.48
   1  -8 -11   13.43    4.70
  -1   8  11   16.47    5.82
   1  -8  11   23.35    7.78
  -1   8  11   39.04    9.69
   1  -8  12  212.27   23.16
  -1  -8  12  251.19   24.98
  -1   8  12  229.71   22.84
   1  -8 -12  278.09   25.72
   1   8  12  241.89   24.18
  -1  -8  12  269.48   24.00
  -1   8  12  213.49   21.61
  -1  -8  12  244.13   22.91
   1   8  12  238.24   20.65
   1  -8  12  268.72   24.99
  -1  -8 -12  234.49   23.97
   1  -8  13  134.12   18.72
  -1  -8 -13  119.78   17.45
  -1  -8  13  118.72   18.47
   1  -8 -13  105.35   16.13
  -1  -8  13  115.28   15.69
  -1   8  13  135.02   18.62
  -1   8  13  108.15   15.02
   1  -8  13  122.09   17.38
   1   8  13  102.96   13.89
   1   8  13  133.47   17.31
  -1  -8  13  124.17   16.74
   1  -8  14    3.34    2.65
  -1  -8  14   11.49    2.86
  -1   8  14    8.87    5.41
  -1   8  14    9.93    6.31
  -1  -8  14    4.79    2.28
  -1  -8  14   10.22    4.33
   1  -8 -14    6.08    2.84
  -1  -8 -14    0.51    2.40
   1   8  14   -3.05    3.50
   1  -8  14    8.52    5.17
   1   8  14    9.94    3.98
   1  -8  15   97.76   16.65
  -1  -8 -15   91.36   17.32
  -1   8  15   97.05   15.45
  -1  -8  15  107.08   17.75
  -1   8  15  100.54   17.88
   1   8  15   87.19   14.33
   1  -8 -15   55.37   12.27
  -1  -8  15   94.44   14.89
   1  -8  15   80.56   13.72
  -1  -8  15   95.44   15.91
   1  -8  15   92.61   14.75
   1   8  15  122.75   16.97
   1  -8  16    5.02    5.38
  -1  -8  16    3.68    2.60
   1  -8 -16    1.21    6.03
  -1  -8 -16   -6.37    7.31
   1   8  16   12.87    7.28
   1  -8  16    7.83    5.56
  -1  -8  16   -2.22    4.13
   1   8  16    4.09    3.00
  -1   8  16    2.37    2.98
   1  -8  16    1.60    3.34
  -1   8  16    5.67    4.60
  -1  -8  16   -1.21    3.17
   1  -8  17  171.98   21.57
  -1   8  17  165.45   21.13
  -1  -8 -17  247.66   26.27
   1   8  17  177.91   21.00
  -1  -8  17  176.73   22.24
  -1   8  17  155.38   20.67
   1  -8  17  179.82   21.94
   1   8  17  167.70   21.15
   1  -8 -17  123.91   19.36
   1  -8  17  164.62   21.27
  -1  -8  17  185.98   22.58
   1  -8  18   10.84    6.81
  -1  -8  18    1.20    3.36
  -1  -8  18    2.96    1.53
   1  -8  18   13.06    8.15
  -1   8  18    6.49    4.99
  -1  -8 -18    3.26    5.08
   1   8  18   -3.20    1.99
   1  -8  18    0.09    3.55
   1  -8 -18    1.58    2.54
  -1   8  18    5.74    3.22
   1   8  18    0.24    3.27
  -1  -8  18    3.32    5.62
  -1   8  19  250.54   27.09
  -1  -8  19  319.89   30.05
  -1  -8  19  268.70   26.88
  -1  -8 -19  289.45   29.65
   1  -8  19  282.19   28.22
  -1   8  19  267.69   27.46
   1  -8  19  276.36   28.76
   1  -8  19  295.50   30.12
   1   8  19  314.39   30.07
   1   8  19  287.66   27.83
  -1  -8  19  267.63   28.64
   1  -8  20   -1.59    3.56
   1  -8  20   -0.51    3.23
  -1   8  20    0.30    3.16
   1   8  20    2.05    3.44
  -1  -8  20    0.71    2.39
  -1  -8  20   -1.77    4.29
  -1   8  20    3.23    4.27
  -1  -8 -20   -5.20    4.44
   1   8  20   -4.97    5.10
   1  -8 -20   -0.17    2.75
  -1  -8  20   -1.15    6.99
   1  -8  20   16.81    9.89
   1  -8  21   66.57   13.85
  -1  -8  21   95.55   18.84
   1  -8  21   80.58   16.56
  -1   8  21  105.21   18.60
   1   8  21  118.28   18.75
   1  -8 -21   92.69   17.29
  -1  -8  21   79.64   15.62
  -1  -8  21  129.42   19.93
  -1   8  21   95.24   16.42
  -1  -8 -21   71.02   18.86
   1   8  21   77.49   14.65
   1  -8 -22   13.36    8.57
  -1  -8  22   12.79    7.25
   1   8  22    3.63    3.36
   1  -8  22    5.37    6.26
  -1   8  22   13.50    7.31
  -1  -8 -22    6.03    1.92
  -1   8  22    6.86    5.68
   1   8  22   13.58    6.33
  -1  -8  22    7.96    5.41
   1  -8  22   23.89   10.86
  -1   8  23  145.16   20.71
  -1   8  23  105.41   18.39
   1  -8  23   83.51   16.69
  -1  -8 -23   85.06   20.54
   1   8  23  123.26   20.89
   1  -8  23  113.41   18.81
   1  -8 -23  154.50   22.73
  -1  -8  23   99.99   18.49
   1   8  23  105.10   19.99
  -1  -8  23  131.97   20.79
  -1  -8 -24    3.40    4.94
   1  -8  24    0.60    3.47
  -1  -8  24    4.61    3.09
  -1   8  24   -0.16    3.30
   1  -8  24    5.53    7.66
  -1   8  24    8.23    6.48
  -1  -8  24    1.22    4.77
   1  -8 -24    7.98    8.82
   1   8  24    1.71    2.73
   1   8  24   -2.32    5.42
  -1  -8 -25   42.02   10.79
  -1  -8  25   15.07   10.62
  -1   8  25   24.39   10.42
   1  -8 -25   20.01    9.82
   1  -8  25   32.12   11.42
   1  -8  25   17.42    7.95
  -1  -8  25   23.33    9.24
   1   8  25   25.35   10.18
  -1   8  25   25.53    9.57
   1  -8  26    5.32    6.60
  -1   8  26    2.90    5.02
   1  -8  26    2.00    7.68
  -1   8  26   -0.92    5.57
  -1  -8  26    0.09    3.31
  -1  -8 -26    1.02    2.25
  -1  -8  26   -1.04    3.12
   1  -8 -26    5.91    6.95
   1   8  26   -1.09    2.10
  -1   8  27  103.83   19.42
  -1  -8 -27  110.54   20.34
   1  -8  27   91.95   18.94
  -1  -8  27  118.10   20.72
   1  -8 -27   99.02   19.63
   1  -8  27   76.74   17.91
  -1  -8  27   90.62   18.41
  -1   8  27   89.04   18.08
   1   8  27  143.76   22.54
   1   8  28    4.48    4.73
  -1  -8  28   -0.99    5.82
  -1  -8 -28    2.02    4.45
  -1   8  28   10.11    9.04
   1  -8 -28   -2.82    5.44
   1  -8  28   12.17    6.90
   1  -8  28    9.26    4.47
  -1   8  28    3.27    5.16
  -1  -8  28   -0.09    5.36
   1  -9   0   -0.19    2.97
  -1  -9   0    7.28    6.20
   1  -9   0    2.76    4.14
  -1  -9   0   -1.10    1.85
  -1  -9  -1   51.09    9.86
   1  -9  -1   36.11   10.35
   1  -9  -1   48.78   10.36
  -1  -9   1   44.38    9.04
   1  -9   1   58.14   11.42
   1  -9   1   31.19    8.63
  -1  -9  -1   50.65   10.57
  -1  -9   1   40.98    9.22
  -1  -9  -2  119.63   15.72
   1  -9   2  121.13   17.20
  -1  -9   2  105.12   15.23
   1  -9   2  124.32   16.17
  -1  -9   2  118.22   16.39
   1  -9  -2  113.93   16.15
   1  -9  -2  118.87   16.52
  -1  -9  -2  119.40   17.50
   1  -9   3  160.33   18.72
  -1  -9   3  181.28   19.39
  -1  -9  -3  156.03   18.07
   1  -9   3  167.21   20.30
   1  -9  -3  148.10   18.25
   1  -9  -3  144.25   18.12
  -1  -9  -3  144.88   18.58
  -1  -9   3  161.97   19.61
  -1  -9  -4   43.55    9.13
  -1  -9   4   88.70   14.74
   1  -9  -4   49.19    9.83
   1  -9   4   74.07   12.96
   1  -9  -4   56.77   11.58
  -1  -9  -4   58.38   11.88
  -1  -9   4   54.85   10.45
  -1   9   4   61.44   10.76
   1  -9   4   72.04   13.25
  -1  -9  -5    5.08    4.09
   1  -9   5    8.01    3.15
  -1  -9  -5    8.80    5.81
  -1   9   5    5.75    2.73
   1  -9  -5    8.18    5.37
   1  -9   5    3.16    1.71
  -1  -9   5   11.37    4.21
   1  -9  -5   14.34    5.96
  -1  -9   5   18.17    6.65
  -1  -9   6   99.35   14.18
   1  -9   6   98.12   15.07
  -1  -9  -6   85.05   14.53
   1  -9  -6  115.82   16.62
  -1  -9   6   95.97   15.42
   1   9   6   98.76   11.28
   1  -9  -6   93.03   14.42
  -1  -9   6   87.86   11.61
   1  -9   6   94.84   15.00
  -1   9   6  100.93   13.68
  -1  -9   7    3.23    5.17
  -1   9   7   -0.31    2.93
   1  -9   7    3.80    4.82
   1  -9   7    0.81    4.10
   1  -9  -7    1.85    3.15
   1   9   7    0.64    2.15
   1  -9  -7    1.35    4.70
  -1  -9  -7   -0.29    4.05
  -1  -9   7    4.20    2.27
  -1  -9   7    5.28    3.58
  -1   9   8   33.49    8.64
  -1  -9   8   33.45   10.11
   1  -9   8   43.23    9.58
   1  -9  -8   18.97    6.77
  -1  -9   8   27.30    7.25
  -1  -9  -8   37.18   10.07
   1  -9   8   37.89    9.85
  -1  -9   8   34.71    8.14
   1   9   8   27.22    7.00
  -1   9   9 1452.25   54.65
  -1  -9   9 1367.74   59.07
   1  -9  -9 1492.19   60.90
  -1  -9  -9 1440.14   60.34
  -1  -9   9 1298.17   50.56
  -1  -9   9 1319.78   52.87
   1   9   9 1462.88   59.07
   1  -9   9 1454.91   56.65
   1  -9   9 1492.01   60.72
   1  -9  10   37.14    9.51
   1  -9 -10   39.99    9.91
  -1  -9  10   28.95    6.50
   1   9  10   26.37    7.27
   1   9  10   34.47    9.18
  -1   9  10   34.06    7.82
   1  -9  10   45.01   11.11
  -1  -9  10   28.05    7.68
  -1  -9 -10   39.90   10.66
  -1  -9  10   25.57    7.19
   1   9  11   45.83    8.24
  -1  -9  11   39.72    9.11
  -1   9  11   29.23   10.94
  -1  -9 -11   50.24   12.48
   1   9  11   29.26    8.39
  -1  -9  11   44.53   10.80
  -1   9  11   33.47    9.39
   1  -9 -11   35.85   10.01
   1  -9  11   38.92   10.66
  -1  -9  11   46.26   11.99
   1  -9  11   44.06    9.97
   1  -9  12   14.23    6.61
   1  -9  12    4.77    5.56
   1  -9 -12    8.79    5.15
  -1  -9  12   11.54    4.58
  -1  -9 -12   10.54    5.95
  -1   9  12    9.87    5.05
  -1   9  12    5.31    2.60
  -1  -9  12    9.86    5.48
  -1  -9  12    3.55    3.93
   1   9  12    7.47    4.63
  -1  -9  13    5.36    5.17
   1  -9  13    6.02    4.17
  -1  -9  13    4.05    6.35
  -1   9  13   17.70    8.44
   1  -9 -13   12.30    8.79
   1  -9  13    1.79    4.86
  -1   9  13   16.69    8.06
  -1  -9  13   11.29    6.85
   1   9  13    6.84    5.25
  -1  -9 -13    8.78    4.11
   1   9  14   16.95    4.59
  -1  -9  14   14.24    7.04
  -1   9  14   12.73    7.04
   1  -9  14    9.39    3.97
  -1  -9 -14   17.73    9.97
  -1   9  14   14.50    2.35
   1  -9  14    2.41    2.79
   1  -9 -14    3.38    2.80
   1  -9  14   16.91    6.92
  -1  -9  14   13.88    5.87
  -1  -9  14   29.04    9.02
  -1  -9  15   53.40   13.15
   1  -9 -15   48.05   12.29
   1   9  15   38.32   11.08
  -1   9  15   42.97   11.68
  -1  -9  15   44.79   11.51
   1  -9  15   51.99   13.14
  -1  -9 -15   60.52   14.33
  -1  -9  15   51.39   11.67
   1  -9  15   50.25   10.62
   1  -9  15   54.87   11.47
  -1   9  15   40.48    8.06
  -1  -9  16   90.17   15.91
   1  -9  16  102.85   16.50
  -1  -9  16  102.20   16.67
  -1  -9 -16  101.49   17.26
  -1  -9  16  101.02   17.33
   1  -9  16   97.86   17.61
   1   9  16   84.04   16.00
   1  -9  16  102.03   16.72
  -1   9  16   88.46   15.77
  -1   9  16  100.12   17.61
   1  -9 -16  127.25   19.34
   1  -9  17   15.11    8.71
  -1   9  17    4.10    4.74
   1   9  17    7.27    4.65
  -1  -9  17   18.00    7.73
  -1   9  17   11.07    8.01
  -1  -9  17    7.96    2.86
   1  -9  17    9.04    5.01
  -1  -9 -17    8.47    5.77
   1  -9 -17    3.97    3.22
  -1  -9  17   22.04    8.76
   1  -9  17   10.34    4.78
  -1  -9  18   43.70   11.84
   1  -9  18   48.62   11.72
   1  -9  18   50.30   13.52
  -1  -9  18   37.52   12.03
   1  -9 -18   44.58   12.05
  -1  -9 -18   67.87   14.17
  -1   9  18   37.04    9.57
   1  -9  18   40.25    9.93
   1   9  18   39.62   11.78
  -1   9  18   45.05   11.94
  -1  -9  18   81.15   15.72
  -1   9  19   57.63   12.51
  -1  -9  19   57.27   13.36
   1  -9  19   41.18   12.79
  -1  -9  19   59.83   14.05
  -1  -9  19   82.25   14.90
  -1   9  19   49.48   11.65
   1  -9 -19   51.67   12.08
   1  -9  19   46.00   11.66
  -1  -9 -19   50.35   13.99
   1  -9  19   57.52   14.03
   1   9  19   36.67   11.11
   1  -9  20   43.34   11.39
   1  -9  20   13.17    6.17
   1   9  20   26.61    9.81
  -1  -9 -20   40.49   11.06
  -1  -9  20   23.36    9.10
   1  -9 -20   40.18   10.59
  -1  -9  20   15.01    6.52
   1  -9  20   39.79   12.17
  -1   9  20   30.04    7.76
  -1  -9  20   39.72   11.07
  -1   9  20   31.11    8.62
  -1   9  21   27.51    8.17
  -1  -9 -21   92.38   17.84
   1  -9 -21   70.10   16.62
   1  -9  21   61.65   15.00
  -1  -9  21   60.75   15.89
   1  -9  21   87.37   17.10
  -1  -9  21   77.55   14.84
  -1  -9  21   70.20   14.21
  -1   9  21   58.65   15.71
   1   9  21   83.17   16.34
   1  -9  21   89.89   17.08
  -1   9  22   27.28   11.99
  -1  -9  22    7.24    4.68
  -1  -9 -22   13.14    5.11
   1  -9  22    7.15    2.70
   1  -9 -22   23.07    9.18
  -1  -9  22   30.67   11.63
  -1   9  22   20.23    8.99
   1  -9  22   12.61    7.51
   1  -9  22   25.50    8.81
   1   9  22   17.39    7.98
  -1  -9  22    3.81    5.74
  -1  -9 -23   -0.56    4.48
   1  -9 -23    9.82    6.44
  -1   9  23   -8.39    9.09
  -1  -9  23    1.57    5.98
   1  -9  23   -5.10    4.81
   1   9  23    3.86    5.35
  -1  -9  23    5.16    4.49
   1  -9  23    6.68    5.53
  -1   9  23   -0.70    2.64
   1  -9  24   30.77    9.01
  -1   9  24   26.54   11.80
  -1  -9  24   16.65    6.46
   1  -9 -24   20.53    9.22
  -1  -9 -24   29.87    9.04
  -1   9  24   32.64   11.23
   1  -9  24   32.58   12.21
   1   9  24   38.59   11.71
  -1  -9  24   20.19    7.29
   1  -9 -25   -1.88    4.83
  -1   9  25   -3.12    5.82
   1  -9  25    3.68    3.84
  -1  -9  25   11.82    6.35
  -1  -9  25    2.33    3.57
   1   9  25    1.91    2.95
  -1  -9 -25    9.69    6.43
   1  -9  25   -1.47    2.95
  -1   9  25    8.41    4.48
   1   9  26    0.19    3.12
  -1  -9  26    1.17    3.10
   1  -9 -26    1.87    3.23
   1  -9  26   -4.20    6.65
  -1  -9  26    6.89    3.57
   1  -9  26   -1.13    3.40
  -1   9  26    9.98    4.48
  -1  -9 -26   -7.91    9.70
  -1   9  26   -0.29    3.88
  -1   9  27   33.50   10.27
  -1  -9  27   43.13   14.52
   1  -9  27   40.35   12.06
  -1  -9  27   31.49   13.07
  -1  -9 -27   35.48   11.61
   1  -9  27   36.75   12.96
   1  -9 -27   17.27   10.72
   1   9  27   53.71   14.34
  -1 -10   0    3.02    4.48
   1 -10   0    2.01    3.15
   1 -10   0    2.49    5.56
  -1 -10   0    2.64    4.27
  -1 -10   1  123.79   17.83
   1 -10   1  101.57   15.90
   1 -10  -1  108.95   16.92
  -1 -10  -1   92.99   14.39
   1 -10  -1  109.48   16.11
  -1 -10  -1   78.88   13.75
  -1 -10   1   99.90   15.73
   1 -10   1  121.54   17.74
   1 -10   2   51.34   11.53
  -1 -10  -2   33.23   10.62
   1 -10  -2   55.90   11.95
  -1 -10   2   61.85   13.57
   1 -10  -2   47.99   10.62
  -1 -10   2   35.11    9.01
   1 -10   2   59.86   11.92
  -1 -10  -2   52.03   11.18
  -1 -10  -3  276.70   24.73
  -1 -10   3  307.07   28.44
   1 -10   3  299.26   26.99
   1 -10   3  303.89   27.85
  -1 -10   3  275.41   24.71
  -1 -10  -3  290.66   27.28
   1 -10  -3  281.23   25.94
   1 -10  -3  253.96   25.14
  -1 -10   4    1.27    2.35
  -1 -10  -4   13.94    7.59
  -1 -10  -4   19.15    6.19
   1 -10   4   -0.18    3.67
  -1 -10   4    6.35    6.43
   1 -10  -4    9.80    4.04
   1 -10  -4    4.83    5.04
   1 -10   4   13.81    3.18
  -1 -10   5  237.45   24.92
  -1 -10  -5  257.65   23.69
   1 -10   5  228.13   23.44
  -1 -10   5  272.61   24.77
  -1  10   5  192.58   20.43
   1 -10   5  263.26   25.97
  -1 -10  -5  227.53   24.05
   1 -10  -5  209.19   23.54
   1 -10  -5  225.26   23.39
   1 -10   6  143.96   18.61
  -1  10   6  122.58   16.45
   1 -10   6  197.01   23.40
  -1 -10   6  173.73   19.31
   1 -10  -6  187.75   21.20
  -1 -10  -6  157.46   18.60
   1 -10  -6  171.94   21.37
  -1 -10   6  191.59   23.04
  -1 -10  -6  160.26   20.50
   1 -10   7  133.50   18.08
  -1 -10   7  135.91   17.62
  -1  10   7   89.99   14.70
   1 -10  -7  112.18   17.24
  -1 -10   7  126.14   17.98
  -1 -10  -7  108.56   16.16
  -1 -10  -7  107.75   17.56
   1 -10  -7  138.92   17.62
   1 -10   7  132.91   19.73
   1 -10   8   70.36   13.83
  -1 -10   8   60.51   12.16
  -1 -10  -8  103.82   16.64
  -1  10   8   92.16   14.83
   1 -10  -8   57.28   11.75
   1 -10   8   75.74   15.33
  -1 -10   8   83.22   14.06
   1 -10  -8   82.93   15.92
   1 -10  -9  111.60   16.27
  -1  10   9   93.25   15.44
   1 -10   9  115.21   17.09
  -1 -10   9   66.49   13.32
  -1 -10  -9  106.82   16.62
   1 -10   9   97.79   15.82
   1 -10  -9   95.89   16.22
  -1 -10   9   92.38   14.18
   1 -10  10  448.74   35.66
  -1 -10  10  472.07   33.04
   1 -10 -10  460.21   35.53
  -1 -10 -10  479.08   36.70
  -1 -10  10  507.07   38.04
  -1  10  10  441.13   33.16
   1 -10  10  458.88   33.59
   1 -10  11   22.31   10.00
  -1 -10  11   31.11    9.59
   1  10  11   43.27   11.57
  -1  10  11   18.92    6.69
  -1 -10 -11   18.67    5.90
   1 -10  11   12.75    4.47
  -1 -10  11   23.95    6.72
   1 -10 -11   27.06   10.14
   1 -10  12  108.77   18.41
   1 -10 -12   83.61   16.48
  -1  10  12   90.53   15.80
  -1 -10  12  110.24   16.63
   1  10  12   74.64   13.31
  -1 -10 -12   93.83   16.39
  -1 -10  12  114.10   17.78
   1 -10  12   85.35   14.61
   1 -10  13   84.92   15.07
  -1 -10  13   96.52   16.54
  -1 -10 -13   96.36   16.63
  -1 -10  13   99.63   17.94
   1 -10  13   74.32   13.68
  -1  10  13   66.78   14.31
   1 -10 -13   71.55   14.44
  -1  10  13   93.26   15.82
   1  10  13   93.03   15.01
  -1 -10 -14    4.20    2.32
  -1 -10  14    1.65    2.18
   1 -10 -14   16.46    8.19
   1 -10  14    9.37    2.49
  -1  10  14   12.21    6.59
  -1 -10  14   12.68    6.23
   1 -10  14    6.12    4.38
   1 -10  14   10.78    7.29
   1  10  14   12.38    9.64
  -1  10  14    3.54    4.31
   1 -10 -15   -1.27    6.41
  -1 -10  15    0.76    3.58
  -1 -10  15   24.33   12.22
   1 -10  15   -0.62    4.61
  -1 -10  15    3.74    6.98
   1  10  15   -1.33    5.17
  -1 -10 -15   -5.42    5.32
   1 -10  15    3.32    5.55
  -1  10  15   -7.22    6.09
  -1  10  15    4.28    5.23
   1 -10  15    3.34    3.85
   1 -10  16  122.83   19.80
   1 -10 -16  133.29   21.00
  -1  10  16  143.42   20.35
  -1 -10 -16  136.63   20.90
  -1  10  16  142.02   21.18
   1 -10  16  106.31   17.52
  -1 -10  16  153.59   21.38
  -1 -10  16  149.29   21.90
  -1 -10  16  143.48   21.04
   1  10  16  120.33   18.66
   1 -10  16  133.04   20.43
   1 -10  17   20.01    8.08
   1 -10 -17   35.85   13.97
  -1 -10  17   13.38    6.30
  -1 -10 -17   20.98    6.85
  -1 -10  17   21.67    8.48
  -1  10  17   36.09   10.58
   1 -10  17   17.59    7.47
  -1  10  17   31.24    9.99
   1 -10  17   27.81    9.57
   1  10  17   22.93    9.65
  -1 -10  17   19.45    8.99
  -1 -10 -18   28.50   10.25
   1 -10 -18    5.54    6.49
   1  10  18    8.16    4.64
  -1  10  18   19.12    9.45
   1 -10  18   18.75    8.70
  -1  10  18    9.84    6.15
   1 -10  18   13.08    7.19
   1 -10  18   24.74    9.05
  -1 -10  18   18.59    8.32
  -1 -10  18   40.25   11.25
  -1 -10  18    4.04    2.81
  -1  10  19   12.41    4.92
   1 -10  19    7.30    6.70
   1 -10 -19    8.73    6.97
  -1  10  19    6.86    7.79
  -1 -10 -19    7.38    5.75
  -1 -10  19    4.82    3.68
   1  10  19   10.26    5.56
   1 -10  19    1.87    4.25
   1 -10  19   18.37    9.22
  -1 -10  19   -1.58    5.63
  -1 -10  19   28.52   10.89
   1 -10 -20  203.40   25.67
  -1 -10 -20  210.04   27.30
   1 -10  20  200.86   25.61
  -1  10  20  185.18   24.10
  -1 -10  20  200.02   25.51
  -1 -10  20  144.81   22.34
   1  10  20  226.27   25.97
  -1 -10  20  158.43   24.12
   1 -10  20  184.47   24.36
   1 -10  20  173.32   24.20
   1 -10  21   -4.61    3.79
  -1 -10  21   -0.03    4.82
   1 -10 -21    5.70    7.24
  -1 -10  21   -0.67    3.97
  -1 -10 -21    0.59    3.58
   1 -10  21   -0.26    3.80
   1 -10  21    5.52    3.30
  -1 -10  21   -1.26    5.73
  -1  10  21   -0.91    5.08
   1  10  21   -0.80    4.14
   1 -10  22   10.31    5.22
  -1  10  22   14.89    8.56
  -1 -10 -22   13.59    6.98
   1 -10  22   20.75    7.06
   1 -10  22   11.26    4.83
   1 -10 -22   27.62   10.17
  -1 -10  22    7.34    4.32
  -1 -10  22   12.50    7.57
  -1 -10  22   19.93    7.74
   1  10  22    0.97    3.68
   1 -10  23   -2.61    3.34
  -1 -10  23    0.09    5.27
  -1 -10  23   -3.24    7.37
   1 -10 -23   -7.93    7.93
  -1 -10 -23    2.99    7.15
  -1  10  23    4.13    5.60
   1  10  23    8.31    2.98
  -1 -10  23    5.87    5.97
   1 -10  23    9.09    5.03
   1 -10  24   36.21   12.45
   1 -10 -24   37.46   11.23
  -1  10  24   43.62   13.30
  -1 -10  24   22.37    9.38
  -1 -10 -24   22.07    7.24
  -1 -10  24   46.97   13.96
   1  10  24   45.31   12.40
   1 -10  24   39.31   12.34
  -1 -10  25    6.81    9.28
  -1 -10  25    1.26    4.81
  -1 -10 -25   -2.13    4.08
   1 -10  25    1.20    4.93
   1 -10  25   -7.95    7.76
  -1  10  25   -0.13    3.46
   1  10  25    4.92    7.12
   1 -10 -25   -1.42    4.48
   1 -11   0   -2.32    1.85
  -1 -11   0    3.92    8.27
   1 -11   0    4.38    2.08
  -1 -11   0    9.95    5.99
   1 -11  -1   -0.93    2.62
  -1 -11   1   -1.13    3.80
  -1 -11  -1    1.28    3.27
   1 -11   1    5.23    5.71
   1 -11  -1    4.75    3.42
   1 -11   1    4.92    6.61
  -1 -11   1    7.73    5.77
  -1 -11  -1    3.90    6.61
   1 -11   2   -0.95    5.74
  -1 -11  -2    8.51    6.63
   1 -11  -2    1.41    3.90
   1 -11  -2    2.29    3.36
  -1 -11  -2    8.50    5.20
  -1 -11   2    7.54    6.33
   1 -11   2   -1.36    2.49
  -1 -11   2    9.27    6.40
   1 -11  -3   61.97   13.59
   1 -11   3   70.81   13.39
  -1 -11  -3   76.68   14.56
  -1 -11   3   68.82   13.30
   1 -11   3   46.99   11.10
  -1 -11  -3   63.83   12.99
   1 -11  -3   33.32   10.96
  -1 -11   3   74.19   15.80
  -1 -11  -4   33.97   10.42
  -1 -11  -4   38.06   10.77
   1 -11  -4   36.40   10.70
  -1 -11   4   61.69   12.16
   1 -11   4   46.60   12.14
   1 -11  -4   39.93   10.88
   1 -11   4   29.71    8.80
  -1 -11   4   41.71   11.06
   1 -11   5   -1.45    2.45
  -1 -11   5    1.22    2.29
  -1 -11   5   -0.76    2.83
  -1 -11  -5    2.92    2.71
   1 -11  -5    6.84    7.07
   1 -11  -5   -1.43    4.65
   1 -11   5    4.35    4.53
  -1 -11  -5    7.11    2.86
   1 -11   6   -2.11    4.50
  -1 -11  -6   15.34    6.47
  -1 -11  -6   12.23    8.12
   1 -11  -6   14.59    5.46
   1 -11  -6    7.29    4.49
  -1 -11   6    6.74    3.92
  -1 -11   6    5.99    2.21
   1 -11   6    9.48    6.09
   1 -11  -7   22.03    9.56
   1 -11   7   24.91    7.45
   1 -11   7   14.02    6.22
  -1 -11  -7   30.32    7.01
  -1 -11   7   26.26    7.51
   1 -11  -7   37.25    9.53
  -1 -11  -7   23.46    8.08
  -1 -11   7   28.11    9.92
  -1 -11   8  207.55   22.57
   1 -11  -8  174.02   23.12
  -1 -11  -8  201.76   22.78
   1 -11   8  147.88   20.22
  -1 -11  -8  168.42   21.76
   1 -11  -8  200.48   23.21
  -1 -11   8  111.13   17.89
   1 -11   8  152.61   20.45
  -1 -11   9   12.27    6.89
  -1 -11  -9    6.21    4.97
   1 -11   9   11.72    3.68
   1 -11  -9   11.07    7.52
  -1 -11   9   14.59    6.45
  -1 -11  -9   -2.21    4.15
   1 -11   9    7.43    6.28
   1 -11  -9   -4.75    7.26
  -1 -11  10  239.06   27.32
   1 -11  10  210.06   24.88
  -1 -11 -10  228.31   26.89
   1 -11 -10  225.30   24.85
   1 -11 -10  222.15   25.54
  -1 -11  10  210.24   23.47
   1 -11  10  253.25   25.27
  -1 -11  11   16.74    7.97
   1 -11 -11   17.26    7.16
   1 -11  11    7.33    6.36
  -1 -11  11   10.22    6.05
  -1 -11 -11   18.66    7.51
   1 -11  11    6.01    3.27
   1 -11 -11   18.57    9.53
  -1 -11  12   62.95   13.52
  -1 -11  12   38.43   10.55
  -1 -11 -12   46.17   10.39
   1 -11 -12   53.29   11.95
   1 -11  12   42.76    9.99
   1 -11  12   61.01   13.71
  -1 -11  13   12.62    5.69
   1 -11  13   27.37    9.65
  -1 -11 -13   20.26    9.30
  -1 -11  13   14.38    5.77
   1 -11  13    6.50    5.41
   1 -11 -13   12.62    9.52
   1  11  13    1.07    2.73
   1 -11  14    8.88    6.78
   1 -11  14   -0.47    4.32
  -1 -11  14   -2.39    5.75
  -1 -11 -14    6.50    6.30
  -1 -11  14    2.16    4.87
   1  11  14    2.19    2.33
   1 -11  14    5.18    4.65
   1 -11 -14    3.77    4.36
   1 -11  15   10.88    8.82
  -1 -11 -15    2.66    5.56
   1 -11 -15    1.44    3.12
   1 -11  15    1.30    3.90
  -1 -11  15    0.40    2.81
  -1 -11  15    0.79    2.31
   1  11  15   -1.40    3.19
   1 -11  15    0.97    2.79
   1 -11  16    6.08    5.57
   1 -11  16    2.75    6.76
  -1 -11  16    1.41    4.45
  -1  11  16    7.87    5.94
   1 -11  16    8.61    6.35
   1 -11 -16    7.41    6.60
  -1 -11 -16   13.90    6.34
  -1 -11  16   15.42    7.64
   1  11  16   12.23    6.65
   1 -11 -17   25.29    9.49
   1 -11  17   35.78   11.09
  -1 -11 -17   39.66   11.10
   1  11  17   19.82    7.07
  -1 -11  17   14.67    5.29
  -1  11  17   23.91    7.89
  -1 -11  17   11.06    6.14
   1 -11  17   43.76   12.99
   1 -11  17   13.86    8.05
  -1 -11 -18    2.07    3.60
  -1 -11  18   -3.90    4.36
  -1 -11  18   -5.14    2.87
   1 -11 -18   -0.91    3.50
   1  11  18   -0.94    3.51
  -1  11  18   -2.13    5.09
   1 -11  18   -2.81    3.94
   1 -11  18    6.60    4.23
   1 -11  18    0.50    7.03
  -1 -11  19   16.15    5.88
  -1  11  19   21.11    9.36
   1 -11 -19   26.28   10.77
   1 -11  19   21.69    8.52
  -1 -11 -19   13.85    5.80
  -1 -11  19   32.35    9.83
   1 -11  19   18.51    9.32
   1 -11  19   14.58    6.69
   1  11  19   14.02    7.02
   1 -11  20   15.16    5.07
  -1 -11  20   12.07    6.19
  -1 -11  20   22.23    8.59
  -1 -11 -20   25.63   10.74
   1 -11 -20   48.38   12.49
   1 -11  20   23.13    8.05
   1  11  20   22.47    9.28
  -1  11  20   23.60   10.76
   1 -11  20   20.26    9.25
   1 -11  21  -10.06   10.16
   1  11  21   15.75    8.04
  -1 -11 -21   18.72    7.81
  -1 -11  21   23.80   10.36
   1 -11 -21    9.93    2.65
   1 -11  21    4.58    3.76
   1 -11  21   17.07    8.71
  -1 -11  21   23.39   10.29
  -1  11  21   16.06    9.03
   1  11  22    1.71    3.02
   1 -11  22    0.94    6.95
   1 -11  22   -2.22    5.26
  -1  11  22   -2.82    6.57
  -1 -11 -22    7.97    6.51
   1 -11  22    4.37    5.47
   1 -11 -22    0.98    4.45
  -1 -11  22   -2.50    5.12
   1  11  23   -0.51    5.08
  -1 -11 -23    9.10    5.98
   1 -11 -23    1.97    4.81
  -1  11  23    8.16    5.29
   1 -11  23    7.53    6.49
   1 -11  23   10.38    7.76
  -1 -11  23    2.70    7.15
   1 -11  23   10.46    8.35
  -1 -11 -24   10.54    9.52
   1 -11 -24    1.59    5.07
  -1 -11  24   -2.31    3.79
   1 -11  24  -11.21    9.57
   1  11  24    4.33    4.70
  -1  11  24    9.58    9.10
   1 -11  24   -1.09    5.58
   1 -12   0    1.38    3.85
  -1 -12   0    1.44    3.02
   1 -12   0   -1.07    3.37
  -1 -12   0   -2.36    2.98
  -1 -12   1    1.93    4.32
   1 -12   1    6.68    5.73
   1 -12  -1   -6.43    7.36
   1 -12   1   14.18    6.58
  -1 -12  -1   -2.37    2.83
  -1 -12   1   -2.95    4.21
   1 -12  -1   -4.45    3.26
  -1 -12  -1    8.33    8.13
   1 -12  -2   68.39   14.86
   1 -12   2   66.34   12.54
  -1 -12   2   85.65   15.40
   1 -12   2   53.84   13.36
   1 -12  -2   43.78   11.38
  -1 -12   2   68.28   13.56
  -1 -12  -2   53.81   11.74
  -1 -12  -2   67.37   14.44
  -1 -12  -3   11.78    7.14
   1 -12  -3    6.19    4.04
   1 -12  -3    5.89    5.22
  -1 -12  -3   14.51    6.03
  -1 -12   3    3.84    3.54
   1 -12   3   21.29    8.82
  -1 -12   3    4.79    3.83
   1 -12   3    4.25    2.85
  -1 -12   4    2.07    3.39
  -1 -12  -4    0.60    4.14
   1 -12  -4    2.26    5.02
  -1 -12   4   10.39    5.56
   1 -12  -4    1.89    3.71
   1 -12   4    2.14    5.04
  -1 -12  -4   -2.34    3.13
   1 -12   4   -2.78    4.75
  -1 -12  -5   19.46   10.52
  -1 -12   5   18.52    8.17
   1 -12  -5    8.10    6.44
   1 -12  -5    7.43    6.36
   1 -12   5    7.79    5.85
   1 -12   5    9.64    4.77
  -1 -12   5    1.63    4.51
  -1 -12  -5    3.09    4.31
  -1 -12  -6    5.69    4.00
  -1 -12   6   11.66    5.93
  -1 -12   6   -3.96    2.05
  -1 -12  -6   17.55    8.94
   1 -12  -6    8.55    5.85
   1 -12   6    8.50    7.32
   1 -12  -6    4.92    3.30
   1 -12   6    2.25    4.47
  -1 -12  -7   18.00    7.61
   1 -12  -7   29.26    9.94
   1 -12   7   23.59    7.74
   1 -12  -7   39.91   12.25
   1 -12   7   24.85    9.94
  -1 -12   7   24.11    8.07
  -1 -12   7   27.26   11.18
  -1 -12  -7   18.71    8.03
  -1 -12   8   53.70   14.48
   1 -12  -8   48.58   11.76
  -1 -12  -8   26.16    8.45
  -1 -12  -8   24.81    9.86
  -1 -12   8   33.32   10.09
   1 -12  -8   30.38    8.05
   1 -12   8   56.33   11.57
   1 -12   8   27.44   10.17
   1 -12   9   98.50   17.11
  -1 -12   9   78.85   14.49
   1 -12  -9   89.53   15.86
  -1 -12  -9  121.82   20.49
   1 -12  -9  117.10   20.11
  -1 -12  -9   91.90   16.07
   1 -12   9   85.59   15.13
  -1 -12   9   87.38   16.71
  -1 -12 -10   10.39    6.46
   1 -12  10   26.30    7.82
   1 -12 -10   22.19    9.11
  -1 -12  10    2.85    6.22
   1 -12  10   13.17    6.76
   1 -12 -10    6.64    5.59
  -1 -12 -10   27.89    9.77
  -1 -12  10    5.91    4.09
  -1 -12  11    2.62    5.51
  -1 -12 -11    5.46    5.62
  -1 -12  11   -5.59    6.89
   1 -12 -11   -1.18    2.92
   1 -12  11    5.03    2.10
  -1 -12 -11    5.59    6.80
   1 -12  11    3.16    2.94
   1 -12 -11   -2.69    3.02
   1 -12 -12   21.08    9.47
  -1 -12  12   10.43    7.21
  -1 -12  12    9.64    4.67
   1 -12  12    9.48    7.98
  -1 -12 -12   20.46    8.59
   1 -12 -12   16.89    5.30
   1 -12  12    7.77    5.69
  -1 -12 -13  187.84   25.40
   1 -12 -13  157.75   22.37
   1 -12 -13  152.22   22.94
   1 -12  13  150.83   22.21
  -1 -12  13  162.06   22.95
  -1 -12  13  141.01   20.53
   1 -12  13  160.81   21.94
   1 -12  14   -3.19    6.27
  -1 -12  14    2.96    2.29
   1 -12  14    6.80    7.68
   1 -12 -14    0.23    4.33
  -1 -12 -14    0.68    2.66
  -1 -12  14    8.43    8.59
  -1 -12  15   -0.79    3.60
   1 -12 -15   -1.83    2.68
  -1 -12 -15    0.50    3.76
   1 -12  15    3.37    3.49
   1 -12  15   -5.67    4.91
  -1 -12  15    4.81    5.81
   1 -12  16   60.48   16.81
   1 -12  16   68.53   14.36
  -1 -12  16   76.76   16.89
  -1 -12 -16   64.08   14.97
   1 -12 -16   59.07   14.02
  -1 -12  16   44.64   11.60
   1 -12  17   12.21    9.56
  -1 -12  17   11.71    6.53
   1 -12 -17   26.20   11.58
   1  12  17   26.21    9.57
  -1 -12 -17   18.64    7.23
  -1 -12  17   17.86    7.25
   1 -12  17    3.98    2.60
   1 -12  18   -0.14    3.53
  -1 -12  18   20.03    8.09
   1 -12  18   12.43    7.95
  -1 -12 -18   29.28    9.30
   1 -12 -18    5.16    3.74
  -1 -12  18    8.35    4.90
   1  12  18    4.25    4.63
   1  12  19   82.10   16.90
   1 -12  19   30.24   11.58
  -1 -12 -19   60.36   12.88
   1 -12 -19   62.28   14.45
   1 -12  19   33.99   11.55
  -1 -12  19   66.96   15.25
  -1 -12 -20    5.09    8.44
   1 -12  20    2.47    5.69
  -1 -12  20    0.65    3.71
  -1  12  20    8.32    7.14
   1  12  20   -3.55    2.42
   1 -12  20   -6.94    6.92
   1 -12 -20    3.73    5.20
   1 -12  21   -3.60    6.48
  -1 -12  21  -10.66    7.72
  -1  12  21   10.40    9.19
  -1 -12 -21    3.19    2.71
   1 -12 -21   -0.60    5.13
   1 -12  21   -0.31    4.10
   1  12  21   -4.07    4.33
   1 -12  22   11.38    6.16
  -1 -12 -22   16.87    9.10
  -1 -12  22   12.65    8.37
   1 -12 -22    2.15    3.67
   1  12  22   -5.36    4.21
   1 -12  22    5.85    6.60
  -1  12  22   26.73    9.31
   1 -13   0   -0.50    3.08
  -1 -13   0   -4.91    5.12
   1 -13   0   -1.67    6.51
  -1 -13   0   -1.82    3.94
  -1 -13   1   42.74   11.39
   1 -13   1   45.39   13.77
  -1 -13  -1   31.17    9.37
   1 -13  -1   32.70    8.58
  -1 -13   1   41.08   12.61
   1 -13  -1   57.96   13.96
   1 -13   1   40.70   11.29
  -1 -13  -1   35.69   10.45
  -1 -13  -2   22.83    8.84
   1 -13   2   19.47   10.73
  -1 -13  -2   10.23    5.69
   1 -13  -2   16.05    9.77
  -1 -13   2   10.26    6.83
   1 -13   2   25.75    9.95
  -1 -13   2   12.04    3.30
   1 -13  -2    6.06    3.75
   1 -13   3   23.51    7.53
  -1 -13   3   29.67    8.75
   1 -13   3   31.31   11.12
  -1 -13   3   13.23    5.51
  -1 -13  -3   25.37    9.68
  -1 -13  -3   16.60    8.36
   1 -13  -3    6.84    2.11
   1 -13  -3   19.66    8.15
   1 -13  -4   53.63   14.53
   1 -13   4   56.94   13.28
   1 -13   4   49.24   13.20
  -1 -13  -4   41.49   11.16
  -1 -13  -4   36.57   11.73
   1 -13  -4   28.85   10.12
  -1 -13   4   46.67   12.32
  -1 -13   4   33.41   10.08
  -1 -13  -5   -0.95    4.20
  -1 -13   5    5.32    3.44
   1 -13   5    4.94    4.88
  -1 -13  -5    6.69    8.06
   1 -13  -5   -0.13    5.83
   1 -13   5   10.16    6.27
  -1 -13   5    6.95    6.50
   1 -13  -5   -1.89    4.10
   1 -13   6   14.13    5.78
   1 -13  -6   -0.10    1.85
  -1 -13   6   -1.45    3.78
  -1 -13  -6    6.55    2.75
   1 -13  -6    6.91    4.34
   1 -13   6    9.38    6.56
  -1 -13  -6   -3.53    5.96
  -1 -13   6   -0.31    5.40
  -1 -13  -7   -2.49    5.79
  -1 -13  -7    7.58    7.42
   1 -13   7   14.17    5.36
   1 -13  -7    4.20    4.31
   1 -13  -7   15.68    7.32
   1 -13   7   14.73    8.67
  -1 -13   7   13.86    7.55
  -1 -13   7    0.56    6.70
  -1 -13   8    5.59    4.60
  -1 -13   8    7.91    6.10
   1 -13   8    8.80    7.27
   1 -13  -8   12.12    7.07
   1 -13   8    0.05    3.24
   1 -13  -8    4.80    5.69
  -1 -13  -8   -2.06    3.87
  -1 -13  -8   15.46   10.87
  -1 -13  -9   86.90   15.67
   1 -13   9   90.51   17.59
  -1 -13  -9   93.96   18.02
   1 -13  -9   80.05   16.95
   1 -13   9   83.67   15.17
  -1 -13   9   79.20   16.75
   1 -13  -9   63.29   14.18
  -1 -13   9   62.41   14.39
  -1 -13  10    5.99    7.04
   1 -13  10   -0.91    3.89
   1 -13 -10   -0.98    2.82
  -1 -13 -10   31.25   11.20
   1 -13  10   11.45    7.12
  -1 -13  10   21.15    9.15
  -1 -13 -10    4.04    2.42
   1 -13 -10    5.96    4.96
   1 -13 -11   -0.27    1.93
   1 -13  11    3.45    5.44
   1 -13  11   -5.25    6.24
  -1 -13  11   -2.52    4.77
  -1 -13 -11   -5.11    2.37
  -1 -13 -11   -0.16    6.14
  -1 -13  11    0.63    3.96
   1 -13 -11   -9.31    7.31
   1 -13  12   21.09    6.26
  -1 -13  12   37.15   10.39
  -1 -13 -12   42.17   11.52
   1 -13 -12   40.32   13.93
   1 -13  12   41.35   11.55
  -1 -13  12   29.93   10.59
   1 -13 -12   40.48   11.02
  -1 -13 -12   25.83   10.37
  -1 -13  13    8.04    4.96
   1 -13 -13    0.22    2.48
   1 -13  13   -5.31    7.06
  -1 -13  13   -3.23    5.94
  -1 -13 -13    2.87    5.80
   1 -13  13   -0.03    3.84
  -1 -13 -13  -11.58    9.14
   1 -13 -13   -0.85    4.70
   1 -13 -14   22.31    9.23
  -1 -13  14   16.30    8.11
   1 -13  14    6.45    6.08
  -1 -13 -14   18.69    9.47
  -1 -13  14   14.26    8.47
   1 -13  14   37.13   11.85
   1 -13 -14    4.77    4.03
  -1 -13 -14   28.32   12.17
  -1 -13  15   40.54   13.78
   1 -13  15   49.82   14.97
  -1 -13  15  100.13   18.89
  -1 -13 -15   56.41   14.23
   1 -13 -15   68.76   15.90
   1 -13  15   76.79   16.46
   1 -13 -15   75.49   14.00
   1 -13  16   -6.66    7.93
  -1 -13  16   12.79    7.94
   1 -13  16    8.99    7.78
   1 -13 -16   -0.86    5.45
  -1 -13 -16   -1.17    4.46
   1 -13 -16    6.51    4.62
   1 -13  17    6.02    5.47
  -1 -13  17   14.80    5.99
   1 -13 -17    6.32    6.00
  -1 -13 -17   -0.43    4.19
   1 -13  17    9.34    8.48
   1 -13 -18   20.26    8.18
  -1 -13  18   19.25    8.26
  -1 -13 -18   17.72   10.78
   1 -13  18    6.97    5.73
   1 -13  18    7.22    5.67
   1 -13  19    1.15    3.79
   1 -13  19   -2.41    3.04
   1 -13 -19   -5.80    6.56
  -1 -13 -19   16.74    9.87
  -1 -13  19    9.78    8.48
   1 -13  20   -2.89    4.60
   1 -13  20   -1.47    7.12
  -1 -13 -20    7.51    5.74
  -1 -13  20   -6.04    6.10
   1 -13 -20   -1.55    3.42
  -1 -14   0    3.91    7.86
   1 -14   0   -2.89    5.65
  -1 -14   0   12.37    9.06
   1 -14   0    1.46    6.68
  -1 -14   1   22.82    8.85
   1 -14   1   24.14   10.88
  -1 -14  -1   21.18    8.09
   1 -14  -1   15.58    7.66
   1 -14   1   27.60    9.42
  -1 -14   1   12.61    6.01
   1 -14  -1    8.28    6.40
  -1 -14  -1   20.24    8.91
   1 -14   2   13.17    6.55
  -1 -14   2   19.76    8.78
  -1 -14   2   18.12    7.45
  -1 -14  -2   11.37    8.01
   1 -14  -2    9.41    6.00
  -1 -14  -2   33.50   10.30
   1 -14  -2    1.17    4.70
   1 -14   2   40.58   12.54
  -1 -14   3   31.22    9.51
   1 -14   3   36.63   11.37
  -1 -14  -3   20.77    9.92
   1 -14  -3   17.85    8.02
  -1 -14  -3    8.41    3.44
   1 -14  -3   13.86    7.59
  -1 -14   3   15.10    6.47
   1 -14   3   27.51   10.90
  -1 -14   4   -6.22    6.68
   1 -14   4   -2.05    5.60
  -1 -14   4   -0.58    6.14
   1 -14  -4   -4.57    5.42
   1 -14  -4   -2.31    6.94
  -1 -14  -4   -6.22    4.29
  -1 -14  -4    4.88    4.18
   1 -14   4    1.58    6.01
  -1 -14   5   77.15   15.79
   1 -14   5   49.79   12.40
  -1 -14   5   61.72   15.16
   1 -14   5   48.99   13.19
  -1 -14  -5   81.79   16.49
   1 -14  -5   73.52   16.40
   1 -14  -5   43.75   12.80
  -1 -14  -5   37.93   12.09
  -1 -14   6   91.66   18.12
   1 -14   6   80.87   17.76
   1 -14  -6   74.52   15.95
  -1 -14  -6   53.14   13.00
  -1 -14   6   96.11   16.85
   1 -14  -6   38.92   11.44
  -1 -14  -6   77.73   17.04
   1 -14   6   88.67   17.46
  -1 -14   7    3.98    7.09
   1 -14   7   -1.22    2.83
  -1 -14  -7   -8.35    7.31
   1 -14  -7   -5.50    7.34
   1 -14  -7    0.87    2.55
  -1 -14   7    5.91    8.74
  -1 -14  -7    2.21    7.00
   1 -14   7    0.20    4.66
   1 -14  -8    5.49    6.58
   1 -14  -8    3.60    4.69
   1 -14   8    3.05    5.25
  -1 -14   8    1.89    3.57
   1 -14   8    6.38    7.48
  -1 -14  -8   14.86    7.99
  -1 -14  -8    7.94    4.88
  -1 -14   8   -3.43    5.15
  -1 -14  -9   25.36    9.81
   1 -14   9   20.37    8.28
   1 -14   9   18.80    9.79
  -1 -14  -9   22.39    9.39
   1 -14  -9   19.09    6.61
   1 -14  -9    5.27    5.55
  -1 -14   9   16.29    7.81
  -1 -14   9   11.05    6.56
  -1 -14 -10   46.28   15.12
   1 -14 -10   48.54   14.21
   1 -14  10   44.61   14.35
   1 -14 -10   45.63   11.95
   1 -14  10   39.85   13.01
  -1 -14  10   54.82   13.42
  -1 -14  10   65.96   14.15
  -1 -14 -10   51.66   14.00
  -1 -14  11   -1.35    6.06
   1 -14 -11    3.22    4.32
   1 -14 -11   -1.85    6.42
  -1 -14 -11    0.06    2.83
   1 -14  11    7.32    5.72
  -1 -14 -11   16.77    7.51
   1 -14  11    0.64    4.74
   1 -14 -12   21.92    8.49
   1 -14  12    8.63    6.00
   1 -14 -12    8.98    8.42
  -1 -14  12    1.82    4.83
  -1 -14 -12   29.56   11.56
   1 -14  12    6.86    8.45
  -1 -14 -12   17.95    9.94
  -1 -14  13   29.54   10.44
  -1 -14 -13   13.03    8.25
   1 -14  13   19.20    8.94
  -1 -14 -13   36.22   11.83
   1 -14 -13   26.20    8.71
   1 -14  13   26.47   10.52
   1 -14 -13   45.40   13.08
   1 -14 -14   12.01    8.14
   1 -14  14   16.89    8.14
  -1 -14 -14   26.00    9.60
   1 -14  14   23.71    9.02
  -1 -14 -14   31.64   11.38
   1 -14 -14   20.43    8.84
  -1 -14  14   34.69   12.89
  -1 -14 -15   44.14   11.89
  -1 -14  15   42.93   11.49
   1 -14  15   30.45    8.96
  -1 -14 -15   49.50   13.46
   1 -14 -15   40.26   11.31
   1 -14  15   53.24   14.93
   1 -14 -15   49.38   13.17
   1 -14  16   59.39   16.53
   1 -14  16   68.20   14.89
  -1 -14 -16   31.25   11.19
  -1 -14  16   54.73   15.68
   1 -14 -16   50.41   15.39
   1 -14 -16   57.12   13.17
  -1 -14 -16   40.93   10.51
  -1 -14  17   40.14   14.32
  -1 -14 -17   40.32   11.87
  -1 -14 -17   23.01    9.06
   1 -14 -17   28.86   11.34
   1 -14  17   41.82   12.45
   1 -14  17   24.71   13.05
   1 -14 -17   18.92    6.96
  -1 -15   0    0.41    5.32
   1 -15   0    3.68    7.84
  -1 -15   0   -0.03    2.78
   1 -15   0   -0.30    3.19
  -1 -15  -1   -0.06    2.69
   1 -15  -1    8.19    8.09
   1 -15   1    2.55    2.97
  -1 -15   1   -7.33    4.70
   1 -15  -1    1.25    6.88
  -1 -15  -1   -2.85    4.11
   1 -15   1    2.35    4.77
  -1 -15   1   -0.64    3.48
  -1 -15   2   59.64   13.44
  -1 -15   2   39.90   11.29
   1 -15   2   66.19   16.29
   1 -15   2   54.44   13.57
  -1 -15  -2   72.40   16.45
   1 -15  -2   48.07   14.34
  -1 -15  -2   38.79   10.92
   1 -15  -2   38.52   12.14
  -1 -15   3   25.80   12.28
  -1 -15  -3   10.20    9.09
   1 -15  -3   26.05   12.08
  -1 -15   3   17.27    8.67
   1 -15   3    3.93    4.41
   1 -15  -3   14.44    8.66
  -1 -15  -3   24.17    9.62
   1 -15   3   18.45    8.52
  -1 -15  -4   17.70    9.86
   1 -15   4    1.65    2.82
   1 -15  -4    8.24    8.47
   1 -15   4   28.78    9.52
  -1 -15   4    9.70    6.01
  -1 -15  -4   -0.06    5.46
  -1 -15   4   23.76    9.91
   1 -15  -4   20.67    8.44
   1 -15   5   -1.20    3.72
   1 -15  -5    4.19    1.87
  -1 -15  -5    5.59    2.19
   1 -15  -5   11.74    8.74
  -1 -15  -5    1.86    3.56
  -1 -15   5    7.79    3.41
  -1 -15   5    1.90    4.43
   1 -15   5   -6.07    5.76
   1 -15  -6   32.49   11.66
   1 -15  -6   16.19    9.61
  -1 -15   6   17.47   10.04
   1 -15   6   24.48    9.40
  -1 -15  -6   29.78   12.73
   1 -15   6   18.69    9.97
  -1 -15   6   52.56   14.02
  -1 -15  -6    4.95    7.57
  -1 -15   7   13.10    7.76
   1 -15  -7   16.51    5.67
   1 -15  -7   47.86   12.76
  -1 -15  -7   10.33    6.84
   1 -15   7   31.13    9.53
  -1 -15   7   -7.94    5.15
   1 -15   7   20.83    6.44
  -1 -15  -7   26.79   10.43
  -1 -15   8    7.30    6.90
   1 -15   8   20.50    9.06
  -1 -15  -8   16.85    8.37
  -1 -15  -8   17.23    6.97
   1 -15  -8   40.21   12.91
   1 -15   8   23.70   10.07
   1 -15  -8   31.57   10.73
  -1 -15   9   16.22    5.71
  -1 -15  -9   21.72   10.44
   1 -15   9   15.82    7.90
   1 -15  -9    5.73    6.24
   1 -15   9   14.75    8.10
   1 -15  -9   13.44    6.76
  -1 -15  -9   10.27    7.85
   1 -15 -10   18.77    8.36
  -1 -15  10   42.51   13.25
  -1 -15 -10   34.30   10.79
  -1 -15 -10   18.76    7.51
   1 -15  10   25.02    9.82
   1 -15  10   25.41   10.29
   1 -15 -10   40.02   11.01
   1 -15  11   -6.30    7.66
  -1 -15 -11    2.77    4.80
  -1 -15  11    9.08    7.47
   1 -15 -11    5.58    3.19
   1 -15 -11    4.91    8.80
  -1 -15 -11    0.38    6.58
   1 -15  11    7.69    9.14
  -1 -15  12   22.64   12.23
  -1 -15 -12    3.24    5.35
  -1 -15 -12   22.38   10.45
   1 -15 -12   13.17    7.79
   1 -15  12   21.04   10.68
   1 -15 -12    8.03    6.34
   1 -15  12   26.39   10.26
   1 -15  13    1.70    8.87
  -1 -15 -13   -1.08    4.34
   1 -15  13   11.36    8.65
  -1 -15 -13    9.27    6.36
  -1 -15  13    9.17    7.98
   1 -15 -13    4.65    5.70
   1 -15 -13   16.96    8.84
  -1 -16   0   -0.12    5.91
   1 -16   0   -2.52    2.95
   1 -16   0    3.47    4.96
  -1 -16   1   -2.48    2.65
   1 -16   1   -2.20    4.29
   1 -16   1   10.27    6.33
   1 -16  -1   -2.02    8.02
   1 -16  -1   -3.46    4.57
  -1 -16   1  -10.95    6.62
  -1 -16  -1   -4.26    4.21
  -1 -16  -1   -1.00    4.05
  -1 -16  -2   96.42   18.74
  -1 -16   2  108.01   20.37
   1 -16   2  103.79   19.46
   1 -16  -2   94.80   19.30
   1 -16  -2   64.94   15.60
  -1 -16  -2   92.07   18.35
   1 -16   2   82.52   18.23
   1 -16   3    2.19    3.39
   1 -16   3   -2.81    6.57
   1 -16  -3   12.57   10.60
  -1 -16  -3    1.90    4.69
  -1 -16  -3   -4.64    6.08
   1 -16  -3    3.66    6.63
  -1 -16   3    4.37    7.33
   1 -16   4   -1.36    7.60
  -1 -16  -4   10.53    5.42
  -1 -16  -4   -4.67    5.70
   1 -16  -4    9.36    6.94
   1 -16   4   -2.62    3.95
   1 -16  -4   16.40   10.19
  -1 -16   4   16.85    8.65
  -1 -16  -5   10.86    7.15
   1 -16   5   -3.68    6.23
  -1 -16  -5   44.66   12.68
   1 -16  -5   25.41    7.31
  -1 -16   5    3.41    5.52
   1 -16  -5   23.55   11.45
   1 -16   5   31.70   10.65
  -1 -16   6   18.20   10.43
   1 -16   6    7.67    6.28
   1 -16  -6    9.14    2.77
   1 -16  -6   24.16   10.49
  -1 -16  -6   10.38    6.15
   1 -16   6   19.03    9.99
  -1 -16  -6   17.09   10.71
   1 -16  -7    8.67    7.35
  -1 -16   7   18.77    9.50
  -1 -16  -7    8.51    7.02
   1 -16  -7    7.65    3.84
   1 -16   7   26.67   11.90
   1 -16   7    1.07    4.72
  -1 -16  -7   13.34    4.56
   1 -16   8   25.08   12.01
   1 -16  -8   24.14   10.59
  -1 -16  -8    8.46    8.54
   1 -16  -8   27.98   10.35
  -1 -16   8   41.56   13.89
   1 -16   8   32.80   10.53
  -1 -16  -8   20.22    8.11
   2   0   0  758.83   14.95
  -2   0   0  706.87   21.09
  -2   0   1    0.06    1.49
   2   0  -1   -0.31    0.43
   2   0   1    0.34    0.39
  -2   0  -1    0.00    1.09
  -2   0   2 5297.81   58.47
   2   0   2 5088.96   47.91
  -2   0   3   -0.34    1.19
  -2   0   3    0.12    0.69
   2   0   3    2.45    1.79
  -2   0   4 2949.43   37.59
  -2   0   4 2998.70   48.53
  -2   0   5    0.50    0.98
   2   0   5    1.71    1.97
  -2   0   5   -2.04    1.63
  -2   0   6  448.64   17.85
   2   0   6  508.97   21.50
  -2   0   6  482.67   21.81
  -2   0   7    1.76    0.84
  -2   0   7   -0.56    1.98
   2   0   7   -1.01    1.34
   2   0   8 2164.84   50.37
  -2   0   8 2013.69   49.34
  -2   0   8 2062.66   43.63
  -2   0   9   -1.40    2.61
  -2   0   9    0.71    1.08
   2   0   9    0.68    2.65
  -2   0  10 5113.37   78.67
   2   0  10 5003.18   83.56
  -2   0  10 4950.85   84.71
  -2   0  11   -2.95    3.83
   2   0  11    0.88    1.50
  -2   0  11   -0.93    1.48
   2   0  11   -1.89    3.46
   2   0  12 1031.84   40.83
   2   0  12 1076.06   42.19
  -2   0  12 1056.34   41.67
  -2   0  12 1052.93   39.86
  -2   0  13    0.81    1.62
   2   0  13    2.75    2.94
  -2   0  13   -1.37    3.61
   2   0  13    7.79    5.14
  -2   0  14 1528.44   51.65
  -2   0  14 1479.59   53.12
   2   0  14 1488.68   52.46
   2   0  15   -2.93    4.59
  -2   0  15    3.74    3.57
  -2   0  15    1.09    1.34
   2   0  15    0.06    2.71
   2   0  16   46.72   10.20
  -2   0  16   70.81   11.78
  -2   0  16   76.05   12.60
   2   0  16   74.97   12.27
   2   0  17   -1.19    3.08
   2   0  17   -2.57    1.56
  -2   0  17   -2.19    3.15
  -2   0  17    2.45    3.77
   2   0  18  156.44   18.71
  -2   0  18  153.47   19.13
   2   0  18  153.76   19.29
  -2   0  18  140.16   17.65
  -2   0  19    1.38    1.83
   2   0  19   -2.13    3.05
  -2   0  19    4.97    3.83
   2   0  19   -1.60    3.16
  -2   0  20   69.93   12.68
  -2   0  20   82.98   14.91
   2   0  20   58.23   12.12
   2   0  20   67.60   13.59
  -2   0  21    0.08    4.27
   2   0  21   -0.06    5.57
   2   0  21   -1.89    3.67
  -2   0  21    2.18    6.64
  -2   0  22    1.79    3.84
   2   0  22   -0.96    3.70
   2   0  22   -0.99    6.86
  -2   0  22    1.99    3.74
  -2   0  23    1.80    2.19
   2   0  23    3.06    8.24
   2   0  23   -2.48    4.40
  -2   0  23   -0.72    4.74
  -2   0  24   18.71    9.71
   2   0  24   29.88   10.03
  -2   0  24   28.85   10.92
   2   0  24   23.12    7.01
   2   0  25    4.35    6.03
  -2   0  25   -3.05    3.55
  -2   0  25    1.79    4.42
   2   0  25    0.88    3.16
  -2   0  26   62.62   13.54
   2   0  26   68.51   15.49
  -2   0  26   48.30   12.14
   2   0  26   42.26   11.69
   2   0  27   -0.74    4.28
   2   0  27   -0.18    4.70
  -2   0  27   -4.32    2.35
  -2   0  27   -0.96    5.39
  -2   0  28    7.76    7.77
   2   0  28   -0.05    5.86
   2   0  28    0.99    6.40
  -2   0  28    3.78    4.88
  -2   0  29    2.15    4.95
   2   0  29    1.84    2.07
  -2   0  29    3.03    3.96
   2   0  29   -6.91    7.15
  -2   0  30   20.18    9.50
   2   0  30   28.35   11.49
   2   0  30    6.49    6.32
  -2   0  30    4.24    4.55
  -2   0  31   -1.72    5.40
   2   0  31   -3.28    5.51
   2   0  31   -3.74    3.72
  -2   0  31  -11.87    9.64
  -2   0  32   63.81   14.31
   2   0  32   53.46   14.32
   2   0  32   69.47   16.80
  -2   0  32   45.12   13.34
  -2   1   0 8466.10   81.19
   2  -1   0 8666.84   68.59
  -2   1   1 6926.67   71.75
   2  -1   1 6730.69   61.18
   2  -1  -1 6739.71   59.01
  -2   1  -1 6796.65   72.31
  -2  -1  -1 6617.84   48.39
  -2  -1   1 7225.41   55.55
  -2  -1   1 6421.66   56.89
  -2  -1   2   42.31    4.70
   2  -1   2   37.13    4.75
  -2  -1   2   39.19    4.72
  -2  -1  -2   49.74    4.23
  -2   1   2   43.35    5.89
   2   1   2   41.35    3.99
   2  -1   2   47.18    3.19
  -2  -1   3 2832.07   41.87
  -2   1   3 2724.69   46.31
   2  -1   3 2653.77   42.45
  -2  -1   3 2725.81   40.89
  -2   1   3 2742.17   38.92
   2   1   3 2586.51   36.76
   2  -1   3 2643.35   29.09
  -2  -1   3 2788.22   25.80
  -2  -1  -3 2596.97   33.96
  -2  -1   4 2616.19   43.64
  -2  -1   4 2669.85   43.97
   2   1   4 2743.80   42.82
  -2   1   4 2561.01   40.76
  -2   1   4 2626.91   47.51
  -2  -1   4 2585.28   32.02
   2  -1   4 2453.90   44.02
  -2   1   5   11.22    2.60
  -2  -1   5    9.46    2.83
   2  -1   5   12.94    3.48
  -2  -1   5   14.44    3.34
  -2   1   5    9.95    3.44
  -2  -1   5   12.69    2.75
   2   1   5   11.91    3.04
  -2   1   6   10.86    3.46
  -2  -1   6    9.46    3.49
  -2  -1   6   12.70    2.70
  -2   1   6    8.49    2.71
   2   1   6    8.17    2.49
   2  -1   6   12.49    3.47
  -2  -1   7  115.00    9.50
  -2   1   7  111.74   10.90
   2  -1   7  108.03   11.22
  -2  -1   7  116.38   11.08
  -2   1   7  128.08   10.85
   2   1   8 1137.09   35.77
   2  -1   8 1180.91   37.76
  -2   1   8 1176.31   38.17
  -2   1   8 1162.94   34.52
  -2  -1   8 1156.29   36.90
  -2  -1   8 1166.71   32.34
  -2  -1   9    0.88    1.04
  -2   1   9   -0.56    1.92
  -2  -1   9    4.84    2.80
   2   1   9    6.24    2.03
   2  -1   9    8.25    3.39
  -2   1   9    3.45    2.45
   2   1   9    7.95    3.92
  -2   1  10  676.76   28.85
  -2  -1  10  616.14   29.52
  -2  -1  10  616.48   26.83
   2   1  10  597.18   28.20
  -2   1  10  684.02   31.94
   2  -1  10  595.18   28.75
   2   1  10  619.07   28.91
  -2   1  11   -0.35    2.38
  -2  -1  11   -1.07    1.90
  -2  -1  11    0.66    2.32
   2   1  11    2.68    3.83
   2   1  11   -0.70    3.74
  -2   1  11   -1.19    1.35
   2  -1  11   -0.77    2.77
  -2  -1  12 1823.47   51.31
  -2   1  12 1984.69   57.18
   2  -1  12 1731.48   53.42
  -2   1  12 1949.32   53.79
   2   1  12 1880.63   54.82
   2  -1  12 1953.19   56.50
  -2  -1  12 1814.74   54.90
   2   1  12 1988.53   56.35
   2  -1  13    7.19    5.06
  -2  -1  13    2.66    3.60
  -2   1  13   14.13    5.30
   2   1  13    4.13    1.81
  -2   1  13    1.27    2.58
  -2  -1  13    4.67    3.72
   2   1  13    7.21    2.56
   2  -1  13    1.45    2.07
  -2  -1  14  883.34   38.57
   2   1  14  952.51   41.76
  -2  -1  14  864.56   40.91
   2   1  14  895.81   40.20
   2  -1  14  962.04   42.49
  -2   1  14  906.66   39.64
  -2   1  14  935.70   42.16
   2  -1  14  874.56   41.16
  -2  -1  15  473.49   30.96
   2   1  15  382.12   27.33
   2  -1  15  436.82   29.56
   2  -1  15  427.70   29.35
  -2   1  15  427.49   28.95
  -2  -1  15  433.88   28.16
   2   1  15  369.84   26.91
  -2   1  15  390.54   26.70
  -2  -1  16   95.14   13.17
   2   1  16   91.14   14.02
  -2   1  16   68.44   11.19
   2  -1  16   99.92   14.61
  -2  -1  16   78.28   13.16
  -2   1  16   93.93   13.79
   2   1  16   97.54   14.23
   2  -1  16   90.86   14.10
   2   1  17   47.12   10.51
   2  -1  17   53.42   12.01
  -2   1  17   40.58    9.15
  -2  -1  17   43.73    9.22
   2   1  17   50.21   11.11
   2  -1  17   57.97   10.85
  -2   1  17   35.73    8.74
  -2  -1  17   43.75   10.46
   2  -1  18 1190.33   53.10
  -2  -1  18 1173.32   50.97
   2   1  18 1196.40   52.44
   2   1  18 1174.73   52.41
  -2   1  18 1085.27   50.53
  -2  -1  18 1068.15   49.62
   2  -1  18 1176.55   51.93
  -2   1  18 1140.99   49.77
   2   1  19    1.46    3.21
   2  -1  19   -3.45    4.99
  -2  -1  19    0.38    2.33
   2  -1  19    3.61    3.90
  -2   1  19    0.62    3.13
  -2   1  19   -4.06    5.52
  -2  -1  19    1.54    5.78
   2   1  19   -0.29    3.67
  -2  -1  20  115.68   16.89
   2   1  20  114.18   17.16
  -2  -1  20  105.34   16.63
   2  -1  20  110.12   17.91
   2  -1  20   98.09   16.52
   2   1  20   87.10   14.66
  -2   1  20   68.64   13.33
  -2   1  20   90.31   14.89
  -2  -1  21   77.07   14.07
  -2  -1  21   77.77   14.33
  -2   1  21   53.48   11.79
   2  -1  21   70.51   12.90
   2   1  21   50.33   12.03
  -2   1  21   94.42   16.81
   2  -1  21   88.14   15.66
   2   1  21   63.49   13.17
   2   1  22  238.88   26.08
  -2  -1  22  233.65   25.33
  -2  -1  22  251.55   26.41
   2  -1  22  253.85   25.68
   2   1  22  235.40   25.57
  -2   1  22  241.49   26.09
   2  -1  22  230.51   25.91
  -2   1  22  245.14   25.65
  -2   1  23   43.11   12.60
  -2  -1  23   41.05   10.05
   2   1  23   53.48   12.27
   2  -1  23   49.88   13.00
  -2  -1  23   41.29   12.00
  -2   1  23   49.94   11.40
   2  -1  23   56.75   13.38
   2   1  23   54.46   13.11
   2  -1  24   19.19    7.27
  -2   1  24   23.22    8.60
  -2  -1  24   18.19    5.81
   2   1  24   23.17    8.51
   2   1  24   19.50    8.70
   2  -1  24   25.50    9.21
  -2  -1  24   32.57    8.62
  -2   1  24   35.05   10.94
   2   1  25  135.15   20.91
   2  -1  25  129.95   20.51
   2   1  25  103.80   18.25
  -2  -1  25  114.87   18.52
  -2   1  25  124.02   19.52
  -2  -1  25  125.14   19.04
   2  -1  25  115.99   20.33
  -2   1  25  114.52   19.02
   2   1  26  386.73   35.22
   2  -1  26  348.81   32.71
   2   1  26  339.75   33.36
  -2  -1  26  355.59   33.18
  -2  -1  26  327.40   32.24
  -2   1  26  315.48   30.83
  -2   1  26  381.03   34.82
   2  -1  26  321.79   33.38
  -2  -1  27   35.49   11.44
  -2   1  27   38.31   11.39
  -2  -1  27   34.13    9.77
  -2   1  27   16.50    7.41
   2   1  27   37.89   10.76
   2   1  27   28.43    6.85
   2  -1  27   37.89   13.03
   2  -1  27   38.21   11.95
   2   1  28  275.69   30.36
   2  -1  28  332.44   33.38
  -2  -1  28  325.40   33.52
  -2   1  28  267.95   30.39
   2   1  28  308.72   32.81
   2  -1  28  301.26   32.08
  -2   1  28  272.29   29.81
  -2  -1  28  286.33   31.01
   2  -1  29  122.27   20.42
   2   1  29  176.83   25.13
  -2   1  29  146.54   23.76
  -2  -1  29  138.87   21.34
   2  -1  29  169.69   25.54
  -2  -1  29  155.67   24.43
   2   1  29  152.49   22.27
  -2   1  29  122.02   21.36
  -2  -1  30   21.49    7.61
   2   1  30   21.27    8.89
   2  -1  30   13.12    3.85
  -2   1  30    9.93    7.46
   2  -1  30   -1.10    4.66
   2   1  30    1.64    3.19
  -2  -1  30   33.28   12.23
  -2   1  30   21.11    8.43
  -2   1  31   15.41    9.44
  -2  -1  31    7.82    8.48
   2  -1  31    1.00    4.39
  -2  -1  31   11.67    6.16
   2   1  31    2.52    6.61
  -2   1  31   -5.62    4.09
   2   1  31   12.79    7.13
   2  -1  31   16.01    9.37
  -2  -1  32   50.63   14.71
   2  -1  32   69.77   14.24
  -2  -1  32   56.80   13.80
  -2   1  32  108.48   20.41
   2   1  32   87.74   18.97
  -2   1  32   65.15   15.50
   2   1  32   73.46   16.20
   2  -1  32   93.28   19.37
  -2  -2   0 1274.86   28.88
   2   2   0 1359.29   17.61
  -2  -2   0 1303.44   20.52
   2  -2   0 1324.66   25.16
   2  -2   0 1298.55   31.76
   2  -2  -1  235.46   12.97
  -2  -2   1  251.90   13.02
   2  -2  -1  229.63   10.93
   2   2   1  280.74    9.40
  -2  -2   1  229.09    9.57
  -2   2   1  227.54   14.44
   2  -2   1  235.68   10.59
  -2  -2  -1  234.95   11.96
   2  -2   1  217.52   13.20
  -2   2  -1  223.62   14.15
   2  -2  -2    1.84    1.17
  -2  -2  -2    1.43    1.60
  -2  -2   2    1.15    0.97
  -2   2   2    6.31    1.99
   2  -2   2    3.83    1.23
  -2  -2   2    4.07    1.58
   2   2   2    1.72    1.66
   2  -2  -2    3.02    1.77
   2  -2   2    5.41    2.74
   2  -2   3 3468.52   54.65
  -2  -2  -3 3271.52   47.23
   2  -2   3 3474.36   43.10
  -2   2   3 3452.90   57.41
  -2  -2   3 3991.45   47.83
   2  -2  -3 3630.13   49.88
  -2  -2   3 3419.85   52.44
  -2  -2   3 3380.66   30.61
   2   2   3 2938.74   40.74
  -2   2   3 3432.38   52.32
  -2  -2   4 2507.02   47.79
   2   2   4 2686.84   43.51
   2  -2   4 2618.16   40.38
  -2   2   4 2644.15   50.40
  -2   2   4 2550.23   45.94
  -2  -2   4 2678.38   32.67
   2  -2   4 2702.51   48.78
  -2  -2   4 2651.43   43.00
  -2  -2   5 1619.95   40.25
   2  -2   5 1782.86   41.17
  -2  -2  -5 1829.53   39.02
  -2  -2   5 1658.08   29.70
  -2   2   5 1663.80   41.24
  -2   2   5 1676.66   38.97
   2   2   5 1632.18   36.43
   2  -2   5 1713.28   34.87
  -2  -2   5 1649.88   36.79
   2  -2   6  456.95   19.34
  -2  -2   6  467.87   21.05
   2   2   6  437.08   18.33
  -2   2   6  449.29   21.13
  -2  -2   6  425.90   21.35
  -2  -2   6  468.88   17.50
   2   2   6  482.80   21.30
   2  -2   6  461.71   22.43
   2   2   7  589.31   24.81
   2  -2   7  589.80   23.47
  -2  -2   7  632.13   22.52
   2  -2   7  587.89   26.75
  -2  -2   7  534.76   23.75
  -2   2   7  614.12   26.88
  -2  -2   7  632.15   27.09
  -2   2   7  627.13   25.68
   2   2   7  658.34   24.22
  -2   2   8    2.97    2.32
   2   2   8   -2.58    2.48
  -2  -2   8    0.08    1.17
   2  -2   8    2.09    2.97
  -2  -2   8    0.13    1.10
  -2  -2   8    0.16    1.36
  -2   2   8   -0.20    1.47
   2   2   8    0.89    2.00
   2  -2   8   -0.36    1.64
  -2   2   9   29.45    6.32
   2   2   9   25.71    5.35
  -2  -2   9   33.14    6.30
  -2  -2   9   34.95    7.22
   2   2   9   23.85    5.71
  -2  -2   9   26.33    6.75
  -2   2   9   30.89    7.08
   2  -2   9   26.14    5.72
  -2   2  10    4.25    1.31
  -2   2  10    3.98    2.88
   2   2  10   17.33    5.48
   2   2  10   13.29    4.10
  -2  -2  10    7.79    3.42
  -2  -2  10   11.51    3.50
   2  -2  10    1.86    2.81
  -2  -2  11  522.26   26.24
  -2  -2  11  529.46   28.43
   2   2  11  554.37   29.37
   2  -2  11  511.42   28.24
  -2   2  11  586.31   30.60
   2   2  11  492.40   26.23
  -2   2  11  515.98   27.23
   2   2  12    6.51    3.09
  -2   2  12   11.15    3.71
   2  -2  12   10.56    3.64
   2   2  12    6.15    3.87
  -2  -2  12    5.32    3.51
  -2   2  12   11.05    3.50
  -2  -2  12    4.19    1.92
  -2  -2  13 1829.53   52.83
  -2   2  13 1720.95   56.05
   2  -2  13 1738.35   55.70
   2   2  13 1753.65   54.27
   2   2  13 1803.39   56.48
  -2  -2  13 1593.59   53.49
  -2   2  13 1727.65   54.16
   2  -2  14    9.44    3.62
   2   2  14    8.20    4.01
  -2   2  14    5.69    2.38
  -2  -2  14    0.41    2.74
  -2  -2  14    9.60    4.39
   2   2  14   18.95    6.14
  -2   2  14    7.73    4.58
   2  -2  14   17.70    5.95
   2   2  15   44.55    9.06
  -2   2  15   35.67    9.15
  -2  -2  15   36.62    8.26
   2  -2  15   34.34    7.98
  -2   2  15   34.41    7.70
  -2  -2  15   28.72    8.13
   2   2  15   15.60    5.00
   2  -2  15   19.60    6.96
  -2  -2  16   92.35   14.62
  -2   2  16   67.14   11.83
  -2   2  16   94.60   14.18
   2  -2  16   64.98   12.17
  -2  -2  16  101.61   13.40
   2   2  16  108.29   16.07
   2  -2  16  101.90   14.78
   2   2  16  101.22   14.26
   2  -2  17    0.03    1.77
   2   2  17    1.98    3.58
  -2   2  17   -1.34    2.28
   2  -2  17   -4.10    4.18
  -2   2  17   -3.80    5.20
  -2  -2  17   -1.42    1.84
  -2  -2  17    3.07    4.27
   2   2  17    0.50    3.04
  -2   2  18   43.18   10.17
   2   2  18   36.53    9.25
   2   2  18   36.93   10.02
  -2  -2  18   25.11    7.26
  -2   2  18   38.85    9.92
   2  -2  18   53.03   12.01
   2  -2  18   26.86    9.53
  -2  -2  18   46.20   11.90
   2  -2  19   63.91   13.83
  -2  -2  19   66.15   12.17
   2   2  19   50.20   11.37
   2   2  19   77.10   14.70
   2  -2  19   73.69   13.96
  -2  -2  19   86.46   14.45
  -2   2  19   69.02   13.47
  -2   2  19   84.72   14.13
  -2   2  20    2.54    3.66
   2   2  20   -2.77    4.39
  -2  -2  20    2.43    3.17
   2  -2  20    0.79    2.10
   2  -2  20    4.12    1.96
   2   2  20    2.64    5.87
  -2  -2  20    0.18    6.71
  -2   2  20   -2.37    3.70
  -2  -2  21  123.17   18.86
  -2  -2  21  102.99   16.25
   2   2  21   97.41   16.31
  -2   2  21  128.10   17.63
   2   2  21  116.22   17.48
  -2   2  21  114.16   17.18
   2  -2  21  116.40   17.58
   2  -2  21  116.14   18.07
   2   2  22   59.60   12.56
   2  -2  22   66.28   13.92
  -2  -2  22   55.65   12.30
   2  -2  22   34.85   12.10
  -2   2  22   58.88   13.09
  -2  -2  22   50.70   11.79
  -2   2  22   51.58   11.50
   2   2  22   65.11   14.31
  -2   2  23    7.78    4.26
   2   2  23    0.11    2.34
  -2  -2  23    9.29    6.23
   2   2  23    2.36    4.90
   2  -2  23    4.39    6.55
  -2   2  23    2.39    4.26
  -2  -2  23    7.37    5.98
   2  -2  23    1.10    4.82
  -2   2  24   -2.14    3.20
  -2   2  24    1.61    5.71
   2  -2  24    8.75    5.18
   2  -2  24    8.62    4.06
   2   2  24   17.04    7.56
  -2  -2  24   -5.27    2.20
  -2  -2  24   -4.67    5.39
   2   2  24    7.37    6.04
  -2  -2  25    1.50    6.20
  -2  -2  25   -2.20    2.81
  -2   2  25   -2.58    3.84
   2   2  25   -5.34    7.58
   2   2  25   -2.13    5.99
  -2   2  25    0.68    5.47
   2  -2  25   11.21    7.64
   2  -2  25   -0.22    2.82
  -2   2  26   19.48    9.36
   2   2  26   28.10    8.31
  -2  -2  26   16.31    7.63
  -2   2  26   15.15    6.73
   2   2  26   25.04   10.83
  -2  -2  26    4.63    2.91
   2  -2  26   21.25    6.11
   2  -2  26    4.77    2.78
  -2   2  27   34.17   11.46
   2   2  27   30.93    9.55
  -2  -2  27   29.83   11.32
   2  -2  27   18.02    7.88
   2  -2  27   20.52    9.11
  -2   2  27   23.32    9.33
   2   2  27   56.11   13.71
  -2  -2  27   29.63    9.71
   2   2  28   10.12    8.69
  -2  -2  28   12.64    7.89
  -2   2  28    9.38    9.11
  -2   2  28    8.80    7.16
   2   2  28    1.85    5.98
   2  -2  28   -4.37    3.53
  -2  -2  28    7.19    4.59
   2  -2  28   14.62    6.92
   2   2  29   58.23   15.71
  -2  -2  29   21.36    7.64
  -2   2  29   50.74   14.18
   2  -2  29   47.93   12.17
   2   2  29   29.69   11.11
  -2  -2  29   41.24   12.61
  -2   2  29   55.58   14.84
   2  -2  29   47.69   13.41
   2   2  30    5.50    3.59
  -2  -2  30   11.47    8.15
   2  -2  30   -1.73    4.92
   2  -2  30    6.82    6.26
  -2   2  30    2.77    4.87
  -2  -2  30    0.91    5.54
  -2   2  30    7.86    6.71
   2   2  30    0.40    3.93
  -2   2  31   12.61    7.42
   2  -2  31   33.87   12.62
  -2  -2  31   20.08    7.57
   2   2  31   23.52   10.86
  -2  -2  31   31.45   12.87
   2  -2  31    9.55    3.11
  -2   2  31    8.88    6.89
   2   2  31    7.46    5.27
  -2   2  32    4.94    5.21
   2   2  32    1.24    4.14
  -2   2  32   -4.90    3.93
  -2  -2  32   -3.44    4.49
   2  -2  32    6.16    8.25
   2   2  32   -5.73    5.12
   2  -2  32    4.84    4.59
  -2  -3   0  976.05   30.33
   2  -3   0 1030.33   27.74
   2  -3   0  943.65   31.01
  -2   3   0 1005.61   32.71
  -2  -3   1  474.90   11.67
   2  -3   1  498.27   22.84
   2   3   1  532.48   16.25
  -2  -3   1  544.03   22.67
  -2  -3  -1  483.81   21.18
   2  -3  -1  510.42   19.86
  -2  -3   1  540.40   15.43
   2  -3  -1  522.60   22.55
  -2   3   1  509.63   23.35
   2  -3   1  533.09   20.01
   2  -3   2   31.21    6.03
   2  -3   2   24.77    4.61
  -2  -3   2   19.47    4.04
   2  -3  -2   16.56    3.83
  -2  -3   2   24.84    3.25
   2  -3  -2   35.34    5.98
  -2  -3   2   20.71    2.98
  -2  -3  -2   21.92    4.54
  -2   3   2   22.56    5.87
   2   3   2   29.34    4.25
  -2  -3   3   87.03    6.37
   2  -3  -3  100.83    9.68
   2  -3   3   80.85    9.37
   2  -3   3   95.80    8.75
  -2   3   3   80.68    9.39
  -2  -3   3   91.67    9.55
   2   3   3  102.95    8.26
  -2  -3   3   79.02    6.59
   2   3   3   96.52    5.38
  -2  -3  -3   97.62    9.34
   2  -3   4   30.76    5.41
   2  -3   4   27.88    5.40
  -2   3   4   23.29    4.74
   2  -3  -4   23.33    5.12
  -2   3   4   27.34    5.61
   2   3   4   23.60    4.12
  -2  -3   4   18.20    3.74
  -2  -3   4   24.75    3.46
  -2  -3   4   21.42    4.05
   2   3   4   20.58    3.36
  -2  -3  -4   27.62    5.85
  -2  -3   5  176.87   14.41
  -2  -3   5  202.54   12.97
  -2   3   5  161.42   13.57
  -2  -3  -5  190.02   13.74
   2  -3   5  195.21   15.22
   2   3   5  192.23   10.33
  -2  -3   5  191.27   10.99
  -2   3   5  162.18   13.15
   2  -3   5  190.29   13.49
   2   3   5  177.74   12.62
   2  -3  -5  179.64   13.55
  -2  -3   6  308.77   19.66
  -2   3   6  313.20   19.57
  -2  -3   6  313.15   14.98
  -2  -3   6  309.55   17.34
  -2   3   6  309.20   18.85
   2   3   6  311.58   17.82
   2  -3   6  314.13   17.67
   2  -3   6  321.03   19.36
   2   3   6  318.59   15.38
  -2  -3   7   16.27    3.45
   2  -3   7   13.69    4.28
  -2  -3   7   22.94    5.83
  -2   3   7   23.11    5.23
   2  -3   7   18.51    5.38
  -2   3   7   20.46    5.50
  -2  -3  -7   22.12    4.93
   2   3   7   22.83    5.43
  -2  -3   7   27.50    5.29
   2   3   7   25.56    5.07
  -2  -3  -8  645.82   29.03
  -2  -3   8  618.88   27.37
   2   3   8  575.35   24.47
  -2   3   8  614.24   28.97
  -2  -3   8  603.24   24.11
  -2  -3   8  549.22   27.82
  -2   3   8  638.60   29.02
   2  -3   8  624.29   29.26
   2  -3   8  603.32   26.58
   2   3   8  612.95   27.09
  -2  -3   9  302.58   18.06
  -2  -3  -9  356.89   22.33
  -2   3   9  345.50   22.02
   2  -3   9  333.89   22.03
  -2  -3   9  359.99   21.98
   2   3   9  265.45   18.51
   2   3   9  339.13   20.04
  -2   3   9  356.51   22.71
   2  -3   9  347.49   20.71
  -2  -3   9  319.28   22.21
  -2  -3  10  109.26   13.07
  -2   3  10  115.44   13.78
  -2  -3  10  126.80   12.25
   2   3  10  133.14   13.32
   2  -3  10  150.56   14.66
   2  -3  10  155.27   15.99
   2   3  10  131.63   13.34
  -2   3  10  125.86   13.98
  -2  -3  10  119.94   14.46
  -2  -3  11  375.60   22.63
   2   3  11  352.95   23.66
  -2  -3  11  368.01   24.26
   2  -3  11  432.44   27.01
   2  -3  11  371.34   23.77
  -2   3  11  393.74   25.56
   2   3  11  442.71   25.17
  -2   3  11  367.24   24.40
  -2  -3  11  383.72   26.20
   2  -3  12   -0.62    3.66
  -2  -3  12    2.19    1.40
  -2   3  12    5.39    3.75
  -2  -3  12   -2.28    1.94
   2   3  12    7.13    4.28
  -2  -3  12    1.37    3.02
  -2   3  12    7.09    4.19
   2   3  12   -0.29    2.46
   2   3  13  100.17   13.30
  -2  -3  13   70.87   11.54
   2  -3  13   97.90   13.92
  -2   3  13   98.51   13.63
  -2  -3  13  105.65   13.08
  -2   3  13   82.49   11.53
   2   3  13   75.15   11.37
  -2  -3  14   18.44    6.18
   2   3  14    4.66    2.65
  -2   3  14   17.68    6.95
  -2   3  14    5.31    2.49
   2   3  14    5.46    4.01
   2  -3  14    8.88    3.48
  -2  -3  14    1.78    1.78
   2   3  15  102.63   15.18
  -2  -3  15   81.74   13.08
  -2   3  15   85.28   14.47
   2  -3  15   80.65   13.50
   2  -3  15  108.91   15.39
   2   3  15   84.62   13.12
  -2   3  15   68.19   12.10
  -2  -3  15   84.51   12.49
   2  -3  16    0.05    3.72
  -2   3  16   -2.34    2.48
  -2  -3  16    8.79    5.10
   2   3  16   -0.10    1.50
   2  -3  16   -2.86    2.83
  -2  -3  16    1.10    1.52
  -2   3  16   -0.36    4.68
   2   3  16    0.24    1.11
  -2  -3  17  300.07   25.41
   2  -3  17  311.89   26.33
  -2  -3  17  300.65   27.20
   2   3  17  239.22   22.99
  -2   3  17  274.15   25.80
   2  -3  17  302.82   26.87
   2   3  17  313.38   26.40
  -2   3  17  322.78   26.61
  -2   3  18  100.92   16.01
   2   3  18  141.15   17.43
   2   3  18  110.44   15.94
  -2  -3  18  115.69   15.85
  -2  -3  18  125.16   17.63
   2  -3  18  117.39   16.96
  -2   3  18  128.27   17.30
   2  -3  18   97.44   15.36
  -2  -3  19  244.73   24.16
   2   3  19  287.09   26.28
   2   3  19  273.82   25.25
   2  -3  19  242.57   24.25
   2  -3  19  248.31   25.31
  -2   3  19  225.79   23.86
  -2  -3  19  232.39   25.27
  -2   3  19  225.26   23.72
   2  -3  20   44.09   11.34
   2   3  20   60.76   13.10
  -2   3  20   36.58   10.45
  -2  -3  20   53.57   12.17
   2  -3  20   42.75   10.63
  -2   3  20   36.09   10.07
   2   3  20   55.66   11.99
  -2  -3  20   36.84   10.23
   2   3  21   10.34    6.00
   2  -3  21    6.82    3.84
  -2  -3  21   -0.26    4.07
   2  -3  21    3.79    5.33
   2   3  21    5.67    5.23
  -2   3  21   13.66    7.84
  -2  -3  21    3.41    2.99
  -2   3  21    1.18    1.98
   2  -3  22   87.48   15.95
  -2  -3  22   59.97   12.67
  -2  -3  22   85.79   15.16
  -2   3  22   82.03   15.68
   2   3  22   89.51   16.63
   2  -3  22   82.54   15.70
  -2   3  22   58.63   14.11
   2   3  22   62.71   13.00
  -2   3  23   10.24    7.92
  -2  -3  23   -0.86    3.58
   2   3  23    2.17    3.43
   2  -3  23    2.18    7.82
   2  -3  23    3.08    4.86
  -2   3  23    5.34    6.30
   2   3  23    6.11    6.28
  -2  -3  23   -0.18    2.97
  -2   3  24   17.45    7.64
   2   3  24   21.03    7.08
   2   3  24   23.14    8.16
  -2  -3  24   12.87    2.50
   2  -3  24   10.38    5.45
  -2  -3  24   13.26    7.51
   2  -3  24   25.77   11.20
  -2   3  24   23.14    9.43
  -2  -3  25  156.14   22.22
   2  -3  25  220.13   25.64
   2   3  25  228.08   26.15
  -2   3  25  191.34   24.09
   2  -3  25  186.22   24.86
  -2  -3  25  197.36   25.01
  -2   3  25  190.69   23.77
   2   3  25  168.28   23.03
   2  -3  26    6.00    6.52
   2  -3  26   -4.10    5.13
  -2  -3  26    0.25    3.22
  -2   3  26    3.00    5.14
  -2  -3  26    3.73    5.79
   2   3  26   -0.86    4.56
  -2   3  26    0.46    4.75
   2   3  26    3.87    4.54
  -2  -3  27   14.45    7.88
  -2   3  27   17.70    7.61
  -2  -3  27   11.58    7.22
   2  -3  27    9.95    5.20
   2   3  27    7.51    6.67
   2   3  27   11.14    3.01
  -2   3  27   20.12    7.49
   2  -3  27   21.38   10.04
  -2  -3  28   61.65   14.64
   2   3  28   35.56   11.48
   2  -3  28   29.51   10.06
  -2   3  28   44.36   11.38
  -2   3  28   51.99   14.00
   2  -3  28   50.51   13.15
  -2  -3  28   51.63   14.51
   2   3  28   47.73   13.02
   2  -3  29  130.72   21.74
  -2  -3  29  164.84   23.27
  -2   3  29  145.88   23.11
  -2  -3  29  147.97   23.28
  -2   3  29  130.40   21.12
   2  -3  29  115.27   20.47
   2   3  29  154.41   22.59
   2   3  29  115.82   20.46
   2  -3  30   25.48   12.31
  -2  -3  30   31.62   11.07
   2   3  30   22.69   11.00
  -2   3  30   19.14    8.08
  -2  -3  30   36.64   13.34
  -2   3  30   20.41    8.91
   2   3  30    7.13    3.93
   2  -3  30   18.87    8.90
  -2  -3  31   98.03   19.88
  -2   3  31   84.63   17.74
   2  -3  31   88.62   21.21
   2  -3  31   65.50   15.54
   2   3  31   89.93   18.79
  -2  -3  31   58.52   12.92
   2   3  31  119.83   21.18
  -2   3  31  103.42   20.25
  -2  -4   0    3.05    2.88
   2  -4   0    0.04    2.51
   2  -4   0    4.79    3.36
  -2   4   0    5.40    3.50
  -2  -4   0    3.07    2.13
   2  -4  -1    7.07    1.73
  -2   4   1    0.02    2.28
  -2  -4   1    5.82    2.51
  -2  -4   1    3.21    0.97
   2  -4   1    6.80    2.66
  -2  -4  -1    1.23    1.48
   2  -4  -1    6.45    3.73
   2  -4   1    3.42    3.41
   2  -4  -2   96.48   10.46
   2  -4   2   87.62    9.39
   2  -4  -2   89.21    9.56
  -2  -4   2   87.17    5.59
   2  -4   2   86.67    9.98
  -2   4   2   81.32   10.05
  -2  -4   2   83.44    7.77
  -2  -4   2   97.88   10.85
  -2  -4  -2   93.39   10.86
   2   4   2   99.20    8.88
  -2  -4   3  107.21    7.47
  -2  -4   3  104.92   11.47
   2  -4   3   99.73   10.40
  -2   4   3   95.99   10.73
   2  -4  -3   79.48    9.58
  -2  -4  -3   95.78   10.57
  -2  -4   3   90.60    8.13
   2  -4  -3   99.90   10.25
   2  -4   3  113.03   11.88
   2   4   3   96.07    9.12
  -2  -4   4  351.55   16.10
  -2  -4   4  374.68   22.10
   2   4   4  349.85   10.97
   2  -4   4  330.50   19.12
   2  -4   4  329.19   20.46
  -2  -4  -4  332.90   20.23
   2  -4  -4  336.06   19.88
  -2   4   4  364.01   21.23
  -2  -4   4  355.52   15.57
   2   4   4  365.95   18.57
   2   4   5   32.82    3.84
  -2  -4   5   27.74    4.83
   2  -4  -5   35.09    6.76
   2   4   5   24.26    4.92
  -2  -4  -5   37.17    6.45
  -2   4   5   23.92    6.33
  -2   4   5   18.30    4.64
  -2  -4   5   45.39    7.31
  -2  -4   5   33.16    5.05
   2  -4   5   22.05    5.25
   2  -4   5   37.83    7.40
   2  -4   6  573.80   26.25
   2  -4   6  588.47   28.15
  -2   4   6  596.81   27.98
  -2  -4   6  601.99   23.02
   2  -4  -6  642.78   28.99
  -2   4   6  598.18   27.71
  -2  -4  -6  569.65   26.99
   2   4   6  601.25   20.00
   2   4   6  583.72   25.89
  -2  -4   6  609.71   24.57
  -2  -4   6  584.02   29.12
  -2  -4   7  344.01   22.85
   2  -4   7  325.80   20.60
   2  -4   7  339.84   21.83
  -2  -4   7  357.04   18.52
  -2  -4  -7  295.19   20.11
   2   4   7  317.29   15.74
   2  -4  -7  292.74   20.96
  -2  -4   7  290.56   18.14
  -2   4   7  324.18   20.91
   2   4   7  293.90   19.34
  -2   4   7  331.45   21.23
  -2  -4   8  930.25   38.04
   2   4   8  945.31   29.72
   2  -4   8  887.35   35.13
  -2  -4   8  849.98   30.13
   2  -4   8  946.37   37.15
   2  -4  -8  905.85   37.36
  -2  -4   8  875.80   33.06
  -2   4   8  938.19   36.89
   2   4   8  847.36   33.68
  -2   4   8  913.07   36.57
   2  -4   9  167.02   15.77
  -2  -4   9  163.07   13.77
  -2   4   9  182.19   16.72
  -2  -4  -9  168.06   16.35
   2   4   9  201.49   14.88
  -2   4   9  171.16   15.97
   2  -4  -9  175.84   16.60
  -2  -4   9  166.30   14.70
  -2  -4   9  178.76   17.62
   2  -4   9  165.72   16.08
   2   4   9  206.09   17.07
   2  -4  10  321.93   22.10
  -2  -4 -10  310.36   22.71
  -2   4  10  325.85   22.87
  -2  -4  10  308.72   19.99
   2  -4  10  333.91   23.86
  -2  -4  10  296.68   21.33
  -2  -4  10  295.62   22.56
  -2   4  10  313.70   22.78
   2   4  10  337.61   22.69
   2   4  10  305.49   19.32
   2  -4  11    4.89    2.68
  -2  -4  11    1.04    2.16
  -2  -4 -11   -0.62    1.75
   2  -4  11    5.51    3.61
   2   4  11   -3.11    3.30
  -2   4  11   -4.48    3.96
  -2  -4  11    1.24    2.40
   2   4  11    0.58    1.91
  -2  -4  11    0.47    1.89
  -2   4  11    0.83    4.87
  -2   4  12   16.11    5.27
  -2  -4  12    7.89    2.43
   2   4  12   21.62    5.78
   2  -4  12   13.40    4.82
   2   4  12    8.83    2.49
  -2  -4  12   10.74    5.30
   2  -4  12   18.04    7.19
  -2   4  12   22.13    7.03
  -2  -4  12   13.84    3.31
  -2  -4 -12   11.60    3.97
  -2  -4  13   10.52    4.83
  -2   4  13   11.23    5.67
   2  -4  13    6.67    4.43
  -2  -4  13    5.01    5.07
   2   4  13    7.35    3.56
  -2   4  13    3.05    1.90
   2   4  13   11.91    3.82
  -2  -4 -13    6.28    3.07
   2  -4  13   11.02    3.91
  -2  -4  13    9.17    4.27
  -2  -4  14  112.78   14.38
  -2   4  14   72.93   12.03
  -2  -4 -14   92.15   14.75
  -2  -4  14  123.51   16.09
   2  -4  14  109.17   15.53
  -2   4  14  101.27   13.70
   2   4  14  103.99   13.88
   2   4  14   96.30   13.11
  -2  -4  14  107.73   15.40
  -2  -4  15  278.03   24.47
  -2   4  15  326.43   25.37
   2   4  15  321.64   24.67
  -2   4  15  308.41   25.18
  -2  -4  15  288.50   23.80
   2   4  15  301.02   24.82
  -2   4  16   44.31   10.40
   2  -4  16   50.78   11.17
   2  -4  16   77.03   13.30
  -2  -4  16   41.96   10.28
  -2  -4  16   71.03   12.48
   2   4  16   59.63   10.83
  -2   4  16   45.58   11.19
   2   4  16   69.61   11.99
  -2   4  17    0.28    2.11
   2   4  17   -0.78    1.70
  -2  -4  17    1.09    1.54
  -2  -4  17    2.66    2.61
  -2   4  17   -5.04    5.32
   2   4  17   -2.56    5.20
   2  -4  17    5.43    4.12
   2  -4  17    1.70    2.95
   2  -4  18    4.24    5.10
  -2   4  18    7.64    4.02
  -2   4  18    7.35    5.11
   2   4  18    7.52    5.46
   2   4  18   15.17    7.90
  -2  -4  18   10.08    5.80
  -2  -4  18   10.25    5.15
   2  -4  18    7.29    5.66
  -2  -4  19   -2.83    1.59
   2   4  19    7.62    6.50
  -2  -4  19    0.24    3.80
  -2   4  19   -0.43    2.48
   2   4  19   -3.44    5.65
  -2   4  19    1.16    5.71
   2  -4  19    5.59    5.85
   2  -4  19    1.07    3.36
   2  -4  20  129.14   20.03
  -2  -4  20  159.50   20.70
   2   4  20  154.21   19.03
   2  -4  20  143.69   18.90
   2   4  20  134.40   18.75
  -2   4  20  105.70   17.35
  -2  -4  20  136.65   19.91
  -2   4  20  150.68   20.13
  -2   4  21    6.55    6.93
   2  -4  21    3.11    7.12
  -2  -4  21    9.57    5.77
  -2  -4  21    2.38    2.34
   2  -4  21    7.15    6.12
  -2   4  21    8.13    5.23
   2   4  21   -0.71    3.06
   2   4  21   11.67    5.49
   2  -4  22   54.04   13.12
  -2   4  22   38.82   10.34
  -2   4  22   69.92   14.55
  -2  -4  22   55.66   13.79
   2  -4  22   52.93   12.90
   2   4  22   42.49   11.62
  -2  -4  22   60.05   13.47
   2   4  22   71.69   14.82
  -2   4  23    7.50    5.90
  -2  -4  23   25.35    9.67
  -2   4  23   28.96    9.55
   2  -4  23   14.13    2.97
   2   4  23   15.14    8.26
   2   4  23   16.34    9.69
  -2  -4  23   30.81   10.08
   2  -4  23   15.91    6.94
   2  -4  24   23.43    9.55
   2   4  24   10.96    5.10
   2  -4  24   36.40   12.64
  -2  -4  24   21.98    8.56
  -2   4  24   22.10    8.12
   2   4  24   24.35    7.56
  -2  -4  24   27.85    9.45
  -2   4  24   28.50    8.57
   2  -4  25   35.65   10.13
  -2   4  25   28.50    9.38
   2   4  25   38.47   10.79
  -2  -4  25   51.77   12.49
  -2   4  25   55.70   13.92
   2   4  25   69.38   15.40
  -2  -4  25   42.98   10.78
   2  -4  25   46.21   13.28
  -2   4  26    2.59    4.37
   2   4  26    0.05    3.48
   2  -4  26    9.66    8.67
  -2  -4  26   -2.98    3.56
  -2   4  26    2.22    5.08
   2  -4  26    0.85    4.08
  -2  -4  26   -4.57    6.37
   2   4  26    6.97    5.97
   2   4  27   27.83   10.41
  -2  -4  27    6.42    3.37
  -2   4  27   10.87    6.84
   2  -4  27   27.29    9.42
  -2   4  27    7.25    4.70
  -2  -4  27   13.04    5.53
   2   4  27   13.81    8.33
   2  -4  27   10.53    5.96
  -2   4  28   23.13    9.87
  -2   4  28   23.83    9.30
   2   4  28   22.74    8.14
  -2  -4  28   14.14    9.93
   2  -4  28   25.55   10.02
   2  -4  28   17.87    7.37
   2   4  28   31.50   11.13
  -2  -4  28   13.89    6.63
  -2   4  29    1.07    2.63
   2  -4  29   -1.59    2.65
  -2   4  29    1.21    5.78
   2   4  29    0.16    7.31
  -2  -4  29    3.26    5.79
   2   4  29    5.82    8.31
  -2  -4  29    2.11    2.20
   2  -4  29    9.26    8.10
  -2   4  30    0.58    3.03
   2   4  30    6.27    9.29
   2  -4  30    1.70    2.58
  -2  -4  30    5.65    5.18
  -2  -4  30    1.44    4.20
  -2   4  30   11.42    8.26
   2   4  30    1.33    8.16
   2  -4  30   -0.84    2.18
  -2   4  31    5.14    3.48
   2   4  31   11.00    6.48
  -2  -4  31   -0.21    2.99
  -2  -4  31   -2.63    7.86
   2  -4  31   10.27    8.48
  -2   4  31   10.92    7.83
   2   4  31   17.11    9.81
   2  -4  31   20.29   10.41
  -2  -5   0 3647.78   73.44
  -2   5   0 3622.64   69.66
  -2  -5   0 3814.03   59.84
   2  -5   0 3755.01   70.15
   2  -5   0 3666.27   73.47
   2  -5   1    8.92    2.15
  -2  -5   1   18.48    5.68
  -2  -5  -1   15.98    4.08
   2  -5   1    9.87    3.55
  -2  -5  -1   14.34    4.07
   2  -5  -1   18.01    5.18
   2  -5  -1   13.94    3.47
  -2   5   1   13.80    4.54
  -2  -5   1   15.25    3.83
  -2  -5   2  100.11    9.71
  -2  -5   2  117.31   12.87
   2  -5  -2  129.10   13.31
   2  -5   2   95.48   11.62
  -2  -5  -2   79.66   10.56
   2  -5  -2  122.69   12.64
  -2   5   2  106.68   11.98
  -2  -5   2  105.46    6.91
   2  -5   2  102.98   12.47
  -2   5   3   64.55    9.39
  -2  -5   3   82.89   11.33
   2  -5   3   65.23    9.96
  -2  -5  -3   79.41   10.95
   2  -5  -3   75.37   10.11
  -2  -5   3   63.95    7.86
   2  -5  -3   56.90    8.99
  -2  -5   3   71.97    6.60
   2  -5   3   70.55    9.64
   2   5   3   76.67    9.00
  -2  -5   4   78.33    7.66
  -2  -5   4   84.04   11.56
   2  -5   4   90.93   11.20
  -2  -5   4   89.96    9.26
  -2  -5  -4   94.20   11.69
   2  -5   4   84.69   11.36
   2  -5  -4   88.70   11.26
  -2   5   4  112.72   12.68
   2   5   4   81.35    9.72
   2   5   4   82.93    4.86
   2  -5   5  359.40   22.62
  -2  -5   5  372.51   18.05
   2  -5   5  385.13   24.04
  -2  -5   5  374.03   18.97
  -2  -5  -5  347.65   22.52
   2  -5  -5  318.46   21.24
   2   5   5  338.81   12.70
  -2   5   5  348.92   22.49
   2   5   5  350.36   20.71
  -2  -5   5  361.70   23.86
   2  -5   6   48.26    8.23
   2  -5   6   64.74   10.37
  -2  -5   6   63.34    9.80
   2   5   6   55.59    5.70
  -2  -5   6   57.83    7.94
  -2   5   6   62.12    9.56
   2  -5  -6   67.37    9.98
  -2  -5  -6   46.03    7.74
   2   5   6   41.30    7.58
  -2   5   6   66.58   10.27
  -2  -5   6   72.25    8.81
  -2   5   7  454.63   26.29
  -2  -5   7  426.80   26.96
   2  -5   7  481.63   26.82
   2  -5   7  492.20   27.48
   2   5   7  459.69   19.15
  -2   5   7  426.95   25.75
   2   5   7  489.14   25.94
  -2  -5  -7  503.49   28.42
   2  -5  -7  450.24   27.15
  -2  -5   7  473.06   22.85
  -2  -5   7  469.01   23.60
  -2  -5   8 1494.83   51.44
  -2   5   8 1385.33   46.84
   2   5   8 1519.71   47.27
  -2  -5  -8 1549.89   50.17
  -2  -5   8 1537.21   43.64
  -2  -5   8 1466.39   44.12
   2  -5  -8 1515.90   50.92
   2   5   8 1408.17   35.86
   2  -5   8 1526.79   48.51
   2  -5   8 1430.21   48.04
  -2   5   8 1449.40   48.51
   2  -5   9    3.53    2.51
   2   5   9    2.54    2.12
  -2  -5   9    1.48    2.11
  -2  -5   9    2.29    3.25
   2  -5   9    2.57    1.87
  -2  -5  -9    1.81    3.26
   2  -5  -9    4.77    3.66
   2   5   9    2.99    1.62
  -2  -5   9    2.20    3.12
  -2   5   9   -2.52    3.54
  -2   5   9   -1.28    1.17
   2  -5  10  268.11   21.70
   2   5  10  246.87   17.27
  -2  -5  10  255.49   19.99
   2  -5  10  257.55   21.29
  -2   5  10  232.89   20.74
  -2  -5  10  273.18   19.31
   2   5  10  258.11   20.47
   2  -5 -10  283.16   23.27
  -2   5  10  245.01   20.66
  -2  -5  10  271.33   22.72
   2  -5  11   83.03   12.07
   2   5  11   88.16   12.73
   2   5  11  110.85   11.97
  -2  -5  11   82.29   12.63
  -2  -5  11   77.67   11.57
  -2  -5 -11   68.19   11.51
   2  -5 -11   92.44   13.36
   2  -5  11   84.17   12.82
  -2   5  11   87.97   13.15
  -2  -5  11   75.40   11.47
  -2   5  11   83.80   12.67
  -2  -5  12   24.03    8.10
   2   5  12   18.45    6.13
   2   5  12    9.80    4.43
  -2  -5 -12   26.39    7.72
  -2   5  12   19.19    5.56
   2  -5  12    9.11    5.27
  -2   5  12   24.57    7.68
   2  -5 -12   16.80    6.06
  -2  -5  12   16.72    5.87
  -2  -5  12   19.67    5.91
   2  -5  12   10.91    5.14
  -2  -5  13   76.94   11.46
  -2   5  13   87.03   13.36
  -2   5  13   95.97   13.68
   2   5  13   66.02   10.66
   2   5  13   86.79   12.08
   2  -5 -13   55.58   10.42
  -2  -5  13  100.02   14.10
   2  -5  13   57.77   10.43
  -2  -5  13   92.08   14.75
  -2  -5 -13   68.97   12.58
   2  -5  13   69.60   11.42
  -2  -5  14  541.37   32.00
  -2   5  14  533.89   33.83
   2  -5  14  575.03   35.42
  -2   5  14  618.66   36.20
   2  -5  14  609.64   35.99
   2   5  14  571.25   34.66
   2   5  14  604.77   32.68
  -2  -5  14  600.22   36.15
  -2  -5 -14  572.91   35.40
  -2  -5  14  568.04   36.16
  -2  -5 -15  211.34   22.28
  -2  -5  15  144.62   18.13
  -2  -5  15  150.21   16.95
  -2   5  15  187.33   21.19
   2   5  15  180.61   19.53
  -2   5  15  191.50   20.63
   2   5  15  182.20   18.23
   2  -5  15  195.85   20.62
  -2  -5  15  156.61   18.89
  -2   5  16   12.26    4.67
   2   5  16    5.62    4.37
  -2   5  16   10.47    5.16
   2  -5  16   10.45    4.54
  -2  -5  16   19.19    7.57
  -2  -5  16    3.42    4.85
   2  -5  16   13.48    6.26
  -2  -5 -16   31.71    9.58
  -2  -5  16   14.69    7.00
   2   5  16   22.22    7.01
  -2   5  17    1.20    5.22
  -2   5  17   16.81    7.54
  -2  -5  17   14.88    6.83
  -2  -5 -17   15.06    6.84
   2  -5  17   16.89    5.74
   2   5  17   13.60    5.17
  -2  -5  17   14.18    6.94
   2  -5  17   25.36    9.46
   2   5  17   21.64    8.31
   2   5  18   93.55   15.31
  -2  -5 -18  102.81   16.34
  -2   5  18  125.77   18.04
  -2   5  18  120.51   17.89
   2   5  18   94.52   14.46
  -2  -5  18   88.93   15.58
   2  -5  18  108.95   17.23
  -2  -5  18  101.03   15.53
  -2  -5  19  136.99   19.24
  -2  -5 -19  120.77   19.19
   2  -5  19  120.55   18.60
  -2   5  19  145.76   19.91
  -2   5  19  121.45   18.74
   2   5  19  123.01   17.65
  -2  -5  19  124.16   18.45
   2  -5  19  145.14   20.24
   2   5  19  141.09   19.74
  -2   5  20   50.19   11.97
   2   5  20   46.97   12.55
  -2  -5  20   58.07   13.68
  -2  -5 -20   24.43    7.32
   2  -5  20   62.49   13.66
   2   5  20   35.46   11.24
  -2   5  20   26.64    8.29
  -2  -5  20   58.13   12.77
   2  -5  20   52.36   12.28
   2   5  21    0.82    6.30
   2  -5  21    7.81    6.57
   2  -5  21   18.43    9.04
  -2  -5  21    5.56    3.56
  -2  -5 -21    3.30    2.73
  -2  -5  21    4.20    2.85
  -2   5  21    4.41    6.18
  -2   5  21    8.87    2.66
   2   5  21    1.41    4.86
  -2   5  22  145.78   20.74
  -2  -5  22  157.95   21.61
   2  -5  22  192.06   23.38
   2   5  22  127.26   19.56
  -2  -5 -22  179.75   23.04
   2   5  22  156.08   21.04
  -2  -5  22  155.50   21.93
   2  -5  22  215.58   25.21
  -2   5  22  179.91   22.78
  -2   5  23   -1.23    2.06
  -2   5  23   -2.08    5.74
   2  -5  23    5.62    7.18
  -2  -5 -23    0.22    2.91
  -2  -5  23    6.32    6.80
   2  -5  23    9.68    5.12
   2   5  23    8.54    7.88
  -2  -5  23    5.47    5.55
   2   5  23    2.76    3.22
   2   5  24   14.05    5.28
  -2   5  24   39.56   11.09
   2   5  24   47.11   11.96
  -2   5  24   53.00   11.97
  -2  -5  24   42.91   10.93
   2  -5  24   40.70   11.75
   2  -5  24   66.51   15.45
  -2  -5 -24   34.13   11.09
  -2  -5  24   34.43    9.95
  -2   5  25    0.82    5.85
   2   5  25    0.15    2.70
  -2  -5 -25   10.81    7.65
  -2  -5  25    5.20    5.52
  -2   5  25    1.36    2.63
   2  -5  25    3.47    4.07
   2  -5  25    2.86    6.75
   2   5  25    0.87    3.75
  -2  -5  25    9.42    6.99
  -2   5  26   41.50   10.83
   2   5  26   66.30   15.52
  -2   5  26   62.05   13.54
  -2  -5  26   56.65   12.99
   2  -5  26   63.17   14.76
   2  -5  26   77.33   15.56
   2   5  26   51.32   10.97
  -2  -5  26   69.42   16.31
  -2  -5 -26   80.01   16.35
   2  -5  27   13.09    7.25
   2   5  27   18.18    8.44
   2  -5  27   11.28    6.20
  -2  -5  27   23.90    9.48
  -2  -5  27   16.63    8.60
  -2   5  27   22.08    9.96
   2   5  27   21.11    8.97
  -2  -5 -27   17.68    9.23
  -2   5  27   19.20    9.33
   2   5  28   38.32   11.58
  -2  -5 -28   39.12   14.88
  -2  -5  28   53.99   14.54
  -2   5  28   68.74   15.43
   2  -5  28   68.62   15.67
  -2   5  28   40.25   10.92
   2   5  28   58.59   14.92
  -2  -5  28   44.98   11.81
   2  -5  28   49.69   13.41
   2  -5  29    4.82    6.66
  -2   5  29    1.88    4.77
   2   5  29   17.27   12.14
  -2  -5  29   -3.26    4.30
   2   5  29   -0.68    5.37
  -2  -5 -29    2.29    7.57
  -2   5  29   16.36    9.12
  -2  -5  29    0.09    3.73
   2  -5  29   -1.82    4.29
   2   5  30   25.98    9.65
   2  -5  30   19.69    7.78
   2   5  30   31.04   10.98
  -2  -5  30   15.13    7.92
  -2  -5  30   32.57   14.09
  -2   5  30    9.41    5.96
  -2   5  30   12.07    2.97
  -2  -5 -30   -0.12    5.15
   2  -5  30   11.55    7.41
  -2  -6   0  590.57   31.63
   2  -6   0  626.72   30.90
   2  -6   0  562.09   30.82
  -2  -6   0  561.12   25.74
   2  -6   1   32.56    8.63
  -2  -6  -1   34.41    6.61
  -2  -6  -1   37.37    7.73
   2  -6  -1   29.88    6.78
  -2  -6   1   33.91    7.53
   2  -6   1   34.88    7.00
   2  -6  -1   44.43    8.05
  -2   6   1   16.72    4.52
  -2  -6   1   31.80    6.05
  -2  -6   2   19.41    5.98
  -2  -6  -2   21.60    6.97
  -2   6   2   22.99    6.37
   2  -6  -2   15.49    5.59
  -2  -6   2   18.65    5.26
  -2  -6   2   20.95    3.27
   2  -6   2   25.97    6.33
   2  -6   2   26.45    6.85
   2  -6  -2   15.37    6.09
   2  -6   3   38.78    8.01
  -2  -6   3   40.19    7.95
   2  -6  -3   47.75    9.11
  -2   6   3   46.67    8.01
   2  -6   3   43.98    9.08
  -2  -6  -3   40.29    8.40
  -2  -6   3   45.48    7.27
   2  -6  -3   35.61    7.58
  -2  -6   3   40.11    5.08
  -2  -6   4  230.54   20.05
  -2  -6  -4  229.96   19.93
  -2  -6   4  231.76   16.40
   2  -6  -4  225.06   19.30
  -2  -6   4  275.58   14.66
   2  -6   4  225.93   19.44
   2  -6  -4  217.70   18.71
  -2   6   4  249.06   19.92
   2  -6   4  225.93   18.77
   2   6   4  214.17   16.82
  -2  -6   5  137.06   12.69
   2  -6   5  153.31   16.02
  -2  -6  -5  148.05   16.02
   2  -6  -5  111.40   14.02
  -2   6   5  153.20   15.67
   2   6   5  122.55    7.68
   2   6   5  127.22   13.28
  -2  -6   5  162.51   12.27
  -2  -6   5  140.88   16.40
   2  -6   5  134.80   14.72
  -2  -6   6    9.43    4.23
  -2   6   6   16.69    5.46
  -2  -6   6   16.17    6.47
   2  -6   6   15.35    5.90
  -2  -6  -6   15.15    4.88
   2  -6  -6    7.23    4.88
   2  -6   6   11.44    4.35
   2   6   6    6.78    2.08
  -2  -6   6   12.75    4.02
   2   6   6   10.16    4.07
  -2  -6   7  203.32   19.29
  -2   6   7  172.99   16.77
   2  -6   7  175.03   17.34
   2  -6   7  167.82   16.86
   2  -6  -7  193.41   18.16
   2   6   7  214.79   18.27
  -2  -6   7  178.86   15.14
  -2   6   7  200.27   19.34
  -2  -6   7  181.88   15.29
   2   6   7  195.75   11.88
  -2  -6  -7  160.83   17.37
   2   6   8    8.86    2.83
  -2   6   8    8.77    4.83
   2  -6   8    1.27    1.92
   2  -6   8   10.14    5.00
  -2  -6   8    6.50    4.00
   2  -6  -8    5.36    2.21
  -2  -6   8    7.71    3.95
  -2   6   8    7.99    5.89
  -2  -6  -8    0.49    1.55
  -2  -6   8    8.08    4.07
   2   6   8    3.42    3.86
  -2  -6   9   18.10    5.15
   2   6   9   15.59    4.51
   2  -6   9   26.17    8.20
   2  -6  -9    7.40    5.19
  -2  -6   9   14.02    5.65
  -2  -6   9    8.31    3.82
   2   6   9   18.64    6.53
  -2  -6  -9   17.22    6.77
  -2   6   9    6.21    2.40
  -2   6   9   13.74    5.47
   2  -6   9    9.84    3.05
   2   6  10   52.17    9.49
  -2  -6  10   48.77   10.16
  -2  -6 -10   50.09    9.44
  -2   6  10   46.78    9.42
  -2  -6  10   56.09    9.51
   2  -6  10   45.02    9.08
   2  -6  10   41.67    8.78
   2   6  10   56.14    8.51
   2  -6 -10   41.50   10.65
  -2   6  10   58.49   11.19
  -2  -6  10   36.24    7.40
  -2  -6  11  564.03   34.76
   2  -6  11  516.54   31.95
  -2  -6  11  563.47   30.12
   2   6  11  541.87   31.90
  -2  -6 -11  521.75   32.90
  -2   6  11  551.61   32.54
  -2   6  11  557.41   33.24
   2   6  11  484.76   26.27
  -2  -6  11  497.12   30.28
   2  -6  11  502.58   31.39
   2  -6 -11  538.39   33.83
   2  -6  12  159.52   17.73
  -2  -6  12  157.86   17.61
  -2  -6 -12  175.84   19.27
  -2   6  12  158.17   18.17
  -2  -6  12  138.59   15.74
   2  -6 -12  167.77   19.10
  -2   6  12  134.48   16.85
   2   6  12  174.79   16.38
   2   6  12  145.20   16.86
   2  -6  12  178.69   19.32
  -2  -6  12  165.09   19.11
  -2  -6  13  118.74   16.71
  -2  -6 -13  134.07   17.95
   2  -6 -13  103.59   14.87
  -2  -6  13  103.50   14.19
  -2   6  13  113.77   15.29
   2   6  13  111.33   13.79
   2  -6  13  108.54   15.66
   2  -6  13  120.51   16.79
  -2  -6  13   95.87   14.57
  -2   6  13   99.70   15.40
   2   6  13  115.38   14.88
  -2  -6  14  322.62   27.62
   2  -6 -14  289.58   26.08
  -2   6  14  262.39   24.40
  -2  -6  14  296.23   24.30
   2   6  14  288.58   23.02
  -2  -6  14  259.18   23.80
  -2   6  14  298.60   26.08
   2   6  14  246.94   22.66
   2  -6  14  281.00   25.15
   2  -6  14  303.36   26.39
  -2   6  15  131.06   17.58
  -2  -6  15  117.98   15.45
   2  -6 -15  102.65   17.31
  -2  -6 -15  143.62   19.05
   2  -6  15  133.84   17.90
  -2  -6  15  137.81   18.19
  -2  -6  15  118.44   16.74
   2   6  15  127.97   16.56
  -2   6  15  113.63   16.73
   2   6  15  108.85   14.70
   2  -6  15  163.14   19.84
  -2   6  16  180.42   20.91
  -2  -6  16  175.06   19.95
  -2   6  16  163.90   19.53
   2   6  16  146.13   18.16
   2  -6 -16  171.10   21.02
  -2  -6  16  165.86   20.64
   2   6  16  163.99   19.87
  -2  -6 -16  154.13   21.02
   2  -6  16  195.74   21.72
  -2  -6  16  165.20   20.40
  -2  -6  17    4.80    4.87
   2   6  17    3.50    5.37
   2  -6 -17   -3.40    3.84
  -2  -6 -17   -2.16    4.03
  -2  -6  17   -1.09    1.80
   2  -6  17    4.87    5.72
  -2   6  17    4.86    2.92
  -2  -6  17    1.84    2.81
   2   6  17    1.60    3.11
   2  -6  17    1.92    5.78
   2  -6  17    3.23    6.76
  -2   6  17   11.40    5.68
  -2  -6  18   68.02   13.71
  -2  -6 -18   71.94   13.99
   2  -6  18   52.41   12.58
   2   6  18   82.99   14.06
   2  -6 -18   65.85   13.07
  -2  -6  18   81.71   15.57
  -2  -6  18   69.07   12.88
  -2   6  18   65.15   12.69
   2  -6  18   80.43   15.26
  -2   6  18   74.15   14.88
   2   6  18   72.57   12.81
   2   6  19   10.93    6.81
   2   6  19   18.71    6.34
   2  -6  19   18.61    7.48
  -2  -6 -19   11.08    6.05
  -2   6  19    9.15    6.11
  -2  -6  19   14.51    6.38
   2  -6 -19   22.72    8.79
  -2  -6  19   12.55    7.52
   2  -6  19   12.27    6.97
  -2   6  19    3.43    3.13
  -2   6  20    2.31    4.43
   2   6  20   -0.53    3.09
  -2   6  20    1.29    6.19
  -2  -6 -20    0.60    2.63
  -2  -6  20   10.38    8.41
   2  -6 -20    5.49    6.97
  -2  -6  20    0.22    4.06
   2   6  20    3.16    4.42
   2  -6  20    1.65    4.21
   2  -6  20    2.46    5.32
   2   6  21    5.99    4.84
  -2  -6 -21   10.27    6.72
  -2  -6  21    3.54    2.73
  -2   6  21   21.47    8.53
  -2  -6  21   14.05    5.71
   2   6  21   15.22    6.86
   2  -6  21   17.01    6.75
   2  -6 -21   11.92    4.77
   2  -6  21    7.82    8.00
  -2   6  21    0.96    3.24
   2   6  22   79.63   14.72
  -2  -6 -22   66.77   14.84
  -2  -6  22   81.53   16.25
  -2  -6  22   76.93   16.17
   2   6  22   70.77   14.21
   2  -6 -22   91.61   17.13
  -2   6  22   81.63   15.26
   2  -6  22   72.36   14.79
   2  -6  22  106.96   17.94
  -2   6  22   53.78   14.02
  -2   6  23   21.38    9.64
   2   6  23   26.25    7.67
  -2  -6 -23   22.47    8.61
  -2  -6  23   28.81    9.97
  -2  -6  23   12.28    8.85
   2  -6  23   24.46   10.53
  -2   6  23   22.52   10.22
   2  -6 -23    7.51    6.91
   2   6  23   26.19    8.93
   2  -6  23   30.42    8.33
   2  -6  24  114.45   20.79
  -2  -6  24  116.84   19.04
   2  -6  24  112.26   19.31
  -2   6  24  116.17   20.60
  -2  -6  24  109.58   18.83
   2  -6 -24   84.24   17.80
   2   6  24  111.00   19.21
   2   6  24  103.07   18.14
  -2   6  24  130.77   19.90
  -2  -6 -24   61.18   18.67
  -2   6  25    5.74    4.81
   2   6  25   -0.54    2.71
  -2  -6  25    8.60    7.30
   2  -6  25    4.16    5.66
   2   6  25    0.63    6.88
  -2  -6 -25    3.34    6.15
   2  -6  25   -3.65    4.90
  -2   6  25   -2.24    5.80
  -2  -6  25   13.06    9.03
   2  -6 -25    2.20    2.72
  -2   6  26   30.91   12.24
  -2   6  26   32.70   10.90
   2   6  26   43.61    8.68
   2  -6 -26   19.80    8.54
   2  -6  26   33.09    9.89
  -2  -6  26   19.03    6.16
   2  -6  26   49.55   12.81
  -2  -6 -26   11.19    8.55
   2   6  26   28.71   10.69
  -2  -6  26   29.29   12.04
  -2  -6  27   14.72    8.79
   2  -6  27   -0.03    4.22
  -2   6  27    2.62    3.36
  -2  -6  27    3.02    8.18
  -2  -6 -27    5.75    7.23
   2   6  27    9.91    7.87
   2   6  27    6.50    3.73
  -2   6  27    1.24    4.84
   2  -6 -27    2.92    2.69
   2  -6  27    5.76    5.29
  -2   6  28   11.60    4.85
   2  -6 -28   -3.62    6.30
   2   6  28   21.14    8.66
  -2  -6  28   11.94    7.12
  -2  -6 -28   -0.83    3.67
   2  -6  28    5.03    4.67
  -2   6  28    5.03    5.13
   2   6  28   -2.95    7.05
  -2  -6  28    2.77    4.11
   2  -6  28   18.23    7.65
   2   6  29   32.90   10.82
  -2   6  29   13.45    8.31
  -2   6  29   43.66   12.00
   2  -6  29   20.96    9.07
  -2  -6 -29   10.54    8.56
   2  -6 -29   20.85    6.03
   2   6  29   21.00    8.51
  -2  -6  29   35.43   11.86
  -2  -6  29    8.18    4.94
   2  -6  29   33.13   11.57
  -2  -6 -30   30.10   14.00
  -2  -6  30   34.42   14.44
   2  -6 -30   25.27   12.19
   2   6  30   19.26   10.90
  -2  -6  30   16.24    9.21
   2   6  30   15.37    7.15
  -2   6  30   30.04   13.37
  -2   6  30    8.92    3.95
   2  -6  30   20.31   10.29
   2  -6  30   27.50   11.99
   2  -7   0    2.13    1.44
  -2  -7   0    4.92    2.43
   2  -7   0    5.68    3.03
  -2  -7   0    6.55    3.47
   2  -7   1  798.45   38.42
  -2  -7  -1  787.46   39.42
   2  -7   1  791.21   38.62
  -2  -7  -1  729.89   32.42
  -2  -7   1  767.85   33.64
   2  -7  -1  743.80   36.93
  -2  -7   1  721.12   16.93
   2  -7  -1  771.32   37.94
  -2  -7   1  798.59   39.25
   2  -7  -2  262.90   21.99
   2  -7   2  242.08   20.66
   2  -7  -2  216.95   20.04
  -2   7   2  234.28   20.01
  -2  -7   2  268.53   22.69
   2  -7   2  246.36   21.03
  -2  -7   2  266.35   12.18
  -2  -7  -2  248.55   18.88
  -2  -7  -2  247.34   22.01
  -2  -7   2  226.74   18.29
  -2   7   3  637.91   33.38
  -2  -7   3  693.62   36.73
  -2  -7  -3  649.92   35.29
   2  -7  -3  656.34   34.93
  -2  -7   3  708.66   31.90
   2  -7  -3  685.33   35.01
   2  -7   3  649.79   34.81
   2  -7   3  690.91   35.25
  -2  -7   3  666.24   22.49
  -2   7   4  123.74   14.46
   2  -7   4  126.77   15.17
  -2  -7  -4  140.31   16.51
   2  -7  -4  108.88   14.73
  -2  -7   4  118.12   15.12
  -2  -7   4  125.16   13.34
   2  -7   4  115.99   14.88
  -2  -7   4  138.52   10.85
   2  -7  -4  120.32   14.89
   2   7   5  193.90   17.18
  -2  -7   5  221.03   20.99
   2  -7   5  195.00   19.17
  -2  -7   5  217.52   15.17
  -2  -7   5  206.28   17.55
   2  -7  -5  211.83   20.03
  -2  -7  -5  184.58   19.03
   2  -7   5  203.38   19.64
   2   7   5  166.34    9.21
  -2   7   5  217.24   19.77
   2  -7  -5  184.33   18.69
   2  -7   6  305.26   23.85
  -2  -7   6  266.40   20.22
   2  -7   6  272.38   22.84
   2   7   6  217.11   12.44
  -2  -7  -6  268.49   23.29
   2  -7  -6  270.62   23.13
  -2   7   6  259.06   21.38
   2   7   6  285.55   21.63
  -2  -7   6  270.76   23.48
  -2  -7   6  288.16   18.68
  -2  -7   7  765.81   40.23
   2  -7   7  781.74   38.94
  -2  -7  -7  789.70   40.17
   2  -7  -7  809.60   40.04
   2  -7   7  776.82   38.97
   2   7   7  809.95   37.19
  -2  -7   7  738.06   32.12
   2   7   7  751.61   24.34
  -2  -7   7  767.01   34.26
  -2   7   7  779.65   38.05
   2  -7   8  128.17   15.76
   2   7   8  147.66   16.12
   2   7   8  123.36   10.85
  -2   7   8  152.93   17.12
   2  -7   8  142.70   16.74
  -2  -7   8  146.68   18.17
   2  -7  -8   94.21   13.46
  -2  -7   8  142.14   14.45
  -2  -7  -8  142.97   16.86
  -2  -7   8  122.87   14.08
   2  -7   9   82.40   12.97
  -2   7   9  106.42   14.44
  -2  -7   9  105.87   13.01
  -2  -7  -9  115.98   15.16
  -2   7   9  117.42   15.79
   2  -7  -9  106.49   15.46
  -2  -7   9   76.92   13.39
   2   7   9  100.59   14.35
  -2  -7   9  109.68   13.73
   2   7   9   95.97   10.66
   2  -7   9  107.18   14.31
  -2  -7  10   55.55    9.89
  -2  -7  10   54.73   11.78
  -2  -7 -10   71.55   12.78
   2  -7  10   67.60   11.45
   2  -7 -10   75.77   13.49
  -2   7  10   63.67   11.40
   2   7  10   61.08    7.97
  -2   7  10   74.05   12.36
   2   7  10   71.36   11.58
  -2  -7  10   55.30    9.57
   2  -7  10   50.73   10.53
   2  -7  11 1964.71   66.21
  -2  -7  11 2137.72   64.83
  -2  -7  11 1988.49   67.79
  -2  -7 -11 1988.20   67.44
  -2   7  11 1996.58   64.03
   2  -7 -11 2015.94   67.02
  -2  -7  11 2029.26   60.84
   2   7  11 1922.49   52.04
  -2   7  11 2037.66   66.31
   2  -7  11 2047.93   66.16
   2   7  11 1817.42   61.78
  -2   7  12  428.50   30.44
   2  -7  12  359.58   28.89
   2  -7 -12  351.38   29.17
  -2  -7 -12  430.83   31.21
  -2   7  12  356.44   26.64
  -2  -7  12  370.29   26.45
  -2  -7  12  362.30   27.10
   2   7  12  387.16   28.94
   2  -7  12  401.77   29.40
  -2  -7  12  393.10   29.87
   2   7  12  386.19   24.01
   2  -7  13  150.96   18.73
  -2  -7  13  111.05   17.15
  -2  -7 -13  140.51   18.32
   2  -7 -13  126.11   18.06
   2  -7  13  135.18   16.68
  -2   7  13  152.17   17.97
  -2  -7  13  139.01   17.52
   2   7  13  121.80   14.17
  -2   7  13  133.43   18.08
  -2  -7  13  145.66   17.17
   2   7  13  129.60   17.34
   2  -7  14   88.81   14.79
  -2  -7  14   53.99   12.19
   2  -7 -14   93.10   16.50
   2  -7  14  106.94   16.74
  -2  -7 -14  119.59   17.11
   2   7  14  107.26   16.65
   2   7  14   78.87   12.36
  -2  -7  14  100.48   15.89
  -2   7  14   81.03   14.69
  -2   7  14   84.17   13.81
  -2  -7  14   64.08   12.87
  -2  -7 -15    7.78    4.77
   2  -7  15    5.19    4.97
  -2  -7  15   10.24    7.19
  -2  -7  15    3.98    2.30
   2  -7  15    5.34    2.16
   2   7  15    5.25    4.04
  -2   7  15   -5.59    4.79
   2  -7 -15    0.12    4.18
   2   7  15    6.11    5.16
  -2  -7  15    6.00    4.91
  -2   7  15   10.79    5.39
   2   7  16  189.95   20.94
  -2  -7 -16  179.19   21.73
   2  -7 -16  138.24   19.11
   2  -7  16  158.14   20.96
  -2  -7  16  175.67   20.20
  -2   7  16  173.78   20.91
  -2   7  16  171.30   21.08
  -2  -7  16  171.03   20.54
   2   7  16  159.10   19.71
   2  -7  16  111.73   17.34
  -2  -7  16  143.88   19.54
  -2   7  17  178.91   21.89
   2  -7 -17  168.55   21.88
   2   7  17  183.84   21.73
  -2  -7  17  174.96   20.73
  -2  -7 -17  177.62   22.56
   2  -7  17  158.71   19.69
  -2   7  17  191.11   22.77
   2   7  17  180.65   20.99
  -2  -7  17  197.23   22.36
   2  -7  17  203.31   23.61
   2  -7  17  207.08   24.40
  -2  -7  17  187.25   22.55
   2  -7  18   69.77   14.20
   2   7  18   58.02   12.19
  -2  -7 -18   60.68   14.19
   2   7  18   64.58   12.56
  -2   7  18   66.87   13.96
   2  -7  18   59.74   11.55
  -2   7  18   49.32   12.88
   2  -7 -18   65.31   13.71
  -2  -7  18   60.23   12.57
  -2  -7  18   41.91   10.83
  -2  -7  18   81.11   16.36
   2  -7  18   48.64   11.02
   2   7  19   50.74   11.25
  -2  -7 -19   44.66   12.83
   2  -7  19   83.56   15.38
   2   7  19   42.88   11.62
   2  -7 -19   65.41   14.19
  -2  -7  19   48.78   12.06
   2  -7  19   70.62   14.18
   2  -7  19   74.95   15.27
  -2   7  19   63.57   13.32
  -2  -7  19   42.21   10.32
  -2   7  19   46.61   10.68
  -2  -7  19   77.99   15.29
   2  -7  20    0.16    4.01
   2   7  20   10.72    7.11
   2   7  20   11.62    8.09
  -2  -7  20    6.83    5.18
  -2  -7  20    6.51    2.09
  -2   7  20    6.88    4.74
   2  -7 -20   -4.27    4.36
  -2  -7 -20    0.65    3.25
   2  -7  20    5.21    4.22
  -2   7  20    6.68    4.95
  -2   7  21   99.50   17.69
  -2  -7 -21  107.39   18.75
  -2  -7  21  120.14   19.47
   2  -7  21  127.87   19.49
   2  -7 -21  120.14   19.62
  -2   7  21  105.82   17.75
  -2  -7  21   99.31   17.23
   2   7  21  102.21   16.73
   2   7  21  117.46   18.17
   2  -7  21   94.35   17.31
   2   7  22   13.74    7.49
   2   7  22   -3.88    3.32
  -2   7  22   -2.68    3.99
  -2  -7  22    1.28    4.25
   2  -7  22    2.63    1.86
  -2  -7 -22   15.75    9.85
   2  -7 -22    7.88    4.08
  -2  -7  22   -3.05    5.93
   2  -7  22   -7.93    5.23
  -2   7  22    5.98    5.34
   2   7  23    2.17    3.69
  -2   7  23   -0.56    5.52
   2   7  23    2.39    5.13
  -2  -7 -23    5.06    6.03
  -2  -7  23    4.82    5.79
   2  -7 -23   -1.69    3.25
   2  -7  23   -5.26    5.24
  -2  -7  23    0.10    4.51
   2  -7  23    5.80    6.78
  -2   7  23   -4.07    1.79
   2   7  24   -1.36    5.02
  -2  -7 -24    1.40    3.73
  -2   7  24    2.16    4.82
  -2  -7  24   -0.55    4.55
   2  -7 -24    3.10    6.75
  -2   7  24    6.29    9.20
   2   7  24    6.22    5.53
   2  -7  24   -2.16    5.96
  -2  -7  24    6.97    6.50
   2  -7  24   -0.32    6.89
  -2  -7  25  109.44   18.98
  -2  -7  25   97.24   18.95
   2  -7  25   85.24   16.78
   2  -7 -25  103.51   18.77
   2   7  25  100.94   19.74
  -2   7  25  124.62   20.56
  -2   7  25  123.78   20.52
   2  -7  25  126.02   21.38
   2   7  25   90.21   18.18
  -2  -7 -25   88.31   17.97
   2  -7 -26    3.68    6.23
  -2   7  26   -0.97    4.38
  -2   7  26    9.80    4.75
   2   7  26    3.88    3.32
  -2  -7  26    3.38    8.81
  -2  -7 -26    5.13    7.82
   2  -7  26   -1.98    4.35
  -2  -7  26    9.23    6.14
   2  -7  26   18.27    9.14
  -2  -7  27    2.96    4.00
   2   7  27    2.85    4.20
   2  -7  27   16.46    7.45
  -2   7  27    6.76    5.94
   2  -7 -27    0.49    2.69
  -2  -7 -27   11.28    7.12
  -2  -7  27    5.98    6.61
   2  -7  27   14.00    6.90
  -2   7  27    7.33    3.41
  -2   7  28    5.62    6.87
   2  -7  28    3.89    4.28
   2  -7 -28    6.38   11.03
  -2  -7 -28   -9.00    8.56
  -2  -7  28   -0.29    4.77
   2   7  28   -3.65    4.60
  -2   7  28    0.03    5.61
   2  -7  28   -1.98    4.84
   2   7  29   40.40   12.31
   2  -7  29   33.47   10.71
  -2  -7 -29   26.23   10.26
   2  -7 -29   21.18    6.85
  -2   7  29   56.46   16.02
  -2  -7  29   32.26   10.34
   2  -7  29   30.49   10.16
  -2   7  29   45.62   13.84
   2  -8   0    6.92    4.77
  -2  -8   0   16.71    5.88
   2  -8   0   20.79    7.12
  -2  -8   0   19.06    5.24
  -2  -8   1   10.66    3.72
   2  -8   1    3.65    1.95
  -2  -8  -1    1.48    2.92
   2  -8  -1   17.59    6.52
   2  -8  -1    9.76    5.23
  -2  -8   1   15.46    5.93
  -2  -8  -1   10.94    4.29
   2  -8   1    7.35    2.97
  -2  -8   2   29.43    8.28
  -2  -8  -2   44.57    8.42
   2  -8   2   43.36    9.51
  -2  -8  -2   27.15    8.88
   2  -8  -2   33.96    9.34
  -2  -8   2   24.57    5.99
   2  -8  -2   29.96    8.17
   2  -8   2   35.60    7.98
  -2  -8   3  135.22   16.98
  -2  -8  -3  154.46   18.62
   2  -8  -3  131.33   16.32
  -2  -8   3  156.97   16.12
   2  -8  -3  154.79   17.87
   2  -8   3  159.65   17.65
  -2   8   3  166.44   17.57
   2  -8   3  146.35   16.82
  -2  -8  -3  158.86   16.52
  -2  -8   4  212.08   18.83
   2  -8   4  262.66   23.48
   2  -8  -4  198.08   19.73
   2  -8   4  228.33   21.93
  -2   8   4  236.43   21.31
  -2  -8   4  224.78   22.25
  -2  -8  -4  205.17   18.68
  -2  -8   4  204.14   13.98
   2  -8  -4  182.09   19.54
  -2  -8  -4  224.26   21.76
  -2  -8   5  189.59   20.56
   2  -8   5  211.01   21.29
  -2  -8   5  206.82   15.16
  -2  -8  -5  221.39   22.32
  -2  -8   5  219.10   19.08
   2  -8  -5  185.90   19.48
   2  -8  -5  224.77   22.44
  -2   8   5  218.16   20.69
   2  -8   5  188.52   19.29
   2  -8  -6    6.03    6.40
   2  -8  -6    0.79    2.91
   2  -8   6    2.13    3.16
   2   8   6    6.94    3.38
  -2  -8   6    2.55    3.97
   2  -8   6    3.05    4.84
  -2   8   6   -2.70    2.69
   2   8   6    3.91    2.34
  -2  -8  -6    1.91    2.33
  -2  -8   6    1.70    3.28
  -2  -8   6    2.92    2.85
  -2  -8   7   91.87   12.50
   2  -8  -7   59.36   11.28
   2  -8  -7   71.95   11.80
   2  -8   7   79.45   13.06
   2  -8   7   58.67   11.33
  -2  -8  -7   71.06   12.90
   2   8   7   80.73    8.20
  -2  -8   7   93.12   14.65
   2   8   7   72.63   11.54
  -2   8   7   63.25   11.70
  -2  -8   7   68.96   10.20
  -2  -8  -8   -1.35    3.95
  -2  -8   8    1.13    4.35
   2  -8   8    0.99    1.58
  -2  -8   8   -0.15    2.29
  -2   8   8    0.16    3.02
   2  -8  -8    4.90    4.78
   2  -8   8   -0.32    3.84
   2   8   8    1.51    3.41
  -2  -8   8    0.88    3.20
   2   8   8    1.37    0.88
   2  -8   9   99.23   15.16
  -2  -8  -9  104.50   15.54
  -2  -8   9  109.40   16.25
   2  -8  -9  109.23   16.32
  -2  -8   9  104.35   13.91
  -2   8   9   94.73   14.73
   2   8   9   84.75    9.35
   2  -8   9   90.63   14.14
   2   8   9  119.73   15.38
  -2  -8   9   95.23   12.79
  -2  -8  10   78.19   13.94
   2  -8  10   97.01   14.83
   2   8  10   65.21    9.47
   2  -8 -10   87.00   13.91
   2   8  10   80.16   12.92
  -2  -8  10   98.12   13.76
  -2   8  10   80.76   13.95
  -2   8  10   94.97   14.68
  -2  -8 -10   78.86   12.52
  -2  -8  10   85.58   13.10
   2  -8  10   73.31   12.73
   2  -8  11   -3.67    5.86
  -2  -8  11    1.01    5.41
  -2  -8  11    5.99    2.72
  -2   8  11   -6.74    6.32
   2  -8  11    5.76    6.11
   2   8  11   -3.06    2.56
   2  -8 -11    1.13    3.56
  -2  -8 -11   -0.59    3.33
  -2   8  11    4.21    2.15
  -2  -8  11   -4.25    4.48
   2   8  11    0.81    3.72
  -2  -8  12   20.44    6.20
   2  -8 -12   33.64    9.74
  -2  -8  12   23.65    6.76
  -2   8  12   22.06    7.16
   2  -8  12   42.24   10.13
   2   8  12   30.75    7.09
   2  -8  12   17.24    6.44
  -2  -8  12   16.40    7.05
  -2   8  12   39.40   10.15
   2   8  12   27.43    7.64
  -2  -8 -12   25.75    7.75
   2   8  13   15.32    7.08
   2  -8 -13    4.66    4.03
   2  -8  13    3.41    2.70
  -2  -8  13    3.94    4.27
  -2  -8 -13    9.30    6.98
  -2  -8  13    1.48    3.40
  -2   8  13    2.61    5.85
   2   8  13    8.72    4.50
  -2   8  13    7.42    4.22
  -2  -8  13    3.51    4.21
   2  -8  13   -0.77    5.36
  -2  -8  14   21.09    7.30
   2  -8  14   52.55   12.85
  -2  -8  14   29.28    8.49
   2   8  14   21.78    5.93
  -2  -8 -14   24.88    5.89
   2  -8 -14   43.50   11.92
  -2   8  14   25.56    8.38
  -2   8  14   28.19    7.99
  -2  -8  14   20.28    6.46
   2  -8  14   44.82   10.86
   2   8  14   33.03    9.29
  -2  -8 -15  285.17   27.44
   2  -8 -15  305.22   28.11
  -2  -8  15  277.80   25.07
   2   8  15  253.94   23.08
   2   8  15  268.35   26.44
   2  -8  15  252.38   26.45
   2  -8  15  259.86   25.63
  -2   8  15  267.48   26.89
  -2  -8  15  265.15   26.38
  -2   8  15  267.13   25.92
  -2  -8  15  322.41   29.82
   2  -8  16   -1.02    3.41
  -2  -8  16    1.85    3.32
   2  -8  16    0.54    3.03
  -2  -8 -16    1.41    3.54
   2  -8 -16    6.88    4.87
  -2   8  16    8.95    6.27
  -2   8  16    8.67    5.38
  -2  -8  16    2.82    3.87
  -2  -8  16    6.04    6.00
   2   8  16    2.27    4.00
   2  -8  17  105.69   17.70
   2  -8  17   77.91   15.47
  -2  -8 -17  112.59   18.27
  -2  -8  17  126.38   17.67
   2  -8  17   84.80   15.94
  -2   8  17   93.09   14.75
  -2   8  17  109.05   17.28
   2  -8 -17  103.04   17.58
  -2  -8  17  108.43   17.52
   2   8  17  101.23   16.60
  -2  -8  17  108.98   17.88
   2  -8  18   42.24   11.47
  -2  -8  18   22.78    7.23
   2  -8  18   40.56   10.98
  -2   8  18   50.34   11.74
   2  -8 -18   25.11    8.35
  -2  -8 -18   14.20    6.34
  -2  -8  18   43.36   11.78
  -2  -8  18   32.99    8.53
   2  -8  18   35.40   10.14
  -2   8  18   28.45   10.38
   2   8  18   36.11    9.59
   2  -8  19   75.54   14.97
  -2   8  19   91.05   16.10
  -2  -8  19  107.64   17.18
  -2  -8 -19  109.47   18.15
   2  -8  19  105.22   18.59
   2   8  19   96.34   16.86
   2  -8 -19   95.60   17.84
  -2   8  19   83.82   16.42
   2  -8  19   77.58   15.80
  -2  -8  19   68.51   15.40
  -2  -8  19   85.88   16.11
   2   8  20    5.15    6.31
  -2  -8  20   -2.37    4.53
   2  -8  20   11.83    6.56
   2  -8 -20   -0.20    2.53
   2  -8  20    1.27    6.18
  -2  -8 -20   -2.91    4.38
  -2   8  20    2.27    4.20
  -2  -8  20   -2.09    4.63
  -2  -8  20   -1.25    3.28
  -2   8  20   -2.72    5.09
   2  -8  20    5.73    7.64
   2  -8 -21  154.05   23.61
  -2  -8  21  160.77   22.24
   2  -8  21  133.49   20.49
  -2   8  21  133.30   21.23
   2  -8  21  141.73   21.80
  -2  -8  21  187.84   24.77
  -2   8  21  132.72   20.37
   2   8  21  159.79   22.52
  -2  -8  21  169.06   22.98
   2   8  22    0.88    5.40
  -2  -8 -22    1.82    5.18
   2  -8  22    4.16    2.67
  -2   8  22    3.48    3.04
  -2   8  22    0.60    3.67
   2  -8 -22    9.40    8.56
  -2  -8  22    4.92    5.12
   2  -8  22    3.59    1.99
  -2  -8  22    0.52    6.41
   2   8  23   33.66    7.87
  -2  -8  23   18.83    6.93
  -2  -8 -23    9.98    5.68
  -2  -8  23   19.94    7.27
  -2   8  23   45.21   15.06
  -2   8  23   17.05    7.49
   2  -8  23   15.85    8.24
   2  -8 -23    2.12    5.59
   2  -8  23   26.35    8.80
   2   8  24   11.66    7.88
  -2   8  24   11.40    5.57
  -2  -8  24   10.63    9.44
  -2  -8 -24   17.33   10.54
   2  -8  24    6.73    5.88
  -2  -8  24   32.14   10.07
   2  -8 -24   -4.04    5.70
   2  -8  24   15.08    4.81
  -2   8  24   21.70    7.22
   2  -8  25  174.17   24.25
  -2  -8 -25  190.04   26.60
   2  -8 -25  209.61   27.08
  -2   8  25  183.80   26.03
   2  -8  25  160.31   23.84
  -2  -8  25  175.78   25.45
   2   8  25  162.85   24.59
  -2   8  25  166.72   22.30
   2   8  26   25.17    8.59
  -2   8  26   37.53   12.77
   2  -8 -26   17.84    8.73
  -2  -8 -26   33.76   12.41
  -2  -8  26   31.61   11.31
   2  -8  26   27.55   10.72
   2  -8  26   51.70   13.34
  -2   8  26   43.15   11.42
   2  -8 -27   -1.01    5.04
   2   8  27    1.79    7.05
  -2  -8 -27   15.70    8.83
   2  -8  27    5.26    3.41
  -2  -8  27   12.37    9.37
  -2   8  27    8.35    8.12
   2  -8  27    6.86    4.26
  -2   8  27   12.00    6.80
   2   8  28   -3.43    5.24
  -2   8  28   -2.62    5.71
  -2  -8  28   11.93    7.91
   2  -8 -28   -7.34    7.34
   2  -8  28   -9.95    9.96
  -2  -8 -28    3.87    5.61
  -2   8  28  -12.78    9.76
   2  -8  28   -4.09    4.74
   2  -9   0   20.49    7.16
  -2  -9   0   26.05    6.85
  -2  -9   0   29.64    7.37
   2  -9   0   15.33    6.49
  -2  -9   1  169.06   19.41
   2  -9   1  239.74   23.99
  -2  -9  -1  177.93   20.94
   2  -9  -1  184.33   21.01
  -2  -9  -1  184.31   19.49
  -2  -9   1  171.55   18.24
   2  -9  -1  177.29   20.10
   2  -9   1  200.77   21.44
   2  -9  -2    5.02    2.09
  -2  -9   2    7.53    3.30
   2  -9   2   23.98    7.66
  -2  -9  -2   26.44   10.00
  -2  -9   2   15.69    4.74
   2  -9   2   19.26    7.43
   2  -9  -2   22.62    6.68
  -2  -9  -2   24.59    7.60
   2  -9   3  475.40   33.27
  -2  -9   3  413.28   28.07
  -2  -9   3  387.30   30.55
  -2  -9  -3  383.64   27.23
   2  -9  -3  507.37   34.40
  -2  -9  -3  381.68   30.66
   2  -9   3  387.73   29.24
   2  -9  -3  390.42   30.19
   2  -9  -4  120.20   16.46
  -2   9   4  131.36   16.20
   2  -9   4  112.36   15.86
  -2  -9   4  116.77   17.91
  -2  -9  -4  113.24   15.17
  -2  -9   4  120.06   14.95
   2  -9   4   99.12   15.04
  -2  -9  -4  127.75   17.39
   2  -9  -4  100.93   15.68
  -2  -9   5    9.99    4.53
   2  -9   5    8.20    5.03
  -2  -9   5   16.44    6.98
   2  -9   5   27.66    9.04
  -2  -9  -5    6.92    4.10
  -2  -9  -5   13.03    5.60
  -2   9   5   10.86    4.39
   2  -9  -5   13.03    7.65
   2  -9  -5   10.18    4.91
   2  -9  -6  248.63   24.62
  -2  -9   6  275.08   26.19
   2  -9   6  294.49   26.54
   2  -9  -6  264.55   24.25
  -2  -9  -6  234.35   24.21
   2  -9   6  288.58   25.69
  -2  -9   6  269.26   23.27
  -2   9   6  265.25   24.28
  -2  -9   7 1154.78   54.20
   2  -9   7 1204.54   52.82
  -2  -9  -7 1187.42   55.11
   2  -9  -7 1115.65   51.91
   2  -9  -7 1130.98   50.57
  -2   9   7 1172.44   51.83
  -2  -9   7 1268.68   50.10
   2  -9   7 1201.12   53.90
  -2  -9   8  520.62   36.46
   2  -9  -8  513.06   34.11
   2  -9   8  555.70   36.10
   2   9   8  467.77   32.53
  -2  -9  -8  457.03   34.38
   2  -9  -8  514.18   36.04
   2  -9   8  484.34   34.73
  -2   9   8  492.49   34.18
  -2  -9   8  473.00   30.35
  -2  -9   9   41.62   11.34
   2  -9   9   15.88    4.50
   2  -9   9   45.42    9.78
   2  -9  -9   14.08    2.12
  -2  -9  -9   42.63   11.67
  -2  -9   9   24.19    7.70
  -2   9   9   21.58    7.60
   2   9   9   34.51    8.13
  -2   9  10  430.49   32.93
  -2  -9 -10  362.31   31.09
   2   9  10  403.47   30.56
   2  -9 -10  402.86   32.09
  -2  -9  10  332.93   26.57
  -2  -9  10  428.24   33.87
   2  -9  10  382.78   31.06
   2  -9  10  402.82   30.55
   2  -9  11   74.89   13.54
  -2  -9 -11   99.17   16.19
   2  -9 -11   99.79   15.91
   2  -9  11   58.07   12.09
   2   9  11   70.38   12.82
  -2  -9  11   75.46   13.28
  -2   9  11   75.20   13.31
  -2  -9  11   44.96   11.77
  -2  -9  12    1.90    3.22
   2  -9  12    6.18    8.02
   2  -9  12   -1.05    1.54
  -2   9  12   -3.07    2.94
  -2  -9 -12    9.29    6.16
  -2  -9  12    9.94    5.97
   2  -9 -12    2.07    4.92
   2   9  12   -1.39    3.17
  -2  -9  12   18.24    9.18
  -2  -9  13  168.78   21.78
   2  -9  13  189.12   22.51
   2   9  13  148.55   19.67
   2  -9  13  186.57   21.78
  -2   9  13  156.22   20.25
  -2  -9 -13  162.38   21.10
   2  -9 -13  160.51   21.75
  -2   9  13  213.37   23.24
  -2  -9  13  161.36   19.73
  -2  -9  13  194.50   21.48
  -2  -9  14   31.02    9.06
  -2  -9  14   44.78   13.09
   2  -9 -14   40.83   10.55
   2  -9  14   27.32    8.35
  -2  -9  14   24.72    9.15
  -2  -9 -14   20.11    6.47
  -2   9  14   20.34    5.76
   2  -9  14   16.48    7.78
  -2   9  14   28.36    9.87
   2   9  14   32.24    8.73
   2  -9  15  133.01   19.60
  -2  -9  15  143.66   21.58
  -2  -9  15  121.61   17.77
  -2  -9 -15  109.03   18.33
   2  -9 -15  124.99   19.26
  -2   9  15  144.77   19.88
   2  -9  15  138.07   18.80
   2   9  15  119.15   19.88
  -2   9  15  117.89   18.48
  -2  -9  15  143.86   19.73
   2  -9 -16   44.82   12.35
   2  -9  16   59.26   13.04
  -2   9  16   66.09   12.69
  -2  -9  16   38.05    9.98
  -2  -9  16   74.73   13.85
  -2  -9 -16   67.95   13.76
   2  -9  16   67.78   14.06
   2   9  16   77.03   15.52
  -2   9  16   39.26   11.00
  -2  -9  16   56.30   12.24
   2  -9  17  297.32   28.47
   2   9  17  257.84   26.97
  -2  -9 -17  249.16   27.57
   2  -9  17  241.01   26.52
  -2  -9  17  302.76   29.83
   2  -9 -17  259.16   27.52
  -2  -9  17  281.63   28.46
  -2   9  17  237.51   27.03
  -2  -9  17  322.31   30.16
  -2   9  17  243.56   26.28
   2  -9  17  230.50   26.04
   2  -9  18    7.93    5.27
  -2  -9 -18   15.62    8.30
   2  -9  18   22.59    9.11
  -2  -9  18   12.53    7.57
   2  -9 -18   14.48    6.82
  -2   9  18   12.35    6.39
  -2  -9  18   -1.22    3.70
  -2  -9  18    1.16    2.43
   2   9  18   12.43    8.08
  -2   9  18    7.69    6.71
   2  -9  18   10.21    2.91
   2  -9  19   32.45   10.62
   2  -9  19   19.26    7.55
   2   9  19   13.06    5.95
  -2   9  19    6.95    5.90
  -2  -9  19   32.74   11.74
  -2  -9 -19   36.95   11.43
   2  -9 -19   26.07    8.47
  -2  -9  19   39.80   10.08
  -2   9  19   20.45    9.12
   2  -9  19   29.44    9.30
  -2  -9  19   37.52   10.36
  -2  -9  20    3.93    5.58
   2   9  20   -3.71    3.70
  -2  -9 -20   11.69    6.81
  -2   9  20  -10.21    7.15
  -2   9  20    1.52    5.02
   2  -9  20    7.22    8.17
  -2  -9  20    8.21    7.24
   2  -9  20    2.98    1.79
  -2  -9  20    3.48    5.46
   2  -9 -20   -2.71    3.45
   2  -9  20   -6.10    7.20
  -2  -9  21   24.51    8.02
  -2  -9 -21   44.38   13.15
  -2   9  21   41.92   12.12
   2  -9 -21   42.67   10.22
  -2  -9  21   47.74   13.90
   2   9  21   68.19   15.30
  -2  -9  21   38.32   12.24
  -2   9  21   43.97   12.81
   2  -9  21   37.74   11.51
   2  -9  21   36.77   10.78
   2  -9  21   64.28   15.23
  -2   9  22   65.43   14.11
   2   9  22   68.73   15.29
   2  -9  22   86.09   16.81
   2  -9  22   55.65   14.36
  -2  -9 -22   40.01   10.21
   2  -9 -22   36.97   12.31
  -2  -9  22   59.62   13.09
  -2  -9  22   39.27   12.60
  -2   9  22   60.69   13.24
  -2  -9 -23    7.90    5.25
  -2   9  23   33.23   11.81
   2  -9 -23   26.44   10.28
  -2  -9  23    7.81    6.74
   2  -9  23   24.74   10.39
  -2   9  23   16.00    7.00
   2  -9  23    8.73    4.70
   2   9  23   22.54    9.24
  -2  -9 -24    1.51    5.05
   2  -9 -24    8.50    5.21
  -2   9  24    1.45    3.33
   2  -9  24   -4.29    6.16
  -2  -9  24    1.24    2.45
  -2   9  24    4.45    3.18
   2  -9  24    0.79    2.76
   2   9  24    3.72    2.66
  -2   9  25    6.35    5.34
   2  -9 -25   37.52   12.45
   2  -9  25   24.71   11.04
  -2  -9 -25   17.42    6.77
  -2  -9  25    0.42    6.19
  -2   9  25   22.88   11.19
   2  -9  25    8.73    2.18
   2   9  25   24.02    9.01
   2  -9  26    7.31    8.39
   2   9  26    3.23    3.69
  -2   9  26    9.91    6.87
  -2  -9 -26    1.17    4.96
   2  -9 -26   -1.32    3.72
   2  -9  26    0.25    6.16
  -2  -9  26   -8.37    9.31
  -2   9  26   -3.24    5.03
  -2 -10   0   75.62   14.30
   2 -10   0   67.39   13.53
  -2 -10   0   85.37   14.06
   2 -10   0   62.96   12.31
  -2 -10   1    9.96    4.59
   2 -10   1   12.91    7.82
  -2 -10  -1   13.80    7.01
   2 -10  -1   14.19    6.07
  -2 -10  -1   13.45    5.24
   2 -10  -1   15.57    7.56
   2 -10   1   10.78    6.74
  -2 -10   1    1.91    1.82
  -2 -10  -2    3.41    5.34
  -2 -10   2    1.45    3.56
  -2 -10   2    8.51    5.97
   2 -10   2   -1.17    3.61
   2 -10  -2    1.91    5.35
  -2 -10  -2   -1.03    2.21
   2 -10  -2   -0.93    2.11
   2 -10   2   -0.14    2.88
  -2 -10   3    5.19    3.71
   2 -10   3   -1.44    4.58
  -2 -10  -3    7.06    2.96
   2 -10  -3    6.28    4.74
  -2 -10   3    7.18    4.67
   2 -10  -3    9.62    6.69
   2 -10   3    5.38    3.68
  -2 -10  -3    6.49    5.02
  -2 -10   4   94.94   15.39
  -2 -10  -4   62.67   11.61
   2 -10   4   67.05   13.50
   2 -10   4   62.24   12.06
   2 -10  -4   78.72   13.92
  -2 -10  -4   70.74   14.72
   2 -10  -4   76.61   14.72
  -2 -10   4   67.78   12.70
  -2 -10   5   20.95    6.41
  -2 -10  -5   17.05    6.60
   2 -10  -5   18.74    7.51
  -2 -10   5   23.49    8.71
   2 -10   5   12.37    5.75
   2 -10   5   32.59   10.48
  -2 -10  -5   15.89    5.16
  -2  10   5   19.97    6.61
   2 -10  -5   31.64    9.72
   2 -10   6  161.57   20.21
   2 -10  -6   97.54   15.34
  -2 -10   6  113.68   16.12
  -2 -10  -6  126.15   18.86
   2 -10  -6  119.53   17.60
   2 -10   6  157.10   19.40
  -2  10   6   96.47   14.75
  -2 -10  -6   94.80   13.95
  -2 -10   6  131.99   18.22
  -2 -10   7    5.51    6.24
  -2 -10  -7   -3.09    4.26
   2 -10  -7    0.23    2.21
  -2  10   7   -0.71    4.15
  -2 -10   7   -1.18    3.03
   2 -10   7    3.96    6.20
   2 -10  -7   -0.46    4.24
   2 -10   7   -0.49    4.71
   2 -10  -8   10.72    7.07
  -2 -10   8   26.91    9.70
   2 -10   8   13.72    4.44
   2 -10  -8    8.67    6.80
  -2 -10  -8   18.60    8.06
  -2  10   8    9.05    6.12
  -2 -10   8   11.50    7.15
   2 -10   8    9.82    6.42
   2 -10  -9    5.76    1.35
  -2 -10   9    1.93    3.78
   2 -10   9   -1.30    5.31
   2 -10   9    1.20    5.12
  -2 -10  -9   -2.39    6.09
  -2 -10   9    0.66    1.92
  -2  10   9   -3.52    3.27
   2 -10  -9    2.36    3.26
   2 -10  10    5.29    5.08
  -2  10  10    4.52    6.76
   2 -10 -10    1.21    4.70
  -2 -10  10    2.92    2.60
   2 -10 -10   -2.42    5.12
  -2 -10  10   -4.75    6.51
  -2 -10 -10    9.27    6.58
   2 -10  10    1.79    2.16
   2  10  10    6.02    4.26
  -2 -10  11  120.22   18.69
  -2 -10 -11   95.78   16.03
   2 -10 -11   89.30   15.33
   2  10  11  130.65   18.47
  -2 -10  11  130.29   17.56
  -2  10  11   80.69   16.22
   2 -10  11  105.40   16.97
   2 -10  11   94.16   15.47
   2 -10 -12   63.70   14.11
  -2 -10  12   46.21   12.33
   2 -10  12   70.49   13.74
  -2 -10 -12   38.74   11.50
  -2  10  12   62.21   13.66
   2  10  12   64.13   12.63
  -2 -10  12   67.55   13.95
   2 -10  12   82.56   15.65
  -2  10  13    4.12    4.70
  -2 -10  13   -0.40    4.92
   2 -10  13   -0.87    5.26
  -2 -10  13    8.99    7.34
   2 -10  13   16.24    6.81
  -2 -10 -13   16.62    7.58
   2 -10 -13   11.53    7.30
   2  10  13   -0.68    2.59
  -2  10  14   28.63    9.17
  -2 -10 -14   28.98   10.05
   2 -10  14   27.61    9.46
  -2 -10  14   17.09    6.80
  -2 -10  14   26.66    8.66
   2 -10 -14   26.60    8.80
   2  10  14   33.07   10.62
   2 -10  14   35.40   11.75
   2 -10  15   50.63   13.12
  -2 -10  15   52.75   12.73
   2 -10  15   59.19   13.19
   2  10  15   46.54   11.56
  -2  10  15   66.40   14.61
   2 -10 -15   40.19   10.94
  -2 -10 -15   45.97   12.83
  -2 -10  15   66.28   14.68
  -2  10  15   56.02   12.03
   2 -10  16   15.50    8.43
  -2 -10  16    8.00    4.19
   2 -10 -16   21.11   10.40
  -2 -10 -16   23.08    8.78
   2  10  16   35.36   11.50
  -2 -10  16   13.93    7.30
  -2  10  16   32.53    9.18
   2 -10  16   14.50    5.79
  -2  10  16   16.34    5.25
   2 -10  17    3.39    5.64
  -2 -10  17    1.20    3.79
  -2  10  17    3.61    5.95
  -2 -10 -17    2.90    3.27
   2 -10 -17   -3.66    4.06
  -2  10  17    9.30    8.33
   2  10  17    2.55    4.94
   2 -10  17   -5.09    5.18
   2 -10  17    8.50    7.23
  -2 -10  17   -2.35    2.46
  -2 -10  18   31.75   11.16
   2 -10 -18   19.82    8.06
   2 -10  18   41.40   10.85
  -2  10  18   39.09   10.87
  -2 -10 -18   36.64   10.87
   2 -10  18   33.80    9.71
  -2  10  18   40.76   11.90
   2  10  18   39.98   10.07
  -2 -10  18   47.01   13.03
   2 -10  18   50.11   12.90
   2 -10  19   51.55   13.79
   2 -10  19   46.57   12.72
  -2 -10 -19   30.16    8.60
  -2  10  19   45.87   11.65
  -2  10  19   57.74   13.59
   2 -10 -19   30.86   10.39
  -2 -10  19   39.25   12.92
   2  10  19   40.10   12.26
   2 -10  19   41.57   12.20
   2 -10  20    1.64    6.07
  -2 -10  20    9.63    7.15
   2 -10  20    9.73    4.44
  -2 -10 -20   11.75    9.22
   2 -10 -20    7.40    4.63
   2 -10  20    8.62    8.20
  -2  10  20   -7.96    3.10
  -2  10  20   11.51    6.41
   2  10  20   -4.05    5.19
   2 -10  21   29.69    9.14
   2  10  21   17.32    7.64
  -2 -10  21   16.27    6.33
  -2 -10 -21   19.74    8.48
   2 -10 -21   18.39    5.91
  -2  10  21   12.37    6.41
  -2  10  21   10.80    4.73
   2 -10  21    6.97    5.93
   2 -10  21   26.35    9.59
  -2 -10  22   80.50   16.80
   2 -10  22   77.03   17.06
  -2 -10 -22  106.45   17.99
   2 -10 -22   87.56   17.13
  -2  10  22  102.83   20.36
   2 -10  22   94.21   18.81
  -2  10  22  120.12   19.88
   2 -10  22   86.42   18.00
   2  10  22   93.65   16.59
   2 -10 -23   17.96    4.31
  -2  10  23   23.49    9.67
  -2 -10 -23    9.50    4.45
  -2  10  23   14.70   10.84
   2 -10  23   10.83    7.52
   2  10  23   18.58    8.88
   2 -10  23   21.01    8.95
  -2 -10  23   18.69    8.87
  -2 -10 -24   17.31    8.14
   2 -10 -24   17.40    6.76
  -2  10  24   20.75    7.12
  -2  10  24   14.80    5.57
   2 -10  24   15.19    8.12
   2  10  24   11.46    7.06
   2 -10  24   23.53   11.51
  -2 -10 -25    4.98    3.08
   2 -10 -25    3.07    6.29
   2 -10  25    2.07    1.98
  -2  10  25   -4.87    5.84
   2  10  25   -5.35    8.81
   2 -10  25   -8.68    5.05
  -2 -11   0  260.29   26.89
   2 -11   0  271.56   28.34
   2 -11   0  284.07   27.16
  -2 -11   0  300.92   28.16
   2 -11  -1   16.16    6.88
  -2 -11  -1    7.63    2.94
  -2 -11   1   22.58    8.32
  -2 -11  -1   22.81    7.65
   2 -11  -1   42.42   10.56
   2 -11   1   27.76    9.94
   2 -11   1   24.54    8.44
  -2 -11   1   30.76    8.70
   2 -11  -2    0.86    2.72
  -2 -11   2    3.17    4.25
   2 -11   2    9.94    6.49
  -2 -11   2    1.89    3.21
  -2 -11  -2    0.54    3.98
   2 -11  -2    6.16    3.05
  -2 -11  -2    0.88    2.81
   2 -11   2   -0.67    4.16
  -2 -11  -3   13.76    6.45
  -2 -11   3   12.69    6.86
   2 -11   3    0.74    7.01
  -2 -11  -3    6.83    5.53
  -2 -11   3    3.94    2.72
   2 -11  -3   13.91    8.47
   2 -11  -3   10.04    6.21
   2 -11   3    5.06    5.92
  -2 -11  -4  632.47   39.44
  -2 -11   4  647.06   42.83
   2 -11  -4  652.80   42.28
   2 -11   4  677.45   43.41
  -2 -11  -4  597.43   42.06
   2 -11  -4  598.72   41.61
  -2 -11   4  639.57   39.51
   2 -11   4  595.01   39.82
  -2 -11   5   21.26    8.00
  -2 -11   5   13.22    5.79
   2 -11   5   26.66    8.50
   2 -11   5   17.70    4.76
  -2 -11  -5   18.04    5.82
  -2 -11  -5   39.44   10.11
   2 -11  -5   22.16    7.15
   2 -11  -5   25.77   10.14
   2 -11   6  105.22   17.45
  -2 -11   6  101.64   15.79
  -2 -11  -6  123.79   19.13
  -2 -11  -6  132.14   18.11
   2 -11  -6  105.10   17.55
   2 -11   6  110.63   17.28
   2 -11  -6  124.34   18.69
  -2  11   6  115.46   17.00
  -2 -11   6  116.67   19.94
  -2 -11   7  203.48   25.50
  -2 -11   7  199.68   22.09
   2 -11  -7  243.06   25.45
   2 -11   7  235.89   25.30
  -2 -11  -7  178.74   23.07
   2 -11  -7  211.64   25.66
  -2 -11  -7  166.72   19.92
  -2  11   7  179.21   21.62
   2 -11   7  174.48   22.56
  -2 -11   8   21.41    9.44
   2 -11   8   19.16    6.10
  -2 -11  -8   21.02    7.61
   2 -11  -8   15.39    6.51
  -2 -11  -8    8.49    6.62
  -2  11   8   11.91    6.94
   2 -11  -8    5.59    5.43
  -2 -11   8   21.37    8.16
   2 -11   8    9.63    6.33
  -2 -11   9   36.75    8.80
   2 -11  -9   43.77   10.26
  -2 -11   9   38.40   10.91
   2 -11   9   32.47    9.92
   2 -11   9   46.38   10.79
   2 -11  -9   32.57    9.59
  -2  11   9   35.89    9.45
   2 -11  10  249.58   26.35
  -2 -11  10  296.57   30.06
  -2 -11 -10  219.35   26.29
   2 -11 -10  236.12   26.78
   2 -11 -10  186.04   22.46
  -2  11  10  266.50   28.47
   2 -11  10  272.37   27.99
  -2 -11  10  220.58   23.90
  -2 -11  11    7.64    5.72
   2 -11  11    5.62    5.87
  -2 -11 -11   -0.44    5.05
   2 -11 -11   -1.62    2.42
  -2 -11  11    2.37    1.88
   2 -11 -11    9.89    6.24
   2 -11  11    2.48    2.71
  -2  11  11   -1.58    6.52
  -2 -11  12   91.72   17.69
   2 -11 -12   82.02   15.35
   2 -11  12   42.73   11.57
  -2 -11  12   53.01   10.02
   2 -11  12   63.40   13.16
  -2 -11 -12   63.28   14.44
   2 -11 -12   35.49   11.61
  -2  11  12   49.52   13.48
  -2 -11 -13   34.49   12.00
  -2 -11  13   51.23   12.11
   2  11  13   11.30    5.43
   2 -11  13   40.36   11.74
   2 -11  13   34.30    9.58
   2 -11 -13   35.49   11.73
  -2 -11  13   31.52    8.39
  -2  11  13   33.09   10.60
  -2 -11  14   99.89   17.91
   2 -11  14  105.61   17.36
  -2 -11 -14  109.83   18.02
  -2 -11  14  127.62   20.18
  -2  11  14  108.73   19.58
   2 -11  14   96.29   15.90
   2 -11 -14   87.27   16.03
   2  11  14   66.17   14.04
  -2 -11  15    8.03    5.88
   2 -11  15    6.88    4.15
   2 -11  15   19.92    7.79
  -2  11  15    4.44    5.76
   2 -11 -15   32.53   10.94
  -2 -11 -15    8.96    5.56
   2  11  15   23.91   10.51
  -2 -11  16   30.94    9.75
   2 -11  16   44.60   11.18
  -2  11  16   26.33    7.36
  -2 -11 -16   38.48   11.59
   2 -11 -16   44.86   11.35
   2 -11  16   40.21   11.65
   2  11  16   43.18   12.22
   2 -11  17    5.02    5.76
  -2 -11  17   -6.91    3.94
   2  11  17   17.16    6.47
   2 -11  17    3.14    4.79
   2 -11 -17    8.87    7.97
  -2 -11 -17    3.30    4.18
   2 -11  17    2.47    3.40
  -2 -11  18   44.27   13.39
   2 -11  18   36.79   11.63
  -2 -11 -18   48.72   13.12
   2 -11  18   36.75   11.71
  -2  11  18   43.36   10.77
   2 -11 -18   23.91   11.33
   2 -11  18   23.10    9.51
   2  11  18   42.62   11.14
  -2 -11  19    2.72    5.44
   2 -11  19    1.14    5.16
   2 -11  19    4.97    4.72
   2 -11 -19   11.52    7.99
  -2 -11 -19   11.23    8.99
  -2  11  19    3.70    4.97
   2 -11  19    7.61    7.20
   2  11  19    7.68    2.87
   2 -11  20    9.93    4.03
   2 -11  20    9.46    6.68
  -2 -11  20    1.87    7.56
  -2 -11 -20   23.40    7.95
   2 -11 -20   18.37    9.08
   2  11  20    9.25    5.47
  -2  11  20   -4.89    4.73
   2 -11  20   11.42    7.32
   2 -11  21    7.12    4.41
   2 -11  21    5.95    6.49
  -2 -11  21    9.90    9.96
   2 -11 -21   12.38    6.98
   2  11  21    7.56    3.67
  -2 -11 -21    2.51    2.29
  -2  11  21    4.39    2.13
   2 -11  21   -8.71    8.00
  -2 -11  22   -1.34    3.55
   2  11  22    4.70    2.48
  -2 -11 -22    8.71    3.22
   2 -11  22   11.38   10.02
   2 -11 -22    1.19    2.98
   2 -11  22   -0.24    5.36
  -2  11  22    7.44    5.58
   2 -11  22    5.41    5.08
  -2 -11 -23   14.16    8.05
   2 -11  23    2.59    4.22
  -2 -11  23    3.06    6.06
  -2  11  23    4.97    4.11
   2  11  23   14.80    6.37
   2 -11  23   11.77    7.18
  -2 -12   0   73.42   15.69
   2 -12   0   72.76   15.16
  -2 -12   0   45.85   11.56
   2 -12   0   59.50   13.59
  -2 -12   1   30.52    8.79
  -2 -12   1   19.70    7.60
   2 -12   1   12.40    7.35
  -2 -12  -1   21.47    9.31
   2 -12  -1   21.83    9.07
   2 -12   1   22.29    8.23
   2 -12  -1   21.16    7.06
  -2 -12  -1   34.22   11.03
   2 -12  -2    9.11    4.98
  -2 -12  -2   16.97    6.44
  -2 -12   2   30.38    9.67
   2 -12   2   25.73    9.44
  -2 -12  -2   14.59    6.14
   2 -12  -2   20.56    8.58
  -2 -12   2   12.49    4.04
   2 -12   2   13.88    7.03
   2 -12  -3   25.04    8.84
  -2 -12   3   17.83    6.97
   2 -12   3   19.91    6.45
  -2 -12   3   21.98    7.72
  -2 -12  -3   29.82   11.01
   2 -12  -3   28.46    9.79
   2 -12   3    7.99    5.26
  -2 -12  -3   17.43    8.81
  -2 -12  -4    7.20    3.60
  -2 -12   4   11.57    5.32
  -2 -12   4   16.77    8.49
   2 -12   4   15.54    6.40
   2 -12   4   10.02    7.02
  -2 -12  -4   16.33    7.62
   2 -12  -4    5.34    4.77
   2 -12  -4   15.14    6.64
   2 -12   5    9.90    6.66
  -2 -12   5   14.88    7.26
   2 -12   5   12.65    5.44
  -2 -12  -5    3.05    3.44
   2 -12  -5   14.16    7.51
   2 -12  -5    3.79    1.70
  -2 -12   5   13.11    6.53
  -2 -12  -5    9.16    3.87
   2 -12   6    6.33    6.16
   2 -12  -6    2.05    7.35
  -2 -12  -6    3.55    4.65
  -2 -12   6    4.85    5.97
  -2 -12  -6   -1.87    2.44
   2 -12  -6   -0.87    4.29
   2 -12   6    1.91    2.93
  -2 -12   6    2.48    1.75
  -2 -12   7    2.63    4.85
   2 -12   7   -1.45    4.55
   2 -12  -7   11.63    5.01
   2 -12  -7   10.83    6.21
  -2 -12  -7   -1.51    3.46
   2 -12   7    5.00    2.85
  -2 -12   7    7.69    5.00
  -2 -12  -7    2.15    5.86
  -2 -12  -8   16.16    8.18
  -2 -12   8   18.95    7.27
   2 -12   8    7.10    2.23
   2 -12  -8    9.97    6.85
  -2 -12  -8   10.67    7.36
   2 -12  -8   14.97    8.26
   2 -12   8   10.20    5.60
  -2 -12   8   10.75    3.68
  -2 -12   9   34.45   11.84
   2 -12   9   12.72    6.66
   2 -12   9   22.34    7.54
  -2 -12   9   18.13    6.62
  -2 -12  -9   10.27    2.27
   2 -12  -9   43.30   11.38
   2 -12  -9   17.19    7.27
  -2 -12  -9   24.54    9.56
  -2 -12  10   -5.48    5.52
   2 -12  10   -0.07    4.46
   2 -12  10   -0.41    2.09
  -2 -12 -10    2.78    5.44
   2 -12 -10   -9.05    8.13
  -2 -12 -10   -3.82    3.36
   2 -12 -10    3.08    4.62
   2 -12  11   12.25    5.11
   2 -12 -11   21.12    7.32
  -2 -12 -11   19.79    6.68
   2 -12  11   27.12   10.17
  -2 -12  11   38.32   12.56
   2 -12 -11   23.56   10.24
  -2 -12  12    5.68    3.86
   2 -12  12    8.53    6.27
   2 -12 -12   13.92    6.45
   2 -12  12   13.87    7.25
  -2 -12 -12    6.98    8.35
   2 -12 -12    5.92    7.15
   2 -12  13   -0.34    5.24
  -2 -12  13    0.73    3.14
   2 -12 -13    1.98    1.78
   2 -12  13   11.40    6.49
  -2 -12 -13   -4.51    3.65
   2 -12 -13    7.59    4.66
   2 -12  14    2.95    2.61
   2 -12 -14    3.58    4.00
  -2 -12  14   11.82    5.55
   2 -12 -14   20.20    7.32
  -2 -12 -14   -3.52    6.98
   2 -12  14   13.37    7.27
  -2 -12  15   24.66    8.19
   2 -12  15   14.41    7.31
   2 -12  15    8.72    6.01
   2 -12 -15   19.01   10.35
   2 -12 -15   12.92    5.91
  -2 -12 -15    0.84    4.82
   2 -12  16   11.51    9.42
  -2 -12  16    7.61    9.29
   2 -12  16    1.32    4.00
  -2 -12 -16    3.19    3.65
   2  12  16    0.93    6.14
   2 -12  16   -6.52    6.00
   2 -12 -16    7.37    6.58
   2 -12  17    7.99    8.94
  -2 -12  17   -0.22    1.99
   2 -12  17    0.72    2.88
  -2 -12 -17    3.79    4.95
   2 -12 -17    4.53    5.73
   2  12  17   -3.80    3.71
   2 -12  17   -4.72    6.20
   2 -12  18   15.62    6.34
   2 -12  18    1.93    4.34
  -2 -12  18    8.04    5.97
   2 -12 -18   11.68    6.93
  -2 -12 -18    9.33    7.20
   2 -12  18   16.16    6.84
   2  12  18    4.27    6.39
  -2 -12  19    3.66    3.47
   2 -12  19   15.36    8.00
   2  12  19    7.45    3.33
   2 -12  19   29.78   10.27
   2 -12 -19   13.55    7.70
   2 -12  19   15.11    9.13
  -2 -12 -19    8.50    6.43
   2 -12  20   11.17    6.84
   2 -12  20    1.30    7.88
  -2 -12  20    5.55    9.36
   2 -12  20   -2.00    2.42
   2 -12 -20    2.60    3.65
  -2 -12 -20    1.07    2.29
   2  12  20   10.75    6.14
   2 -12  21    4.72    4.83
   2 -12  21    3.32    5.29
  -2 -12  21    3.87    4.43
   2  12  21    4.14    7.14
   2 -12 -21    2.73    2.78
  -2 -12 -21   -0.94    3.38
   2 -12  21    1.02    4.78
   2 -12  22    3.38    3.28
  -2 -12  22    7.55    3.59
   2 -12  22   -9.32    8.78
  -2 -12 -22    0.06    5.31
   2 -12 -22  -11.90    7.82
   2  12  22   -4.53    4.80
   2 -12  22   -7.13    5.19
   2 -13   0  242.27   26.69
   2 -13   0  185.68   24.78
  -2 -13   0  239.83   27.53
  -2 -13   0  187.27   23.98
   2 -13   1   77.15   17.52
  -2 -13   1   47.52   11.22
   2 -13  -1   53.58   12.44
  -2 -13  -1   48.25   12.89
   2 -13   1   49.00   12.84
  -2 -13   1   43.43   12.17
  -2 -13  -1   38.15   10.11
   2 -13  -1   58.79   13.70
  -2 -13   2    0.20    4.63
   2 -13   2    7.00    5.13
  -2 -13   2    9.00    3.36
   2 -13   2   12.36    7.26
  -2 -13  -2   14.23    6.89
   2 -13  -2    6.05    6.61
   2 -13  -2    5.76    6.99
  -2 -13  -2   11.16    7.37
   2 -13  -3   15.45    7.16
  -2 -13  -3    4.75    3.21
  -2 -13   3   20.31    8.26
  -2 -13   3   -0.66    3.71
   2 -13   3    8.47    8.00
   2 -13   3    4.34    5.81
  -2 -13  -3   17.08    5.00
   2 -13  -3   -1.07    3.82
   2 -13  -4   40.78   12.64
   2 -13   4   28.69    8.92
   2 -13   4   35.93   11.96
  -2 -13  -4   32.88   13.07
  -2 -13  -4   46.45   12.21
   2 -13  -4   38.72   13.07
  -2 -13   4   15.59    6.89
  -2 -13   4   37.95   11.14
   2 -13   5    6.81    5.05
  -2 -13   5    1.85    2.27
   2 -13   5   -0.51    3.62
   2 -13  -5    7.85    5.53
  -2 -13  -5    6.56    5.02
   2 -13  -5    8.68    8.01
  -2 -13   5   13.50    8.57
  -2 -13  -5   -2.17    2.86
   2 -13   6    9.80    6.49
   2 -13  -6   27.86   10.60
  -2 -13   6   32.05    9.82
   2 -13   6   20.34    9.00
  -2 -13  -6   26.02    7.38
   2 -13  -6   11.18    8.17
  -2 -13  -6   36.29   10.61
  -2 -13   6   -9.26    5.22
  -2 -13  -7  159.28   21.38
   2 -13   7  108.45   19.39
  -2 -13  -7  118.09   19.78
  -2 -13   7  117.41   19.73
   2 -13  -7  131.80   20.30
   2 -13  -7  136.22   21.94
   2 -13   7  118.09   18.90
  -2 -13   8    2.71    5.26
   2 -13   8    7.53    6.89
  -2 -13  -8   -4.97    4.83
  -2 -13  -8   18.33    8.63
   2 -13  -8    3.03    4.51
   2 -13   8   11.12    5.28
   2 -13  -8    1.93    2.67
   2 -13   9   49.17   12.92
   2 -13  -9   43.84   12.29
  -2 -13  -9   57.46   13.08
   2 -13  -9   42.46   12.94
  -2 -13   9   25.87    9.87
  -2 -13  -9   44.46   11.09
   2 -13   9   41.00   11.13
  -2 -13 -10   26.24    8.29
  -2 -13  10   31.61    8.44
   2 -13  10    0.26    5.44
   2 -13 -10   17.74    6.79
  -2 -13 -10    3.59    4.04
   2 -13 -10   30.84   10.08
   2 -13  10   32.73   10.13
  -2 -13  11   71.26   15.27
   2 -13  11   35.70   11.53
  -2 -13 -11   47.78   12.18
   2 -13 -11   41.51   10.14
   2 -13 -11   67.81   14.63
  -2 -13 -11   39.98   10.71
   2 -13  11   61.70   14.03
  -2 -13  12   18.54    7.82
   2 -13  12    9.42    3.38
   2 -13 -12   20.47    9.13
  -2 -13 -12   16.63    7.09
   2 -13  12   27.72   10.23
   2 -13 -12   20.01    6.78
  -2 -13 -12   15.40    7.25
   2 -13 -13    4.02    6.71
  -2 -13  13   -9.57    9.74
   2 -13 -13    1.74    5.08
   2 -13  13    5.29    5.87
  -2 -13 -13    2.57    2.77
  -2 -13 -13    1.43    3.93
   2 -13  13    7.63    7.23
  -2 -13  14    1.34    4.89
   2 -13  14   14.36    9.62
   2 -13  14   -2.50    4.11
   2 -13 -14    4.23    4.82
  -2 -13 -14    0.11    4.47
   2 -13 -14    2.52    7.14
   2 -13 -15   32.83   12.49
  -2 -13  15    7.71    3.99
   2 -13  15   31.62   11.21
   2 -13  15   16.69    7.65
  -2 -13 -15   28.82    9.73
   2 -13 -15   24.00   10.32
   2 -13  16   11.81    8.45
  -2 -13  16   -3.51    5.00
   2 -13 -16   -4.69    6.48
   2 -13  16    3.81    3.51
   2 -13 -16    0.41    5.58
  -2 -13 -16    5.70    6.65
   2 -13  17   22.09    9.91
   2 -13 -17   21.39    8.44
   2 -13  17   13.60    5.88
  -2 -13  17    6.88    2.07
  -2 -13 -17   37.74   11.66
   2 -13 -17   24.99    9.83
   2 -13  18   21.19    7.16
  -2 -13  18    5.26    4.76
   2 -13  18   13.77    8.82
   2 -13 -18    3.82    7.18
   2 -13 -18    9.17    6.49
  -2 -13 -18    5.41    5.10
   2 -13  19   14.97   10.29
  -2 -13  19   13.97    9.65
  -2 -13 -19   -5.82    4.21
   2 -13  19   -1.79    1.87
   2 -13 -19   -7.00    8.24
   2 -14   0   45.34   14.09
  -2 -14   0   44.04   11.62
   2 -14   0   59.04   14.98
  -2 -14   0   69.44   16.83
  -2 -14  -1    7.77    8.08
  -2 -14   1    5.73    4.22
   2 -14   1    2.06    2.30
  -2 -14   1   -4.60    4.69
   2 -14   1   -2.14    4.95
   2 -14  -1    1.01    2.05
  -2 -14  -1    8.24    6.29
   2 -14  -1   -0.72    3.21
  -2 -14   2    3.92    5.95
   2 -14   2    0.32    4.32
  -2 -14  -2   -3.89    7.70
   2 -14  -2    3.20    4.31
   2 -14   2    1.17    1.80
   2 -14  -2   -0.58    4.31
  -2 -14  -2    1.01    5.19
   2 -14   3   37.22   12.39
  -2 -14   3   32.32   10.01
   2 -14   3   58.54   14.97
  -2 -14  -3   47.65   14.26
   2 -14  -3   26.48   10.43
   2 -14  -3   35.10    9.83
  -2 -14  -3   28.07   12.35
   2 -14  -4   20.04    9.85
   2 -14   4   11.48    5.98
  -2 -14   4   17.12    8.06
   2 -14   4   21.66    8.53
  -2 -14  -4   10.22    5.79
   2 -14  -4   26.63    8.70
  -2 -14  -4   29.64   10.99
   2 -14   5    7.32    7.38
   2 -14  -5   -4.03    4.72
  -2 -14   5   12.40    9.50
   2 -14   5   -4.66    6.10
  -2 -14  -5   -2.11    2.51
  -2 -14  -5    1.04    3.69
   2 -14  -5    4.00    6.37
  -2 -14   6   -1.19    2.63
   2 -14   6    6.06    3.88
   2 -14  -6    6.26    6.19
  -2 -14  -6    6.24    6.17
   2 -14  -6    2.47    3.61
  -2 -14  -6   -1.91    5.56
   2 -14   6    2.44    5.25
   2 -14   7   11.64    5.52
  -2 -14   7   25.29   11.43
   2 -14   7   47.47   14.04
  -2 -14  -7   42.70   11.82
   2 -14  -7   15.91    8.41
   2 -14  -7   25.90   10.76
  -2 -14  -7   31.07    9.58
  -2 -14   8   27.38    8.64
   2 -14   8    9.67    5.08
  -2 -14  -8    7.76    6.51
   2 -14  -8   13.75    9.19
   2 -14  -8   16.53    6.73
   2 -14   8   15.68    7.70
  -2 -14  -8   15.08    6.54
  -2 -14  -9    7.00    6.98
  -2 -14   9    8.30    5.05
   2 -14   9    8.15    4.64
  -2 -14  -9   14.17    7.98
   2 -14  -9   -2.89    3.60
   2 -14   9   -2.97    3.02
   2 -14  -9   -1.82    5.38
  -2 -14  10   -1.18    2.30
   2 -14  10    1.09    4.43
  -2 -14 -10   -3.30    5.33
   2 -14  10    0.66    3.67
  -2 -14 -10    3.49    5.52
   2 -14 -10    0.31    4.63
   2 -14 -10   -1.79    4.61
   2 -14 -11   -2.29    3.53
  -2 -14  11    3.71    4.59
   2 -14  11    2.54    6.39
   2 -14  11    3.40    6.39
   2 -14 -11    4.27    2.99
  -2 -14 -11   -0.61    4.27
  -2 -14 -11   -3.50    3.83
  -2 -14  12    6.15    5.22
   2 -14  12    6.77    5.55
   2 -14 -12   -0.24    4.41
  -2 -14 -12    5.34    5.99
   2 -14 -12    8.96    8.88
   2 -14  12   -2.94    5.90
  -2 -14 -12    1.25    5.55
   2 -14 -13    0.32    5.06
  -2 -14  13   25.27   10.12
   2 -14  13   18.87    5.42
  -2 -14 -13   -0.16    3.85
   2 -14  13    9.68    3.76
  -2 -14 -13    8.77    5.34
   2 -14 -13    7.10    5.74
  -2 -14  14    1.08    2.92
   2 -14  14    7.08    4.63
   2 -14  14    7.22    5.77
  -2 -14 -14    1.79    3.11
   2 -14 -14   11.83    5.39
   2 -14 -14    6.84    3.09
  -2 -14 -14    0.97    3.57
  -2 -14  15   -2.98    4.36
   2 -14 -15   14.03   11.79
   2 -14  15    5.71    6.25
  -2 -14 -15    9.90    8.10
   2 -14 -15    3.84    4.90
  -2 -14 -15    6.32    5.52
   2 -14  15   -1.41    4.43
   2 -14  16   -0.03    5.28
  -2 -14  16   -3.07    4.69
   2 -14 -16    1.42    4.22
  -2 -14 -16   -4.19    6.01
   2 -14  16   -1.21    4.79
  -2 -14 -16   -3.02    6.04
   2 -14 -16   -7.18    5.78
  -2 -15   0    9.49    5.69
   2 -15   0   21.32    9.25
   2 -15   0   25.74    8.66
  -2 -15   1   -4.51    5.17
  -2 -15  -1   -5.69    6.19
   2 -15   1    0.62    5.96
   2 -15  -1    8.67    7.02
   2 -15   1    9.48    6.34
   2 -15  -1    7.20    3.67
  -2 -15   2    2.85    4.01
   2 -15   2   -5.17    6.73
   2 -15   2    1.54    6.09
  -2 -15  -2   12.50    7.79
   2 -15  -2    1.82    3.46
   2 -15  -2   16.11    8.34
   2 -15   3   24.19    8.38
  -2 -15   3   22.43   12.18
   2 -15   3   32.32    8.87
  -2 -15  -3   42.11   14.51
   2 -15  -3   21.64    9.26
   2 -15  -3   36.46   11.92
   2 -15   4   54.76   13.99
  -2 -15   4   54.37   13.86
   2 -15   4   59.14   13.81
  -2 -15  -4   64.54   16.15
   2 -15  -4   60.75   14.66
   2 -15  -4   46.72   10.87
   2 -15   5   11.16    7.15
   2 -15  -5    5.08    4.97
  -2 -15   5   -6.43    5.16
   2 -15   5   -3.86    6.72
  -2 -15  -5  -10.86    7.00
  -2 -15  -5    0.66    3.46
   2 -15  -5    2.74    7.10
   2 -15  -6   26.28   10.21
  -2 -15   6   30.70    8.90
   2 -15   6   20.89    9.54
  -2 -15  -6   37.64   14.43
  -2 -15  -6   15.65    6.49
   2 -15  -6   11.07    6.20
   2 -15   6    3.29    5.71
   2 -15   7   29.56   10.06
  -2 -15   7   22.72    7.01
   2 -15   7   56.61   14.98
   2 -15  -7   41.35   12.96
  -2 -15  -7   34.16   11.65
  -2 -15  -7   43.18   14.93
   2 -15  -7   32.74   10.49
  -2 -15   8  131.11   21.83
   2 -15   8  112.68   20.10
   2 -15  -8   85.60   18.00
  -2 -15  -8  101.26   20.36
   2 -15   8   80.11   17.38
   2 -15  -8  102.71   19.25
  -2 -15  -8  100.11   18.48
  -2 -15   9    7.83    4.59
   2 -15   9   10.41    8.11
  -2 -15  -9   -1.85    4.09
   2 -15  -9   11.31    7.51
   2 -15  -9    7.88    4.08
   2 -15   9    3.10    7.29
  -2 -15  -9   -2.15    3.97
  -2 -15 -10   15.21    9.38
   2 -15  10   18.36    8.29
  -2 -15 -10   14.27    7.82
   2 -15 -10   19.05    7.27
   2 -15  10    8.03    2.56
   2 -15 -10   18.79    7.67
  -2 -15  10   10.31    6.69
   2 -15  11    5.07    6.03
  -2 -15  11   -1.28    3.56
   2 -15  11    6.50    5.47
  -2 -15 -11   -0.72    2.47
   2 -15 -11    9.58    7.64
  -2 -15 -11    0.44    5.88
   2 -15 -11   -4.56    3.41
  -2 -15  12   10.63    8.49
   2 -15 -12   24.67    7.99
  -2 -15 -12   21.40   10.96
  -2 -15 -12   11.16    6.23
   2 -15 -12   -4.95    8.51
   2 -15  12   17.53    6.98
   2 -15  12    7.70    6.01
   2 -15 -13    8.34    2.20
  -2 -15  13   -4.32    5.58
   2 -15  13    7.24    9.01
  -2 -15 -13    6.85    5.59
   2 -15  13   -0.97    3.64
   2 -15 -13   -5.47    8.15
  -2 -15 -13   -8.88    7.99
  -2 -16   0   25.21    8.00
   2 -16   0   28.18   10.34
   2 -16   0   14.62    5.84
  -2 -16   1   -2.53    3.89
   2 -16   1   10.39    6.73
  -2 -16  -1   -8.87    7.04
   2 -16  -1   -9.24    8.79
   2 -16   1    0.90    3.51
   2 -16  -1   -0.91    2.84
   2 -16   2    2.93    4.73
  -2 -16   2   14.90   10.04
  -2 -16  -2   -4.36    6.56
   2 -16   2   -9.35    7.64
   2 -16  -2   -0.09    5.51
   2 -16  -2   -2.83    4.80
   2 -16   3   -0.28    3.93
   2 -16  -3    2.86    5.08
  -2 -16   3    3.22    5.83
   2 -16   3   -6.27    6.85
  -2 -16  -3    4.91    6.52
   2 -16  -3    1.94    6.10
   2 -16   4   13.04    8.66
  -2 -16   4    2.19    4.89
   2 -16   4   10.58    7.13
  -2 -16  -4   14.17    6.16
   2 -16  -4   16.10    8.82
   2 -16  -4    7.00    6.77
  -2 -16   5    0.50    3.97
   2 -16   5  -10.00    8.30
  -2 -16  -5   -3.43    7.68
   2 -16  -5    2.10    6.85
   2 -16  -5   11.17    8.78
   2 -16   5   -1.40    3.18
   2 -16   6   14.99    6.94
  -2 -16  -6   12.02    7.12
   2 -16  -6   14.16    8.28
  -2 -16   6   25.49   10.72
   2 -16   6    7.94    3.34
   2 -16  -6    3.77    5.86
   2 -16  -7    7.30    7.20
  -2 -16   7    1.78    4.62
  -2 -16  -7    6.90    5.32
   2 -16  -7   11.01    7.43
   2 -16   7    7.27    3.40
   2 -16   7    3.28    5.76
  -3   0   0    2.86    1.95
   3   0   0   -0.11    0.72
  -3   0  -1    1.05    0.96
   3   0  -1    0.26    0.35
   3   0   1    0.23    1.21
  -3   0   1    0.16    1.02
  -3   0   2  846.45   28.42
   3   0  -2  863.99   19.28
   3   0   3    1.03    1.55
  -3   0   3    0.58    0.95
   3   0   4   39.08    5.83
  -3   0   4   33.81    4.22
  -3   0   4   33.85    6.17
  -3   0   5    0.10    1.67
   3   0   5    1.10    2.11
  -3   0   5    2.06    0.58
  -3   0   6   56.94    8.36
   3   0   6   66.88    8.17
  -3   0   6   40.43    5.37
  -3   0   7    0.68    1.04
  -3   0   7    1.34    1.32
   3   0   7   -1.26    2.62
  -3   0   8    8.21    3.41
  -3   0   8   15.89    4.29
   3   0   8   14.30    4.76
  -3   0   9    0.53    1.43
   3   0   9   -1.46    2.14
  -3   0   9   -0.28    2.10
   3   0  10  127.38   14.05
  -3   0  10  124.88   14.25
  -3   0  10  138.13   12.54
  -3   0  11    5.43    3.26
  -3   0  11    2.39    3.09
   3   0  11   -0.09    1.88
  -3   0  12   14.05    5.00
  -3   0  12    3.83    2.82
   3   0  12   10.33    5.07
  -3   0  13   -0.48    1.98
   3   0  13   -1.78    3.31
  -3   0  13    2.31    1.76
  -3   0  14    3.72    3.57
   3   0  14   -0.18    2.42
  -3   0  14    0.05    2.18
   3   0  14   -0.39    3.17
  -3   0  15   -4.19    4.95
  -3   0  15    2.43    3.98
   3   0  15    3.17    6.06
   3   0  15    0.72    1.52
  -3   0  16    5.92    3.45
   3   0  16    0.97    3.93
  -3   0  16    5.65    5.12
   3   0  16    3.11    2.17
  -3   0  17    1.20    3.58
   3   0  17   -2.03    4.58
  -3   0  17   -0.18    3.32
   3   0  17    0.18    2.11
   3   0  18  623.23   38.62
  -3   0  18  490.92   32.57
  -3   0  18  511.03   35.47
   3   0  18  578.86   37.53
  -3   0  19   -0.87    4.37
   3   0  19   -2.17    3.05
  -3   0  19   -0.32    2.35
   3   0  19    1.58    3.97
   3   0  20    0.59    1.76
  -3   0  20    2.25    2.37
  -3   0  20    2.92    5.27
   3   0  20   -1.99    3.61
  -3   0  21   -1.86    2.00
   3   0  21    0.63    3.36
  -3   0  21    1.85    3.68
   3   0  21    4.93    5.61
  -3   0  22    7.85    5.05
   3   0  22    5.87    2.60
  -3   0  22    8.90    7.48
   3   0  22    2.61    2.16
  -3   0  23   -2.32    4.14
   3   0  23    3.86    5.81
  -3   0  23    0.99    6.34
   3   0  23    5.35    2.00
  -3   0  24    1.34    5.51
   3   0  24   14.59    9.93
   3   0  24    8.42    5.44
  -3   0  24    1.31    5.24
  -3   0  25    6.05    6.45
   3   0  25    8.94    5.80
   3   0  25   -6.58    4.67
  -3   0  25   -3.70    4.62
  -3   0  26   27.18   10.79
   3   0  26   31.37   11.20
   3   0  26   30.83   10.89
  -3   0  26   29.15   12.00
  -3   0  27    3.90    4.57
   3   0  27   -0.67    3.27
  -3   0  27    5.39    4.99
   3   0  27    4.61    5.60
  -3   0  28   -1.27    4.00
   3   0  28   -3.35    4.59
  -3   0  28    7.86    7.07
   3   0  28    0.06    5.38
  -3   0  29   -3.96    6.51
   3   0  29   -4.34    6.10
  -3   0  29    1.05    5.43
   3   0  29    9.67    7.61
  -3   0  30   12.79    2.44
   3   0  30   11.14    8.63
  -3   0  30    7.26    5.09
   3   0  30   19.65    3.63
  -3   0  31   -0.64    7.76
   3   0  31    2.18    2.78
  -3   0  31    2.43    4.25
   3   0  31    0.65    5.96
  -3  -1   0    0.46    0.67
  -3  -1   0   -0.53    2.26
   3  -1   0    1.40    1.75
  -3   1   0   -1.26    1.97
   3   1   0   -0.35    0.52
  -3  -1   1  832.27   20.32
  -3  -1  -1  765.32   18.15
  -3  -1  -1  728.48   23.82
   3  -1   1  818.32   23.96
   3   1   1  812.03   17.03
  -3  -1   1  723.10   24.03
  -3   1   1  783.18   29.11
  -3   1  -1  796.03   29.24
   3  -1  -1  791.80   23.14
  -3  -1   2 1627.74   31.01
  -3   1   2 1466.34   40.26
   3  -1   2 1536.27   34.22
   3  -1  -2 1573.18   32.04
  -3  -1  -2 1713.15   26.69
   3   1   2 1683.84   29.13
  -3  -1   2 1488.35   35.51
   3   1   3 3822.59   47.76
  -3  -1   3 3119.72   52.94
   3  -1  -3 3365.30   47.60
  -3   1   3 3473.94   61.54
   3  -1   3 3160.92   51.48
  -3  -1   3 3429.19   49.02
  -3  -1   4   10.99    3.26
  -3   1   4   12.42    3.05
   3  -1   4    7.11    2.46
  -3  -1  -4   11.94    2.55
   3   1   4    8.47    2.82
  -3   1   4   17.00    4.56
  -3  -1   4   20.02    4.32
  -3  -1   4    7.40    1.78
  -3  -1  -5  407.69   16.02
   3   1   5  501.97   21.03
   3  -1   5  510.99   22.47
  -3   1   5  458.12   22.92
  -3  -1   5  533.07   23.14
  -3  -1   5  476.70   15.12
  -3   1   5  466.00   19.77
   3   1   6 1908.45   43.95
  -3  -1   6 2029.13   35.54
   3  -1   6 2042.28   47.59
  -3   1   6 2002.69   49.84
  -3  -1   6 2059.06   47.64
  -3   1   6 1992.64   42.58
  -3  -1   7  280.65   14.34
   3   1   7  308.66   18.64
   3  -1   7  290.65   18.61
  -3  -1   7  275.54   17.95
  -3   1   7  294.17   19.68
  -3   1   7  291.04   17.01
  -3   1   8  819.74   34.25
   3   1   8  739.66   30.78
  -3  -1   8  817.87   32.81
  -3   1   8  842.90   29.60
  -3  -1   8  810.10   26.44
  -3   1   9  347.16   20.15
   3   1   9  341.99   21.47
  -3  -1   9  307.26   17.57
  -3  -1   9  331.51   22.01
  -3   1   9  339.56   22.42
  -3  -1  10  888.27   31.86
   3   1  10  861.17   35.40
   3  -1  10  912.18   37.12
  -3  -1  10  779.06   34.90
  -3   1  10  889.57   33.77
  -3   1  10  901.09   37.40
  -3  -1  11    5.45    2.67
  -3   1  11    5.62    2.06
   3   1  11    4.76    2.49
  -3  -1  11   -0.16    3.31
  -3   1  11   -1.02    3.74
   3  -1  11    5.01    3.23
  -3  -1  12 1739.44   49.91
   3   1  12 1738.34   54.18
  -3  -1  12 1530.87   52.08
   3  -1  12 1694.37   53.94
  -3   1  12 1655.42   54.38
   3   1  12 1525.60   50.16
  -3   1  12 1579.72   48.63
  -3  -1  13  414.84   25.21
  -3   1  13  432.91   28.57
   3   1  13  423.02   27.66
   3  -1  13  431.74   28.37
   3   1  13  410.46   27.05
  -3  -1  13  418.52   28.15
  -3   1  13  405.53   25.66
  -3   1  14   26.51    6.59
  -3  -1  14   23.68    6.97
   3   1  14   21.57    6.06
   3  -1  14   33.54    7.51
  -3   1  14   19.36    6.28
  -3  -1  14    6.58    2.25
   3   1  14   36.71    8.31
  -3  -1  15  114.48   14.96
  -3   1  15  129.93   17.16
   3   1  15  102.72   14.04
   3  -1  15  136.75   16.72
  -3  -1  15  120.53   15.02
   3   1  15  117.76   15.40
   3  -1  15  117.35   15.95
  -3   1  15  123.61   15.57
  -3  -1  16  992.02   44.26
   3   1  16 1106.50   48.15
   3  -1  16  988.32   46.76
  -3   1  16  997.58   47.81
  -3  -1  16  928.00   45.67
   3  -1  16 1093.53   48.67
  -3   1  16  949.25   43.85
   3   1  17  152.72   18.37
  -3  -1  17  111.03   15.70
  -3  -1  17  145.52   17.50
   3  -1  17  157.56   19.22
  -3   1  17  153.84   19.10
   3   1  17  147.28   18.40
   3  -1  17  150.45   18.98
  -3   1  17  151.88   18.15
  -3   1  18   10.51    5.87
   3  -1  18    2.66    6.07
  -3  -1  18    6.32    2.20
   3   1  18    2.51    1.94
  -3   1  18    6.03    4.29
  -3  -1  18    7.74    5.19
   3   1  18   -3.25    5.46
   3  -1  18   14.40    4.30
  -3   1  19   19.20    7.69
  -3  -1  19   26.79    8.72
  -3  -1  19   25.54    8.28
   3   1  19   25.65    9.11
   3   1  19   19.06    5.97
   3  -1  19   22.94    7.94
  -3   1  19   36.39    9.32
   3  -1  19   29.65    8.87
  -3  -1  20  401.41   31.86
   3   1  20  361.66   30.76
  -3   1  20  384.86   32.08
   3  -1  20  380.95   31.28
   3   1  20  365.22   31.72
   3  -1  20  401.79   32.76
  -3  -1  20  358.69   30.53
  -3   1  20  362.37   30.00
  -3   1  21   29.81    8.24
  -3  -1  21   23.89    7.45
   3   1  21   35.90   10.50
   3  -1  21   24.66    9.30
  -3  -1  21   19.18    8.31
   3   1  21   38.69    9.12
   3  -1  21   21.95    8.27
  -3   1  21   10.31    7.48
   3   1  22  114.72   19.05
   3  -1  22  114.38   18.32
  -3  -1  22  148.62   19.68
   3   1  22  141.50   21.51
   3  -1  22  118.91   17.60
  -3   1  22  135.86   18.86
  -3   1  22  138.11   20.17
  -3  -1  22  140.88   18.72
   3   1  23  298.73   29.66
   3  -1  23  291.35   29.21
  -3  -1  23  253.03   27.70
  -3   1  23  256.18   28.44
   3   1  23  269.14   29.36
   3  -1  23  276.38   29.32
  -3   1  23  282.96   28.34
  -3  -1  23  247.28   26.18
   3   1  24   95.24   17.39
  -3   1  24   63.29   14.30
   3  -1  24   66.77   16.20
   3  -1  24   39.12   11.18
  -3  -1  24   78.39   15.99
  -3   1  24   50.90   10.93
   3   1  24   96.09   16.50
  -3  -1  24   96.81   17.53
  -3   1  25    5.85    5.09
  -3  -1  25    0.91    2.42
   3   1  25    0.89    4.97
   3  -1  25    7.25    6.38
  -3  -1  25   11.79    7.16
  -3   1  25    9.11    6.65
   3   1  25    5.26    2.42
   3  -1  25    3.87    2.49
   3  -1  26  117.57   19.63
   3  -1  26  182.47   23.51
  -3   1  26  160.87   22.88
   3   1  26  164.43   22.80
   3   1  26  147.20   21.51
  -3  -1  26  153.34   22.83
  -3   1  26  165.68   22.16
  -3  -1  26  110.53   18.54
  -3   1  27   49.72   14.40
  -3  -1  27   40.59   11.20
   3   1  27   51.65   13.58
   3  -1  27   67.42   16.17
  -3   1  27   66.21   15.91
  -3  -1  27   47.39   13.40
   3   1  27   72.96   16.84
   3  -1  27   48.42   12.99
   3  -1  28   12.02    6.42
  -3   1  28   22.74    9.28
  -3  -1  28   11.12    7.10
   3   1  28   12.58    5.80
   3   1  28   19.58    7.65
   3  -1  28   32.43   11.14
  -3   1  28   19.49    9.29
  -3  -1  28   38.58   11.24
  -3   1  29    7.42    7.31
  -3  -1  29    8.02    6.21
   3   1  29    6.54    2.72
   3  -1  29   10.47    3.95
  -3   1  29    7.42    6.21
   3  -1  29   21.89   10.02
  -3  -1  29    8.05    2.86
   3   1  29   10.12    4.63
  -3   1  30   25.06    7.82
  -3  -1  30   56.29   12.65
  -3  -1  30   59.87   16.36
   3   1  30   32.99   10.84
   3  -1  30   33.76   11.67
  -3   1  30   38.45   13.21
   3   1  30   37.22   12.19
   3  -1  30   37.29   12.21
  -3   1  31   28.82   11.91
  -3  -1  31   39.08   11.12
   3   1  31   42.46   12.18
   3  -1  31   39.75   12.85
  -3  -1  31   47.62   13.47
  -3   1  31   62.63   17.19
   3   1  31   35.69   10.53
   3  -1  31   36.01   13.16
  -3   2   0    2.35    3.53
  -3  -2   0   -0.23    1.84
  -3  -2   0   -0.08    1.03
   3  -2   0    0.77    1.08
   3  -2   0   -0.10    1.30
   3   2   1    0.34    0.61
  -3  -2   1    4.66    1.90
   3  -2  -1    1.70    1.52
  -3   2  -1   -1.04    0.97
  -3  -2  -1    2.04    2.06
   3  -2   1    0.91    1.11
   3  -2  -1    1.82    1.62
   3  -2   1    2.62    1.96
  -3   2   1    1.64    2.25
  -3  -2   1    0.84    0.77
   3   2   2  248.21   10.79
  -3  -2   2  212.71   13.25
   3  -2   2  206.16    9.62
  -3  -2  -2  221.54   12.51
   3  -2   2  215.74   14.23
   3  -2  -2  184.24   12.72
   3  -2  -2  215.56   11.77
  -3  -2   2  182.67   11.45
  -3   2   2  205.93   15.76
  -3  -2   3  509.33   21.69
   3  -2   3  517.13   22.74
  -3  -2  -3  478.89   18.65
  -3   2   3  515.73   24.82
   3  -2  -3  506.70   21.07
  -3  -2   3  502.45   19.71
   3  -2  -3  470.04   18.66
   3  -2   3  480.45   15.34
   3  -2   4  681.87   26.71
  -3  -2   4  673.36   13.49
   3  -2   4  704.83   19.58
  -3  -2   4  694.81   25.91
  -3  -2  -4  774.58   24.10
  -3  -2   4  800.09   26.24
  -3   2   4  720.87   29.58
  -3  -2   5  324.80   18.61
  -3  -2   5  342.78   12.19
   3   2   5  324.51   16.80
  -3   2   5  337.94   20.54
   3  -2   5  331.11   19.35
  -3  -2  -5  358.53   17.18
  -3  -2   5  349.65   18.37
  -3   2   5  337.67   17.96
   3  -2   5  384.54   15.71
   3  -2   6    0.72    1.15
  -3  -2   6   -1.03    2.56
  -3  -2   6    2.24    2.27
   3  -2   6    0.87    2.62
  -3  -2   6    2.93    1.37
   3   2   6    1.14    1.98
  -3  -2  -6   -2.06    2.68
  -3   2   6    3.09    1.94
  -3   2   6    2.35    1.44
  -3  -2   7  232.42   13.08
   3   2   7  224.49   15.59
  -3  -2   7  220.81   17.01
  -3   2   7  213.85   17.10
  -3  -2  -7  218.15   15.11
  -3  -2   7  219.59   15.95
   3  -2   7  235.42   17.31
  -3   2   7  222.00   16.38
  -3  -2  -8  383.81   20.89
   3   2   8  393.36   22.04
  -3  -2   8  389.93   22.85
  -3   2   8  392.15   24.01
   3  -2   8  343.06   21.60
  -3  -2   8  335.35   16.99
  -3   2   8  344.24   20.72
  -3  -2   8  346.97   22.31
   3  -2   9    2.84    2.31
  -3   2   9    2.22    1.83
  -3  -2   9    4.56    2.31
   3   2   9    3.87    2.33
  -3  -2   9    1.23    1.83
  -3   2   9    6.92    3.50
  -3   2  10    1.71    2.27
   3  -2  10    1.73    3.72
  -3  -2  10   -2.61    2.25
   3   2  10   -1.28    3.17
  -3   2  10    0.37    2.07
  -3  -2  10    1.24    3.21
   3   2  10    0.40    2.16
  -3  -2  11   18.70    5.89
  -3  -2  11   27.55    5.90
   3   2  11   25.11    6.43
  -3   2  11   22.97    5.90
  -3   2  11   24.29    6.54
   3   2  11   17.39    5.06
   3  -2  11   25.80    6.98
  -3  -2  12   70.68    9.98
  -3   2  12   86.78   12.51
   3   2  12   76.35   11.33
   3  -2  12   83.42   12.24
  -3  -2  12   90.47   12.62
   3   2  12  102.89   12.98
  -3   2  12   86.40   11.76
  -3   2  13   47.75    9.00
  -3  -2  13   34.04    7.11
   3   2  13   48.02    9.00
  -3   2  13   46.95    9.05
  -3  -2  13   45.44    9.03
   3  -2  13   41.70    9.22
   3   2  13   49.60    9.09
  -3  -2  14   88.61   11.76
   3   2  14   85.46   12.19
   3   2  14   85.09   12.98
   3  -2  14   83.79   12.82
  -3   2  14   63.90   11.21
  -3  -2  14   89.40   13.31
  -3   2  14   71.71   11.97
  -3  -2  15   76.74   12.06
   3   2  15   65.96   11.39
   3  -2  15   93.57   14.64
  -3   2  15   96.70   14.02
  -3  -2  15   64.58   11.38
   3   2  15   88.56   13.69
  -3   2  15   75.46   12.21
  -3  -2  16  125.07   15.89
  -3   2  16  119.19   15.79
   3   2  16  136.30   17.63
   3  -2  16  141.37   17.43
   3  -2  16  133.00   18.02
  -3  -2  16  145.60   17.81
   3   2  16  157.64   18.23
  -3   2  16  154.27   18.83
   3   2  17   86.36   14.58
  -3   2  17   55.03   11.78
   3  -2  17   59.07   11.63
  -3  -2  17   84.33   13.52
   3  -2  17   78.46   13.95
  -3   2  17   72.49   12.80
  -3  -2  17   76.19   14.03
   3   2  17   60.12   11.61
   3   2  18  119.91   16.56
   3  -2  18  117.98   16.73
  -3  -2  18  104.70   15.61
  -3   2  18   89.03   14.22
  -3  -2  18  134.04   18.05
   3   2  18  128.99   17.64
  -3   2  18  109.85   17.09
   3  -2  18  120.75   16.31
  -3  -2  19   -0.88    1.90
   3   2  19    3.65    4.22
  -3   2  19    5.20    7.80
   3  -2  19   -0.70    3.40
  -3   2  19   -0.11    2.53
  -3  -2  19   -1.48    4.08
   3   2  19   -0.95    3.99
   3  -2  19   -3.49    5.90
  -3   2  20   33.20    9.15
  -3  -2  20   26.82    8.56
   3   2  20   35.39    9.60
   3  -2  20   32.91    9.06
  -3   2  20   23.03    9.22
  -3  -2  20   55.49   12.62
   3   2  20   19.53    9.76
   3  -2  20   53.88   12.39
  -3   2  21   63.41   12.71
  -3  -2  21   51.04   11.76
   3   2  21   74.84   13.95
  -3   2  21   38.93   11.84
   3  -2  21   70.11   13.40
  -3  -2  21   73.71   14.77
   3   2  21   63.04   13.31
   3  -2  21   54.18   13.01
  -3   2  22    5.24    5.21
  -3  -2  22   14.06    7.80
   3   2  22   14.18    4.82
  -3   2  22   12.03    7.62
   3  -2  22    1.51    5.10
   3  -2  22   15.20    8.83
  -3  -2  22   11.68    6.47
   3   2  22   31.99   10.69
  -3   2  23    8.41    6.88
  -3  -2  23    1.17    3.38
   3   2  23    4.95    4.99
   3  -2  23    5.59    4.32
  -3   2  23    8.22    7.01
  -3  -2  23   11.86    6.50
   3   2  23   -4.53    6.63
   3  -2  23   -2.98    3.51
  -3  -2  24   -0.52    6.15
   3   2  24    3.60    3.45
   3  -2  24   -1.21    4.26
  -3   2  24   -2.42    4.31
   3  -2  24   -1.19    4.26
  -3   2  24    2.41    2.92
  -3  -2  24    8.42    6.00
   3   2  24    5.65    6.97
   3  -2  25   -0.23    4.97
  -3   2  25    5.23    5.80
  -3  -2  25    9.20    3.73
   3   2  25    3.36    6.61
  -3   2  25    0.52    2.77
   3  -2  25    2.94    2.98
   3   2  25    0.45    3.84
  -3  -2  25    5.24    3.93
  -3   2  26    5.68    2.97
   3  -2  26   -1.94    2.42
  -3  -2  26    4.15    3.81
   3   2  26   -0.05    5.59
  -3   2  26   -2.66    7.12
  -3  -2  26    0.87    6.11
   3   2  26   10.78    8.92
   3  -2  26    3.93    5.35
  -3  -2  27   17.69    7.73
   3   2  27   16.68    6.71
   3  -2  27   11.58    6.23
  -3   2  27   12.88    7.11
  -3   2  27   27.17    9.66
   3  -2  27   23.06   10.15
  -3  -2  27   29.43   10.52
   3   2  27   21.67    9.30
  -3   2  28    5.92    5.54
  -3  -2  28    1.32    5.73
   3   2  28    8.44    4.66
   3  -2  28   -2.77    2.61
  -3   2  28    8.97    7.20
  -3  -2  28    7.80    5.05
   3   2  28   -9.49    9.14
   3  -2  28   10.75    8.45
  -3   2  29   -3.74    4.50
  -3  -2  29    0.47    4.69
  -3   2  29   -8.11    8.69
  -3  -2  29    0.87    4.10
   3   2  29   -0.45    3.91
   3  -2  29    4.74    5.42
   3   2  29   20.46   10.06
   3  -2  29   -1.54    6.24
  -3   2  30   -0.72    2.89
  -3  -2  30   -8.61    6.01
   3   2  30   12.90    9.06
   3  -2  30    5.92    2.16
  -3   2  30   -3.08    7.37
  -3  -2  30   -4.60    6.66
   3   2  30   -1.02    3.52
   3  -2  30    7.67    9.03
  -3   2  31   -3.16    6.03
  -3  -2  31    0.88    4.08
   3   2  31   14.14    7.59
   3  -2  31   -3.21    3.58
  -3  -2  31    8.47    7.25
  -3   2  31   -7.50    8.05
   3   2  31   -1.02    5.05
   3  -2  31    0.33    4.31
   3  -3   0    1.69    2.51
  -3  -3   0    1.04    2.00
   3  -3   0    1.03    2.07
  -3   3   0   -2.94    3.81
  -3  -3   0    0.17    1.09
  -3  -3   1   74.78    8.70
  -3  -3  -1   92.91    9.50
   3  -3   1   78.81    7.62
  -3  -3   1   74.94    4.66
   3  -3  -1   99.63    8.77
  -3   3  -1   86.76   10.66
   3   3   1   89.26    6.61
   3  -3   1   69.24    9.12
   3  -3  -1   81.57    9.91
  -3   3   1   84.16   10.87
  -3  -3   1   86.48    6.72
  -3  -3   2  807.44   29.39
   3  -3  -2  815.87   29.91
   3  -3   2  837.58   24.73
  -3  -3  -2  802.87   28.03
   3  -3  -2  815.19   25.93
   3  -3   2  792.92   30.93
  -3   3   2  819.49   33.08
   3   3   2  843.81   21.35
  -3  -3   2  846.67   22.24
  -3  -3   3  146.48   12.44
   3  -3   3  133.62   10.27
  -3  -3  -3  151.81   12.13
   3  -3   3  163.53   14.22
   3  -3  -3  147.93   12.65
   3  -3  -3  138.46   11.42
  -3   3   3  108.88   12.14
  -3  -3   3  155.84   10.33
  -3  -3   3  134.21    6.13
   3   3   3  150.70    9.90
   3  -3   4  436.05   19.20
   3  -3   4  474.37   24.19
  -3  -3  -4  504.59   22.82
  -3  -3   4  453.99   19.10
  -3  -3   4  481.09   13.29
  -3   3   4  479.55   25.27
   3  -3  -4  484.15   22.18
  -3  -3   4  452.77   23.35
   3   3   4  419.88   18.50
   3  -3   5 3295.66   64.29
  -3  -3   5 3388.10   65.30
   3  -3   5 3243.47   53.04
  -3  -3  -5 3638.60   61.78
  -3  -3   5 3391.09   40.21
   3  -3  -5 3331.20   61.10
  -3   3   5 3403.79   69.66
  -3  -3   5 3074.02   55.06
   3   3   5 3199.68   54.33
  -3  -3   6  804.31   22.02
  -3  -3  -6  755.14   28.62
  -3  -3   6  747.91   31.87
  -3   3   6  774.51   33.71
  -3  -3   6  828.23   29.99
  -3   3   6  770.68   30.72
   3  -3   6  755.62   26.62
   3  -3   6  807.17   32.56
   3   3   6  782.91   28.10
   3  -3   7   74.93    8.90
  -3   3   7   83.44   11.35
   3   3   7   72.52    8.05
  -3  -3   7   86.37    7.91
  -3  -3   7   70.56   10.65
  -3  -3  -7  103.04   11.30
   3   3   7   72.15    9.04
  -3   3   7   71.61    9.84
  -3  -3   7   88.26   10.39
   3  -3   7   63.09    9.95
  -3  -3   8  344.61   17.52
  -3   3   8  332.43   22.85
  -3  -3   8  353.99   21.19
  -3  -3   8  370.17   23.43
  -3   3   8  312.29   21.61
   3  -3   8  379.79   23.89
   3   3   8  366.08   19.57
   3  -3   8  357.89   20.33
   3   3   9 1056.41   38.66
  -3  -3   9 1192.98   35.02
   3  -3   9 1201.80   43.39
  -3  -3  -9 1180.07   40.80
  -3   3   9 1192.15   44.60
  -3  -3   9 1100.21   39.72
  -3   3   9 1147.67   41.15
   3   3   9 1156.52   37.55
   3  -3   9 1203.94   38.75
  -3  -3   9 1216.13   43.86
   3   3  10  150.86   15.28
   3  -3  10  208.00   18.11
  -3  -3  10  184.08   14.53
  -3  -3  10  206.43   17.81
  -3   3  10  206.52   19.20
  -3   3  10  189.96   17.02
  -3  -3  10  206.77   18.42
   3   3  10  179.86   15.08
   3  -3  10  200.80   16.72
  -3  -3 -10  171.56   15.92
   3  -3  11   38.42    7.84
  -3  -3  11   33.57    6.81
   3   3  11   33.19    7.79
  -3  -3  11   54.05   10.30
  -3  -3 -11   43.11    7.79
  -3   3  11   37.49    7.30
   3   3  11   41.93    7.78
  -3   3  11   42.57    8.20
  -3  -3  11   46.95    9.50
  -3   3  12    4.90    4.77
   3  -3  12   -3.12    4.19
  -3  -3 -12    1.99    1.89
   3   3  12    1.12    2.27
  -3  -3  12    2.19    1.90
  -3   3  12   -1.97    4.02
  -3  -3  12   -1.37    1.90
   3   3  12   -2.50    2.78
   3   3  13  502.76   30.92
  -3  -3  13  484.43   27.34
  -3   3  13  437.04   28.47
   3  -3  13  404.36   29.16
  -3   3  13  421.85   28.88
  -3  -3  13  500.83   30.54
   3   3  13  491.68   28.96
  -3   3  14    0.07    3.15
   3   3  14    2.45    3.67
  -3  -3  14    1.68    3.20
  -3   3  14    3.64    2.76
  -3  -3  14   -2.14    2.86
   3   3  14   -1.13    1.38
   3  -3  14    3.84    4.74
  -3  -3  15  323.83   23.99
   3   3  15  367.71   26.96
  -3   3  15  339.72   25.66
  -3   3  15  329.05   26.16
  -3  -3  15  371.26   28.21
   3   3  15  323.08   26.35
  -3   3  16    3.80    2.94
   3   3  16    1.86    2.64
  -3  -3  16    0.01    3.95
  -3   3  16   -2.28    3.29
  -3  -3  16   -0.23    3.49
   3  -3  16   -0.45    4.68
   3   3  16    2.45    1.87
   3   3  17  381.91   29.90
  -3  -3  17  396.18   28.81
   3  -3  17  386.21   30.26
   3  -3  17  407.01   31.05
  -3   3  17  387.32   29.87
  -3   3  17  384.63   29.47
  -3  -3  17  327.76   28.02
   3   3  17  446.86   31.66
  -3  -3  18  124.38   16.46
   3  -3  18  130.21   18.29
  -3   3  18  134.52   18.07
  -3  -3  18  123.66   17.37
   3   3  18  121.40   17.09
   3   3  18  140.22   18.57
  -3   3  18  141.93   18.07
   3  -3  18  113.46   16.61
   3   3  19  122.65   17.98
   3   3  19  133.33   19.01
  -3  -3  19  162.78   19.69
   3  -3  19  162.50   20.22
  -3  -3  19  166.14   20.93
  -3   3  19  168.02   20.55
   3  -3  19  120.41   17.79
  -3   3  19  171.17   20.62
  -3   3  20   11.01    7.37
  -3   3  20   15.08    6.36
   3   3  20   19.02    8.43
  -3  -3  20    8.98    4.60
   3  -3  20   13.97    7.36
  -3  -3  20    5.45    6.83
   3   3  20   19.37    7.06
   3  -3  20    5.91    5.43
  -3   3  21   42.63   11.56
   3  -3  21   87.91   15.43
  -3  -3  21   46.28   10.69
  -3   3  21   51.95   12.60
   3   3  21   73.10   15.15
  -3  -3  21   44.75   10.97
   3   3  21   44.88   12.29
   3  -3  21   67.97   14.56
  -3   3  22   17.75    6.64
  -3  -3  22   41.20   10.28
   3   3  22   11.84    7.79
   3  -3  22   28.96    9.31
  -3   3  22   16.91    7.12
  -3  -3  22   23.13    7.53
   3   3  22   21.83    8.80
   3  -3  22   14.10    6.46
  -3  -3  23  125.74   18.72
   3  -3  23  127.08   20.37
  -3   3  23  138.70   20.36
  -3  -3  23  141.10   19.49
   3   3  23  168.48   22.20
   3  -3  23  159.59   21.64
  -3   3  23   77.60   16.40
   3   3  23  159.19   21.15
  -3   3  24   -1.21    4.59
   3  -3  24    3.08    3.32
  -3   3  24   -0.39    4.70
   3   3  24    3.74    4.24
  -3  -3  24   10.84    7.59
   3  -3  24   10.97    5.75
  -3  -3  24    6.95    7.46
   3   3  24    0.85    4.32
  -3   3  25    9.42    8.45
  -3  -3  25    1.22    3.63
   3   3  25    6.04    5.61
  -3  -3  25    6.07    3.46
   3  -3  25    9.36    4.58
  -3   3  25    5.07    7.63
   3   3  25    7.52    3.23
   3  -3  25    3.31    3.37
   3   3  26   21.31    9.54
  -3  -3  26   27.53   10.62
  -3   3  26   31.40    9.78
   3  -3  26   39.03   10.53
  -3   3  26   50.61   12.15
  -3  -3  26   50.56   13.04
   3   3  26   37.14   12.70
   3  -3  26   46.07   13.75
  -3   3  27   34.56    9.82
   3   3  27   68.65   15.37
  -3  -3  27   79.36   15.96
   3  -3  27   38.88   10.42
  -3   3  27   41.26   10.44
  -3  -3  27   50.26   14.00
   3   3  27   43.73   13.62
   3  -3  27   68.75   15.28
  -3   3  28   15.61    5.81
   3   3  28   12.59    6.32
  -3  -3  28   27.46   10.65
  -3   3  28   16.74   10.14
   3  -3  28   36.90   12.17
   3   3  28   22.22    8.80
   3  -3  28   36.92   11.84
  -3  -3  28   25.95   10.37
   3  -3  29   14.90    8.70
  -3   3  29   14.07    8.70
  -3   3  29   21.77    5.66
   3   3  29    9.71    4.54
  -3  -3  29   19.33    8.25
   3   3  29   18.12   12.07
  -3  -3  29   18.70    8.25
   3  -3  29    6.85    6.73
  -3   3  30   34.44   11.00
   3   3  30   35.75   14.03
  -3   3  30   42.33   12.46
   3   3  30   29.98   11.24
  -3  -3  30   34.13   12.33
  -3  -3  30   13.18    5.28
   3  -3  30   12.19    6.63
   3  -3  30   39.15   11.07
   3   3  31   46.38   14.40
   3  -3  31   63.88   14.21
   3  -3  31   32.62   11.15
  -3   3  31   61.67   14.02
  -3   3  31   55.21   14.73
  -3  -3  31   64.94   16.09
   3   3  31   55.36   14.48
  -3  -3  31   82.50   19.60
   3  -4   0    1.63    1.29
  -3  -4   0    1.39    0.92
  -3  -4   0    2.54    3.22
   3  -4   0    0.53    2.65
  -3   4   0    2.40    3.77
  -3   4   1  318.32   21.99
  -3  -4   1  286.33   19.06
  -3  -4  -1  308.61   19.79
   3  -4   1  345.82   18.86
   3  -4  -1  327.54   18.27
  -3  -4   1  302.10   11.26
   3  -4   1  316.24   20.40
   3   4   1  319.11   14.32
  -3  -4   1  326.06   13.32
   3  -4  -1  336.11   21.55
   3  -4   2    1.40    2.00
  -3   4   2    9.72    5.51
  -3  -4   2    2.06    1.26
  -3  -4   2    0.78    1.05
  -3  -4   2    0.52    1.00
   3  -4   2   -1.61    2.08
  -3  -4  -2    2.87    2.91
   3  -4  -2    2.45    3.18
   3  -4  -2    4.81    3.72
   3   4   2    0.33    0.71
  -3  -4   3   66.61    5.84
   3  -4   3   63.02    8.16
  -3  -4   3   69.93    6.75
   3  -4  -3   91.99   10.84
  -3  -4  -3   66.71    8.75
   3  -4   3   57.65    8.63
   3  -4  -3   73.45    9.15
  -3  -4   3   72.60    9.72
   3   4   3   73.72    7.57
   3   4   3   60.17    4.36
  -3   4   3   71.71   10.27
  -3  -4   4 1118.40   39.19
   3  -4   4 1069.53   34.25
   3  -4   4 1031.31   38.62
  -3  -4  -4 1059.56   36.78
   3  -4  -4 1079.83   35.67
  -3  -4   4 1208.22   25.65
  -3   4   4 1150.39   41.83
   3  -4  -4 1082.36   37.61
  -3  -4   4 1091.20   28.68
   3   4   4 1143.37   32.11
   3   4   4  998.85   21.37
  -3  -4   5   41.47    8.35
   3  -4   5   28.72    5.80
  -3  -4  -5   37.62    7.18
   3  -4  -5   34.97    6.97
  -3   4   5   43.64    8.48
  -3  -4   5   33.39    4.69
  -3  -4   5   31.03    5.40
   3   4   5   42.71    4.91
   3   4   5   30.64    5.76
   3  -4   5   39.71    7.17
  -3  -4   6  173.73   16.53
   3  -4   6  177.76   14.59
   3  -4   6  178.06   16.12
   3   4   6  170.73   13.65
  -3  -4  -6  158.88   14.49
  -3   4   6  194.76   17.02
   3  -4  -6  186.23   15.84
  -3  -4   6  185.61   14.08
  -3  -4   6  183.58   11.58
  -3   4   6  197.58   17.82
  -3  -4   7  109.98   13.47
   3  -4   7  137.62   13.21
   3  -4  -7  108.00   12.64
  -3  -4   7  122.69   10.18
  -3  -4  -7  135.69   13.66
  -3   4   7  129.03   14.10
  -3  -4   7  116.13   11.89
  -3   4   7  139.34   14.10
   3   4   7  138.20   10.60
   3   4   7  131.15   12.95
   3  -4   7  113.80   13.40
  -3   4   8   57.04    9.88
  -3  -4   8   85.10   12.06
   3  -4   8   60.18    9.28
  -3  -4  -8   56.01    8.95
  -3  -4   8   45.78    6.53
   3   4   8   51.11    7.95
  -3  -4   8   66.18    9.15
  -3   4   8   68.50    9.95
   3   4   8   56.19    7.36
   3  -4  -8   68.10   10.78
   3  -4   8   73.47   10.41
   3   4   9  725.06   29.69
  -3  -4   9  736.15   36.50
  -3  -4   9  800.31   29.08
  -3   4   9  793.07   36.58
   3  -4   9  711.75   31.68
   3  -4   9  801.15   36.49
  -3  -4   9  825.58   34.70
   3   4   9  827.06   35.10
   3  -4  10    6.68    4.42
  -3  -4  10    2.07    1.68
   3   4  10    3.47    3.25
  -3   4  10   -0.28    1.32
   3  -4  10    2.95    3.09
  -3  -4  10    4.30    3.02
  -3  -4 -10   -0.95    2.22
  -3  -4  10    6.34    5.47
  -3   4  10    0.69    2.35
   3   4  10    3.99    2.50
   3  -4  11    0.52    1.42
  -3  -4  11    1.49    3.08
   3  -4  11   -0.06    2.86
   3   4  11   -2.73    4.08
  -3  -4 -11   -0.26    1.75
  -3   4  11    2.01    3.47
  -3  -4  11    3.63    3.31
  -3  -4  11   -2.02    3.44
   3   4  11   -0.64    1.00
  -3   4  11   -1.40    2.44
   3  -4  12   19.85    6.31
  -3  -4  12   28.77    8.83
   3  -4  12   16.98    5.14
   3   4  12   14.33    5.70
  -3  -4 -12   18.00    6.33
  -3  -4  12    6.99    3.63
  -3  -4  12   18.54    5.75
  -3   4  12   12.69    5.22
   3   4  12    9.52    2.49
  -3   4  12   15.58    4.56
  -3  -4  13   13.13    5.94
   3  -4  13   12.37    5.75
   3   4  13    5.56    4.57
  -3  -4 -13    6.00    5.17
  -3  -4  13   11.30    4.93
  -3   4  13   14.57    6.56
  -3  -4  13    6.89    2.28
   3   4  13    8.29    4.24
  -3   4  13   19.40    7.17
  -3   4  14    4.48    5.69
   3  -4  14   -0.19    2.37
  -3  -4  14    7.61    4.65
   3   4  14    4.83    5.06
  -3  -4 -14   -1.87    4.35
  -3  -4  14    1.49    1.73
   3   4  14    1.36    2.99
  -3  -4  14    1.14    2.80
  -3   4  14   -0.69    3.01
  -3   4  15    0.25    4.42
   3   4  15   -0.05    1.67
  -3  -4  15   -0.19    3.29
  -3   4  15    0.61    3.19
  -3  -4  15    2.14    3.04
  -3  -4 -15    3.05    2.20
   3   4  15    2.87    4.50
   3  -4  15   -0.74    2.68
  -3   4  16   33.29   10.44
  -3   4  16   27.51    7.59
   3   4  16   32.09    8.37
  -3  -4 -16   13.84    5.59
  -3  -4  16   20.50    7.75
   3   4  16   15.44    5.65
   3  -4  16   18.99    8.37
  -3  -4  16   50.28   10.26
  -3   4  17   15.24    6.03
   3   4  17   16.48    6.41
  -3  -4 -17   10.47    4.88
  -3  -4  17   10.80    4.67
  -3   4  17    7.90    5.80
  -3  -4  17   21.33    6.86
   3   4  17    2.80    6.26
   3  -4  17    1.22    3.73
  -3   4  18    0.71    4.54
   3   4  18   -5.50    6.42
  -3  -4  18   -1.47    2.43
  -3  -4 -18    0.04    3.11
  -3  -4  18    1.65    4.39
   3  -4  18    3.34    4.15
   3   4  18    0.02    3.30
  -3   4  18   -1.76    4.12
   3  -4  18    4.54    4.44
  -3   4  19   11.76    6.31
   3   4  19    5.98    3.47
  -3  -4  19   -1.76    1.74
  -3   4  19    5.51    4.44
   3  -4  19    5.52    5.02
  -3  -4  19    6.41    6.12
   3   4  19   10.95    6.98
   3  -4  19   10.66    4.91
   3   4  20   74.06   14.05
   3  -4  20   83.32   16.25
  -3   4  20   32.13   10.17
  -3  -4  20   46.82   10.84
  -3   4  20   64.96   13.93
  -3  -4  20   72.63   13.52
   3   4  20   60.28   12.03
   3  -4  20   48.14   11.61
  -3   4  21   13.10    7.33
   3   4  21    4.63    3.98
  -3  -4  21   15.04    7.02
  -3   4  21   14.97    8.30
   3  -4  21   17.96    6.64
  -3  -4  21    0.47    2.94
   3   4  21   19.82    9.21
   3  -4  21   20.05    9.08
  -3   4  22   -1.82    2.57
   3  -4  22   -8.05    6.05
   3   4  22    1.20    3.25
  -3  -4  22   -3.42    4.20
  -3   4  22    1.58    4.22
  -3  -4  22   -0.63    3.29
   3   4  22    1.43    2.92
   3  -4  22    1.78    6.60
  -3   4  23    4.45    2.39
  -3  -4  23    4.02    2.06
   3   4  23    2.58    2.43
  -3  -4  23    7.43    2.19
   3   4  23    2.61    4.48
   3  -4  23    3.39    3.33
  -3   4  23   12.00    5.19
   3  -4  23   15.45    7.92
  -3   4  24    0.96    5.92
  -3   4  24    4.48    2.62
   3   4  24   -1.21    4.14
   3   4  24   -3.87    4.04
  -3  -4  24    6.64    3.88
  -3  -4  24    7.09    6.39
   3  -4  24    0.59    3.24
   3  -4  24   -4.36    5.72
  -3   4  25    3.97    4.26
   3  -4  25   -6.37    4.45
  -3  -4  25   -1.27    3.34
  -3  -4  25    7.91    7.70
   3   4  25    2.15    3.81
  -3   4  25   -3.15    5.60
   3   4  25   10.45    8.23
   3  -4  25   -7.15    8.25
  -3   4  26    9.72    6.88
   3   4  26    5.45    4.66
  -3   4  26   14.98    6.89
  -3  -4  26    9.34    7.01
   3  -4  26    4.01    6.68
  -3  -4  26    4.12    4.42
   3   4  26    5.98    4.00
   3  -4  26    4.40    6.12
  -3   4  27    1.11    5.06
   3   4  27    1.40    5.06
  -3  -4  27    2.96    5.47
  -3  -4  27    3.34    6.40
   3   4  27    4.52    3.70
   3  -4  27    0.48    4.35
  -3   4  27  -12.14    7.73
   3  -4  27   -0.93    4.16
  -3   4  28   -0.19    4.48
   3   4  28   12.40    8.22
  -3  -4  28    9.47    4.95
   3  -4  28    7.42    5.95
  -3   4  28    5.59    6.84
  -3  -4  28    7.45    8.40
   3   4  28    1.93    6.35
   3  -4  28    2.98    5.88
  -3   4  29   12.23    8.80
   3   4  29    4.77    4.54
   3  -4  29    6.91    8.00
  -3   4  29    4.74    3.47
  -3  -4  29    1.68    4.64
   3   4  29   10.48    7.18
   3  -4  29   -4.83    7.29
  -3   4  30    5.98    3.52
   3   4  30   25.57    8.35
   3  -4  30    3.08    3.26
  -3  -4 -30   13.66    9.61
  -3   4  30   33.76   12.80
  -3  -4  30    6.36    6.01
   3   4  30   16.37    8.41
   3  -4  30   19.21    7.46
  -3  -5   0    3.34    2.13
   3  -5   0    2.05    3.49
  -3  -5   0   -1.34    2.48
   3  -5   0   -1.11    1.55
  -3   5   0    0.34    2.29
  -3  -5   1  331.88   22.74
  -3  -5  -1  359.54   23.22
   3  -5   1  337.27   20.72
   3  -5  -1  332.59   20.88
  -3   5   1  315.47   22.83
  -3  -5  -1  373.42   17.57
   3  -5   1  379.01   24.67
  -3  -5   1  337.76   16.78
   3  -5  -1  339.12   23.28
   3  -5  -2  579.15   30.62
  -3   5   2  584.29   31.21
   3   5   2  523.64   22.93
  -3  -5   2  605.95   30.89
   3  -5   2  580.10   27.07
  -3  -5  -2  649.88   31.68
   3  -5  -2  572.86   27.45
  -3  -5   2  612.16   15.76
  -3  -5   2  570.82   21.50
   3  -5   2  580.56   30.64
  -3  -5   3   22.84    5.57
  -3  -5   3   24.23    4.38
   3  -5   3   21.86    5.14
   3  -5  -3   30.09    7.09
   3  -5   3   15.15    6.48
  -3  -5  -3   29.12    6.96
  -3   5   3   24.07    7.75
  -3  -5   3   28.04    3.94
   3   5   3   33.93    5.84
   3  -5  -3   17.22    5.72
  -3  -5   4   14.75    3.80
   3  -5   4   16.05    4.77
   3  -5  -4   24.37    6.63
  -3  -5   4   11.51    3.49
   3  -5   4   16.61    4.66
  -3   5   4   25.64    6.70
   3  -5  -4    9.21    2.95
  -3  -5  -4   19.12    5.72
  -3  -5   4    9.52    2.88
   3   5   4   17.50    4.51
   3  -5  -5  345.03   23.23
   3  -5   5  367.12   22.70
  -3  -5   5  334.50   23.42
  -3  -5  -5  398.73   24.79
   3  -5  -5  379.49   23.43
   3   5   5  329.38   11.61
  -3  -5   5  348.20   17.52
   3  -5   5  341.73   23.60
   3   5   5  330.52   20.00
  -3   5   5  312.18   22.80
  -3  -5   5  384.97   17.87
  -3  -5   6  307.49   22.82
   3  -5   6  267.97   19.75
   3  -5   6  292.06   21.86
  -3  -5  -6  281.95   21.03
  -3  -5   6  289.26   16.40
   3  -5  -6  293.43   21.06
  -3  -5   6  259.03   16.58
   3   5   6  278.16   12.64
   3   5   6  295.15   19.51
  -3   5   6  301.34   23.08
  -3  -5   7  143.03   15.94
   3  -5   7  134.17   14.34
   3  -5   7  130.01   15.01
  -3  -5  -7  132.78   14.65
   3  -5  -7  157.27   15.56
  -3  -5   7  128.52   11.28
  -3   5   7  142.80   15.76
  -3  -5   7  126.93   12.50
   3   5   7  137.17    9.74
   3   5   7  156.78   14.70
  -3  -5   8  364.54   26.31
   3   5   8  316.01   16.99
  -3   5   8  386.36   26.60
  -3  -5  -8  363.39   24.52
  -3  -5   8  376.28   20.08
   3  -5  -8  320.44   23.51
  -3  -5   8  352.52   21.60
  -3   5   8  363.97   25.19
   3   5   8  342.59   22.59
   3  -5   8  338.89   24.12
   3  -5   8  348.17   23.15
   3   5   9   -0.18    2.51
  -3  -5   9    0.21    2.90
   3  -5   9    0.31    1.73
   3  -5   9   -0.34    1.78
  -3  -5  -9   -0.55    1.87
  -3   5   9   -1.41    2.68
   3  -5  -9    2.04    2.86
  -3  -5   9    1.81    2.88
  -3   5   9    1.48    1.68
   3   5   9    0.66    2.27
  -3  -5   9    0.35    2.32
   3  -5  10   19.31    5.04
  -3  -5  10   11.75    6.02
   3   5  10    8.01    4.99
   3  -5  10   11.80    3.46
  -3  -5  10   21.73    6.05
  -3  -5 -10   19.85    7.01
  -3   5  10   29.86    7.42
   3  -5 -10   23.30    7.79
   3   5  10   26.48    5.77
  -3   5  10   19.51    5.80
  -3  -5  10   20.45    5.07
   3  -5  11  503.19   29.73
  -3  -5  11  471.99   31.37
  -3  -5  11  481.01   26.45
  -3  -5 -11  540.06   31.88
   3  -5 -11  463.81   31.21
  -3  -5  11  502.92   29.89
   3   5  11  490.25   25.73
  -3   5  11  516.18   31.54
   3  -5  11  470.03   30.27
   3   5  11  492.18   29.47
  -3   5  11  518.27   32.10
   3  -5  12   24.02    6.94
  -3  -5  12   31.15    8.60
   3   5  12   27.15    6.19
   3  -5  12   33.80    7.71
  -3  -5  12   36.87    7.97
  -3   5  12   27.34    9.17
  -3  -5 -12   22.52    8.01
   3  -5 -12   29.85    6.03
  -3  -5  12   22.06    6.95
   3   5  12   28.32    5.87
  -3   5  12   25.20    7.96
  -3  -5  13   38.00    9.42
  -3   5  13   24.80    7.90
   3   5  13   35.53    7.00
   3  -5  13   31.21    8.48
  -3  -5 -13   45.88   10.56
   3  -5 -13   42.52    9.32
  -3  -5  13   40.41    8.32
  -3  -5  13   36.76    8.94
   3   5  13   32.15    6.84
   3  -5  13   35.80    8.64
  -3   5  13   28.50    8.07
   3  -5  14    9.35    5.66
  -3  -5  14    9.51    4.87
   3  -5  14   12.33    5.40
   3   5  14   16.44    5.77
  -3  -5 -14   12.31    6.34
  -3   5  14   26.07    8.57
  -3  -5  14   11.98    4.60
  -3  -5  14   24.55    6.96
   3   5  14   11.52    5.38
  -3   5  14   11.94    5.52
   3  -5  15   56.35   11.26
   3   5  15   55.91   10.75
  -3   5  15   52.05   10.66
  -3  -5 -15   70.07   14.06
  -3  -5  15   45.35    9.57
  -3   5  15   47.10   10.29
  -3  -5  15   50.06   10.22
   3   5  15   51.04    9.87
   3  -5  15   61.63   11.52
  -3  -5  15   71.19   12.83
  -3  -5  16  365.13   28.38
   3  -5  16  343.75   28.53
   3   5  16  356.78   27.62
  -3   5  16  406.40   31.09
  -3  -5 -16  422.22   32.11
  -3  -5  16  365.59   29.06
  -3   5  16  346.06   28.74
   3   5  16  384.62   29.61
  -3  -5  16  328.70   29.86
  -3  -5  17  121.01   16.31
   3   5  17  129.35   16.86
   3  -5  17  156.79   19.45
  -3  -5 -17  164.88   20.97
  -3  -5  17  154.98   20.06
  -3   5  17  159.95   19.82
   3   5  17  115.01   17.23
  -3   5  17  113.19   17.32
   3   5  18   16.81    7.30
  -3   5  18   39.28    9.40
  -3  -5 -18   18.82    7.28
  -3  -5  18   15.91    7.18
  -3   5  18   28.65    9.47
  -3  -5  18   14.02    6.30
   3   5  18   22.59    7.43
   3  -5  18   24.84    9.49
  -3   5  19   14.60    5.65
  -3  -5 -19   22.28    9.15
  -3  -5  19   26.85    8.63
   3   5  19   22.32    7.57
  -3  -5  19   23.67    8.97
   3  -5  19   33.11    8.62
   3   5  19   41.58   11.33
  -3   5  19   30.59    8.07
   3  -5  19   27.76    8.45
  -3   5  20   71.12   14.95
  -3  -5  20   76.15   15.36
   3  -5  20   68.07   13.97
  -3  -5 -20   82.15   16.09
  -3   5  20   67.75   14.72
   3   5  20   86.48   15.72
  -3  -5  20   75.49   14.16
   3   5  20   83.18   16.29
   3  -5  20   65.98   14.24
  -3  -5  21   92.68   15.75
   3  -5  21  103.20   17.52
  -3  -5 -21  127.73   20.60
  -3   5  21   76.10   14.20
  -3  -5  21  116.87   17.68
   3   5  21  139.31   19.45
  -3   5  21  106.22   18.63
   3  -5  21   94.01   17.13
   3   5  21   96.62   16.85
  -3  -5  22   86.01   15.73
  -3  -5  22   83.88   15.03
  -3  -5 -22   85.79   16.43
   3  -5  22   84.94   15.43
  -3   5  22   98.63   17.78
   3   5  22   74.07   15.42
  -3   5  22   84.21   16.13
   3  -5  22   75.35   15.72
   3   5  22  103.54   18.04
  -3   5  23   11.48    9.33
   3   5  23    2.67    4.26
  -3  -5  23    4.97    2.45
  -3  -5 -23    4.45    5.96
  -3   5  23    4.78    3.14
   3  -5  23   -0.58    3.30
  -3  -5  23   -2.42    3.67
   3   5  23   -1.89    4.74
   3  -5  23    8.01    7.47
  -3  -5  24  185.28   24.33
   3  -5  24  239.74   27.84
  -3   5  24  236.77   27.50
  -3  -5  24  208.79   26.25
  -3   5  24  197.69   25.06
   3  -5  24  209.79   26.14
   3   5  24  237.17   27.34
   3   5  24  238.27   27.61
  -3   5  25    2.08    5.85
   3   5  25    2.06    3.39
  -3   5  25    8.16    7.13
  -3  -5  25    2.13    7.39
   3  -5  25    2.60    5.24
   3   5  25    3.55    3.75
  -3  -5 -25    6.53    6.35
  -3  -5  25   -4.23    5.80
   3  -5  25    7.02    5.91
  -3   5  26   74.17   16.34
  -3  -5  26   85.30   19.29
   3   5  26   42.64   11.64
  -3   5  26   47.52   13.19
   3  -5  26   57.53   14.16
  -3  -5 -26   21.98   12.60
  -3  -5  26   65.52   15.64
   3  -5  26   74.67   17.16
   3   5  26   65.26   14.26
  -3   5  27   26.77   10.63
   3   5  27   19.79    9.62
   3  -5  27   22.50    8.67
  -3  -5 -27    9.97    8.84
  -3   5  27   45.03   11.70
  -3  -5  27   25.80    8.54
   3   5  27   18.70    8.15
   3  -5  27   26.72    8.94
  -3   5  28   16.54    8.91
   3  -5  28   29.25   12.05
  -3  -5 -28   19.94   11.10
  -3   5  28   33.42   13.16
   3   5  28   22.14   10.77
  -3  -5  28   30.65   10.87
   3  -5  28   33.27   12.71
   3   5  28   17.18    8.79
  -3   5  29   -3.23    4.10
   3  -5  29   -3.64    6.21
   3   5  29   -5.27    5.36
  -3  -5 -29    5.49    5.32
  -3  -5  29   -2.13    2.77
  -3   5  29   12.80    9.33
   3   5  29   -2.26    3.36
   3  -5  29   -0.32    2.94
  -3   5  30    8.88    5.21
   3   5  30   43.32   13.01
  -3   5  30   33.89   11.77
  -3  -5 -30   20.05    7.22
   3  -5  30   38.57   11.33
  -3  -5  30    7.62    2.47
   3   5  30   22.43    6.95
   3  -5  30   45.71   14.42
   3  -6   0   -2.18    1.18
  -3  -6   0   -0.30    2.89
   3  -6   0    0.98    2.26
  -3  -6   0   -0.64    1.37
  -3  -6   1    8.10    2.86
  -3  -6   1   18.95    6.42
  -3  -6  -1   15.14    3.45
   3  -6   1    9.88    3.27
   3  -6  -1   10.54    4.39
   3  -6  -1    5.25    4.03
  -3   6   1    6.27    4.02
  -3  -6  -1   14.92    4.43
   3  -6   1   -1.11    2.71
  -3  -6   2  409.15   26.81
   3  -6   2  381.29   24.48
  -3  -6  -2  373.50   26.16
   3  -6  -2  382.59   24.72
  -3   6   2  426.28   28.04
  -3  -6   2  377.91   20.00
   3  -6   2  364.20   25.54
  -3  -6   2  379.81   11.01
   3  -6  -2  404.96   26.68
   3  -6  -3   26.85    7.48
  -3  -6   3   43.88    8.91
   3  -6   3   31.35    6.69
  -3  -6   3   35.82    6.03
  -3  -6  -3   31.13    6.77
   3  -6   3   26.17    7.59
   3  -6  -3   34.24    7.47
  -3  -6   3   27.23    4.00
   3   6   3   44.84    7.58
  -3   6   3   40.57    9.06
   3  -6   4   39.24    8.26
  -3  -6   4   41.09    6.79
   3  -6   4   36.62    7.88
  -3  -6   4   30.60    7.19
  -3  -6  -4   42.89    9.79
   3  -6  -4   57.91   10.32
  -3   6   4   50.84   10.14
  -3  -6   4   37.26    4.92
   3   6   4   46.49    7.69
   3  -6  -4   40.68    8.43
  -3  -6   5   44.68    6.86
  -3  -6   5   52.38   10.15
   3  -6   5   54.22    9.64
   3  -6   5   65.54   12.04
   3  -6  -5   50.27    8.71
   3  -6  -5   50.54    9.66
  -3  -6  -5   43.01    8.76
  -3  -6   5   32.14    5.63
   3   6   5   50.82    8.51
  -3   6   5   36.40    7.51
  -3  -6   6  111.64   14.36
   3  -6   6  140.74   15.03
   3  -6   6  108.42   14.00
  -3  -6  -6  117.41   14.80
  -3  -6   6  127.07   11.87
   3  -6  -6  105.22   13.30
  -3  -6   6   81.65    9.76
  -3   6   6  116.76   15.15
   3   6   6   98.69    6.43
   3  -6  -6  151.69   16.20
   3   6   6  130.12   13.69
   3   6   7   -1.27    1.16
   3  -6   7    0.76    2.38
  -3  -6   7    1.06    2.93
   3  -6   7    0.89    1.78
  -3   6   7    0.08    1.88
  -3  -6   7   -0.58    1.98
   3  -6  -7    3.48    3.98
  -3  -6  -7    1.78    3.36
   3   6   7   -0.15    1.31
  -3  -6   7    1.05    2.29
   3  -6   8   60.90   10.21
   3  -6   8   58.48    9.60
  -3  -6   8   57.30   10.47
  -3  -6  -8   75.47   11.98
   3  -6  -8   51.43    9.58
  -3  -6   8   63.39    8.56
   3   6   8   47.58    6.32
  -3  -6   8   57.51    8.69
   3   6   8   63.78   10.25
  -3   6   8   72.86   12.24
   3   6   9   19.31    6.16
   3  -6   9    7.81    5.15
  -3  -6   9   18.94    4.62
  -3  -6   9   13.92    5.56
   3  -6   9    9.03    1.41
  -3  -6  -9   27.43    7.19
  -3   6   9   14.43    6.69
   3  -6  -9   18.82    7.64
   3   6   9   21.83    4.94
  -3   6   9   24.14    7.84
  -3  -6   9   10.78    4.48
  -3  -6  10    7.24    3.21
   3   6  10    2.64    2.89
  -3  -6  10   10.23    4.75
   3  -6  10    9.86    4.52
  -3   6  10    6.38    4.19
   3  -6  10   10.61    5.83
  -3  -6 -10    3.83    4.12
   3  -6 -10    0.59    1.87
   3   6  10   12.44    4.12
  -3   6  10    5.01    4.25
  -3  -6  10    6.32    2.15
   3   6  11    9.75    3.86
   3  -6  11    5.58    3.20
  -3  -6  11    8.15    3.36
  -3   6  11   23.84    7.87
   3  -6  11    3.51    6.23
   3  -6 -11    9.32    5.48
  -3  -6 -11   17.94    7.24
   3   6  11   17.43    5.73
  -3   6  11    8.74    4.80
  -3  -6  11   15.45    4.98
  -3  -6  11    5.29    1.42
   3   6  12   -5.98    6.17
   3  -6  12    2.51    3.91
  -3  -6  12    2.28    2.31
  -3  -6  12   -1.35    1.95
   3  -6  12    1.55    2.30
  -3  -6 -12    0.88    4.60
   3  -6 -12    1.02    4.15
  -3   6  12    2.93    4.65
   3   6  12   -0.51    2.47
  -3  -6  12    4.73    5.10
  -3   6  12   -3.60    1.86
   3   6  13   32.41    7.05
   3  -6  13   50.85   10.94
  -3  -6 -13   68.91   11.96
  -3  -6  13   29.24    8.36
  -3   6  13   43.02   10.56
   3  -6 -13   43.63    9.80
   3  -6  13   59.93   11.73
   3   6  13   50.48    9.25
  -3  -6  13   46.34    9.01
  -3  -6  13   48.95   10.67
  -3   6  13   45.20   10.34
  -3  -6  14   81.98   13.36
  -3  -6 -14   94.12   15.01
   3   6  14   86.40   13.67
  -3   6  14   90.60   14.43
   3  -6  14   94.49   15.19
   3  -6 -14   66.72   12.81
   3   6  14   59.03   10.43
  -3   6  14   64.57   14.23
  -3  -6  14   54.88    9.99
   3  -6  14   97.47   15.18
  -3  -6  14   71.48   13.87
   3  -6  15    7.16    6.22
  -3  -6  15    9.85    6.06
  -3  -6 -15    6.26    6.38
   3  -6  15   13.45    6.53
   3   6  15   16.66    5.88
  -3  -6  15    2.91    2.86
  -3   6  15    5.02    3.59
  -3  -6  15   10.28    5.58
   3   6  15    4.05    2.10
  -3   6  15   15.33    7.10
   3  -6 -15   18.17    8.14
   3  -6  16   -2.69    4.62
  -3  -6  16   -0.29    4.84
   3  -6  16   -1.67    3.74
   3   6  16    5.92    2.51
  -3   6  16    3.78    4.29
  -3  -6  16   -1.32    3.60
  -3  -6 -16    0.06    2.78
   3   6  16   -0.33    1.37
   3  -6 -16   -4.56    6.93
  -3   6  16    0.10    4.21
  -3  -6  16    1.87    3.72
   3  -6  17   12.76    8.48
  -3  -6  17    1.57    4.07
   3   6  17   10.19    4.09
  -3  -6 -17    3.15    5.18
  -3  -6  17   14.00    5.44
  -3   6  17   13.36    5.12
   3  -6 -17    6.18    6.29
   3   6  17    0.89    1.83
  -3  -6  17   15.78    6.93
  -3   6  17   21.40    8.19
  -3  -6  18    8.90    3.72
   3   6  18    2.65    4.38
  -3   6  18   19.49    5.27
  -3  -6 -18    6.99    2.08
   3  -6 -18   12.85    7.46
   3   6  18   12.22    6.27
  -3   6  18    1.69    3.15
  -3  -6  18    7.37    3.80
   3  -6  18   13.64    6.83
   3   6  19   13.52    7.99
  -3   6  19    8.68    3.68
  -3   6  19    4.20    3.02
  -3  -6  19    4.62    3.86
  -3  -6 -19    4.89    4.44
   3  -6 -19    3.07    5.78
   3  -6  19   12.12    5.36
   3   6  19   11.50    6.67
  -3  -6  19    1.66    3.57
   3  -6  19    5.02    4.72
   3   6  20   12.12    5.15
  -3  -6  20    8.45    7.62
  -3  -6  20   -4.73    5.59
  -3  -6 -20   16.57    8.54
  -3   6  20   26.00    9.37
   3  -6 -20   -1.42    4.88
   3   6  20   22.06    7.33
   3  -6  20    8.24    5.66
  -3   6  20   21.89    6.73
   3  -6  20   18.96    7.69
   3   6  21    1.60    4.44
   3  -6 -21    2.21    2.95
  -3  -6  21   -3.12    5.96
  -3  -6 -21    5.73    7.57
  -3   6  21   -0.56    7.33
  -3   6  21   -1.85    2.49
   3   6  21    4.85    4.42
  -3  -6  21   -0.90    4.47
   3  -6  21   -2.82    4.52
   3  -6  21    4.85    2.51
  -3  -6 -22    5.79    5.23
   3   6  22    2.53    3.97
  -3  -6  22    3.66    4.03
  -3   6  22    0.12    3.76
  -3  -6  22   -1.27    1.96
   3  -6 -22    9.00    8.09
   3   6  22    1.84    4.31
   3  -6  22    4.11    1.84
   3  -6  22    6.41    9.42
  -3   6  22   -6.58    4.42
  -3   6  23    9.02    5.89
   3   6  23   -3.81    6.60
  -3  -6 -23    4.86    3.34
   3  -6 -23    4.54    5.97
  -3   6  23   -4.31    4.99
   3  -6  23    6.34    2.28
   3   6  23   -3.69    3.59
  -3  -6  23   -0.91    3.84
   3  -6  23   11.83    9.10
   3   6  24    8.38    6.45
   3  -6  24   22.34    7.37
  -3  -6 -24   10.70    7.37
  -3   6  24   13.40    8.12
   3  -6 -24    2.44    7.17
   3  -6  24    9.78    7.05
   3   6  24    9.07    9.00
  -3  -6  24   -3.84    5.26
  -3   6  24   13.87    8.97
   3   6  25    4.16    4.71
  -3   6  25    2.39    5.61
   3   6  25    6.39    8.31
   3  -6 -25    4.65    6.35
  -3  -6 -25   -3.01    6.61
  -3  -6  25    3.37    5.75
   3  -6  25    6.57    6.67
   3  -6  25    4.93    5.43
  -3   6  25    4.23    7.26
   3   6  26   -2.30    5.76
  -3   6  26    0.66    3.89
   3  -6 -26    7.75    9.95
   3  -6  26    1.50    4.48
  -3  -6 -26   -0.97    6.84
   3   6  26    6.65    8.01
  -3  -6  26   11.05    7.39
   3  -6  26   -1.52    5.07
  -3   6  26    3.68    5.32
   3   6  27   -5.33    8.33
  -3   6  27   10.55    8.15
  -3  -6 -27    3.31    6.22
   3  -6 -27   -1.75    3.76
  -3  -6  27    6.84    5.42
   3   6  27   17.16    9.52
   3  -6  27   -6.73    8.47
   3  -6  27   -2.32    3.74
  -3   6  27    7.79    6.26
   3   6  28   -0.65    4.67
   3  -6  28    4.27    4.34
  -3  -6 -28   -0.63    6.66
  -3   6  28   -7.77    5.24
   3  -6 -28    4.39    7.43
  -3  -6  28   12.31    8.82
   3  -6  28    4.09    3.98
  -3   6  28    4.56    7.40
   3  -6  29   48.74   14.14
   3   6  29   36.48   12.22
  -3  -6 -29   26.89   11.85
  -3   6  29   39.99   13.00
   3  -6 -29   36.20   10.13
  -3  -6  29   26.36    8.65
   3  -6  29   26.69   10.15
  -3   6  29   21.06    8.09
   3  -7   0    3.75    4.34
  -3  -7   0    3.13    4.35
   3  -7   0    2.21    3.49
  -3  -7   0    2.68    2.65
  -3  -7  -1  497.98   26.04
  -3  -7   1  509.79   32.11
  -3  -7  -1  587.10   34.13
   3  -7   1  517.26   30.99
   3  -7  -1  500.65   30.37
  -3  -7   1  557.77   27.71
  -3   7   1  490.03   30.95
   3  -7   1  508.95   31.79
   3  -7  -1  515.68   32.85
  -3   7   2   16.79    5.52
  -3  -7  -2   36.03    6.58
  -3  -7   2   25.68    6.98
   3  -7   2   33.44    8.44
  -3  -7  -2   25.75    7.50
   3  -7  -2   19.82    6.92
   3  -7  -2   14.82    6.15
  -3  -7   2   21.99    5.46
   3  -7   2   41.66    8.95
   3  -7  -3  693.40   37.18
  -3  -7  -3  721.94   38.31
  -3  -7   3  673.45   37.10
   3  -7   3  665.60   35.10
   3  -7  -3  652.14   35.11
  -3  -7   3  648.32   29.01
  -3   7   3  684.16   37.03
   3  -7   3  691.67   37.19
  -3  -7   4 1039.10   46.65
   3  -7   4 1007.27   43.13
   3  -7  -4  960.93   43.03
  -3  -7  -4 1012.56   45.14
  -3  -7   4 1026.46   36.46
   3  -7  -4  998.66   43.88
   3  -7   4 1042.93   45.00
  -3   7   4 1033.36   46.36
  -3  -7   5  937.12   44.50
  -3  -7   5  864.28   33.88
   3  -7   5  949.76   42.26
  -3   7   5 1004.87   45.59
   3  -7  -5  930.29   42.29
  -3  -7  -5  899.97   43.74
   3  -7   5  940.25   43.49
   3  -7  -5  960.93   43.17
   3   7   5  921.48   37.88
  -3  -7   5  842.43   27.60
  -3  -7   6  160.00   18.50
   3  -7   6  153.63   17.44
   3  -7   6  161.61   18.22
  -3  -7  -6  182.34   19.63
   3  -7  -6  176.18   18.42
   3  -7  -6  128.40   15.58
  -3   7   6  157.42   17.75
  -3  -7   6  151.15   12.76
   3   7   6  144.49   15.21
  -3  -7   6  153.61   14.29
  -3  -7  -7   -0.78    2.33
  -3   7   7    2.04    2.64
  -3  -7   7    1.25    3.24
   3  -7   7    6.31    6.00
   3  -7  -7   -0.71    5.42
  -3  -7   7    0.16    1.87
   3   7   7    1.19    1.11
   3  -7  -7    1.90    2.22
  -3  -7   7   -2.24    2.37
   3  -7   7   -2.83    2.95
   3   7   7   -1.78    3.07
  -3  -7   8  295.60   26.44
   3  -7   8  306.40   24.59
   3  -7   8  300.04   24.94
  -3  -7  -8  243.86   22.96
   3  -7  -8  267.49   23.22
  -3   7   8  299.75   25.33
  -3  -7   8  312.26   20.97
   3   7   8  248.31   13.26
   3   7   8  282.34   22.74
  -3  -7   8  303.25   21.15
  -3  -7   9  544.13   35.46
   3  -7   9  577.48   34.65
  -3  -7  -9  579.16   35.79
   3  -7  -9  553.33   34.34
   3   7   9  540.39   21.87
  -3  -7   9  563.87   29.43
  -3   7   9  552.02   34.95
  -3  -7   9  479.69   27.74
   3  -7   9  618.30   36.24
  -3  -7  10   58.84   12.17
   3  -7  10   54.37   10.63
  -3  -7 -10   69.20   12.89
   3  -7 -10   73.53   13.43
  -3   7  10   64.10   12.09
  -3  -7  10   68.14   10.85
  -3  -7  10   58.08    9.99
  -3   7  10   53.18   11.62
   3   7  10   49.46    7.44
   3   7  10   71.54   11.40
   3  -7  10   66.24   12.09
  -3  -7  11    3.81    3.51
  -3  -7  11    6.74    5.44
   3  -7  11   -1.50    4.91
  -3   7  11    0.50    1.64
   3  -7  11    2.29    2.97
   3  -7 -11   -0.86    2.19
   3   7  11    5.07    2.74
  -3   7  11    7.29    3.01
  -3  -7  11    2.82    3.16
  -3  -7 -11    9.64    5.77
   3   7  11    6.23    5.23
   3  -7  12   96.14   15.31
  -3  -7  12   96.26   15.44
  -3  -7 -12  117.09   16.97
   3  -7 -12   99.84   16.85
  -3   7  12   97.33   14.60
   3   7  12  119.56   13.08
  -3  -7  12   94.93   14.16
  -3   7  12  101.44   15.42
   3   7  12  102.35   15.30
   3  -7  12  105.74   15.56
  -3  -7  12   79.11   11.98
   3  -7  13  794.46   43.53
  -3  -7  13  816.55   45.31
  -3  -7  13  803.90   39.90
  -3  -7  13  794.15   41.76
  -3  -7 -13  767.43   43.24
  -3   7  13  785.52   43.71
   3   7  13  742.33   35.26
  -3   7  13  730.59   41.32
   3  -7  13  860.94   45.12
   3   7  13  818.33   43.25
   3  -7  14   12.89    6.34
  -3  -7  14   17.71    7.54
   3  -7  14   12.89    4.65
   3  -7 -14   15.30    7.09
  -3  -7 -14   12.09    4.95
  -3   7  14   22.39    7.46
   3   7  14   22.91    6.96
   3   7  14   15.89    5.84
  -3  -7  14   17.59    7.00
  -3   7  14   13.95    5.46
  -3  -7  14   25.69    6.03
   3   7  15    5.86    4.33
   3  -7  15   11.25    5.77
  -3  -7  15   12.62    5.78
   3  -7  15   15.31    6.15
  -3  -7 -15    6.53    6.91
  -3   7  15    7.42    5.56
   3  -7 -15    4.79    3.60
   3   7  15   -0.23    4.44
  -3  -7  15   -0.62    4.64
  -3   7  15   -0.79    3.17
  -3  -7  15   12.01    5.38
  -3   7  16   30.91    9.97
   3   7  16   18.99    7.29
   3  -7  16   25.51    7.69
  -3  -7  16   14.36    7.11
   3  -7  16   17.15    6.43
  -3  -7 -16   27.75    8.54
   3  -7 -16   22.80    8.92
  -3   7  16   30.94    7.92
  -3  -7  16   25.19    7.93
   3   7  16   25.59    8.37
  -3  -7  16   22.94    8.55
  -3  -7  17  349.68   30.45
  -3  -7  17  341.84   28.82
  -3  -7 -17  321.60   30.05
  -3   7  17  305.76   28.78
   3  -7  17  317.66   29.05
   3  -7 -17  344.39   30.56
   3   7  17  287.59   25.98
  -3   7  17  322.19   28.86
   3   7  17  311.45   29.19
   3  -7  17  280.53   27.86
  -3  -7  17  349.97   31.70
   3  -7  18   19.68    8.35
  -3  -7  18   13.45    6.63
   3   7  18   -3.20    5.61
  -3   7  18    0.84    3.52
  -3  -7 -18    6.66    5.51
   3  -7 -18    6.19    3.38
  -3  -7  18    5.90    5.48
   3   7  18    5.97    6.26
  -3  -7  18    0.52    2.49
  -3   7  18    4.05    5.16
   3  -7  18   11.39    7.62
  -3  -7  19  210.07   24.03
  -3  -7 -19  225.40   25.76
  -3   7  19  231.61   25.23
   3  -7  19  195.67   23.68
   3  -7 -19  172.48   22.59
  -3   7  19  218.54   26.34
  -3  -7  19  223.76   25.19
   3   7  19  217.78   24.86
   3  -7  19  166.13   22.48
  -3  -7  19  220.85   25.75
   3   7  20   43.38   11.72
  -3  -7  20   28.99   11.09
   3  -7  20   39.05   12.39
  -3  -7 -20   36.15   11.73
   3  -7 -20   42.99   11.26
  -3   7  20   28.96   11.30
  -3   7  20   25.08   10.62
   3  -7  20   45.16   12.27
   3   7  21   37.24   10.81
  -3  -7 -21   14.33   11.68
  -3   7  21   66.37   14.53
   3  -7 -21   24.28   11.64
  -3  -7  21   47.44   12.74
   3  -7  21   60.91   13.87
  -3   7  21   62.05   13.42
   3  -7  21   51.05   13.31
   3   7  22   24.82    8.51
   3  -7  22   30.97   10.41
  -3   7  22   28.05    9.70
  -3   7  22   12.34    5.52
  -3  -7 -22   43.38   12.51
   3  -7 -22   36.40   11.17
  -3  -7  22   11.58    7.09
   3  -7  22   15.14    7.63
   3  -7  23  184.52   24.80
   3  -7 -23  215.66   26.33
  -3   7  23  213.94   26.77
  -3  -7  23  181.29   24.52
  -3   7  23  230.62   26.17
   3   7  23  210.88   26.25
   3  -7  23  215.95   27.26
   3   7  24   -3.89    5.11
  -3  -7 -24   -4.40    4.99
   3  -7 -24    2.12    4.32
  -3   7  24    6.04    5.21
   3  -7  24    3.71    2.58
  -3  -7  24    1.72    5.45
  -3   7  24   -2.48    3.40
   3  -7  24    3.51    3.76
   3  -7 -25   25.21   12.00
   3   7  25   32.19    9.90
  -3  -7 -25   55.22   16.61
   3  -7  25    9.66    4.40
  -3   7  25   45.79   14.71
  -3  -7  25   42.71   14.16
   3  -7  25   34.49   11.38
  -3   7  25   41.80   11.00
   3   7  26    0.16    6.36
  -3  -7 -26   -6.66    7.57
  -3   7  26    7.66    7.26
   3  -7  26    0.92    3.47
  -3  -7  26   -4.26    4.00
   3  -7  26   -2.56    6.36
  -3   7  26   -4.44    5.28
   3  -7 -26   -3.08    4.95
  -3  -7 -27  251.07   31.06
   3  -7  27  289.28   32.11
   3  -7 -27  217.46   29.35
  -3   7  27  190.71   26.28
  -3  -7  27  213.72   27.97
  -3   7  27  235.64   29.95
   3  -7  27  276.87   31.20
   3   7  27  287.02   31.74
  -3  -7 -28    7.62    5.33
   3   7  28    6.67    6.05
  -3   7  28   14.55    9.72
   3  -7  28   22.27    6.95
   3  -7 -28    7.74    6.40
  -3  -7  28    7.89    6.34
   3  -7  28   10.50    5.72
  -3   7  28    4.81    4.39
   3  -8   0    1.41    1.69
  -3  -8   0   -1.15    2.73
  -3  -8   0   -0.47    4.04
   3  -8   0   -2.24    2.07
   3  -8  -1   19.90    7.85
  -3  -8   1   15.72    5.38
  -3  -8  -1   27.28    8.32
   3  -8   1   13.28    5.51
   3  -8  -1   13.21    5.86
  -3  -8  -1   20.16    5.98
   3  -8   1   11.56    4.88
  -3  -8   1   13.97    5.53
  -3  -8   2   -0.32    3.12
   3  -8   2   -0.97    2.04
  -3  -8  -2   -1.88    5.38
  -3  -8  -2    3.19    4.25
   3  -8  -2    3.31    4.97
   3  -8  -2   -1.45    4.01
  -3  -8   2    1.08    2.57
   3  -8   2    2.49    4.55
  -3   8   2   -0.33    1.40
  -3  -8   3  124.04   17.59
  -3   8   3   93.04   14.34
   3  -8   3  136.31   17.04
  -3  -8  -3  107.64   15.87
   3  -8  -3  110.70   14.92
  -3  -8  -3  137.07   15.12
  -3  -8   3  126.74   14.27
   3  -8   3  114.72   15.59
   3  -8  -3   94.77   14.92
   3  -8  -4   38.07    9.24
  -3  -8   4   65.42   12.36
   3  -8  -4   46.39    9.88
   3  -8   4   61.09   11.72
  -3  -8   4   62.54    9.54
   3  -8   4   58.71   10.66
  -3  -8  -4   48.30   10.72
  -3   8   4   54.47   11.28
   3  -8   5   42.41    9.38
  -3  -8   5   43.81   11.34
   3  -8   5   46.94    9.89
  -3  -8  -5   38.42    9.13
   3  -8  -5   43.98   10.52
   3  -8  -5   42.16    9.73
  -3   8   5   41.20   10.67
  -3  -8   5   37.15    7.90
   3  -8   6   47.64   10.56
  -3  -8   6   44.65    8.45
  -3  -8   6   68.92   12.64
   3  -8   6   57.95   11.54
  -3  -8  -6   41.16   10.90
   3  -8  -6   49.97   10.10
  -3   8   6   54.34   12.11
   3   8   6   50.36   10.44
   3  -8  -6   36.43    8.00
  -3  -8   7   16.74    5.65
  -3  -8   7   17.53    6.80
   3  -8   7   15.38    5.97
  -3  -8  -7   11.85    5.61
   3  -8  -7   10.54    4.93
  -3   8   7   14.57    5.94
   3  -8  -7   27.94    9.24
   3   8   7   18.07    6.01
   3  -8   7   15.53    6.28
  -3  -8   8  123.44   17.34
   3  -8   8  102.18   14.47
   3  -8   8  104.30   15.56
   3  -8  -8   83.15   13.37
  -3  -8  -8  101.50   15.51
   3  -8  -8   95.06   15.10
  -3   8   8   99.72   15.77
   3   8   8   96.61   13.35
  -3  -8   8   90.09   12.40
   3  -8   9  159.55   18.95
   3  -8   9  179.38   19.65
  -3  -8  -9  143.80   18.71
   3  -8  -9  153.90   18.97
  -3  -8   9  133.73   18.65
   3   8   9  146.00   17.62
  -3  -8   9  172.19   17.32
  -3  -8  10   39.25   10.52
   3  -8  10   34.86    9.17
  -3  -8  10   31.68    7.68
   3  -8  10   36.15    9.21
  -3   8  10   20.55    7.10
  -3  -8 -10   12.90    4.08
  -3  -8  10   47.82   11.43
   3  -8 -10   34.10   10.82
   3   8  10   25.57    7.39
  -3  -8  11   12.55    7.79
  -3  -8  11    1.89    3.79
   3  -8  11    9.48    4.17
  -3  -8 -11    8.12    4.29
   3  -8 -11    5.52    5.92
   3  -8  11    8.78    6.43
  -3   8  11    5.75    6.00
  -3  -8  11    4.84    4.19
   3   8  11   18.09    6.30
  -3  -8  12   27.20    7.44
  -3  -8  12   11.12    6.42
   3  -8  12   17.96    7.89
   3  -8 -12   29.79    9.90
   3  -8  12   11.55    6.10
  -3  -8 -12   26.09    8.66
  -3   8  12   27.73    6.86
  -3   8  12   26.13    7.65
  -3  -8  12   32.50    9.04
   3   8  12   25.20    9.36
  -3  -8  13   11.32    6.36
   3  -8  13   11.00    5.98
  -3  -8  13   11.98    6.62
   3  -8  13   15.57    4.96
   3  -8 -13    8.21    4.08
  -3  -8 -13    5.03    6.25
  -3   8  13    3.22    5.36
  -3   8  13    7.72    1.80
  -3  -8  13   10.39    5.11
   3   8  13   10.64    5.19
   3  -8  14   -2.00    3.44
  -3  -8  14   -1.23    6.01
   3  -8  14   -1.06    3.17
   3  -8 -14   -6.41    6.11
  -3   8  14   -0.74    5.16
  -3   8  14    0.28    1.56
  -3  -8  14    8.34    5.17
  -3  -8  14    1.43    2.45
  -3  -8 -14   -3.27    4.83
   3   8  14    7.48    5.26
   3  -8  15   57.16   11.49
  -3  -8  15   48.98   10.84
   3  -8  15   77.07   14.51
   3  -8 -15   24.38    7.63
  -3  -8  15   70.79   12.75
  -3  -8 -15   51.83   12.58
  -3   8  15   93.41   15.62
  -3   8  15   50.31   12.59
  -3  -8  15   52.67   11.88
   3   8  15   55.49   11.86
   3  -8  16   -0.65    1.86
  -3  -8  16    9.82    7.67
   3  -8  16    2.44    5.22
   3   8  16   -1.56    4.45
  -3  -8 -16   -3.92    5.17
  -3   8  16    0.53    2.83
   3  -8 -16    2.75    7.13
  -3   8  16    3.78    4.78
  -3  -8  16    2.23    5.23
   3  -8  17   68.20   14.57
  -3  -8 -17   68.69   15.18
   3  -8  17   76.74   14.42
   3  -8 -17   76.69   15.03
  -3   8  17   66.81   14.30
  -3   8  17   81.98   15.19
  -3  -8  17   77.42   13.49
  -3  -8  17   77.41   15.52
   3   8  17   65.16   14.76
   3   8  18    3.40    2.63
   3  -8  18    7.67    5.32
  -3  -8  18    5.57    4.35
   3  -8  18   15.97    7.25
   3  -8 -18   15.47    8.97
  -3  -8 -18   15.21    7.82
  -3   8  18   -3.73    5.21
  -3  -8  18    2.51    6.06
  -3   8  18    5.25    5.58
   3   8  19   11.44    7.10
   3  -8  19    5.57    6.67
  -3  -8  19    5.85    5.74
  -3  -8 -19    7.84    6.50
   3  -8 -19   11.17    7.02
  -3   8  19   -0.50    3.64
  -3  -8  19   15.81    9.61
  -3   8  19   11.38    5.17
   3  -8  19    3.03    3.23
   3  -8  19   -0.12    5.91
   3   8  20   35.26   10.12
  -3  -8  20   17.02    6.69
  -3   8  20   34.77   10.79
  -3   8  20   21.23    8.70
  -3  -8 -20   11.12    7.53
   3  -8 -20   27.90   10.14
  -3  -8  20   21.95    9.02
   3  -8  20   25.95    9.54
   3  -8  20   23.50    8.98
   3   8  21    3.08    5.85
  -3  -8 -21   -4.47    6.52
  -3   8  21    1.18    2.19
  -3  -8  21    4.26    6.54
   3  -8 -21   -5.65    6.70
  -3   8  21   -5.09    5.34
   3  -8  21    2.21    5.45
   3  -8  21    4.76    6.77
   3   8  22    3.59    7.38
   3  -8 -22   13.29    6.31
  -3  -8 -22   15.57    8.05
  -3   8  22   12.55    9.86
  -3  -8  22   -2.35    5.62
  -3   8  22    5.14    4.36
   3  -8  22    8.03    3.58
   3  -8  22    6.13    3.23
   3   8  23   -2.78    3.84
   3  -8 -23    8.45    7.02
  -3  -8 -23   -1.33    5.11
  -3   8  23   -1.69    2.52
  -3  -8  23   -2.59    4.35
   3  -8  23   -1.87    6.20
  -3   8  23    4.21    5.86
   3  -8  23    4.77    6.49
   3   8  24   -2.50    4.52
   3  -8 -24   11.80    7.87
  -3   8  24   20.51    8.28
  -3  -8  24    4.89    4.67
   3  -8  24    5.97    5.79
  -3   8  24    4.99    2.11
   3  -8  24   11.97    8.37
  -3  -8 -24   21.11   10.55
   3   8  25   -3.31    3.25
   3  -8  25   17.17    8.27
   3  -8  25    5.32    4.66
  -3  -8 -25    2.98    3.82
  -3   8  25    1.39    5.03
   3  -8 -25   -5.03    6.82
  -3  -8  25    3.76    6.04
  -3   8  25    3.43    3.70
   3   8  26    0.05    3.09
  -3  -8 -26   -0.03    5.81
   3  -8 -26   -2.87    5.19
  -3   8  26   10.44    7.05
   3  -8  26   -0.64    4.50
  -3  -8  26    6.79    6.69
   3  -8  26    2.13    3.65
  -3   8  26   -0.54    5.22
   3   8  27    8.11    5.58
   3  -8 -27    4.10    5.92
  -3  -8 -27    3.88    3.83
  -3   8  27    5.46    4.00
   3  -8  27   -7.54    8.46
  -3  -8  27   12.79    9.40
  -3   8  27    8.00    6.07
   3  -8  27   -0.09    4.43
  -3  -9   0    0.84    2.30
  -3  -9   0   -3.39    3.83
   3  -9   0    6.34    5.91
   3  -9   0   -1.55    2.79
  -3  -9   1  637.51   39.57
  -3  -9  -1  674.45   40.32
   3  -9   1  668.84   39.55
   3  -9  -1  639.18   39.17
  -3  -9   1  687.86   35.97
   3  -9   1  671.89   40.32
   3  -9  -1  722.24   41.92
  -3  -9  -1  626.15   35.14
  -3  -9   2   75.73   13.03
  -3  -9  -2   79.30   14.18
   3  -9   2   61.35   11.10
   3  -9  -2   51.72   11.26
  -3  -9   2   62.77   11.15
   3  -9   2   76.70   13.81
  -3  -9  -2   57.02    9.98
   3  -9  -2   71.92   13.35
  -3  -9   3    3.94    6.67
   3  -9   3   -1.80    5.65
  -3  -9   3    1.60    1.96
  -3  -9  -3    1.07    2.89
   3  -9  -3    1.85    3.91
   3  -9   3    0.75    2.45
  -3  -9  -3   -0.48    2.23
   3  -9  -3    5.93    5.01
  -3   9   3   -3.81    7.29
   3  -9   4  205.78   22.38
  -3  -9  -4  166.16   20.33
   3  -9  -4  199.98   21.70
  -3  -9   4  164.00   17.37
  -3  -9  -4  149.03   16.74
   3  -9   4  192.08   21.33
  -3  -9   4  195.24   22.07
   3  -9  -4  188.94   20.82
  -3   9   4  145.92   18.95
  -3  -9   5 1046.40   51.62
   3  -9  -5  949.67   47.38
   3  -9   5  998.84   49.31
  -3   9   5 1002.23   49.03
  -3  -9   5  918.45   41.00
  -3  -9  -5  955.07   49.30
   3  -9  -5 1008.50   49.28
   3  -9   5  940.09   47.21
  -3  -9  -5  952.62   42.93
  -3  -9   6  211.54   22.48
  -3  -9   6  214.10   19.83
   3  -9   6  207.49   22.09
   3  -9  -6  196.24   21.09
  -3  -9  -6  182.04   21.97
   3  -9   6  197.93   22.05
   3  -9  -6  191.21   21.80
  -3   9   6  215.70   23.12
  -3  -9   7  168.72   21.04
   3  -9   7  164.12   19.60
   3  -9  -7  180.95   20.72
  -3  -9  -7  153.57   20.55
   3  -9  -7  152.02   19.88
   3  -9   7  142.03   18.75
  -3   9   7  151.71   19.10
  -3  -9   7  137.05   15.67
  -3  -9   8  108.27   17.34
   3  -9   8  112.07   16.37
   3  -9   8  146.90   19.01
  -3  -9  -8  108.62   16.96
   3  -9  -8  125.45   17.57
   3  -9  -8  129.07   17.50
  -3   9   8  145.33   18.99
   3   9   8  126.58   17.02
  -3  -9   8  137.90   16.09
  -3  -9   9  362.93   31.48
   3  -9   9  389.83   30.72
   3  -9   9  345.96   28.51
  -3  -9  -9  412.80   33.58
   3  -9  -9  463.37   34.49
   3  -9  -9  401.42   30.97
  -3   9   9  346.70   29.94
   3   9   9  458.99   32.54
  -3  -9   9  405.76   28.21
  -3  -9  10  190.71   23.40
   3  -9  10  185.92   21.84
   3   9  10  155.43   18.70
  -3   9  10  198.57   22.75
   3  -9 -10  122.05   17.47
  -3  -9 -10  164.04   20.46
   3  -9 -10  211.48   23.21
   3  -9  10  191.42   21.85
  -3  -9  10  120.17   16.50
  -3  -9  11   96.79   16.95
  -3   9  11   78.10   15.61
   3  -9  11   71.28   13.85
   3   9  11   54.65   11.01
  -3  -9 -11   74.98   15.35
   3  -9 -11   62.32   13.95
  -3  -9  11   87.73   14.76
   3  -9  11   59.87   12.34
  -3  -9  12   -4.59    3.20
  -3  -9  12   13.21    4.74
   3  -9  12    2.54    1.51
   3  -9  12    6.22    5.65
  -3  -9 -12    7.79    7.27
  -3   9  12    6.41    2.16
   3  -9 -12    8.39    7.27
   3   9  12    3.96    2.64
  -3  -9  13  144.00   20.37
   3  -9  13  128.46   19.00
  -3  -9 -13  132.74   19.89
   3  -9 -13  126.47   19.21
  -3   9  13  144.55   19.84
   3   9  13   92.01   15.78
   3  -9  13  136.18   18.86
  -3  -9  14   81.01   16.72
   3  -9  14   48.01   10.67
   3  -9 -14   74.33   15.37
  -3   9  14   62.17   14.38
  -3  -9 -14   64.35   14.05
   3   9  14   68.70   14.89
   3  -9  14   67.87   14.30
   3   9  15   11.29    6.52
   3  -9  15    5.38    4.10
  -3  -9  15    9.35    6.03
   3  -9  15    1.47    4.23
  -3   9  15   -1.05    2.89
  -3  -9 -15    4.20    5.94
   3  -9 -15   10.29    5.96
  -3   9  15    7.83    7.92
   3  -9  16  274.67   27.99
  -3  -9  16  262.09   27.77
  -3  -9 -16  211.72   25.03
   3  -9 -16  205.42   23.60
  -3   9  16  264.31   29.01
   3  -9  16  259.90   26.84
  -3   9  16  266.37   27.99
   3   9  16  270.90   27.33
  -3  -9 -17  203.70   24.43
   3  -9 -17  209.18   24.54
  -3   9  17  235.21   27.23
  -3   9  17  198.33   23.07
   3   9  17  222.14   25.35
   3  -9  17  191.98   23.35
   3  -9  17  191.31   24.29
  -3  -9  17  188.10   23.96
   3  -9  18    0.47    4.11
  -3  -9  18   11.51    9.00
   3  -9  18    8.21    5.74
   3  -9 -18   10.39    5.85
  -3  -9 -18    2.44    4.48
  -3   9  18    9.28    5.62
  -3   9  18    8.33    4.91
   3   9  18   -4.94    6.35
   3  -9  19  131.38   20.02
  -3  -9 -19   94.38   18.07
   3  -9 -19  120.58   19.73
   3  -9  19  117.36   19.31
  -3   9  19  107.76   19.37
  -3   9  19  136.39   20.99
   3   9  19  159.31   22.32
   3  -9  19  138.98   20.40
  -3  -9  19  132.36   21.58
   3  -9  20   97.54   18.33
  -3  -9  20   64.30   14.30
   3  -9  20  110.33   18.39
  -3  -9 -20  122.16   20.28
  -3   9  20  113.57   19.93
   3  -9  20   72.18   14.88
   3  -9 -20   86.04   17.01
  -3   9  20   92.13   17.18
   3   9  20  101.74   18.36
  -3  -9  21   72.30   16.24
  -3  -9 -21   77.73   16.45
  -3   9  21   41.36   12.83
   3  -9 -21   96.55   18.26
  -3   9  21   66.73   14.01
   3  -9  21   55.97   14.12
   3  -9  21   35.42   10.02
   3   9  21   84.58   16.46
  -3  -9 -22    3.83    7.89
   3  -9  22   -6.56    6.55
   3  -9 -22   -3.89    7.24
   3  -9  22    0.08    3.71
  -3   9  22   -3.69    4.17
  -3   9  22   -1.69    5.51
   3   9  22   -1.17    5.80
  -3  -9 -23  194.36   28.04
   3  -9 -23  179.36   24.98
   3  -9  23  193.23   24.99
  -3   9  23  219.17   26.82
  -3   9  23  211.63   26.13
   3   9  23  223.62   27.71
   3  -9  23  201.95   26.56
  -3  -9 -24   10.27    6.34
   3  -9 -24   21.09   12.50
   3   9  24   36.44   10.40
   3  -9  24   27.18   10.58
  -3   9  24   13.37    7.20
   3  -9  24   48.48   12.11
  -3   9  24   46.25   12.71
  -3  -9 -25   24.23    9.56
   3  -9 -25   12.07    8.34
  -3   9  25   13.15    6.68
   3  -9  25   18.72    7.15
  -3   9  25   42.27   11.89
   3  -9  25   27.91   12.28
   3   9  25   17.66    5.20
  -3  -9 -26   14.84   10.03
   3  -9 -26   17.89    9.58
  -3   9  26   17.26    8.99
   3  -9  26   35.57   12.60
  -3   9  26   18.01    9.02
   3  -9  26   18.33   10.84
   3   9  26   13.36    8.69
   3 -10   0   -1.31    3.42
  -3 -10   0   -2.83    3.50
   3 -10   0   -1.92    4.13
  -3 -10   0    3.43    4.04
   3 -10  -1    3.53    5.60
  -3 -10  -1   -1.34    1.80
  -3 -10   1   -4.36    3.96
  -3 -10  -1    8.00    2.52
   3 -10   1    7.25    5.05
   3 -10  -1   -1.09    2.63
  -3 -10   1   -0.22    2.25
   3 -10   1    0.31    2.27
  -3 -10   2    3.85    3.80
   3 -10  -2    5.00    6.03
  -3 -10   2   -1.22    3.85
   3 -10   2   -0.84    5.13
  -3 -10  -2    6.27    7.13
   3 -10  -2   -1.31    5.15
   3 -10   2    0.46    2.98
  -3 -10  -2   -0.88    3.80
  -3 -10   3    8.77    4.93
   3 -10   3   17.92    8.64
  -3 -10   3   12.36    5.91
  -3 -10  -3   17.05    8.82
   3 -10  -3   13.17    6.70
   3 -10  -3   15.61    5.95
   3 -10   3   11.75    5.64
  -3 -10  -3   26.99    7.57
  -3 -10   4    4.06    2.55
  -3 -10   4    6.98    6.78
   3 -10   4    0.96    3.14
   3 -10   4    9.33    6.09
  -3 -10  -4   13.04    5.85
  -3 -10  -4   14.11    6.22
   3 -10  -4    7.70    3.58
   3 -10  -4    5.92    6.07
  -3 -10  -5   -1.06    2.55
   3 -10   5   -2.54    3.05
  -3 -10   5    1.38    4.13
   3 -10   5    1.60    4.22
  -3 -10  -5   -3.47    5.82
   3 -10  -5   -1.42    3.36
  -3  10   5   -1.12    4.16
   3 -10  -5   -2.17    2.60
  -3 -10   5    3.23    3.29
   3 -10   6    5.64    1.98
  -3 -10  -6    3.97    3.17
   3 -10  -6    7.04    5.81
  -3 -10   6   10.30    8.57
   3 -10   6   -0.27    2.86
  -3 -10  -6    1.19    2.40
   3 -10  -6   15.94    6.25
  -3  10   6    6.60    3.54
  -3 -10   6   10.12    4.55
  -3 -10   7   81.77   14.23
  -3 -10   7   40.76   10.76
   3 -10   7   47.88   10.58
  -3 -10  -7   54.59   14.57
   3 -10  -7   69.78   13.47
   3 -10  -7   43.45   10.07
  -3  10   7   53.14   12.27
   3 -10   7   50.45   10.77
  -3 -10   8  124.87   19.24
   3 -10   8  146.56   20.61
   3 -10   8  114.74   16.65
   3 -10  -8  160.05   20.25
  -3  10   8  130.17   20.09
  -3 -10  -8  126.05   18.57
   3 -10  -8  130.96   19.47
  -3 -10   9   94.56   17.73
   3 -10  -9   60.42   12.19
  -3 -10  -9   75.05   13.64
  -3  10   9   74.36   14.94
   3 -10   9  100.27   16.58
   3 -10   9   59.42   12.81
   3 -10  -9   83.61   15.22
   3 -10  10   69.45   13.71
  -3 -10  10   61.45   13.81
   3 -10  10   60.04   13.50
  -3  10  10   47.21   11.26
  -3 -10 -10   54.82   13.47
   3 -10 -10   42.37   11.62
   3  10  10   61.44   13.17
   3 -10 -10   39.36   10.49
  -3 -10  11    6.94    5.38
   3 -10  11    1.86    4.15
  -3  10  11    5.05    4.27
   3 -10 -11    1.37    3.77
   3 -10 -11   -1.26    3.29
   3 -10  11   -2.75    2.31
   3  10  11   -0.51    3.29
  -3 -10 -11    4.93    5.13
  -3 -10  12    3.20    6.81
   3 -10  12   -0.25    3.11
  -3  10  12    5.79    5.25
  -3 -10 -12    2.27    3.82
   3 -10  12    2.24    1.90
   3 -10 -12   -0.92    2.46
   3 -10 -12   -0.83    4.29
   3  10  12   -1.44    4.94
  -3 -10  13   15.46    8.82
   3 -10  13    7.14    6.41
   3 -10  13    8.15    4.99
  -3 -10 -13    2.24    4.30
  -3  10  13    7.65    6.19
   3 -10 -13    4.02    5.14
   3  10  13    4.42    4.94
  -3 -10  14   26.02   10.77
   3 -10  14   24.75    8.71
   3 -10  14   38.18    9.97
  -3 -10 -14   20.08    8.56
   3  10  14   33.43   10.43
   3 -10 -14   29.13    9.80
  -3  10  14   17.88    7.76
   3 -10  15    6.09    4.12
  -3 -10  15    7.27    5.60
   3  10  15    6.26    6.39
   3 -10  15   -0.87    4.96
  -3 -10 -15    3.57    5.59
  -3  10  15   12.62    9.31
   3 -10 -15    9.27    2.24
   3 -10  16   38.97   10.78
  -3 -10  16   49.32   12.48
  -3  10  16   21.99    9.23
   3 -10  16   34.53   10.91
  -3 -10 -16   53.53   14.15
   3 -10 -16   26.64    8.58
   3  10  16   41.49   12.33
  -3 -10  17   29.10   11.15
   3 -10  17   30.61    8.95
   3 -10  17   35.27   10.78
  -3 -10 -17   21.50    7.87
  -3  10  17   27.81   10.10
   3 -10 -17   31.73    9.03
   3  10  17   20.26    8.43
   3 -10  18   63.06   14.66
  -3 -10  18   57.01   13.30
   3 -10  18   38.78   10.66
   3 -10 -18  101.12   18.22
  -3  10  18   66.65   15.32
  -3  10  18   66.24   15.87
  -3 -10 -18   72.62   16.58
   3  10  18   58.05   12.73
  -3 -10  19    2.45    3.37
   3 -10  19   13.36    3.86
   3 -10 -19   19.74    9.72
   3 -10  19    7.25    3.52
  -3 -10 -19   16.27    6.21
  -3  10  19    3.94    7.08
  -3  10  19   -1.20    3.36
   3  10  19   16.12    7.86
   3 -10  19    7.87    6.59
   3 -10  20   23.14    6.20
  -3 -10  20   11.29    6.10
   3 -10  20   24.39    9.19
  -3  10  20   19.01   10.24
   3 -10 -20   21.53    8.74
  -3 -10 -20   19.93    7.23
   3 -10  20   35.13   12.90
  -3  10  20   32.19    8.94
   3  10  20   24.25   10.45
   3 -10  21    1.11    3.85
   3 -10  21   15.81    9.37
  -3 -10  21   25.36   11.63
   3 -10 -21   11.83    5.91
  -3  10  21   27.74   11.96
  -3  10  21    9.84    4.63
  -3 -10 -21   19.16    9.22
   3  10  21    6.65    4.75
   3 -10  21   15.99    8.21
  -3 -10  22   30.02    9.18
  -3 -10 -22   33.39   10.68
   3  10  22   28.86    9.06
   3 -10  22   21.90    9.28
   3 -10 -22   49.10   13.28
  -3  10  22   32.90   12.69
   3 -10  22   41.00   11.42
  -3  10  22   14.98    3.98
  -3 -10 -23    1.14    3.60
   3 -10 -23    3.47    5.48
  -3  10  23   -2.07    5.19
  -3  10  23    2.50    2.17
   3  10  23    6.08    8.79
   3 -10  23    5.87    4.99
   3 -10  23   -1.62    5.72
  -3 -10 -24   -7.76    6.93
   3 -10 -24   -3.51    7.66
  -3  10  24    1.61    7.12
  -3  10  24    1.15    2.67
   3 -10  24   -1.81    3.56
   3  10  24    7.57    7.50
   3 -10  24   -3.16    4.60
  -3 -11   0    2.34    6.07
   3 -11   0   -0.11    2.02
   3 -11   0    8.27    3.59
  -3 -11   0   12.12    7.04
  -3 -11  -1   32.30    8.57
  -3 -11   1   28.51    8.97
  -3 -11  -1   41.94   11.44
   3 -11   1   42.13    8.54
   3 -11  -1   41.48   10.53
  -3 -11   1   31.40    8.05
   3 -11   1   57.09   11.17
   3 -11  -1   42.35    9.53
  -3 -11   2  175.19   23.02
   3 -11   2  171.46   21.83
   3 -11   2  157.68   21.20
  -3 -11  -2  175.22   22.46
   3 -11  -2  144.32   20.74
  -3 -11   2  175.89   20.66
   3 -11  -2  197.77   23.61
  -3 -11  -2  161.92   20.53
   3 -11  -3   28.94    8.61
  -3 -11   3   46.19   10.82
  -3 -11   3   23.30    9.11
   3 -11   3   22.58    9.53
  -3 -11  -3   31.84   10.01
   3 -11   3   33.37    9.38
   3 -11  -3   33.78   10.03
  -3 -11  -3   35.77    8.99
  -3 -11   4   46.40   11.63
   3 -11   4   46.42   12.34
   3 -11   4   27.50    7.66
  -3 -11  -4   42.81   11.19
   3 -11  -4   34.88   11.77
   3 -11  -4   38.98   11.57
  -3 -11  -4   41.58   11.15
   3 -11   5   43.87   11.51
  -3 -11   5   34.60    9.60
   3 -11   5   32.81    8.67
  -3 -11  -5   55.89   11.57
  -3 -11  -5   44.31   13.31
   3 -11  -5   34.76    9.99
   3 -11  -5   37.20   11.42
  -3 -11  -6   88.34   16.95
  -3 -11   6   84.83   14.94
  -3 -11  -6   76.70   13.59
   3 -11   6   71.72   14.69
   3 -11  -6   98.90   17.77
   3 -11   6   69.59   14.39
  -3  11   6   65.48   14.22
   3 -11  -6   98.61   17.35
   3 -11  -7    1.10    4.15
  -3  11   7   12.97    7.20
  -3 -11   7    7.38    6.25
   3 -11   7    9.15    6.34
  -3 -11  -7    6.77    3.18
   3 -11  -7    8.25    5.41
  -3 -11  -7    3.33    2.88
   3 -11   7    3.17    2.01
  -3 -11   8    6.09    2.66
   3 -11   8   -1.18    6.03
   3 -11  -8    5.42    4.77
   3 -11  -8   -1.09    2.49
  -3 -11  -8    1.19    4.97
  -3  11   8   -3.66    4.65
  -3 -11  -8   11.02    5.90
   3 -11   8    1.48    3.76
  -3 -11   9    4.25    4.37
   3 -11   9   14.37    7.21
  -3 -11  -9    4.72    3.83
   3 -11  -9   11.56    7.84
  -3  11   9    6.91    4.12
   3 -11  -9    9.26    7.90
   3 -11   9    5.43    4.36
  -3 -11  10    7.16    5.77
   3 -11  10   14.96    8.66
  -3 -11 -10   10.44    3.43
   3 -11 -10    8.55    4.11
  -3  11  10   18.63    8.50
   3 -11  10   14.65    8.34
   3 -11 -10    0.02    2.14
  -3 -11  11   15.95    9.27
   3 -11  11    8.28    7.82
   3 -11 -11   10.39    6.74
   3 -11 -11   -4.20    5.60
  -3 -11 -11   -7.98    6.13
  -3  11  11    5.54    5.03
   3 -11  11    3.93    4.99
  -3 -11  12  324.08   31.04
   3 -11  12  291.83   30.44
  -3 -11 -12  274.78   30.47
   3 -11 -12  293.84   29.88
   3 -11 -12  233.24   26.05
  -3  11  12  304.76   31.03
   3  11  12  287.29   29.70
   3 -11  12  282.37   28.65
  -3 -11  13   16.19    6.46
   3 -11  13   32.44    9.86
   3 -11  13   33.88    9.58
   3 -11 -13   20.12    8.48
  -3  11  13   21.64    7.82
   3 -11 -13    8.17    6.29
   3  11  13    7.75    4.37
  -3 -11 -13    9.67    5.47
  -3 -11  14   18.69    8.10
   3 -11  14   36.24   11.30
  -3  11  14   54.48   13.14
   3 -11 -14   37.66    9.68
   3 -11  14   41.35   11.40
  -3 -11 -14   43.08   12.68
   3 -11 -14   30.02    9.95
   3  11  14   33.08    9.73
   3 -11  15   21.04    7.93
  -3 -11  15    9.22    6.26
   3 -11  15   29.94   10.16
   3 -11 -15   11.63    7.06
  -3  11  15   34.69   13.58
  -3 -11 -15    8.90    5.47
   3  11  15   39.52   11.28
   3 -11  16   13.95    7.68
  -3 -11  16   19.46    9.44
   3 -11  16   11.22    7.87
  -3 -11 -16    7.89    5.34
   3 -11 -16   20.32    9.32
  -3  11  16    4.44    4.74
   3  11  16   19.54    9.43
   3 -11  17    6.17    6.50
  -3 -11  17   16.75    8.37
   3 -11  17    0.47    2.42
  -3  11  17   12.04    6.02
  -3 -11 -17    8.61    8.24
   3 -11 -17    1.68    4.71
   3  11  17   -1.72    2.08
   3 -11  18    6.48    7.18
  -3 -11  18   -1.75    4.79
   3 -11  18    3.62    3.24
  -3  11  18   -7.14    5.78
  -3 -11 -18    6.27    5.81
   3 -11 -18  -15.13   10.20
   3  11  18    2.61    5.42
   3 -11  19   25.56   11.20
  -3 -11  19   38.59   13.19
   3 -11  19   15.10    7.60
  -3 -11 -19   47.96   14.57
   3 -11  19   22.06    8.64
  -3  11  19   20.57    6.95
   3  11  19   39.57   11.87
   3 -11 -19   19.80    8.38
   3 -11  20   74.03   16.44
  -3 -11 -20  133.43   21.97
   3 -11 -20  110.11   20.40
  -3  11  20  107.13   19.80
   3  11  20  100.63   18.86
   3 -11  20  112.72   20.16
   3 -11  20  122.01   20.51
  -3 -11  20   91.39   17.96
   3 -11  21    7.54    6.26
   3 -11  21    4.76    3.51
  -3 -11  21   13.39    8.96
  -3 -11 -21    4.80    7.12
  -3  11  21    0.86    5.52
  -3  11  21   -1.19    3.64
   3  11  21   12.82    6.66
   3 -11 -21    3.84    8.23
   3 -11  21    2.71    7.41
  -3 -11 -22  120.80   21.37
  -3  11  22  114.92   19.94
   3 -11  22   96.59   18.53
   3 -11 -22  119.87   20.36
  -3  11  22  109.69   20.65
   3  11  22  134.21   21.70
   3 -11  22  125.55   21.79
   3 -11  22  147.39   24.05
  -3 -11  22  131.89   22.62
  -3  11  23    5.44    6.64
   3 -11 -23   -3.72    5.52
  -3 -11 -23    4.00    9.36
   3  11  23    2.55    5.97
   3 -11  23   -2.69    3.62
   3 -11  23   -5.98    6.53
  -3 -11  23    0.38    7.36
   3 -12   0    3.58    1.95
  -3 -12   0    7.93    7.59
   3 -12   0    3.73    4.50
  -3 -12   1   18.02    8.00
  -3 -12  -1   36.11   11.84
   3 -12   1   16.56    9.06
   3 -12  -1   20.63    9.46
   3 -12   1   30.85   10.21
   3 -12  -1   35.35   11.69
  -3 -12  -2   20.72    8.98
  -3 -12   2    3.17    3.70
   3 -12   2   17.88    8.17
  -3 -12  -2   20.38    7.39
   3 -12  -2   16.70    8.52
   3 -12   2   16.58    8.65
   3 -12  -2    9.74    7.24
   3 -12  -3   10.55    5.37
  -3 -12   3   -2.01    3.64
   3 -12   3    2.04    2.65
   3 -12   3   -6.30    2.66
  -3 -12  -3    2.30    2.04
  -3 -12  -3    2.95    5.36
   3 -12  -3    1.77    3.31
   3 -12   4   -0.91    3.59
  -3 -12   4    1.23    5.27
   3 -12  -4    0.50    5.68
   3 -12   4   -3.53    3.86
  -3 -12  -4    3.43    4.30
   3 -12  -4   -1.86    4.56
  -3 -12  -4    2.57    3.43
   3 -12   5    5.47    3.59
  -3 -12   5   -1.09    4.28
   3 -12   5   -2.29    4.91
  -3 -12  -5    0.33    3.59
   3 -12  -5   -0.80    5.56
   3 -12  -5   -2.34    3.09
  -3 -12  -5    4.01    4.49
   3 -12   6    8.41    5.36
  -3 -12  -6    4.82    3.48
  -3 -12   6    4.75    6.34
   3 -12   6    9.53    7.30
  -3 -12  -6   19.39    8.98
   3 -12  -6   10.45    4.31
   3 -12  -6    6.60    5.82
  -3 -12   7   -0.86    4.63
   3 -12   7   -0.20    4.05
  -3 -12  -7    4.37    5.43
   3 -12  -7   11.29    6.58
  -3 -12  -7    3.49    5.70
   3 -12  -7   11.20    7.53
   3 -12   7    3.35    5.48
  -3 -12  -8    6.37    7.09
  -3 -12   8    0.32    4.99
   3 -12   8   -4.87    4.81
  -3  12   8    3.08    2.38
  -3 -12  -8   -1.33    2.44
   3 -12  -8   10.71    5.43
   3 -12   8   19.24    9.49
   3 -12  -8   -3.51    3.09
  -3 -12   9   21.24    9.19
   3 -12  -9   18.32    9.21
   3 -12   9   31.05    9.53
  -3 -12  -9   18.52    7.82
   3 -12  -9   34.74    9.51
  -3 -12  -9    9.71    6.32
   3 -12   9   38.10   11.61
  -3  12   9   26.09   10.41
   3 -12  10   11.21    3.70
  -3 -12  10   19.95    6.17
   3 -12  10   18.81    7.89
   3 -12 -10   19.74    9.18
  -3 -12 -10    5.96    6.15
  -3  12  10   15.81    8.40
   3 -12 -10   10.79    6.86
  -3 -12 -10   18.65    8.71
  -3 -12  11   -2.33    4.33
   3 -12  11    0.39    3.07
   3 -12 -11    3.66    5.67
  -3 -12 -11    2.32    4.51
   3 -12 -11   -6.62    6.71
  -3  12  11   -8.46    7.64
   3 -12  11    4.31    4.15
   3 -12 -12   26.60    9.45
  -3 -12  12   22.88    7.77
   3 -12  12   33.30   11.33
   3 -12  12   22.06    9.55
  -3 -12 -12   30.99   10.26
   3 -12 -12   33.73   11.42
  -3  12  12   42.44   14.27
  -3 -12  13   -1.80    2.79
   3 -12  13    2.29    3.37
   3 -12 -13   -2.98    4.47
   3 -12  13   -1.30    3.44
  -3 -12 -13   -5.23    7.40
  -3  12  13   -2.01    6.20
   3 -12 -13    3.62    5.38
  -3 -12  14   31.62   10.20
   3 -12  14   15.51    7.96
   3 -12 -14   18.75    7.15
   3 -12  14   13.64    4.62
  -3 -12 -14   11.54    6.99
   3 -12 -14   10.20    4.45
   3 -12  15    2.53    2.97
  -3 -12  15    9.42    8.03
  -3 -12 -15   12.48    5.69
   3 -12 -15   -0.70    4.00
   3 -12  15    9.64    5.48
   3 -12 -15   10.87    4.71
   3  12  15   17.73    7.41
   3 -12  16   -2.10    3.85
  -3 -12  16    0.76    3.86
   3 -12 -16    1.50    3.65
   3 -12 -16   -1.79    3.14
   3 -12  16   -3.85    6.26
  -3 -12 -16   10.11    4.96
   3  12  16   -3.59    7.25
   3 -12  17   64.66   16.47
  -3 -12  17   53.35   13.55
   3 -12 -17   68.68   14.39
   3 -12  17   55.79   13.56
  -3 -12 -17   76.91   17.40
   3  12  17  114.03   18.75
   3 -12 -17   80.51   17.23
   3 -12  18   -4.03    3.30
  -3 -12  18    5.41    4.27
   3 -12  18   11.82    6.35
  -3 -12 -18    4.38    6.12
   3 -12 -18    0.56    3.73
   3  12  18   -2.45    5.14
   3 -12  18    5.98    5.19
   3 -12  19    6.57    6.52
  -3 -12  19   -1.32    5.46
   3 -12  19    3.51    4.92
  -3 -12 -19    3.17    3.81
   3 -12 -19   -4.30    2.64
   3  12  19    6.39    3.39
   3 -12  19    3.49    3.00
  -3 -12 -20   -1.22    5.14
   3 -12  20    6.95    6.73
  -3 -12  20    0.54    2.94
   3 -12  20    1.41    3.31
   3 -12 -20   10.12    8.19
   3  12  20   -0.41    3.79
   3 -12  20   -0.03    2.68
   3 -12  21    2.36    3.80
   3 -12  21    4.40    3.11
  -3 -12  21   -6.43    7.69
   3 -12 -21    1.45    4.77
  -3 -12 -21   -0.36    5.41
   3  12  21    4.94    4.24
   3 -12  21   -3.12    6.00
  -3 -13   0   -3.20    6.98
   3 -13   0   -0.95    2.84
   3 -13   0   -6.27    7.74
  -3 -13   1  140.47   21.58
  -3 -13  -1  131.91   20.91
   3 -13   1  134.06   21.56
   3 -13  -1  106.83   18.20
   3 -13   1  131.51   19.84
   3 -13  -1  124.70   19.21
  -3 -13   2  161.11   22.55
   3 -13   2  171.24   23.11
  -3 -13  -2  146.65   20.66
   3 -13  -2  182.05   24.39
   3 -13   2  146.29   20.51
   3 -13  -2  167.96   22.50
  -3 -13   3    4.88    7.81
   3 -13   3    4.79    3.96
   3 -13   3    7.02    5.40
  -3 -13  -3   11.57    8.41
   3 -13  -3   -3.87    5.48
   3 -13  -3    4.05    5.00
   3 -13  -4   52.30   11.50
   3 -13   4   58.04   12.74
  -3 -13   4   44.72   11.93
   3 -13   4   51.96   13.97
  -3 -13  -4   54.38   14.26
   3 -13  -4   38.42   10.60
  -3 -13  -5   93.91   18.92
  -3 -13   5   81.99   15.45
   3 -13  -5   65.09   14.14
   3 -13   5   73.08   16.13
   3 -13   5   87.92   16.09
   3 -13  -5   49.64   12.07
  -3 -13   6   -0.37    2.07
   3 -13   6    0.29    3.70
   3 -13  -6    3.96    6.00
  -3 -13  -6   -1.69    5.86
   3 -13  -6   -2.27    5.81
  -3 -13  -6   -4.49    1.35
   3 -13   6    3.16    5.40
  -3 -13   7   12.46    6.37
   3 -13   7    9.41    5.23
  -3 -13  -7   16.86    9.00
   3 -13  -7    1.85    4.66
   3 -13  -7    4.38    2.29
   3 -13   7    5.77    3.23
  -3 -13   8   41.13   10.27
   3 -13   8   35.43   10.96
  -3 -13  -8   24.78   11.10
  -3 -13  -8   39.19   11.72
   3 -13  -8   26.41    9.28
   3 -13  -8   30.18   11.13
   3 -13   8   40.19   11.74
  -3 -13   9   91.38   17.38
   3 -13   9   71.26   15.30
  -3 -13  -9   80.20   16.82
   3 -13  -9   44.88   12.05
  -3 -13  -9   68.79   14.46
   3 -13  -9   89.71   16.99
   3 -13 -10   -2.89    3.70
  -3 -13 -10    1.32    3.96
  -3 -13  10    2.76    6.18
   3 -13  10   -0.05    2.30
  -3 -13 -10    7.87    4.03
   3 -13 -10    4.11    2.15
   3 -13  10   -2.11    3.87
  -3 -13  11   59.29   15.39
   3 -13  11   37.01   11.62
   3 -13 -11   39.62   11.05
  -3 -13 -11   50.36   14.08
   3 -13 -11   78.66   16.24
  -3 -13 -11   22.02    8.25
   3 -13  11   48.31   12.49
   3 -13  12   17.93   10.32
  -3 -13 -12   15.84    6.49
   3 -13  12   13.88    7.49
  -3 -13  12   12.27    6.84
   3 -13 -12   24.90    8.66
  -3 -13 -12    6.52    2.34
   3 -13 -12   16.08   11.56
  -3 -13  13  120.64   21.15
   3 -13  13  107.32   20.28
   3 -13 -13  128.53   20.49
  -3 -13 -13  138.64   23.12
   3 -13 -13  129.10   22.59
  -3 -13 -13  101.72   17.60
   3 -13  13  143.11   22.16
  -3 -13  14   13.15    7.69
   3 -13  14   -0.37    4.80
   3 -13  14    2.36    3.97
  -3 -13 -14   -6.35    5.98
   3 -13 -14   -0.59    3.94
   3 -13 -14    2.58    5.67
  -3 -13  15    9.14    6.03
   3 -13  15   -1.35    4.92
   3 -13 -15    9.63    7.98
   3 -13  15   12.32    8.80
  -3 -13 -15   13.59    7.42
   3 -13 -15    4.78    4.61
   3 -13  16    8.63    2.73
  -3 -13  16   11.39    7.71
   3 -13  16   18.45    9.26
   3 -13 -16   13.32    7.72
   3 -13 -16    8.61    3.53
   3 -13  17    7.91    4.97
  -3 -13  17   36.89   11.09
   3 -13  17   31.51   10.56
  -3 -13 -17   45.75   12.49
   3 -13 -17   28.13    9.82
   3 -13 -17   20.67    8.84
  -3 -13  18    3.21    6.00
   3 -13 -18   -3.54    2.43
   3 -13  18   -2.58    2.46
   3 -13 -18    5.00    3.93
   3 -13  18    0.95    4.37
  -3 -13 -18    2.42    5.74
  -3 -14   0    0.27    3.75
   3 -14   0   -2.43    5.12
   3 -14   0    4.48    8.07
  -3 -14   1    7.61    5.74
   3 -14   1   22.07    9.39
  -3 -14  -1   21.48    9.76
   3 -14  -1   24.60   10.14
   3 -14   1   38.74   12.75
   3 -14  -1   31.13   11.18
  -3 -14   2   -3.01    2.15
   3 -14   2   16.42    7.87
  -3 -14  -2   17.12   10.96
   3 -14   2   16.70    8.65
   3 -14  -2   -0.74    5.01
   3 -14  -2   10.18    5.39
   3 -14   3    2.03    6.13
  -3 -14   3    0.11    5.51
   3 -14   3    1.79    3.57
  -3 -14  -3   10.79    5.63
   3 -14  -3    2.31    4.92
   3 -14  -3    5.99    4.95
   3 -14   4    2.24    4.60
  -3 -14   4   -2.07    6.97
   3 -14   4    9.15    8.96
  -3 -14  -4    9.31    7.80
   3 -14  -4   -2.78    3.97
   3 -14  -4    8.13    6.25
   3 -14   5   -2.51    3.06
   3 -14  -5    3.63    4.16
  -3 -14   5    2.52    6.14
   3 -14   5   -2.59    6.17
  -3 -14  -5   -3.06    3.46
   3 -14  -5    5.36    8.58
   3 -14  -6   47.29   13.01
  -3 -14   6   30.55   10.84
   3 -14   6   34.85   12.10
  -3 -14  -6   23.88    6.81
   3 -14  -6   19.57    8.88
   3 -14   6   37.86   11.15
  -3 -14   7   11.87    8.13
   3 -14   7   14.80    8.05
   3 -14  -7    1.98    5.10
  -3 -14  -7   17.06    5.61
   3 -14  -7   23.99   13.32
   3 -14   7    0.64    3.96
  -3 -14   8   16.39   10.57
   3 -14   8    9.15    5.63
  -3 -14  -8   25.85   11.07
   3 -14  -8   17.34    6.67
   3 -14  -8    2.49    1.82
   3 -14   8    0.93    6.00
  -3 -14   9    2.94    4.51
   3 -14   9   -0.65    4.82
  -3 -14  -9    4.17    5.14
   3 -14  -9   -4.22    2.67
   3 -14  -9    5.60    4.53
   3 -14   9    7.07    4.90
  -3 -14  10   33.31   11.68
   3 -14  10    6.08    8.80
  -3 -14 -10   19.60    9.78
   3 -14 -10   14.04    8.81
   3 -14 -10    8.12    5.66
   3 -14  10    8.73    6.54
  -3 -14  11   21.27    9.52
   3 -14  11   15.20    7.34
  -3 -14 -11    1.70    4.39
   3 -14 -11   -1.76    2.76
   3 -14 -11   16.15    8.26
   3 -14  11    0.95    5.00
   3 -14 -12   -2.33    2.46
  -3 -14  12    4.38    5.37
   3 -14  12   13.72    7.68
  -3 -14 -12   -1.64    7.49
   3 -14 -12   13.92    7.91
   3 -14  12   17.23    9.08
  -3 -14  13    4.67    5.70
   3 -14  13   20.51    8.61
   3 -14 -13    9.41    7.05
  -3 -14 -13   -8.26    5.35
  -3 -14 -13   -2.88    6.14
   3 -14  13    6.27    2.69
   3 -14 -13    6.41    5.80
  -3 -14  14   14.07    8.33
   3 -14  14    6.30    6.32
   3 -14 -14    0.81    2.92
   3 -14  14    8.29    7.02
  -3 -14 -14   17.52    7.58
   3 -14 -14   -5.74    6.08
  -3 -14 -14    5.49    8.16
  -3 -14  15   -3.65    2.81
   3 -14  15   10.32    6.21
   3 -14  15    7.17    5.76
  -3 -14 -15    8.20    6.75
   3 -14 -15    5.51    6.40
   3 -14 -15   -2.63    4.03
  -3 -15   0    0.89    5.66
   3 -15   0   -2.17    6.20
   3 -15   0    1.47    5.44
   3 -15  -1    6.29    6.61
  -3 -15   1    4.10    2.98
   3 -15  -1    9.16    5.51
   3 -15   1    7.05    3.13
  -3 -15   2  137.70   22.76
   3 -15   2  138.15   22.07
  -3 -15  -2  114.20   21.03
   3 -15  -2  137.55   23.88
   3 -15   2  149.29   21.98
   3 -15  -2  132.77   21.25
   3 -15   3   56.81   13.91
  -3 -15   3   37.36   10.94
   3 -15   3   35.16   10.87
  -3 -15  -3   32.70   10.99
   3 -15  -3   45.89   12.46
   3 -15  -3   19.48    9.10
   3 -15   4   90.65   17.00
  -3 -15   4  105.20   20.79
  -3 -15  -4   86.48   18.67
   3 -15   4   82.80   16.25
   3 -15  -4  107.90   20.20
   3 -15  -4  108.83   20.32
  -3 -15   5   -0.03    3.55
   3 -15   5   -1.09    5.21
  -3 -15  -5    4.22    5.55
   3 -15  -5   -0.03    6.13
   3 -15  -5   -2.73    4.05
   3 -15   5   11.14    6.86
   3 -15   6  114.51   21.46
   3 -15   6  100.91   18.47
  -3 -15  -6  105.64   19.85
   3 -15  -6   78.21   17.66
   3 -15  -6  104.35   20.19
  -3 -15   6  131.43   22.52
   3 -15  -7   11.51    4.01
  -3 -15   7   21.12    7.22
   3 -15   7   28.36   12.45
  -3 -15  -7   11.91    4.05
   3 -15  -7   21.65   10.07
   3 -15   7   20.87    9.85
   3 -15   8   37.37   13.19
  -3 -15   8   31.14   11.21
   3 -15   8   27.19   11.51
   3 -15  -8   17.90    7.13
  -3 -15  -8   11.39    3.31
   3 -15  -8   19.78    7.04
  -3 -15   9    9.58    6.13
   3 -15   9    0.06    7.67
   3 -15  -9   -0.57    4.00
  -3 -15  -9    3.28    3.63
   3 -15  -9    3.49    6.55
   3 -15   9   13.94    9.54
  -3 -15  10   30.55   10.21
   3 -15  10   12.34    7.21
  -3 -15 -10   21.19    8.01
   3 -15 -10   24.93   10.51
   3 -15  10    9.14    3.31
   3 -15 -10   29.36   10.48
  -3 -15  11    3.25    6.85
   3 -15  11   -1.53    4.89
  -3 -15 -11    0.83    3.88
   3 -15 -11   -2.17    4.65
   3 -15  11    1.51    6.38
   3 -15 -11   -2.61    5.71
  -3 -16   0   -7.18    7.19
   3 -16   0   -4.45    7.95
   3 -16   0    1.19    7.93
  -3 -16   1   24.76    9.33
   3 -16   1   18.79    7.11
   3 -16   1   28.54   12.42
  -3 -16  -1   14.95    8.49
   3 -16  -1    5.08    8.19
   3 -16  -1   24.25   10.54
   3 -16   2   -3.65    6.21
  -3 -16   2    5.46    2.31
   3 -16   2   -0.37    5.42
  -3 -16  -2    1.32    6.28
   3 -16  -2   15.96   11.44
   3 -16  -2    1.31    3.06
   3 -16   3   -7.35    6.97
  -3 -16   3    3.18    4.45
   3 -16   3   -8.76    8.50
  -3 -16  -3    5.32    8.52
   3 -16  -3   -0.73    4.17
   3 -16  -3   -0.78    3.96
   3 -16   4    8.37    6.32
  -3 -16   4    3.97    8.91
   3 -16   4    3.99    4.15
  -3 -16  -4    8.60    4.90
   3 -16  -4    1.59    3.09
   3 -16  -4   -7.76    7.10
   4   0   0 7192.63   64.57
  -4   0   0 6583.52   91.29
   4   0  -1   -0.76    0.69
   4   0   1   -1.54    0.63
  -4   0  -1    0.93    1.14
  -4   0   1   -1.58    2.79
   4   0  -2  511.84   17.08
  -4   0   2  465.84   24.14
   4   0   2  466.28   18.49
   4   0   3    1.25    1.45
   4   0  -3   -0.35    1.46
  -4   0   3    1.91    2.15
   4   0  -4  443.58   16.44
   4   0   4  464.20   20.87
  -4   0   4  483.32   25.45
  -4   0   5   -2.91    3.10
  -4   0  -5    0.18    0.89
   4   0   5   -1.06    0.68
  -4   0   6   81.46    8.16
  -4   0   6   83.63   10.94
  -4   0   7   -1.46    2.39
   4   0   7    0.85    1.83
  -4   0   7    0.07    1.45
  -4   0   8  370.77   19.11
   4   0   8  387.27   22.99
  -4   0   8  332.11   22.50
  -4   0   9    1.19    1.74
  -4   0   9    1.66    3.75
   4   0   9    1.46    1.26
   4   0  10  256.48   20.35
  -4   0  10  269.93   21.84
  -4   0  10  244.47   17.24
  -4   0  11    1.09    2.66
  -4   0  11   -1.77    3.28
   4   0  11    1.64    4.36
   4   0  12  220.07   19.84
  -4   0  12  170.29   18.31
  -4   0  12  209.15   17.45
  -4   0  13   -1.07    2.10
  -4   0  13   -2.08    1.55
   4   0  13    1.97    3.90
   4   0  14 1980.37   63.86
  -4   0  14 1836.07   61.81
  -4   0  14 1878.50   56.90
  -4   0  15    1.94    3.47
   4   0  15    3.68    4.29
  -4   0  15   -0.42    1.98
  -4   0  16  412.29   30.58
   4   0  16  344.04   27.73
  -4   0  16  356.57   26.71
  -4   0  17    3.00    3.59
   4   0  17   -4.26    5.42
  -4   0  17    1.23    4.38
   4   0  17   -2.83    4.65
  -4   0  18   67.17   13.30
  -4   0  18   63.82   11.68
   4   0  18   58.27   12.07
   4   0  18   38.39    9.99
  -4   0  19   -1.99    3.69
   4   0  19    2.75    5.42
  -4   0  19    1.48    3.65
   4   0  19   -0.86    5.06
  -4   0  20   52.96   11.93
   4   0  20   43.84   11.75
  -4   0  20   52.19   11.66
   4   0  20   47.96   11.45
  -4   0  21   -0.16    2.58
   4   0  21    1.93    3.56
  -4   0  21    5.31    4.56
   4   0  21   11.19    6.94
  -4   0  22   55.50   13.53
   4   0  22   65.88   13.87
  -4   0  22   84.98   15.12
   4   0  22   82.18   15.44
  -4   0  23   -2.15    5.33
   4   0  23    0.07    5.25
  -4   0  23   -0.07    6.36
   4   0  23   -2.81    4.62
  -4   0  24    5.77    4.80
  -4   0  24   -3.16    3.50
   4   0  24   13.18    7.03
   4   0  24   -4.47    7.28
  -4   0  25    6.32    8.48
  -4   0  25    0.29    6.42
   4   0  25   -0.05    4.25
   4   0  25   -2.86    2.55
  -4   0  26    1.85    5.02
   4   0  26   -0.25    4.28
  -4   0  26    6.97    6.24
   4   0  26    3.15    4.46
  -4   0  27   -3.03    5.47
   4   0  27   -3.73    6.26
  -4   0  27    1.01    5.61
   4   0  27    2.18    2.46
  -4   0  28   65.53   13.45
   4   0  28   69.72   16.13
  -4   0  28   44.06   11.82
   4   0  28   44.46   14.73
  -4   0  29   -5.30    8.33
   4   0  29    1.89    4.68
  -4   0  29   -5.01    3.22
   4   0  29    8.72    7.69
  -4   0  30   56.62   15.05
   4   0  30   43.95   13.92
  -4   0  30   43.95   11.78
   4   0  30   46.10   11.50
  -4   0  31   -8.18    6.62
   4   0  31   -6.26    6.42
  -4   0  31    1.76    3.68
   4   0  31    1.98    5.42
   4   1   0  185.53    8.44
  -4  -1   0  176.41    8.88
   4  -1   0  188.31   12.48
  -4  -1   0  181.33   14.45
  -4   1   0  187.29   15.98
  -4  -1  -1  448.72   13.74
   4  -1  -1  391.89   12.01
   4  -1   1  437.96   19.78
   4   1   1  417.28   14.77
  -4  -1  -1  478.80   22.77
  -4   1   1  426.91   24.44
  -4   1  -1  418.87   23.86
  -4  -1   1  433.20   22.23
   4  -1  -1  433.00   18.96
   4   1  -1  416.50   10.92
  -4  -1   1  482.98   16.22
   4  -1   2  273.17   15.34
   4   1  -2  281.68    8.47
  -4  -1  -2  247.90   10.59
   4   1   2  322.07   13.71
  -4   1   2  257.72   19.07
  -4  -1   2  314.47   18.87
   4  -1  -2  273.66   15.14
  -4  -1   2  294.98   14.11
  -4  -1  -3  102.92    6.85
   4   1   3  102.94    8.47
  -4   1   3   66.41    9.29
  -4  -1   3   89.59   10.23
   4   1  -3  101.36    5.64
   4  -1   3  105.48   10.11
   4  -1  -3   89.79    8.64
  -4  -1   3   99.88    8.84
   4   1  -4 2085.10   27.60
  -4  -1  -4 2305.26   33.70
   4  -1  -4 2264.21   43.10
   4   1   4 1956.67   40.92
  -4  -1   4 2227.05   51.31
  -4   1   4 2190.62   55.61
   4  -1   4 2108.56   47.44
  -4  -1   5  259.16   17.90
   4   1   5  249.48   15.62
  -4  -1  -5  207.09   11.06
  -4   1   5  243.68   18.94
   4  -1   5  254.50   16.86
  -4  -1   5  258.45   10.83
   4  -1   6   27.97    6.06
  -4  -1  -6   14.86    4.24
  -4   1   6   37.81    7.27
  -4  -1   6   24.60    5.51
   4   1   6   25.67    5.12
  -4  -1   6   22.85    3.68
  -4   1   6   26.69    4.97
   4   1   7  134.58   12.78
  -4  -1   7  141.96   14.19
   4  -1   7  141.05   13.81
  -4   1   7  141.22   14.80
  -4  -1  -7  128.16   10.85
  -4   1   7  119.73   10.97
  -4  -1   7  121.31    9.34
   4   1   8  823.47   33.47
   4  -1   8  831.78   33.68
  -4   1   8  839.99   36.80
  -4  -1   8  846.53   35.69
  -4  -1   8  819.56   26.41
  -4  -1   9    6.38    2.39
   4   1   9    8.71    3.92
  -4   1   9    3.19    3.40
  -4  -1   9   13.75    5.56
   4  -1   9   14.99    5.82
  -4   1   9    6.43    3.20
   4   1  10  193.72   18.16
  -4   1  10  190.49   16.34
   4  -1  10  218.88   18.92
  -4   1  10  226.78   20.27
  -4  -1  10  203.56   18.46
  -4  -1  10  240.95   16.25
   4   1  11  126.44   14.80
  -4  -1  11  142.00   15.63
   4  -1  11   96.33   12.88
  -4   1  11  135.32   14.08
  -4  -1  11  125.23   12.40
  -4   1  11  125.10   15.40
   4   1  12  181.38   18.02
   4  -1  12  179.81   17.80
  -4   1  12  176.69   18.35
  -4  -1  12  202.74   19.21
  -4   1  12  176.49   16.51
  -4  -1  12  194.61   16.54
   4   1  13   90.04   12.93
  -4   1  13  101.65   14.07
   4  -1  13   88.80   12.77
  -4  -1  13   69.00   11.11
  -4   1  13   93.57   12.33
  -4  -1  13   97.38   12.28
  -4   1  14  505.46   32.69
   4   1  14  427.67   29.02
   4  -1  14  502.07   32.41
  -4  -1  14  511.58   32.73
  -4   1  14  430.04   27.97
   4   1  14  485.03   31.47
  -4  -1  14  487.65   28.54
   4   1  15 1461.98   55.94
   4  -1  15 1411.61   55.93
  -4   1  15 1404.68   56.04
  -4  -1  15 1451.09   57.19
  -4   1  15 1390.80   52.08
   4   1  15 1318.09   52.88
  -4  -1  15 1360.26   49.51
   4   1  16  263.15   24.69
   4  -1  16  285.86   25.49
  -4   1  16  267.82   24.84
  -4  -1  16  297.60   26.62
  -4   1  16  247.82   22.73
   4   1  16  258.75   24.33
  -4  -1  16  264.27   22.49
  -4   1  17   27.13    7.12
  -4  -1  17   41.71    9.69
   4   1  17   26.67    7.78
   4  -1  17   23.79    7.77
  -4   1  17   28.28    7.74
  -4  -1  17   26.28    8.73
   4   1  17   49.38   10.63
   4  -1  17   54.33   11.55
   4   1  18  393.07   30.59
   4  -1  18  413.76   32.41
  -4   1  18  332.23   28.78
  -4  -1  18  385.99   31.32
   4   1  18  409.84   32.84
  -4   1  18  368.28   28.37
   4  -1  18  379.99   31.30
  -4  -1  18  379.52   28.81
  -4   1  19    0.18    4.68
  -4  -1  19    2.24    4.37
  -4   1  19    6.01    4.35
   4   1  19    1.57    4.30
  -4  -1  19    1.04    4.91
   4   1  19   -1.16    4.98
   4  -1  19   -2.69    5.07
   4  -1  19   -3.52    6.50
  -4   1  20   39.06    9.89
  -4  -1  20   33.26    9.15
   4   1  20   22.62    8.18
   4  -1  20   45.10   10.00
  -4   1  20   24.54    8.36
  -4  -1  20   20.20    6.71
   4   1  20   32.11    9.45
   4  -1  20   28.94    9.00
  -4   1  21   38.51   10.35
  -4   1  21   49.09   11.61
  -4  -1  21   66.70   13.30
   4   1  21   64.39   12.72
   4  -1  21   53.50   13.91
  -4  -1  21   45.63   12.53
   4   1  21   78.48   13.91
   4  -1  21   63.72   14.20
   4   1  22  299.18   29.15
   4  -1  22  334.97   31.18
  -4   1  22  365.46   32.15
  -4   1  22  312.39   29.57
  -4  -1  22  302.97   30.21
   4   1  22  320.92   31.33
   4  -1  22  353.01   32.60
  -4  -1  22  286.19   27.81
  -4   1  23   -2.33    2.58
  -4  -1  23    4.97    7.90
   4   1  23   -2.46    1.90
   4  -1  23    4.62    4.09
  -4   1  23    0.43    6.41
  -4  -1  23   -5.36    2.14
   4   1  23   -0.61    4.12
   4  -1  23   -1.25    5.02
  -4   1  24    8.38    6.95
   4   1  24   14.16    9.62
  -4  -1  24   20.27    8.38
   4   1  24    8.02    3.64
   4  -1  24   15.57    8.19
  -4   1  24    2.34    6.95
  -4  -1  24   17.36    8.98
   4  -1  24    3.66    6.42
   4   1  25  111.07   18.09
  -4   1  25   99.30   17.29
  -4  -1  25  124.98   19.39
   4  -1  25   82.93   15.61
   4   1  25  106.14   19.42
  -4   1  25  103.95   18.86
   4  -1  25   95.06   18.15
  -4  -1  25   86.59   17.00
   4   1  26  237.78   27.24
   4  -1  26  181.48   23.83
  -4   1  26  200.18   25.79
  -4  -1  26  208.04   26.74
   4   1  26  193.06   26.45
   4  -1  26  193.74   25.30
  -4   1  26  210.26   25.07
  -4  -1  26  175.09   22.82
   4   1  27    4.77    6.58
  -4   1  27    0.52    5.01
  -4  -1  27    4.60    4.81
   4   1  27    2.78    5.32
   4  -1  27   -0.18    2.38
  -4   1  27   -1.53    2.22
  -4  -1  27   14.73    7.74
   4  -1  27   16.22    7.35
  -4   1  28   73.30   15.76
   4  -1  28   93.05   18.16
  -4  -1  28   74.06   16.60
   4   1  28   89.26   17.65
  -4   1  28   68.75   14.81
   4   1  28   81.43   17.51
   4  -1  28   75.54   18.59
  -4  -1  28  103.01   18.54
  -4   1  29   30.59   10.51
  -4  -1  29   31.62   13.55
  -4  -1  29   30.98    9.86
   4   1  29   15.59    9.13
   4  -1  29   17.41    6.92
  -4   1  29   17.31    7.19
   4   1  29   36.54   13.81
   4  -1  29   19.37    8.68
  -4   1  30   13.62    8.58
  -4  -1  30  -12.93    6.82
   4   1  30   13.98    7.26
   4  -1  30    6.13    4.78
  -4   1  30   18.29    7.71
  -4  -1  30   15.44   11.65
   4   1  30   -6.55    5.19
   4  -1  30    7.48    6.84
  -4   1  31   34.03   11.60
   4   1  31   40.46   13.66
   4  -1  31   26.13   12.36
  -4   1  31   57.58   14.56
  -4  -1  31   63.44   16.00
   4   1  31   31.17   11.94
   4  -1  31   22.66    8.03
  -4  -2   0  378.21   17.34
   4  -2   0  435.10   13.96
  -4   2   0  421.60   25.18
  -4  -2   0  479.20   21.53
   4  -2   0  434.21   21.86
  -4  -2   1    7.37    2.75
   4  -2   1   15.15    4.34
  -4  -2  -1    7.62    2.42
   4   2   1    8.10    1.73
   4  -2   1    5.56    1.30
  -4   2  -1    5.43    1.82
  -4   2   1    3.80    2.58
  -4  -2   1    5.19    1.79
   4  -2  -1    5.45    1.73
   4  -2  -1    6.48    2.21
  -4  -2   2  431.15   19.65
   4  -2   2  421.36   11.87
   4   2   2  455.77   15.55
  -4  -2  -2  412.12   17.64
   4  -2   2  430.78   22.03
  -4  -2   2  458.66   21.57
  -4   2   2  455.93   26.23
   4  -2  -2  438.39   17.15
   4  -2  -2  470.44   22.79
   4  -2   3  895.18   18.04
  -4  -2   3  959.94   30.30
   4  -2  -3  963.35   32.33
   4  -2   3  998.39   33.78
  -4  -2  -3 1038.97   28.58
   4  -2  -3  941.65   26.82
  -4   2   3  947.91   37.76
  -4  -2   4 1897.92   44.59
   4   2   4 1984.04   39.99
  -4   2   4 1776.07   52.51
  -4  -2  -4 1890.54   39.10
   4  -2  -4 1792.63   43.44
  -4  -2   4 1944.29   46.18
   4  -2   4 1726.38   45.35
   4  -2   4 1836.32   27.99
   4   2   5   78.08    8.43
  -4  -2  -5  112.34    9.72
  -4  -2   5   86.66   10.11
  -4   2   5  103.53   12.73
   4  -2   5  100.13   11.22
  -4  -2   5   75.28    9.62
  -4  -2  -6  176.67   12.60
  -4   2   6  186.29   17.27
   4  -2   6  172.70   15.21
  -4  -2   6  206.89   16.11
  -4  -2   6  174.09    9.04
  -4  -2   6  203.95   16.22
   4   2   7  846.10   31.59
  -4  -2  -7  711.79   26.89
  -4   2   7  745.64   34.55
  -4  -2   7  706.72   31.12
   4  -2   7  724.19   32.08
  -4   2   7  707.91   29.25
  -4  -2   7  753.10   21.56
  -4  -2   7  736.34   31.94
  -4  -2   8  129.46   14.18
   4   2   8  123.25   12.38
  -4  -2  -8  173.01   13.80
  -4   2   8  134.25   14.88
   4  -2   8  126.84   13.91
  -4   2   8  142.23   13.24
  -4  -2   8  133.64   10.22
   4  -2   9   21.43    6.75
  -4  -2   9   12.20    3.48
  -4   2   9    5.11    5.92
   4   2   9   19.79    4.93
  -4  -2  -9   11.38    3.91
  -4  -2   9    8.54    4.74
  -4   2   9    8.41    2.57
   4  -2  10   13.14    4.97
  -4  -2  10    5.97    2.67
   4   2  10    9.85    5.29
  -4   2  10    6.49    3.83
  -4   2  10   16.49    4.78
  -4  -2 -10   10.87    4.15
  -4  -2  10    6.15    2.26
   4   2  11   67.26   10.70
   4  -2  11   34.42   10.18
  -4  -2 -11   65.04    9.89
  -4   2  11   62.55   11.01
  -4  -2  11   61.42   10.25
  -4   2  11   68.28   10.66
  -4  -2  11   58.02    8.52
   4   2  12  116.13   14.21
   4  -2  12  144.44   16.37
  -4   2  12  110.70   14.55
  -4  -2  12  145.46   16.12
  -4   2  12  120.18   13.98
   4   2  12  111.68   13.69
  -4  -2  12  128.95   13.29
   4   2  13   99.16   13.69
  -4   2  13  115.79   15.61
   4  -2  13   91.99   13.37
  -4  -2  13  104.75   15.58
  -4   2  13   68.59   11.85
   4   2  13   79.81   11.92
  -4  -2  13   93.09   11.34
   4   2  14   43.96   10.20
  -4   2  14   65.34   12.46
  -4  -2  14   67.97   12.39
  -4   2  14   70.81   11.78
   4   2  14   56.93   10.84
   4  -2  14   48.98   10.22
  -4  -2  14   67.82   10.69
   4   2  15  141.73   17.23
   4  -2  15  141.02   17.67
  -4   2  15  131.87   16.58
  -4  -2  15  131.66   17.70
  -4   2  15  115.03   15.38
   4   2  15  127.82   16.70
  -4  -2  15  128.05   15.00
   4   2  16   59.12   11.45
  -4  -2  16   72.19   13.00
  -4   2  16   60.48   11.10
   4  -2  16   67.93   12.05
  -4   2  16   71.75   12.27
   4   2  16   78.67   13.61
  -4  -2  16   68.92   11.30
   4   2  17   72.40   12.87
   4  -2  17   86.29   15.01
  -4   2  17   60.14   12.24
  -4  -2  17   57.62   11.57
  -4   2  17   67.37   12.24
   4   2  17   90.94   14.21
  -4  -2  17   75.22   12.93
   4   2  18  175.49   20.78
   4  -2  18  226.52   23.47
  -4   2  18  157.37   19.67
  -4  -2  18  181.58   21.05
  -4   2  18  189.24   20.91
   4   2  18  201.83   21.60
   4  -2  18  154.80   19.54
  -4  -2  18  182.62   20.05
  -4   2  19   -1.62    4.05
  -4  -2  19    6.33    3.54
   4   2  19    5.48    7.65
   4  -2  19    9.03    6.95
  -4   2  19    0.84    4.79
  -4  -2  19    0.02    3.76
   4   2  19    3.74    3.77
   4  -2  19    8.16    4.66
  -4   2  20    2.36    4.34
  -4  -2  20    2.28    3.96
   4   2  20    0.83    1.91
  -4   2  20    1.31    2.06
   4  -2  20    1.37    3.10
  -4  -2  20    3.94    5.23
   4   2  20    2.25    4.18
   4  -2  20    1.66    4.89
  -4   2  21   38.36   11.12
  -4   2  21   25.64    8.40
  -4  -2  21   28.11    8.82
   4   2  21   28.26    8.71
   4  -2  21   24.52    8.80
  -4  -2  21   29.33    9.73
   4   2  21   33.39    9.89
   4  -2  21   19.18    8.94
  -4   2  22    1.31    3.19
  -4  -2  22   10.56    6.09
   4   2  22    5.71    5.23
   4  -2  22   15.89    8.64
  -4   2  22    2.47    6.17
  -4  -2  22    8.27    3.56
   4   2  22   11.62    3.29
   4  -2  22    5.31    6.63
  -4   2  23   16.12    7.22
  -4  -2  23   16.72    7.53
   4   2  23    8.38    3.84
  -4   2  23    4.34    3.80
   4  -2  23   16.18    6.48
  -4  -2  23   37.33   13.68
   4   2  23   16.60    6.27
   4  -2  23   23.67   11.31
  -4   2  24    9.02    7.81
   4  -2  24   -0.53    2.14
  -4  -2  24    4.16    3.43
   4   2  24   -4.31    3.99
  -4   2  24   -6.62    6.45
  -4  -2  24    5.24    5.92
   4   2  24   -4.08    5.34
   4  -2  24   -0.95    4.25
  -4   2  25    9.87    8.24
   4  -2  25   -0.72    5.80
  -4  -2  25   -2.57    2.12
   4   2  25   -4.93    6.73
  -4   2  25   -9.24    7.73
  -4  -2  25    6.37    4.70
   4   2  25   -1.65    7.14
   4  -2  25    3.45    7.95
  -4   2  26   44.00   11.53
  -4  -2  26   17.06    8.17
   4   2  26   29.42   10.26
   4  -2  26   20.05   10.01
  -4   2  26   12.83    9.37
  -4  -2  26   38.62   11.66
   4   2  26   37.39   10.87
   4  -2  26   50.63   13.46
  -4   2  27   -2.64    6.08
   4   2  27   13.03   10.44
  -4   2  27    1.19    3.11
  -4  -2  27    4.07    7.80
   4  -2  27   -4.75    7.60
   4   2  27    0.53    2.71
   4  -2  27    2.34    6.80
  -4   2  28   -3.46    4.20
   4   2  28   -4.15    3.42
   4  -2  28    0.13    5.14
  -4   2  28   10.39    7.44
  -4  -2  28    2.70    6.87
   4   2  28    1.32    4.45
   4  -2  28   -3.51    8.39
  -4   2  29   27.39    9.54
   4   2  29   15.78    5.90
   4  -2  29   28.08   10.78
  -4   2  29   35.43   13.85
  -4  -2  29   28.87   11.34
   4   2  29   16.48    7.55
   4  -2  29   18.98    9.16
  -4   2  30    0.92    4.88
   4   2  30   11.72    6.61
   4  -2  30    7.69    7.73
  -4   2  30   10.60    3.69
  -4  -2  30    2.21    2.93
   4   2  30   -1.41    4.79
   4  -2  30   10.51   10.53
  -4  -3   0 1308.15   37.65
   4  -3   0 1399.88   31.78
  -4   3   0 1338.03   46.75
   4  -3   0 1356.40   42.51
   4  -3  -1    9.30    1.81
  -4  -3   1   16.18    4.43
  -4  -3  -1   16.43    4.37
   4  -3   1   12.24    3.65
   4  -3   1   11.46    3.88
   4  -3  -1   14.21    3.35
  -4   3   1    4.83    2.16
  -4  -3   1   18.19    4.31
  -4   3  -1   15.78    6.01
   4   3   1   10.44    1.98
  -4  -3   2   54.21    7.61
   4  -3   2   46.56    5.63
   4  -3  -2   50.36    8.01
  -4  -3  -2   54.72    7.72
   4  -3   2   56.33    8.80
   4  -3  -2   51.48    6.58
  -4  -3   2   51.54    7.02
  -4   3   2   44.53    9.42
   4   3   2   43.69    4.82
  -4  -3   3  478.73   23.93
   4  -3   3  519.47   18.71
   4  -3  -3  482.70   24.64
   4  -3   3  475.83   25.26
  -4  -3  -3  413.30   20.76
   4  -3  -3  460.02   20.91
  -4   3   3  427.54   26.90
  -4  -3   3  494.78   21.81
   4   3   3  452.02   17.53
  -4  -3   4    6.90    3.07
   4  -3   4    8.62    2.58
   4   3   4    5.03    2.37
  -4  -3  -4    3.96    2.27
  -4   3   4    8.15    5.16
  -4  -3   4    5.81    0.95
   4  -3  -4    5.20    2.56
   4  -3   4   11.36    4.57
   4  -3  -4    9.75    4.16
   4  -3   5  298.03   20.34
   4  -3   5  267.41   14.23
  -4  -3   5  254.58   18.46
   4  -3  -5  261.85   18.20
  -4  -3  -5  203.71   15.09
  -4   3   5  277.97   21.64
   4  -3  -5  260.71   17.40
  -4  -3   5  268.46   17.55
   4   3   5  300.98   16.79
   4  -3   6  831.39   26.32
  -4  -3   6  992.48   37.93
   4   3   6  801.76   29.77
  -4  -3  -6  753.44   29.70
  -4   3   6  985.73   40.84
  -4  -3   6  844.07   32.21
  -4  -3   6  942.54   20.19
   4  -3   6  976.87   37.84
  -4  -3   7  116.07   13.29
  -4  -3   7   96.54    7.77
  -4  -3   7  104.70   11.82
  -4  -3  -7  116.69   11.79
  -4   3   7   97.48   13.48
   4   3   7  132.63   12.48
  -4   3   7  114.45   12.98
   4  -3   7  119.63   13.75
   4  -3   7  125.01   10.94
   4   3   8  129.84   13.10
  -4  -3   8  136.70   10.05
  -4  -3  -8  114.82   12.39
  -4   3   8  131.04   15.42
  -4  -3   8  114.19   12.98
  -4   3   8  135.08   13.73
   4  -3   8  140.83   15.01
   4  -3   8  107.46   10.85
  -4  -3   8  132.59   14.48
   4   3   9  163.15   15.72
  -4  -3   9  138.80   11.40
  -4   3   9  120.15   14.44
  -4  -3  -9  151.32   14.54
  -4  -3   9  129.84   14.64
   4  -3   9  108.71   13.60
  -4   3   9  133.61   14.33
  -4  -3   9  152.17   16.02
  -4  -3  10   41.26    8.46
  -4  -3  10   31.84    6.03
   4  -3  10   27.27    7.59
   4   3  10   25.17    6.35
  -4  -3 -10   43.66    8.30
  -4   3  10   37.84    8.71
  -4  -3  10   45.00    8.48
   4   3  10   41.49    7.25
  -4   3  10   35.50    7.88
   4   3  11  256.65   21.12
  -4  -3  11  248.91   17.83
   4  -3  11  207.41   19.89
  -4  -3 -11  264.76   20.61
  -4   3  11  288.74   24.07
  -4  -3  11  277.48   22.53
   4   3  11  237.22   19.25
  -4  -3  11  221.46   20.81
   4  -3  12   29.68    9.26
  -4  -3  12   42.95    7.60
   4   3  12   32.47    7.85
  -4  -3 -12   28.89    7.34
  -4   3  12   33.23    6.97
  -4  -3  12   32.77    8.08
  -4   3  12   41.33    9.14
   4   3  12   29.78    7.67
   4  -3  13   18.38    7.13
   4   3  13   17.33    6.45
  -4  -3  13   13.01    5.37
  -4  -3 -13    7.99    4.54
  -4   3  13   20.15    6.78
  -4  -3  13    6.81    5.87
   4   3  13   13.75    5.06
  -4   3  13   19.09    5.91
   4   3  14   -0.51    4.42
  -4  -3  14    7.23    1.99
  -4   3  14    4.75    3.95
  -4  -3 -14    8.74    3.36
  -4  -3  14    9.55    4.06
   4   3  14    3.44    1.40
   4  -3  14    3.50    6.86
  -4   3  14   11.29    5.47
   4   3  15   91.99   14.74
  -4  -3  15  113.46   14.71
   4  -3  15   93.33   14.86
  -4   3  15  119.53   17.37
  -4  -3  15  115.08   16.00
  -4   3  15  127.66   16.51
   4   3  15   71.97   12.49
  -4   3  16    1.79    4.02
   4   3  16    2.44    4.93
  -4  -3  16   -0.20    1.22
  -4   3  16    0.40    3.42
  -4  -3 -16   -2.30    3.07
  -4  -3  16   -4.11    4.70
   4  -3  16    0.90    4.01
   4   3  16   -2.66    2.46
   4   3  17  150.35   19.17
  -4  -3  17  143.34   17.97
  -4   3  17  166.02   20.40
   4  -3  17  158.48   19.47
  -4  -3  17  121.26   17.64
  -4   3  17  201.63   21.99
   4   3  17  176.57   20.15
   4   3  18   84.51   14.44
  -4  -3  18   71.05   12.65
   4  -3  18   85.21   15.29
  -4   3  18   67.20   13.24
  -4  -3  18   62.23   12.12
  -4   3  18   80.15   14.50
   4   3  18   68.72   12.45
   4   3  19  122.56   17.73
  -4  -3  19  109.64   16.43
   4  -3  19  108.37   16.53
  -4   3  19   96.34   16.43
  -4  -3  19  113.55   17.03
   4   3  19  105.13   16.91
  -4   3  19  103.47   16.25
   4  -3  19  108.96   18.15
  -4   3  20   47.47   10.72
  -4  -3  20   62.06   12.92
   4   3  20   68.23   13.09
   4  -3  20   63.55   14.22
  -4   3  20   73.62   15.06
   4  -3  20   63.76   13.98
   4   3  20   94.10   16.38
  -4  -3  20   75.74   14.23
   4   3  21  534.79   38.79
  -4  -3  21  492.23   36.11
   4  -3  21  555.95   39.84
  -4   3  21  584.69   40.63
  -4  -3  21  507.68   39.07
   4   3  21  588.98   41.23
  -4   3  21  504.94   36.90
   4  -3  21  537.28   40.04
  -4   3  22   -0.38    2.10
  -4  -3  22   -0.79    2.64
   4   3  22    0.44    3.29
  -4  -3  22   -1.09    3.69
   4  -3  22   -2.68    5.96
  -4   3  22    2.16    5.44
   4   3  22    2.47    6.28
   4  -3  22   -4.57    6.41
  -4   3  23   37.81    9.10
  -4  -3  23   30.48    8.18
   4   3  23   62.93   15.36
   4  -3  23   38.35   11.45
  -4   3  23   39.28   11.91
  -4  -3  23   55.44   12.03
   4   3  23   57.12   13.05
   4  -3  23   30.23   12.09
  -4   3  24    1.83    3.14
   4  -3  24   -1.15    5.01
  -4  -3  24   13.82   10.31
   4   3  24    4.00    4.22
  -4   3  24    4.89    6.83
  -4  -3  24   -1.77    5.10
   4   3  24    1.25    2.87
   4  -3  24    0.33    5.00
  -4   3  25   43.48   13.28
   4  -3  25   85.88   17.81
   4   3  25   54.83   13.75
  -4  -3  25   90.93   17.43
  -4   3  25   52.16   13.72
   4   3  25   73.93   17.75
   4  -3  25   69.19   15.90
   4  -3  26   16.12    9.68
  -4   3  26   15.77    8.14
   4   3  26   30.61   10.36
   4  -3  26   39.76   14.10
  -4  -3  26   20.87    9.40
   4   3  26   30.49    8.89
  -4   3  26   55.83   14.92
  -4   3  27    7.94    7.06
   4   3  27    7.29    3.90
  -4   3  27   10.73    7.77
  -4  -3  27   10.14    5.11
   4   3  27    4.12    3.20
   4  -3  27   12.67   10.01
   4  -3  27   11.95    7.27
  -4   3  28    0.30    5.09
   4   3  28   10.31    6.51
   4   3  28    6.82    5.68
   4  -3  28   10.12    6.73
  -4   3  28   14.99    5.55
  -4  -3  28   29.43    8.07
   4  -3  28   25.65   13.28
  -4   3  29   80.89   16.13
   4  -3  29   92.15   17.41
   4   3  29   97.06   18.53
  -4   3  29  104.75   20.36
  -4  -3  29  104.45   21.07
   4  -3  29  103.60   21.19
   4   3  29  135.08   21.31
  -4   3  30   15.38    9.71
   4   3  30   11.17    5.71
   4  -3  30   13.31    7.22
  -4   3  30    6.83    8.52
  -4  -3  30   -1.24    4.40
   4   3  30    8.42    6.77
   4  -3  30   24.17   10.55
  -4  -4   0   14.80    2.65
  -4  -4   0   25.26    6.17
   4  -4   0   25.46    4.92
  -4  -4   0   20.92    3.75
  -4   4   0    7.80    3.95
   4  -4   0   14.73    5.08
   4  -4  -1   15.48    4.77
  -4  -4   1   20.03    5.04
  -4  -4  -1   15.68    4.32
   4  -4   1   16.33    4.77
  -4  -4   1   21.41    2.59
  -4   4   1   19.50    4.64
  -4  -4   1   21.13    3.93
   4  -4  -1   11.19    3.67
   4  -4   1   14.62    4.25
   4   4   1   23.86    3.74
  -4  -4   2  136.82   10.59
  -4  -4   2  116.01   12.76
   4  -4   2  131.31   11.49
  -4  -4  -2  148.77   14.19
   4  -4  -2  145.37   13.03
   4  -4   2  135.01   14.51
  -4   4   2  117.59   14.25
   4   4   2  130.22    9.46
   4  -4  -2  128.02   14.22
  -4  -4   3   37.37    7.68
   4  -4  -3   50.86    9.09
   4  -4   3   57.19    7.96
  -4  -4  -3   46.58    7.64
   4  -4   3   62.30    9.50
   4  -4  -3   55.46    8.07
  -4   4   3   36.15    7.86
  -4  -4   3   43.91    6.75
   4   4   3   50.86    6.36
  -4  -4   4  172.13   16.11
   4  -4   4  130.70   11.85
   4  -4  -4  141.82   14.47
   4  -4   4  143.31   14.91
  -4  -4  -4  167.21   14.94
  -4  -4   4  139.92    6.48
   4  -4  -4  171.35   14.23
  -4  -4   4  146.31   11.97
  -4   4   4  170.65   17.39
   4   4   4  155.04   11.72
  -4  -4   5  913.37   37.43
   4  -4   5  895.51   31.03
   4  -4   5  901.04   38.28
  -4  -4   5  853.35   18.87
   4  -4  -5  872.96   36.02
  -4  -4   5  893.94   30.73
  -4   4   5  873.44   39.83
   4   4   5  926.33   31.08
  -4  -4   6  139.71   15.51
   4  -4   6  123.90   12.01
   4  -4   6  159.51   16.11
  -4  -4   6  135.55    8.58
  -4  -4  -6  154.73   14.66
  -4   4   6  129.22   15.66
   4  -4  -6  136.47   13.94
  -4  -4   6  144.32   12.95
   4   4   6  155.39   13.38
   4  -4   7  229.91   16.72
  -4  -4   7  254.80   20.45
  -4  -4   7  221.13   12.38
  -4  -4  -7  205.87   17.40
  -4   4   7  259.49   22.05
   4  -4  -7  263.74   20.25
  -4  -4   7  270.75   18.29
   4   4   7  220.16   14.37
   4   4   7  258.41   18.09
   4  -4   7  235.97   19.95
   4  -4   8    1.54    1.44
  -4  -4   8    3.06    3.90
   4   4   8    3.19    3.39
   4  -4   8   -0.56    3.21
  -4  -4  -8    0.04    2.15
  -4   4   8   -0.75    1.64
   4  -4  -8    2.63    2.75
  -4   4   8    5.85    4.31
  -4  -4   8    1.52    1.74
   4   4   8   -2.05    2.93
  -4  -4   8    0.82    1.55
   4  -4   9   -0.01    2.20
  -4  -4   9    2.08    5.84
   4   4   9    0.25    3.08
   4  -4   9    0.54    3.06
  -4   4   9    2.80    3.59
  -4  -4   9    1.34    2.53
  -4  -4  -9    0.39    1.08
   4  -4  -9    1.78    4.07
  -4  -4   9    0.11    3.67
  -4   4   9    1.27    2.44
   4   4   9    3.56    1.90
  -4  -4  10   40.82    6.40
   4   4  10   39.74    7.96
  -4   4  10   42.60    8.48
  -4  -4 -10   44.11    8.69
   4  -4  10   46.24   10.03
  -4  -4  10   32.72    7.57
   4   4  10   56.08    8.70
  -4   4  10   42.43    8.48
   4  -4  10   50.02    8.73
  -4  -4  10   67.10   11.75
  -4  -4  11    7.55    4.66
   4  -4  11   27.12    9.96
   4   4  11   19.02    6.05
  -4  -4  11   18.58    5.06
  -4  -4 -11   16.23    5.69
  -4  -4  11   25.27    7.50
  -4   4  11   25.45    6.53
  -4   4  11   25.47    6.20
   4   4  11   30.87    7.04
   4  -4  11   13.23    3.59
  -4  -4  12    3.45    4.95
   4  -4  12    1.30    3.84
   4   4  12    0.95    2.60
  -4   4  12    2.67    4.31
  -4  -4  12    4.55    3.22
  -4  -4 -12    6.40    2.40
  -4  -4  12    2.00    3.42
   4   4  12    1.76    2.48
  -4   4  12    0.25    4.40
   4  -4  13    1.84    1.96
   4   4  13    4.79    2.14
  -4   4  13   24.28    6.78
  -4  -4  13   13.56    5.26
  -4  -4 -13    7.71    4.26
  -4  -4  13    9.54    3.75
  -4   4  13   20.68    6.93
   4   4  13    9.89    5.33
  -4  -4  13    6.12    3.03
  -4  -4  14  103.82   12.76
   4  -4  14  124.23   16.76
  -4   4  14  115.51   16.40
  -4  -4 -14   80.22   14.03
  -4  -4  14  103.56   15.10
  -4   4  14  124.07   16.90
   4   4  14  138.50   16.58
   4   4  14  133.50   16.79
   4   4  15   32.87    7.52
  -4  -4  15   41.08    8.92
  -4   4  15   29.64    8.26
  -4  -4  15   45.09    9.34
  -4  -4 -15   38.04    9.06
   4   4  15   28.69    8.26
  -4   4  15   28.43    7.74
   4  -4  15   21.14    9.81
   4   4  16   43.24   11.45
  -4  -4  16   36.32    8.22
  -4   4  16   52.09   11.19
  -4  -4  16   50.25   11.35
  -4  -4 -16   10.51    4.88
   4   4  16   24.48    7.68
   4  -4  16   31.96    9.10
  -4   4  16   39.90   10.34
   4   4  17   23.74    8.93
  -4  -4  17   27.08    7.01
  -4  -4 -17   39.72   11.74
  -4   4  17   31.74   10.97
  -4  -4  17   17.91    6.07
   4   4  17   33.46   10.47
   4  -4  17   17.96    6.38
  -4   4  17   16.84    7.25
  -4   4  18   44.84   11.09
   4   4  18   51.05   11.28
  -4  -4  18   42.29   10.40
  -4  -4 -18   39.55   13.47
  -4   4  18   52.31   11.90
  -4  -4  18   63.51   12.90
   4  -4  18   49.58   11.37
   4   4  18   38.35    9.38
  -4  -4  19  142.01   19.10
   4  -4  19  143.99   19.80
  -4  -4 -19  135.38   19.48
  -4  -4  19  197.94   23.05
   4   4  19  139.43   19.94
  -4   4  19  171.33   21.36
  -4   4  19  147.55   20.02
   4   4  19  164.79   20.35
   4   4  20    1.51    3.44
  -4  -4  20    5.24    5.93
  -4  -4 -20    4.55    6.26
  -4   4  20   -2.81    2.36
  -4  -4  20   -0.16    2.25
   4  -4  20   -1.13    3.64
   4   4  20    9.82    5.57
   4  -4  20    6.00    5.58
  -4   4  20    6.47    6.06
  -4  -4 -21   10.06    6.21
   4   4  21    5.37    3.70
  -4  -4  21   18.92   10.78
  -4   4  21    6.16    3.30
   4  -4  21   16.89    7.70
  -4  -4  21   15.53    8.50
   4   4  21   17.10    7.97
   4  -4  21    8.70    7.06
  -4   4  21   10.49    5.52
   4   4  22   24.09    7.74
  -4  -4 -22   28.40    9.77
  -4   4  22   45.04   11.73
   4  -4  22   44.97   12.11
  -4  -4  22   29.25    9.57
   4   4  22   41.23   12.11
   4  -4  22   24.99    8.30
  -4   4  22   32.56    9.75
  -4   4  23   -2.07    5.64
   4   4  23   -4.35    6.46
  -4   4  23   -5.72    8.80
   4  -4  23   -6.44    5.24
  -4  -4 -23    5.04    4.44
  -4  -4  23    2.76    5.89
   4   4  23    1.65    4.98
   4  -4  23    1.59    4.37
  -4   4  24   -0.02    5.16
   4   4  24    0.80    2.64
   4  -4  24   -5.30    6.00
  -4  -4 -24    1.77    5.01
  -4   4  24   -0.60    4.88
  -4  -4  24   -4.87    5.67
   4   4  24    5.04    5.31
   4  -4  24   -2.42    3.72
  -4   4  25    1.16    4.51
   4   4  25    2.64    5.79
  -4  -4 -25    1.95    2.12
   4  -4  25    8.38    4.02
  -4   4  25    7.44    6.86
  -4  -4  25    8.89    8.38
   4   4  25    0.96    4.70
   4  -4  25    2.51    2.95
  -4   4  26    4.49    5.88
   4   4  26    2.56    3.33
   4  -4  26    5.61    4.60
  -4  -4 -26    6.08    9.10
  -4   4  26   -6.29    5.56
  -4  -4  26   -0.30    2.37
   4   4  26    4.36    6.41
   4  -4  26   -1.24    3.34
  -4   4  27    3.68    3.67
   4   4  27    1.76    3.63
  -4  -4 -27   19.41   11.29
  -4   4  27    5.86    4.46
  -4  -4  27   -0.11    2.61
   4  -4  27   12.84    5.21
   4   4  27   -3.53    5.09
   4  -4  27    7.78    7.85
  -4   4  28    8.32    7.26
   4   4  28   12.98    6.00
  -4  -4 -28    1.61    2.84
   4  -4  28   -9.01    8.57
  -4   4  28   13.06    7.90
  -4  -4  28   24.82   11.08
   4   4  28   13.51   10.40
   4  -4  28   12.61    6.67
  -4   4  29   -1.56    4.06
   4   4  29    0.17    4.86
   4  -4  29    2.23    3.38
  -4  -4 -29    0.78    3.68
  -4   4  29   -5.37    6.49
  -4  -4  29   -3.93    3.13
   4   4  29   -3.93    3.92
   4  -4  29   -2.11    6.16
  -4   4  30    3.99    4.09
   4   4  30   15.52   10.00
   4  -4  30   15.14    7.24
  -4   4  30   -5.35    6.78
  -4  -4 -30   18.25   11.30
  -4  -4  30    8.08    2.69
   4   4  30   14.67   10.20
   4  -4  30    9.49    9.94
  -4  -5   0  344.91   23.37
   4  -5   0  331.64   20.58
  -4   5   0  309.07   24.16
   4  -5   0  320.42   23.52
  -4  -5   0  329.72   15.12
  -4  -5   1    1.51    1.60
   4  -5  -1   -0.77    3.16
  -4  -5   1   -1.21    3.09
  -4  -5  -1   -0.37    2.77
   4  -5   1    1.48    2.73
   4  -5  -1    1.74    1.92
  -4   5   1    4.04    3.67
   4  -5   1   -1.03    2.81
  -4  -5   1   -0.21    0.56
  -4  -5  -1   -0.54    1.45
  -4  -5   2  166.41   16.58
   4  -5   2  178.90   15.12
  -4  -5  -2  190.33   17.73
  -4  -5   2  161.32    9.52
   4  -5  -2  150.87   14.05
   4  -5   2  158.66   16.63
  -4   5   2  161.88   17.63
  -4  -5   2  165.12   10.33
   4   5   2  200.29   12.99
   4  -5  -2  156.24   16.28
   4  -5  -3  259.72   21.31
  -4  -5   3  263.62   20.82
  -4   5   3  297.46   24.12
   4  -5   3  252.59   17.92
  -4  -5  -3  236.04   19.79
   4  -5  -3  249.62   18.68
   4  -5   3  279.04   21.79
  -4  -5   3  243.56   13.72
   4   5   3  254.88   15.40
  -4  -5   3  262.59   11.82
   4  -5   4  106.91   11.86
   4  -5  -4  102.91   13.20
  -4  -5  -4   88.42   12.33
   4  -5   4  121.66   14.48
   4  -5  -4  107.00   12.55
  -4  -5   4   91.78    9.52
  -4  -5   4  109.89    7.68
   4   5   4   86.02    9.59
   4   5   4  100.52    6.27
  -4  -5   4  102.56   13.32
  -4  -5   5  116.23   13.91
   4  -5   5  113.37   12.07
   4  -5   5   99.48   13.45
  -4  -5  -5   90.92   12.57
   4  -5  -5   92.10   12.55
   4  -5  -5   95.45   11.89
  -4   5   5   92.39   13.22
  -4  -5   5  114.75    8.43
  -4  -5   5  117.62   11.31
   4   5   5  121.06   12.07
   4   5   5  101.01    7.39
   4   5   6   11.35    3.75
  -4  -5  -6   12.58    5.54
  -4  -5   6   12.88    5.73
   4  -5  -6   20.25    5.60
   4  -5   6   17.03    5.39
  -4   5   6   17.18    6.01
   4  -5  -6   17.61    6.01
  -4  -5   6   12.66    3.94
   4  -5   6   24.07    7.29
   4   5   6   17.51    3.60
  -4  -5   6   16.19    3.40
   4   5   7    9.07    3.88
  -4   5   7   10.21    5.74
  -4  -5   7    8.46    5.29
   4  -5   7    1.11    2.00
  -4  -5  -7    6.58    1.30
   4  -5  -7    8.97    4.56
   4  -5   7    6.03    4.27
  -4  -5   7    4.67    2.66
  -4  -5   7    4.63    2.47
   4   5   7    8.83    2.53
  -4  -5   8  239.09   21.73
   4  -5   8  250.44   19.60
   4  -5  -8  213.43   19.42
   4  -5   8  224.13   20.55
  -4  -5  -8  211.28   19.14
  -4  -5   8  238.25   14.75
  -4   5   8  222.54   21.72
  -4  -5   8  274.54   20.02
   4   5   8  266.19   16.10
   4   5   8  247.52   19.41
   4  -5   9  146.17   15.43
  -4  -5   9  190.85   20.11
  -4  -5   9  172.48   13.74
  -4  -5  -9  217.13   19.45
   4  -5  -9  196.76   19.19
  -4   5   9  166.23   18.96
  -4  -5   9  183.05   16.83
  -4   5   9  201.51   19.85
   4   5   9  193.90   15.30
   4   5   9  223.54   18.78
   4  -5   9  181.58   18.96
   4  -5  10  388.17   25.40
  -4  -5  10  354.44   26.96
  -4  -5  10  410.63   22.13
  -4  -5 -10  337.90   25.40
  -4   5  10  384.66   27.35
  -4   5  10  432.13   30.07
   4  -5 -10  348.58   26.14
  -4  -5  10  373.98   25.64
   4   5  10  367.83   22.01
   4  -5  10  436.22   29.85
   4   5  10  358.55   24.60
   4  -5  11   40.22    8.44
  -4  -5  11   37.92    9.49
   4   5  11   37.36    8.39
  -4  -5  11   47.29    8.62
   4  -5  11   44.81    9.84
  -4  -5 -11   44.27    9.40
  -4  -5  11   50.91   10.39
   4  -5 -11   39.20    8.90
  -4   5  11   32.28    7.40
  -4   5  11   49.91   10.28
   4   5  11   36.27    7.16
  -4  -5  12  107.87   14.88
  -4  -5  12   97.17   12.59
  -4   5  12  145.15   18.36
  -4  -5 -12   95.81   13.84
   4  -5 -12   94.57   15.48
   4  -5  12  148.75   17.43
  -4   5  12  111.23   15.34
   4   5  12   93.56   11.83
   4   5  12  134.49   16.12
   4  -5  12   99.59   13.46
  -4  -5  12  108.61   15.87
   4  -5  13   17.69    5.66
  -4  -5  13   33.94    6.86
   4   5  13   26.84    7.50
   4  -5  13   19.98    6.37
  -4  -5  13   27.39    6.75
  -4  -5 -13   24.23    7.59
  -4   5  13   27.05    7.47
   4  -5 -13   21.47    6.78
  -4  -5  13   25.76    7.42
  -4   5  13   14.09    4.21
   4   5  13   28.48    5.92
  -4   5  14  547.81   35.10
  -4  -5  14  541.41   30.83
  -4  -5 -14  515.00   33.89
  -4   5  14  610.93   37.97
   4  -5  14  600.28   37.36
  -4  -5  14  548.77   34.98
   4   5  14  590.85   33.81
   4   5  14  590.53   35.90
  -4  -5  14  614.14   39.33
  -4  -5  15   10.80    6.43
   4  -5  15    4.58    2.69
   4   5  15   -3.70    5.33
  -4  -5  15    3.62    2.70
  -4  -5 -15    4.43    2.31
  -4   5  15    0.02    2.95
  -4  -5  15    6.57    2.63
   4   5  15    3.08    3.19
  -4   5  15   17.90    7.65
  -4  -5  16  171.44   19.21
  -4  -5  16  184.86   21.47
  -4   5  16  157.88   20.69
   4  -5  16  176.08   20.41
   4   5  16  179.87   20.01
  -4  -5 -16  162.52   20.19
   4   5  16  178.34   20.45
  -4  -5  17   40.84   10.45
  -4  -5 -17   69.26   13.41
  -4  -5  17   70.64   13.46
  -4   5  17   66.17   14.33
   4   5  17   82.30   13.52
  -4   5  17   70.29   15.20
   4   5  17   72.65   13.83
   4  -5  17   22.70   12.32
  -4  -5 -18  122.19   18.28
  -4   5  18  104.70   17.93
   4  -5  18   70.29   15.25
  -4  -5  18   80.49   15.17
   4   5  18  135.08   18.66
  -4   5  18   93.75   15.68
   4   5  18  129.12   18.30
   4   5  19    3.97    2.78
  -4  -5 -19    0.29    5.76
  -4   5  19   -1.79    6.15
  -4  -5  19   -0.64    3.09
   4   5  19    0.27    5.81
   4  -5  19    9.60    4.83
  -4   5  19    0.06    3.88
  -4  -5 -20   89.36   16.30
  -4   5  20  107.91   17.71
   4   5  20   95.33   16.73
  -4   5  20   98.58   17.05
  -4  -5  20   74.95   14.71
   4  -5  20   68.46   12.54
   4   5  20   89.82   16.64
   4  -5  20   74.77   13.64
   4   5  21   16.00    8.60
  -4   5  21   12.00    6.80
  -4  -5 -21    6.07    3.68
  -4   5  21   -2.00    6.56
  -4  -5  21    6.40    3.73
   4  -5  21    8.52    3.82
   4   5  21   12.09    6.05
   4  -5  21   10.23    6.95
   4  -5  22  195.71   24.37
  -4  -5 -22  182.29   24.07
  -4  -5  22  155.04   21.25
   4   5  22  146.03   20.60
  -4   5  22  238.50   27.34
   4  -5  22  143.45   21.98
   4   5  22  199.38   24.49
  -4   5  22  137.23   20.86
   4   5  23   39.33   11.38
  -4   5  23   13.78    6.12
  -4  -5 -23   19.29    6.72
   4  -5  23   34.19   11.37
  -4  -5  23   34.27    9.48
   4   5  23   28.79    8.72
   4  -5  23   24.84    9.31
  -4   5  23   25.94    8.53
   4   5  24   52.14   14.13
   4  -5  24   40.73    9.85
  -4  -5 -24   45.03   10.82
  -4   5  24   60.15   15.18
  -4  -5  24   58.33   14.48
   4   5  24   51.24   13.65
   4  -5  24   65.89   15.62
  -4   5  24   70.75   14.65
   4   5  25   18.34    6.56
  -4  -5 -25   13.93    8.33
   4  -5  25   22.17    8.46
  -4   5  25   19.28    7.98
  -4  -5  25   21.35    9.12
   4   5  25   24.43    9.95
   4  -5  25   22.75    8.91
  -4   5  25   25.26   10.29
   4   5  26   -6.67    6.44
  -4  -5 -26    2.15    5.06
   4  -5  26   -2.52    5.43
  -4   5  26   -9.70    6.55
  -4  -5  26    4.24    2.69
   4   5  26   -7.84    7.15
   4  -5  26   -0.47    3.52
  -4   5  26   -0.82    3.20
   4   5  27   -2.74    3.55
   4  -5  27    1.26    4.00
  -4   5  27    1.14    4.85
  -4  -5 -27   -5.73    5.38
  -4  -5  27    2.58    6.41
   4   5  27   -0.09    4.43
   4  -5  27   -6.09    7.72
  -4   5  27    1.36    2.86
   4   5  28   33.84   12.72
   4  -5  28   41.76   11.84
  -4  -5 -28   -3.93    7.27
  -4   5  28   23.34   11.28
  -4  -5  28   24.08    8.64
   4   5  28   20.79    9.53
   4  -5  28   19.66   11.01
  -4   5  28   18.10    8.68
   4   5  29   28.01    9.82
  -4   5  29   22.45    8.96
   4  -5  29   10.68    5.39
  -4  -5 -29   26.46   11.14
  -4  -5  29   23.98    9.22
   4  -5  29   12.84    7.35
  -4   5  29   22.09    9.31
  -4  -6   0  208.26   19.58
   4  -6   0  254.29   20.08
   4  -6   0  231.60   21.06
  -4  -6   0  239.07   15.44
   4  -6  -1   36.37    8.98
  -4  -6  -1   45.38    6.35
  -4  -6  -1   48.37   10.00
   4  -6  -1   42.87    8.50
  -4  -6   1   25.02    8.18
   4  -6   1   40.21    7.54
  -4   6   1   36.04    7.89
   4  -6   1   40.53    8.17
  -4  -6   1   26.10    5.00
  -4  -6   2  134.66   15.80
   4  -6   2  137.13   16.48
   4  -6   2  150.99   15.46
  -4  -6  -2  125.15   15.44
   4  -6  -2  128.66   14.48
  -4  -6   2  138.88   11.07
  -4   6   2   99.67   13.48
  -4  -6   2  123.13    7.79
   4  -6  -2  155.04   17.46
  -4  -6   3    7.52    3.63
   4  -6   3    5.79    4.40
   4  -6   3   -1.42    2.65
  -4  -6  -3   -0.01    1.88
   4  -6  -3    1.05    2.61
  -4  -6   3    2.41    1.55
   4   6   3    2.44    1.81
   4  -6  -3    4.57    1.94
  -4  -6   3    5.70    2.30
  -4   6   3    5.97    3.93
  -4  -6   4  251.79   22.05
   4  -6  -4  193.38   19.14
   4  -6   4  217.13   18.26
  -4  -6  -4  223.36   20.80
   4  -6   4  245.84   21.59
   4  -6  -4  244.51   20.26
  -4   6   4  248.71   23.00
  -4  -6   4  245.13   13.74
   4   6   4  284.33   18.52
  -4  -6   4  245.13   13.86
   4  -6   5   26.17    6.69
  -4  -6   5   21.40    6.84
   4  -6   5   32.80    7.48
  -4   6   5   23.74    6.97
   4  -6  -5   26.18    8.00
  -4  -6  -5   36.41    8.91
   4  -6  -5   21.30    6.61
  -4  -6   5   29.04    5.53
  -4  -6   5   34.07    4.98
   4   6   5   24.29    5.15
  -4  -6   6  213.05   20.87
   4  -6   6  227.90   19.22
   4  -6   6  234.94   21.67
  -4  -6  -6  223.62   20.48
   4  -6  -6  219.82   20.54
   4  -6  -6  198.27   19.07
  -4   6   6  203.04   21.79
  -4  -6   6  206.56   15.02
  -4  -6   6  234.41   14.47
   4   6   6  197.51    8.95
   4   6   6  250.79   19.25
  -4  -6   7   30.03    8.20
   4  -6   7   28.28    7.27
   4  -6  -7   36.38    8.39
  -4  -6  -7   27.80    7.66
  -4  -6   7   34.58    6.31
  -4   6   7   22.58    7.51
   4  -6  -7   37.09    7.87
   4   6   7   35.88    4.78
   4  -6   7   27.53    7.23
  -4  -6   7   23.10    5.70
   4   6   7   28.03    6.39
   4   6   8    0.93    2.11
  -4  -6   8   -3.31    5.48
   4  -6   8    4.30    4.07
  -4  -6  -8    2.59    4.78
  -4   6   8    0.26    4.17
   4  -6  -8   -0.53    2.19
   4  -6   8    0.77    3.10
  -4  -6   8   -2.80    1.64
   4   6   8    0.21    0.94
  -4  -6   8   -0.33    1.39
   4   6   9   20.96    6.16
  -4  -6   9    8.59    5.51
   4  -6   9    7.68    4.36
   4  -6   9    4.01    1.87
  -4  -6  -9   12.25    6.17
  -4   6   9   16.30    7.23
   4  -6  -9   24.30    7.34
  -4  -6   9   12.11    5.41
   4   6   9   10.26    3.07
  -4  -6   9    3.97    2.99
   4   6  10   28.94    7.34
   4  -6  10   45.37    9.37
  -4  -6  10   24.37    8.00
   4  -6  10   39.68   10.08
  -4  -6 -10   40.79    9.19
   4  -6 -10   18.34    6.64
   4   6  10   42.36    7.57
  -4  -6  10   42.00    8.52
  -4  -6  10   30.00    6.94
  -4   6  10   40.57   10.33
   4   6  11   28.08    7.77
   4  -6  11   14.62    5.73
  -4  -6  11   33.06    8.76
  -4  -6  11   47.50    9.40
   4  -6  11   24.71    7.28
  -4  -6 -11   35.36    9.12
  -4   6  11   27.92    7.17
  -4   6  11   31.35    8.30
  -4  -6  11   39.36    8.61
   4   6  11   20.61    5.28
   4  -6 -11   12.22    5.56
  -4  -6  12  212.56   22.63
  -4  -6 -12  232.09   23.33
  -4   6  12  266.07   25.42
   4  -6 -12  237.20   23.22
  -4  -6  12  249.94   22.71
   4   6  12  209.56   17.92
  -4   6  12  191.34   20.78
   4  -6  12  241.75   24.24
   4   6  12  174.22   19.04
   4  -6  12  226.94   21.39
   4  -6  13    6.36    6.58
  -4  -6  13   -2.75    5.63
   4   6  13   -1.99    4.20
   4  -6  13   -3.65    2.53
  -4  -6 -13    2.89    3.37
  -4   6  13   -1.81    2.52
   4  -6 -13   -1.04    2.33
  -4  -6  13   -1.76    1.41
  -4   6  13    1.36    2.69
   4   6  13    1.75    1.20
   4  -6  14    5.52    3.38
  -4  -6  14   14.17    8.04
   4   6  14   15.84    7.17
   4  -6  14   19.55    7.04
  -4   6  14   15.47    8.30
  -4  -6 -14   25.49    8.46
   4  -6 -14   10.13    1.77
  -4  -6  14   27.95    8.36
   4   6  14   22.43    7.11
  -4   6  14   12.44    4.72
  -4   6  15  376.08   31.17
  -4  -6 -15  367.92   30.51
   4  -6 -15  429.39   33.78
   4  -6  15  333.55   28.69
  -4  -6  15  406.97   31.74
   4   6  15  298.83   24.86
  -4   6  15  355.60   29.12
   4   6  15  374.94   29.94
   4  -6  15  412.81   31.25
  -4  -6  15  403.58   33.02
  -4  -6  16    4.29    6.67
   4  -6  16    2.82    1.67
   4   6  16    8.51    4.54
  -4  -6 -16   -1.23    1.60
  -4   6  16   -2.52    5.94
   4  -6 -16   10.97    5.15
  -4  -6  16   -2.39    4.00
   4   6  16   -4.73    5.65
  -4   6  16    2.59    4.15
   4  -6  17   30.39   11.85
   4   6  17   24.25    8.04
  -4  -6 -17   45.03   11.64
  -4   6  17   38.91   11.66
   4  -6 -17   38.98   12.51
  -4  -6  17   35.90    8.70
   4   6  17   25.25    7.42
  -4   6  17   32.19    9.54
  -4  -6  17   17.66    7.11
   4   6  18   66.09   12.32
   4  -6  18   59.09   13.90
  -4  -6 -18   36.98   10.73
  -4   6  18   29.07    9.84
   4  -6 -18   48.29   13.42
  -4  -6  18   59.48   12.79
   4   6  18   49.41   11.69
  -4   6  18   66.58   13.21
   4   6  19   12.54    2.53
  -4  -6 -19    6.97    6.97
  -4   6  19   16.97    8.47
   4  -6 -19   15.72    5.86
  -4  -6  19    6.06    3.44
   4   6  19   19.19    7.64
  -4   6  19   20.32   10.47
   4  -6  19   18.83    7.91
   4   6  20   15.34   10.48
  -4  -6 -20    8.96    5.07
  -4   6  20   10.20    4.55
   4  -6 -20    5.62    4.08
  -4  -6  20   -1.21    3.96
   4   6  20   11.18    7.38
   4  -6  20    6.81    3.18
  -4   6  20    3.61    6.49
   4   6  21   65.84   13.16
   4  -6  21   78.94   15.29
  -4  -6 -21   66.63   15.67
   4  -6 -21   73.16   15.86
  -4   6  21   87.53   16.15
  -4  -6  21   65.30   13.71
  -4   6  21   77.43   16.68
   4   6  21   50.16   10.53
   4  -6  21   64.78   14.28
   4   6  22   32.60   10.09
  -4  -6 -22   24.29    9.01
  -4   6  22   20.95    7.99
   4  -6 -22   10.72    4.73
  -4  -6  22   15.79    8.94
   4  -6  22   27.20    9.26
  -4   6  22    7.20    5.68
   4  -6  22    4.18    3.64
   4   6  23    7.42    5.17
  -4  -6 -23   22.23   10.41
  -4   6  23   12.28    6.22
   4  -6 -23    3.95    7.04
  -4  -6  23    7.58    6.84
   4  -6  23   17.81    8.90
  -4   6  23   10.25    7.05
   4  -6  23   11.23    8.20
   4   6  24   -1.09    4.19
  -4   6  24   10.38    9.61
   4  -6 -24   -0.43    2.35
   4  -6  24   12.50    6.59
  -4  -6  24    2.50    4.60
  -4   6  24   -0.20    3.37
  -4  -6 -24    5.23    3.42
   4  -6  24    3.99    2.76
   4   6  25   13.01    7.20
  -4  -6 -25   -0.89    4.25
   4  -6 -25    5.12    6.38
   4  -6  25    0.69    2.02
  -4  -6  25    4.08    6.12
  -4   6  25   14.29    7.95
  -4   6  25    9.69    4.67
   4  -6  25    3.38    4.98
   4   6  26   57.17   15.36
   4  -6  26   84.45   17.08
   4  -6 -26  107.58   19.39
  -4  -6 -26   69.15   19.51
  -4  -6  26   75.65   16.68
   4  -6  26  104.14   19.48
  -4   6  26   62.64   14.93
  -4   6  26   89.24   17.85
   4   6  27   25.58    9.19
  -4  -6 -27    6.79    7.38
   4  -6  27   20.27    8.58
  -4   6  27    9.70    8.23
   4  -6 -27   13.54    6.02
  -4  -6  27   27.08   10.35
   4  -6  27    0.20    3.89
  -4   6  27   10.32    6.38
   4   6  28    3.40    7.66
  -4  -6 -28   -1.75    4.53
   4  -6  28   -3.89    5.49
   4  -6 -28    3.60    7.34
  -4  -6  28   -1.09    2.77
   4  -6  28    0.66    4.10
  -4   6  28   -0.51    2.77
  -4   6  28   15.88    8.52
  -4  -7   0   63.15   11.73
   4  -7   0   67.26   11.27
  -4  -7   0   55.19    8.41
   4  -7   0   65.74   11.82
  -4  -7  -1  166.50   14.60
  -4  -7   1  152.74   17.61
  -4  -7  -1  161.62   18.87
   4  -7   1  149.88   16.38
   4  -7  -1  132.28   15.56
  -4   7   1  157.93   18.96
   4  -7   1  182.48   19.48
  -4  -7   1  144.85   13.21
   4  -7  -1  103.62   13.99
  -4  -7   2   13.85    5.52
   4  -7   2   30.13    7.26
   4  -7  -2   19.35    6.92
  -4  -7  -2   27.60    7.89
  -4  -7   2   27.60    6.10
   4  -7  -2   29.58    7.45
  -4   7   2   18.50    5.82
   4  -7   2   33.50    8.31
  -4  -7  -2   25.89    6.09
  -4  -7   3 1533.54   57.91
   4  -7   3 1617.90   54.62
  -4  -7  -3 1513.53   57.17
  -4  -7   3 1496.63   41.17
   4  -7  -3 1550.10   54.93
   4  -7   3 1653.48   59.15
  -4   7   3 1574.57   59.34
   4  -7  -3 1678.90   60.09
   4  -7  -4  458.31   31.50
  -4  -7   4  462.49   31.71
  -4  -7   4  478.50   23.80
   4  -7   4  513.65   30.78
  -4  -7  -4  500.93   32.98
   4  -7  -4  411.02   28.19
   4  -7   4  464.72   30.91
  -4   7   4  506.58   33.58
   4  -7   5   57.64   10.95
   4  -7   5   86.86   13.37
   4  -7  -5   89.16   13.26
  -4  -7   5   48.34   10.31
  -4   7   5   51.92   11.60
   4  -7  -5   59.79   11.08
  -4  -7  -5   41.15    9.51
   4   7   5   54.61    9.71
  -4  -7   5   61.61    8.67
  -4  -7   6  100.22   15.19
   4  -7   6  129.83   15.48
   4  -7   6  117.66   15.45
   4  -7  -6  122.06   16.07
  -4  -7  -6   85.75   13.69
   4  -7  -6  130.12   16.16
  -4   7   6  111.88   15.99
   4   7   6  115.76   13.89
  -4  -7   7  287.94   25.67
   4  -7   7  261.73   22.89
   4  -7   7  245.25   23.04
  -4  -7  -7  249.95   23.72
   4  -7  -7  253.57   23.58
   4  -7  -7  302.52   24.98
  -4   7   7  280.09   25.85
   4   7   7  282.12   21.73
  -4  -7   8   -1.52    2.66
   4  -7   8    3.60    4.66
  -4  -7  -8   -0.57    1.86
   4  -7  -8   -1.27    1.95
  -4   7   8   -4.21    2.24
   4  -7  -8    0.42    2.75
   4  -7   8   -0.88    3.12
   4   7   8   -1.00    1.44
  -4  -7  -9    4.02    3.10
  -4  -7   9    5.75    3.01
   4  -7   9    8.72    4.72
   4  -7   9    8.06    5.94
   4  -7  -9   15.17    5.41
  -4   7   9    9.51    4.27
  -4  -7   9    9.22    4.19
   4   7   9    7.63    3.39
  -4  -7  10   24.88    7.21
   4  -7  10   29.62    8.22
  -4  -7 -10   26.32    8.51
   4  -7  10   11.07    3.86
  -4   7  10   24.06    8.30
   4  -7 -10   18.93    5.99
  -4  -7  10   15.16    5.38
   4   7  10   17.72    6.13
   4  -7  11  462.19   32.51
  -4  -7  11  455.41   33.67
  -4  -7 -11  413.83   31.06
   4  -7 -11  465.12   33.59
  -4   7  11  507.48   36.38
  -4  -7  11  413.57   28.50
   4   7  11  366.37   28.32
   4  -7  11  482.10   33.06
   4   7  12    8.87    4.37
   4  -7  12   13.44    4.94
  -4  -7  12    6.85    6.97
   4  -7  12   12.17    5.68
  -4  -7 -12   14.25    6.64
  -4   7  12   -1.08    1.82
   4  -7 -12    7.95    5.02
  -4  -7  12   18.27    6.66
   4  -7  13  262.83   25.24
  -4  -7  13  285.57   27.26
  -4  -7 -13  253.86   25.05
   4  -7 -13  230.81   24.30
  -4   7  13  301.48   28.88
  -4  -7  13  239.54   23.42
  -4   7  13  279.55   25.77
   4  -7  13  240.28   24.20
   4   7  13  232.70   23.42
   4   7  14   43.58   11.10
   4  -7  14   24.87    7.36
  -4  -7  14   36.20    8.53
   4  -7 -14   31.85    8.95
   4  -7  14   42.65   11.24
  -4   7  14   39.36   10.45
  -4  -7 -14   31.54    9.94
  -4  -7  14   45.13   10.94
  -4   7  14   39.10   10.08
  -4  -7 -15  355.88   30.74
   4  -7 -15  369.29   32.13
  -4   7  15  340.49   30.05
   4  -7  15  367.84   30.83
  -4  -7  15  361.51   30.02
  -4   7  15  364.71   30.19
   4   7  15  350.45   28.99
   4  -7  15  351.29   29.90
  -4  -7  15  290.57   28.55
   4  -7  16   15.26    6.46
  -4  -7  16   31.86    8.21
   4   7  16   29.17    9.87
   4  -7  16   22.55    7.85
  -4  -7 -16   23.09    6.90
   4  -7 -16   23.79    8.65
  -4  -7  16   23.00    7.70
  -4   7  16   30.73    9.83
  -4   7  16   22.75    8.31
  -4  -7  17   17.07   10.12
   4   7  17   39.98   10.04
   4  -7  17   24.88    9.57
  -4  -7 -17   21.19    8.15
  -4   7  17   29.23    9.32
   4  -7 -17   21.91    8.55
  -4  -7  17   11.00    5.69
  -4   7  17   10.04    3.74
   4  -7  17   24.75    9.03
  -4  -7  18   13.95    9.30
   4  -7  18   46.95   11.22
   4   7  18   29.17    9.13
  -4  -7 -18   38.90   10.92
  -4   7  18   54.34   12.95
   4  -7 -18   56.33   13.09
  -4  -7  18   42.39   10.50
  -4   7  18   43.57   11.25
   4   7  19   51.78   13.05
  -4  -7 -19   42.50   11.82
  -4   7  19   34.43   11.24
   4  -7 -19   51.43   13.60
  -4  -7  19   50.08   12.37
  -4   7  19   39.90   11.41
   4  -7  19   40.97   11.69
   4   7  20    5.05    6.23
   4  -7 -20   17.02    9.53
  -4  -7 -20   -1.69    5.27
  -4   7  20   18.44   10.75
  -4  -7  20    3.61    3.78
  -4   7  20    1.19    3.89
   4  -7  20   -0.81    3.39
  -4  -7 -21  196.92   23.99
   4  -7  21  196.68   25.32
   4  -7 -21  228.66   27.36
  -4   7  21  209.35   26.59
  -4  -7  21  200.94   25.33
  -4   7  21  224.53   26.17
   4   7  21  238.25   26.90
   4  -7  21  209.14   26.48
   4   7  22   16.72    9.17
  -4   7  22   16.72    9.03
   4  -7 -22   12.35    6.79
  -4  -7  22    5.69    5.05
   4  -7  22   39.21   11.60
  -4   7  22   17.04    7.68
   4  -7  22   32.51   10.16
  -4  -7 -22   36.88   10.61
   4   7  23   35.95   11.65
  -4  -7 -23   10.84    6.57
  -4   7  23   18.17    8.50
   4  -7 -23   -0.16    5.42
  -4  -7  23   19.59    7.03
  -4   7  23    5.03    6.40
   4  -7  23   12.12    8.20
   4  -7  23   25.58   10.00
   4   7  24   59.64   15.13
  -4  -7 -24   39.03   11.68
  -4   7  24   40.27   12.27
   4  -7 -24   26.50    8.68
  -4  -7  24   84.53   18.02
   4  -7  24   53.55   12.61
  -4   7  24   57.20   13.90
   4  -7  24   51.04   12.76
   4  -7  25  117.69   19.35
  -4   7  25   77.85   16.34
   4  -7 -25   93.84   19.88
  -4  -7 -25   89.80   18.20
  -4   7  25   79.65   17.85
  -4  -7  25   94.34   19.19
   4   7  25  100.85   19.14
   4  -7  25  102.19   19.53
   4   7  26   -0.38    5.87
  -4  -7 -26   -7.57    6.87
  -4   7  26   -4.57    5.94
   4  -7 -26  -14.49    9.08
   4  -7  26   -1.90    3.66
  -4  -7  26    1.50    5.19
  -4   7  26   10.23    7.00
   4  -7  26    4.62    5.01
   4   7  27   -4.01    6.37
  -4  -7 -27    1.15    4.50
  -4   7  27    6.62    3.52
   4  -7 -27    4.35    8.40
   4  -7  27   21.70    8.73
  -4  -7  27    2.88    6.92
  -4   7  27    3.07    2.98
   4  -7  27    5.76    6.32
  -4  -8   0  179.16   20.55
   4  -8   0  219.20   22.05
  -4  -8   0  198.10   17.58
   4  -8   0  232.94   23.47
   4  -8  -1    9.51    5.52
  -4  -8   1   18.93    6.95
  -4  -8  -1    6.80    2.78
   4  -8   1    2.78    2.04
   4  -8  -1   -4.13    4.89
  -4  -8  -1   12.50    5.02
   4  -8   1   11.81    4.86
  -4  -8   1   10.57    5.07
  -4  -8  -2   -0.74    3.20
   4  -8  -2   -0.89    2.39
  -4  -8   2    0.81    3.94
   4  -8   2   -0.33    1.77
  -4  -8  -2    0.83    5.01
  -4  -8   2    9.29    5.67
   4  -8  -2   -0.79    1.73
  -4   8   2    1.76    4.22
   4  -8   2    3.16    2.16
  -4  -8   3  284.00   26.15
   4  -8   3  319.19   26.09
  -4  -8  -3  258.50   24.92
   4  -8  -3  268.81   24.14
  -4  -8  -3  267.15   20.19
   4  -8   3  269.61   24.99
  -4   8   3  303.22   26.36
   4  -8  -3  281.05   26.03
  -4  -8   4   70.31   13.37
   4  -8   4   78.87   13.24
  -4  -8  -4   84.06   11.78
  -4  -8  -4   85.73   14.22
   4  -8  -4   81.18   13.26
   4  -8   4   67.40   12.72
  -4   8   4  102.07   15.37
   4  -8  -4   61.91   12.76
   4  -8  -5    7.23    6.04
   4  -8   5    2.69    4.18
  -4  -8   5   -0.51    4.52
   4  -8   5    1.28    1.94
  -4  -8  -5    1.33    3.59
  -4   8   5    1.43    4.40
   4  -8  -5    0.16    4.76
  -4  -8   6   92.34   15.33
   4  -8   6   55.50   11.73
   4  -8   6   92.35   14.15
  -4  -8  -6   83.72   15.24
   4  -8  -6   85.88   14.31
   4  -8  -6   56.15   11.57
  -4   8   6   71.02   12.82
   4   8   6   72.44   12.06
  -4  -8   7  149.04   18.79
   4  -8   7  175.56   19.65
   4  -8   7  209.51   21.92
   4  -8  -7  146.42   18.32
  -4  -8  -7  153.22   19.92
   4  -8  -7  209.50   21.88
  -4   8   7  166.17   20.14
   4   8   7  168.09   17.73
  -4  -8   8  117.80   17.44
   4  -8   8  122.56   15.93
   4  -8   8  144.45   17.91
  -4  -8  -8  142.38   19.03
   4  -8  -8  137.46   17.90
   4  -8  -8  112.51   15.69
  -4   8   8  115.34   17.35
   4   8   8  133.49   16.56
   4  -8  -9   20.57    8.57
  -4  -8   9   27.01    9.47
   4  -8   9   50.07   11.67
  -4  -8  -9   32.04    9.86
   4  -8  -9   15.58    6.93
  -4   8   9   40.78   11.27
   4  -8   9   33.46    9.82
   4   8   9   37.85    8.82
  -4  -8  10    1.49    4.26
   4  -8  10    5.87    4.56
   4  -8 -10   11.27    6.15
  -4  -8 -10   12.30    5.82
  -4   8  10    7.99    4.72
   4  -8 -10   13.30    5.78
   4   8  10   12.33    4.36
   4  -8  10   16.41    6.96
  -4  -8  11   39.56   11.66
   4  -8  11   34.60    9.58
   4  -8  11   20.25    7.96
  -4  -8 -11   22.96    8.78
  -4   8  11   39.57   10.78
   4  -8 -11   24.35    8.15
   4   8  11   32.34    8.78
  -4  -8  12   21.05    8.47
   4  -8  12   15.31    7.43
   4  -8  12   16.32    6.44
  -4  -8 -12   10.17    2.15
  -4   8  12   22.42    8.55
   4  -8 -12    6.25    1.75
   4   8  12   13.81    6.05
   4  -8  13   21.36    7.64
  -4  -8  13   16.95    8.97
   4  -8  13   14.95    5.76
  -4  -8 -13   23.87    8.06
  -4   8  13   22.57    9.01
   4  -8 -13   24.63    8.08
   4   8  13   18.74    7.15
   4  -8  14   15.59    7.46
  -4  -8  14   24.72    9.33
   4  -8  14   13.72    6.88
  -4   8  14    8.37    4.55
  -4  -8 -14    1.60    4.09
   4  -8 -14   11.82    9.14
   4   8  14   15.94    7.53
   4  -8  15   23.55    8.33
  -4  -8  15   29.28    9.24
   4  -8  15   40.50   11.05
  -4  -8 -15   26.33    8.85
  -4   8  15   33.17   11.11
   4  -8 -15   44.06   12.82
  -4   8  15   27.71    9.57
   4   8  15   16.84    6.31
   4  -8  16   10.22    7.18
  -4  -8  16   13.15    8.08
  -4   8  16   12.48    6.28
   4  -8  16   11.45    6.64
  -4  -8 -16    7.17    6.78
  -4   8  16    3.33    5.74
   4  -8 -16   19.20    7.95
   4   8  16    8.62    5.23
  -4   8  17  114.88   18.14
  -4  -8 -17  124.91   20.06
   4  -8 -17   73.29   16.78
  -4   8  17  110.76   19.18
   4  -8  17   90.97   16.23
   4   8  17  118.39   18.16
   4  -8  17  115.00   17.74
  -4  -8  17   93.19   17.37
   4   8  18    6.27    3.39
  -4  -8  18   11.40    6.98
   4  -8  18   23.07    3.63
  -4  -8 -18   13.87    6.62
   4  -8 -18    2.36    3.13
  -4   8  18   16.68    8.30
  -4   8  18    2.79    4.84
   4  -8  18   13.12    7.35
   4   8  19   15.02    6.25
  -4  -8  19   23.96    7.78
   4  -8  19   21.02    8.85
   4  -8 -19   13.90    4.16
  -4  -8 -19   30.84   10.86
  -4   8  19   11.73    5.09
  -4   8  19   15.87    7.84
   4   8  20    3.80    4.99
  -4  -8 -20    2.13    6.24
  -4   8  20    3.88    2.77
   4  -8 -20    0.96    5.44
  -4  -8  20  -10.22    5.72
  -4   8  20    7.51    3.94
  -4  -8  20    9.04    8.24
   4  -8  20   11.57    5.94
   4   8  21   85.75   16.26
  -4  -8 -21  130.74   21.09
   4  -8  21   82.61   18.57
   4  -8 -21  142.95   22.02
  -4   8  21   96.83   18.95
  -4   8  21  108.37   18.48
   4  -8  21  123.98   19.95
   4   8  22    6.57    3.23
  -4  -8 -22   -4.96    5.66
  -4   8  22    2.82    7.49
   4  -8 -22   -3.96    8.29
  -4   8  22   14.14    7.07
   4  -8  22    3.72    6.21
   4  -8  22   17.12    8.92
   4   8  23   31.04    8.86
  -4  -8 -23   23.59    9.76
  -4   8  23   21.45    7.74
   4  -8 -23   20.78    5.94
  -4   8  23   14.58    5.60
   4  -8  23   15.55    7.74
   4  -8  23   20.42    8.07
   4   8  24   10.44    6.67
  -4  -8 -24   -7.70    6.06
   4  -8 -24   -1.66    8.04
  -4   8  24    0.25    5.84
  -4  -8  24   -2.53    3.27
   4  -8  24    6.02    7.31
  -4   8  24    7.15    7.97
   4  -8  24   13.94    7.76
   4   8  25   60.54   14.00
  -4  -8 -25   83.14   16.32
   4  -8 -25   75.42   17.29
  -4   8  25  100.30   19.48
   4  -8  25   69.57   14.98
   4  -8  25   72.20   16.49
  -4   8  25   61.33   14.22
   4   8  26   -1.66    5.75
  -4  -8 -26   -5.27    7.00
  -4   8  26   -3.50    4.30
   4  -8 -26   -5.40    5.53
   4  -8  26    0.98    5.62
  -4  -8  26   -9.50    5.96
  -4   8  26    5.43    5.02
   4  -8  26    0.47    6.82
  -4  -9   0  627.16   39.98
   4  -9   0  621.42   38.97
   4  -9   0  639.53   40.22
  -4  -9   1  281.47   26.97
  -4  -9  -1  222.11   23.92
   4  -9   1  251.65   24.74
   4  -9  -1  247.98   24.68
   4  -9   1  235.76   24.04
   4  -9  -1  254.94   24.76
  -4  -9  -1  279.12   23.52
  -4  -9   2  217.82   23.41
   4  -9   2  252.52   24.38
  -4  -9  -2  214.83   23.66
   4  -9  -2  211.13   22.24
   4  -9   2  242.23   24.21
   4  -9  -2  249.39   25.41
  -4  -9  -2  160.56   17.64
  -4  -9   3  460.41   34.30
  -4  -9  -3  414.90   28.09
   4  -9   3  416.90   31.25
  -4  -9  -3  464.66   34.60
   4  -9  -3  419.14   31.72
   4  -9   3  431.76   32.74
  -4   9   3  441.18   34.17
   4  -9  -3  453.66   34.68
  -4  -9   4  464.59   34.55
   4  -9   4  441.91   33.08
  -4  -9  -4  478.74   35.83
   4  -9  -4  495.59   35.10
  -4  -9  -4  396.93   27.69
   4  -9   4  484.59   34.53
  -4   9   4  441.12   34.32
   4  -9  -4  422.66   32.93
   4  -9   5   -2.02    3.81
  -4  -9   5   -1.99    3.24
   4  -9   5    3.82    6.64
  -4  -9  -5   -1.83    4.14
   4  -9  -5   -4.03    7.39
  -4  -9  -5    3.68    3.96
  -4   9   5    2.58    6.85
   4  -9  -5    0.34    2.74
  -4  -9   6  167.66   20.74
   4  -9  -6  137.38   18.83
   4  -9   6  167.65   21.09
  -4  -9  -6  164.80   21.40
   4  -9   6  182.60   21.30
   4  -9  -6  167.26   20.84
  -4   9   6  140.17   18.93
  -4  -9   7  607.98   40.40
   4  -9   7  675.31   40.33
   4  -9  -7  648.18   40.31
   4  -9   7  673.88   41.36
  -4  -9  -7  660.11   42.63
   4  -9  -7  571.13   38.51
  -4   9   7  632.28   41.82
  -4  -9   8   68.25   14.42
  -4   9   8   64.25   14.10
   4  -9   8   61.27   12.35
   4  -9  -8   32.61    9.63
  -4  -9  -8   64.74   13.30
   4  -9  -8   47.84    9.87
   4  -9   8   38.62    8.80
   4   9   8   64.30   11.81
  -4  -9   9   48.31   11.81
   4  -9   9   67.20   12.76
  -4  -9  -9   77.45   15.36
   4  -9  -9   68.06   13.17
   4  -9  -9   77.90   13.14
  -4   9   9   71.08   13.83
   4  -9   9   56.58   12.25
   4   9   9  100.56   15.04
  -4  -9  10    5.39    3.68
   4  -9  10    1.54    6.04
  -4  -9 -10   13.43    7.09
   4  -9 -10    7.97    7.46
  -4   9  10    6.97    4.83
   4  -9  10    7.86    6.84
   4  -9 -10    6.42    3.28
   4   9  10    2.98    4.02
  -4  -9  11   77.84   15.76
   4  -9  11   99.56   16.94
   4  -9 -11   80.56   15.18
  -4  -9 -11   63.83   14.36
  -4   9  11  102.35   17.46
   4  -9 -11   70.43   13.00
   4   9  11   84.36   13.77
   4  -9  11   94.73   15.93
  -4  -9  12   20.64    9.44
   4  -9  12    8.07    6.67
   4  -9  12   12.49    6.27
   4  -9 -12    7.97    7.45
  -4   9  12   19.75    8.15
   4  -9 -12    6.35    2.13
   4   9  12    3.13    1.73
  -4  -9 -12   13.46    6.84
   4  -9  13   15.39    7.01
  -4  -9  13   19.52    8.20
  -4  -9 -13   19.25    9.03
   4  -9  13   15.39    8.31
   4  -9 -13   15.31    8.29
  -4   9  13   18.01   10.04
   4   9  13   19.65    7.41
   4  -9  14   32.06   10.99
  -4  -9  14   58.44   13.33
  -4  -9 -14   58.14   13.10
  -4   9  14   45.07   13.22
   4  -9 -14   54.11   14.27
   4   9  14   86.53   15.06
   4  -9  14   69.75   14.36
   4  -9  15   96.43   16.79
  -4  -9  15  130.12   19.30
  -4  -9 -15  106.49   18.94
   4  -9 -15  117.42   18.69
  -4   9  15  132.17   20.67
   4  -9  15  132.33   19.27
   4   9  15  126.36   19.35
   4  -9  16    4.96    5.41
  -4  -9  16    0.80    2.84
   4  -9 -16    1.38    3.14
   4  -9  16    2.20    3.55
  -4  -9 -16   -3.35    6.59
  -4   9  16    1.27    5.24
   4   9  16    6.11    2.74
  -4  -9 -17  165.90   22.57
   4  -9 -17  128.24   19.97
  -4   9  17  146.94   21.33
   4  -9  17  188.84   23.69
  -4   9  17  109.15   18.91
   4   9  17  104.48   17.21
   4  -9  17  126.67   20.81
  -4  -9  17  134.76   21.14
   4  -9  18   46.22   13.51
  -4  -9  18   60.65   14.12
   4  -9  18   47.31   11.66
  -4  -9 -18   34.20    8.17
  -4   9  18   54.71   13.38
   4  -9 -18   47.98   11.46
  -4   9  18   31.19    8.49
   4   9  18   64.75   13.39
   4  -9  19    3.09    6.64
  -4  -9  19    5.83    3.96
   4  -9  19    1.27    3.74
  -4  -9 -19   -7.27    7.16
  -4   9  19    0.13    4.58
   4  -9 -19   -1.36    3.77
  -4   9  19   -0.57    4.69
   4   9  19    3.52    3.00
   4  -9  20    8.39    6.51
  -4  -9  20    1.77    2.03
  -4  -9 -20   -2.60    5.48
  -4   9  20    0.53    5.48
   4  -9 -20   -6.78    5.69
  -4   9  20   17.10    8.06
   4   9  20    6.38    3.79
   4  -9 -21   80.06   16.20
   4  -9  21   79.98   16.33
  -4  -9 -21   61.69   14.64
  -4   9  21   70.19   15.63
  -4   9  21   92.73   16.76
   4  -9  21   97.02   17.90
  -4  -9  21   96.93   18.39
   4   9  21   75.30   15.49
   4  -9 -22   17.41   11.04
  -4  -9 -22   88.31   17.68
  -4   9  22   37.62   11.36
  -4   9  22   65.11   15.48
   4  -9  22   52.79   12.89
   4  -9  22   76.49   17.13
   4   9  22   48.10   12.17
  -4   9  23   20.30   10.68
   4  -9 -23   21.27    8.13
  -4  -9 -23    6.77   10.45
  -4   9  23   14.07    7.53
   4  -9  23   11.48    4.82
   4  -9  23   11.28    6.22
   4   9  23   10.84    6.74
   4  -9 -24   16.27    9.58
  -4  -9 -24    0.60    5.59
  -4   9  24   17.61    9.99
  -4   9  24    4.33    3.20
   4  -9  24   11.22    6.95
   4  -9  24   12.64    3.49
   4   9  24    1.57    4.43
   4  -9 -25    0.75    6.20
  -4  -9 -25    8.34    2.89
  -4   9  25   14.94    7.99
   4  -9  25    8.23    5.31
  -4   9  25    5.11    3.79
   4  -9  25   12.00    7.29
   4   9  25    4.16    6.26
  -4 -10   0   38.27   11.01
   4 -10   0   29.22    8.90
   4 -10   0   49.18   12.00
  -4 -10   1    7.17    6.44
  -4 -10  -1    8.38    8.42
   4 -10   1    8.39    6.67
   4 -10  -1    2.14    2.43
   4 -10   1   14.20    7.33
   4 -10  -1   12.36    6.44
   4 -10  -2    2.35    4.66
  -4 -10   2    1.82    4.01
   4 -10   2    8.66    2.48
  -4 -10  -2    3.17    5.61
   4 -10  -2   14.69    5.60
   4 -10   2   14.73    5.41
   4 -10  -3   -1.25    1.71
  -4 -10   3    0.07    3.64
   4 -10   3    9.80    7.20
  -4 -10  -3   -2.46    4.09
   4 -10   3   -2.86    3.23
   4 -10  -3   -0.69    3.35
   4 -10   4   15.24    5.82
  -4 -10   4    3.73    3.69
   4 -10   4    8.64    6.60
  -4 -10  -4    9.93    7.20
   4 -10  -4    3.75    5.62
   4 -10  -4    5.07    6.24
  -4  10   4    1.61    3.59
   4 -10   5    0.87    2.05
  -4 -10   5    5.26    6.42
   4 -10   5   -0.21    4.34
  -4 -10  -5   -1.66    4.01
   4 -10  -5   -3.92    4.16
  -4  10   5   -0.46    3.45
   4 -10  -5   -7.09    5.53
  -4 -10  -5    8.01    6.41
  -4 -10   6  159.48   20.47
   4 -10   6  154.89   20.60
  -4 -10  -6  147.44   20.48
   4 -10   6  156.70   21.31
   4 -10  -6  172.19   21.49
  -4 -10  -6  151.90   18.63
  -4  10   6  182.00   22.93
   4 -10  -6  145.71   20.60
   4 -10  -7   11.60    7.98
  -4 -10   7   -3.96    5.09
   4 -10   7    1.94    4.76
   4 -10  -7   -1.84    2.22
  -4 -10  -7   -2.45    3.87
  -4  10   7    3.51    3.50
   4 -10   7    2.63    2.04
  -4 -10   8  172.32   21.94
   4 -10   8  186.35   22.66
  -4  10   8  145.42   21.46
   4 -10   8  167.13   21.37
   4 -10  -8  180.38   22.32
  -4 -10  -8  195.33   23.20
   4 -10  -8  170.04   22.26
  -4 -10   9    7.20    6.88
   4 -10   9    1.49    2.52
  -4 -10  -9    2.36    4.24
   4 -10  -9   -5.16    3.65
  -4  10   9   -4.78    7.77
   4 -10   9    1.24    4.12
   4 -10  -9   -4.06    4.95
  -4 -10  10   11.58    7.35
   4 -10  10    1.72    3.10
   4  10  10    1.63    4.58
  -4  10  10    1.74    2.95
  -4 -10 -10    4.98    3.35
   4 -10 -10    2.59    4.13
   4 -10  10    4.26    1.61
   4 -10 -10    0.15    3.83
  -4 -10  11   85.37   16.06
   4 -10  11   79.93   15.71
  -4 -10 -11  120.06   19.09
   4 -10 -11   82.00   16.03
   4 -10 -11  112.26   17.67
  -4  10  11   95.08   16.60
   4  10  11  123.66   17.02
   4 -10  11   89.43   15.47
  -4 -10  12   11.50    7.19
   4 -10  12   17.85    7.77
  -4  10  12   10.94    7.95
   4 -10  12    5.29    5.95
  -4 -10 -12   25.82   10.15
   4 -10 -12   12.64    6.18
   4  10  12   22.31    8.14
   4 -10 -12    5.97    4.30
  -4 -10 -13    4.42    5.10
  -4 -10  13    2.90    1.95
   4 -10  13    4.99    5.24
  -4  10  13    6.99    5.38
   4 -10  13   12.98    4.75
   4 -10 -13    6.62    4.15
   4 -10 -13    0.09    4.49
   4  10  13    5.70    5.67
   4 -10  14   -2.72    5.78
  -4 -10  14   15.49    6.83
   4 -10  14   18.24    5.94
  -4  10  14   20.47   11.00
  -4 -10 -14    5.99    4.76
   4 -10 -14   16.01    7.95
   4 -10 -14   14.06    6.93
   4  10  14    6.75    2.01
   4 -10  15    0.76    6.46
  -4 -10  15   11.21    7.54
   4 -10  15   -2.07    4.21
  -4 -10 -15    1.82    6.69
   4 -10 -15    1.02    3.77
  -4  10  15    6.25    5.79
   4  10  15   12.80    5.38
   4 -10  16   22.24    9.24
  -4 -10  16   26.53   10.77
   4 -10  16   18.52    6.61
  -4 -10 -16   13.28    8.23
   4 -10 -16   11.27    5.28
  -4  10  16   40.55   11.78
   4  10  16   29.32    9.50
   4 -10  17    2.42    5.44
  -4 -10  17    2.49    3.77
   4 -10  17    9.19    5.93
  -4 -10 -17   24.60   11.12
   4 -10 -17    5.58    4.41
  -4  10  17    4.08    2.40
   4  10  17   10.79    8.38
   4 -10  18   35.07   13.08
  -4 -10  18   32.45   10.51
  -4 -10 -18   29.65    9.58
   4 -10  18   26.92   10.62
   4 -10 -18   31.13    9.46
  -4  10  18   22.06    6.42
   4  10  18   42.35   11.51
   4 -10  19   20.43   10.47
  -4 -10  19    8.94    5.24
  -4 -10 -19    0.98    2.57
   4 -10  19   14.16    4.13
   4 -10 -19   14.37    5.87
  -4  10  19    1.53    7.14
   4  10  19   11.32    2.61
   4 -10  20   14.99    8.72
  -4 -10  20   19.95    8.92
   4 -10  20   14.26    5.60
  -4 -10 -20   11.25    6.92
   4 -10 -20   26.29   11.02
  -4  10  20   18.25    8.29
   4  10  20   17.54    6.48
   4 -10  21   10.05    8.16
  -4 -10  21    1.04    5.06
   4 -10 -21   -1.60    3.08
  -4 -10 -21   -1.34    8.66
  -4  10  21    0.97    3.30
  -4  10  21    3.51    4.73
   4  10  21    9.03    6.93
   4 -10  21   -2.39    2.56
  -4 -10 -22   68.28   15.63
   4 -10 -22   55.75   11.95
  -4  10  22   39.16   12.14
   4  10  22   60.29   14.68
   4 -10  22   72.56   15.75
   4 -10  22   27.18   12.65
  -4 -10  22   61.26   15.51
  -4  10  22   59.16   16.15
  -4 -10 -23   10.92    5.44
   4 -10 -23   11.94    5.30
  -4  10  23    7.01    7.65
   4 -10  23    4.38    5.55
   4  10  23    5.70    4.02
   4 -10  23   -2.96    2.46
  -4  10  24   17.38   11.09
  -4 -10 -24    8.83    9.33
   4 -10 -24    5.26    3.85
  -4  10  24   10.19    5.21
   4 -10  24    1.01    4.31
   4  10  24   22.38   11.06
   4 -10  24   32.96   10.64
  -4 -11   0  301.10   30.19
   4 -11   0  325.01   30.66
   4 -11   0  325.83   29.86
  -4 -11   1   42.07   11.16
  -4 -11  -1   29.34    9.36
   4 -11   1   37.91   10.00
   4 -11  -1   21.89    8.11
   4 -11   1   20.72    6.87
   4 -11  -1   17.91    8.06
  -4 -11   2    5.91    5.58
   4 -11   2    7.84    6.74
  -4 -11  -2   -3.89    6.19
   4 -11  -2    8.45    4.60
   4 -11   2   21.72    8.55
   4 -11  -2   14.42    5.22
   4 -11  -3   44.82   11.36
  -4 -11   3   29.28   10.67
   4 -11   3   24.27    9.26
   4 -11   3   36.39   11.49
  -4 -11  -3   51.92   13.39
   4 -11  -3   48.49   11.42
  -4 -11   4  419.43   35.78
   4 -11   4  411.48   35.01
  -4 -11  -4  368.66   34.07
   4 -11  -4  365.02   33.02
   4 -11   4  377.61   32.44
   4 -11  -4  355.29   32.53
  -4 -11   5   93.21   16.19
   4 -11   5   49.16   12.54
   4 -11   5   59.94   13.76
  -4 -11  -5   80.37   15.51
   4 -11  -5   67.12   13.54
   4 -11  -5  100.03   16.83
  -4 -11   6  324.60   31.84
   4 -11   6  297.51   30.04
  -4 -11  -6  232.33   27.55
   4 -11   6  286.19   28.61
   4 -11  -6  307.88   29.98
  -4  11   6  368.58   34.22
   4 -11  -6  261.98   28.07
  -4 -11   7   13.73    7.78
   4 -11   7   27.72    9.53
  -4 -11  -7   10.40    6.94
   4 -11  -7   -1.19    5.60
  -4  11   7    4.83    3.93
   4 -11  -7    9.61    7.04
   4 -11   7   19.20    6.59
  -4 -11   8   17.39    9.27
   4 -11   8   11.18   10.30
  -4 -11  -8   -5.97    3.92
  -4 -11  -8   11.95    7.48
   4 -11  -8   -0.02    3.12
  -4  11   8    5.14    4.01
   4 -11   8    2.89    6.00
   4 -11  -8    3.73    4.18
  -4 -11   9   17.46    7.18
   4 -11   9   10.62    7.47
   4 -11  -9   12.59    6.63
  -4 -11  -9   25.05   12.01
  -4  11   9   33.44   10.21
   4 -11  -9   15.96    7.70
   4 -11   9   28.52    8.94
   4 -11  10  236.95   26.49
  -4 -11  10  221.94   27.20
   4 -11  10  273.92   28.95
   4 -11 -10  200.66   23.95
  -4 -11 -10  216.95   25.30
   4 -11 -10  205.43   26.28
  -4  11  10  209.31   25.39
  -4 -11  11   -5.19    5.60
   4 -11  11    2.63    5.63
  -4 -11 -11   -6.60    6.91
   4 -11 -11    0.07    2.58
  -4  11  11    2.89    5.69
   4 -11  11    5.21    6.32
   4 -11 -11   -3.22    4.30
   4 -11 -12   19.11    6.46
  -4 -11  12   15.36    5.54
   4 -11  12   35.25   10.47
  -4 -11 -12   24.65    7.29
   4 -11  12   24.06    7.62
   4 -11 -12   26.26   10.90
   4  11  12   19.37    7.54
  -4  11  12   35.16    8.87
  -4 -11  13    9.86    6.20
   4 -11  13   15.66    9.92
   4 -11  13   17.18    8.00
   4 -11 -13    8.77    5.07
  -4 -11 -13   16.13    4.99
   4 -11 -13   15.38    9.51
  -4  11  13   -4.84    8.62
   4  11  13   24.53   11.34
  -4 -11  14  119.11   19.83
   4 -11  14   99.53   18.53
   4  11  14  117.60   19.28
  -4 -11 -14   82.27   17.25
   4 -11 -14   80.02   16.89
  -4  11  14  109.13   18.54
   4 -11  14   79.11   15.82
   4 -11 -14   60.44   12.83
   4 -11  15    9.94    5.81
  -4 -11  15    1.91    2.02
   4 -11  15   -3.22    3.32
  -4 -11 -15   -0.14    2.40
   4 -11 -15    3.06    2.55
   4 -11 -15   10.01    8.78
  -4  11  15   -2.47    4.92
   4  11  15    0.86    6.61
   4 -11  16    0.13    4.22
  -4 -11  16    3.02    5.64
   4 -11  16   -4.13    4.65
  -4 -11 -16    8.85    8.06
   4 -11 -16    2.41    5.70
   4 -11 -16    6.08    2.57
  -4  11  16   -4.39    4.70
   4  11  16   -1.09    4.41
   4 -11  17    3.08    2.94
  -4 -11  17   -0.59    5.31
   4 -11  17    0.78    2.38
  -4 -11 -17   10.36    7.64
   4 -11 -17    1.98    2.86
  -4  11  17   -3.56    6.96
   4  11  17   -3.38    5.56
   4 -11  18    9.59    7.91
  -4 -11  18   19.30   11.44
   4 -11  18   23.55    7.13
  -4 -11 -18    8.93    6.11
   4 -11 -18   28.52    8.20
  -4  11  18   25.61   11.21
   4  11  18   16.24    7.11
   4 -11  19    7.87    5.72
  -4 -11  19   -3.77    6.75
   4 -11  19   17.12    9.10
   4 -11 -19   -4.24    5.63
  -4  11  19    1.27    5.74
  -4 -11 -19   11.94    7.48
   4  11  19    2.45    4.99
   4 -11  20    5.98    5.19
  -4 -11  20    7.97    4.66
   4 -11  20   10.41    8.00
  -4 -11 -20    5.93    7.17
   4 -11 -20    7.13    4.80
  -4  11  20   11.53    8.50
   4  11  20    6.43    6.62
   4 -11  21    6.25    4.30
  -4 -11  21    2.44    2.68
  -4 -11 -21   11.45    8.51
   4 -11 -21    9.72    7.11
  -4  11  21   11.60   11.10
   4  11  21    1.11    4.08
   4 -11  21   -2.73    3.64
   4 -11  21   13.78    8.76
  -4 -11  22    9.11    5.25
  -4 -11 -22   -2.68    6.72
   4 -11 -22   16.28    7.39
  -4  11  22  -14.55   11.56
   4  11  22    9.41    7.97
   4 -11  22   28.65   13.42
   4 -11  22    3.76    4.78
  -4 -12   0   46.36   13.30
   4 -12   0   44.75   12.05
   4 -12   0   23.21    7.98
  -4 -12   1   -2.21    3.73
  -4 -12  -1    0.20    3.39
   4 -12   1    9.33    7.68
   4 -12  -1    2.91    5.47
   4 -12   1    4.55    2.25
   4 -12  -1   -0.91    3.58
  -4 -12   2   10.01    8.48
   4 -12   2   21.72    7.38
  -4 -12  -2    1.36    2.94
   4 -12  -2    7.00    5.48
   4 -12   2   11.95    5.40
   4 -12  -2   14.13    9.21
  -4 -12   3   59.38   13.82
   4 -12   3   50.07   13.95
   4 -12   3   71.45   15.24
  -4 -12  -3   72.65   13.93
   4 -12  -3   59.27   15.18
   4 -12  -3   60.98   14.68
   4 -12  -4   -0.37    3.30
   4 -12   4    2.05    7.06
  -4 -12   4    0.08    3.47
   4 -12   4   -0.74    2.33
  -4 -12  -4   -4.00    5.01
   4 -12  -4    1.99    2.59
   4 -12   5   -2.27    3.42
   4 -12   5   -1.93    4.17
   4 -12  -5   -0.30    1.68
  -4 -12  -5    4.68    2.41
   4 -12  -5   -4.36    7.03
  -4 -12   6   30.80   11.26
   4 -12   6   30.56   11.17
  -4 -12  -6   35.85   11.11
   4 -12  -6   25.40    5.79
   4 -12  -6   42.26   11.49
   4 -12   6   36.22   10.57
  -4 -12   7    3.72    3.61
   4 -12   7   16.38    7.25
  -4 -12  -7   21.45    9.50
   4 -12  -7    1.10    3.87
  -4  12   7   15.96    7.73
   4 -12  -7   15.05    9.34
   4 -12   7   11.65    5.59
  -4 -12   8   22.14   10.35
   4 -12   8   12.66    8.20
  -4 -12  -8   14.46    8.79
   4 -12  -8   15.26    8.05
  -4  12   8   21.04    6.97
   4 -12  -8   18.18    5.02
   4 -12   8   27.03    9.81
  -4 -12   9   30.42   10.98
   4 -12   9   24.62    8.45
  -4 -12  -9   20.89    7.96
   4 -12  -9   18.72    8.38
  -4  12   9   13.35    6.42
   4 -12   9   15.69    6.82
   4 -12  -9   12.06    6.63
   4 -12 -10    2.17    2.90
   4 -12  10    4.22    7.38
  -4 -12 -10    8.26    3.22
   4 -12 -10   15.33    8.16
  -4  12  10   16.35    5.77
   4 -12  10   -1.67    4.58
  -4 -12  11   36.14    7.62
   4 -12  11   44.20   12.82
   4 -12 -11   16.97    7.31
  -4 -12 -11   21.31    7.21
   4 -12 -11   21.71   10.10
  -4  12  11   16.06    9.24
   4 -12  11   14.78    8.38
  -4 -12  12    7.60    3.94
   4 -12  12    8.71    5.95
  -4 -12 -12    1.63    2.74
   4 -12 -12   16.60    8.68
   4 -12  12    8.87    5.00
   4 -12 -12   13.97    4.91
  -4  12  13   -7.65    7.51
  -4 -12  13   12.25    6.85
   4 -12  13   22.85   11.20
   4 -12  13    5.38    6.22
  -4 -12 -13   13.80    6.61
   4 -12 -13   18.12   10.23
   4 -12 -13    7.03    7.42
   4 -12 -14   17.03    6.88
  -4 -12  14   18.67    6.94
   4 -12  14   31.59   10.96
   4 -12  14   35.81    9.61
  -4 -12 -14   26.75   11.08
   4 -12 -14   29.97    9.03
  -4  12  14   27.02   12.42
   4 -12  15   -5.80    5.08
  -4 -12  15    3.01    4.77
   4 -12 -15    9.41    8.03
   4 -12  15    4.55    5.75
  -4 -12 -15    1.45    4.98
   4 -12 -15    0.22    3.54
  -4  12  15    4.86    6.75
   4  12  15    0.97    3.93
   4 -12 -16   -7.29    4.65
   4 -12  16   -8.86    7.24
  -4 -12  16    6.45    6.56
   4 -12  16    4.27    5.16
  -4 -12 -16    0.97    5.52
  -4  12  16    5.69    6.69
   4 -12 -16    1.66    2.63
   4  12  16   -6.50    5.75
   4 -12 -17   -0.84    2.91
   4 -12  17   12.08    9.69
  -4 -12  17   -3.49    5.69
   4 -12  17   -9.68    6.38
  -4 -12 -17   -8.45    5.50
   4 -12 -17    4.12    5.28
  -4  12  17    3.73    7.59
   4  12  17   15.19    9.23
   4 -12  18   12.93    9.97
  -4 -12  18    9.86    5.71
   4 -12  18   17.69    7.42
  -4 -12 -18   18.16    7.45
   4 -12 -18    5.61    5.88
  -4  12  18   10.47    6.78
   4 -12 -18   17.33    7.72
   4  12  18   26.72   11.24
   4 -12  19    9.56    6.58
  -4 -12  19    7.73    8.17
   4 -12  19   18.52    8.41
   4 -12 -19   29.30   12.41
  -4 -12 -19    8.72    9.37
   4 -12 -19    7.30    2.59
   4  12  19   14.98    8.81
   4 -12  20    8.07    3.85
  -4 -12  20   11.43    8.15
   4 -12  20   11.76    6.28
  -4 -12 -20    9.37   10.10
   4 -12 -20   17.80   10.10
   4  12  20   16.89   11.15
   4 -12 -20   -0.90    3.01
   4 -12  20   -1.46    2.38
  -4 -13   0   33.80    9.76
   4 -13   0   25.47    8.86
   4 -13   0   36.04    9.34
  -4 -13   1   42.68   11.10
  -4 -13  -1   42.94   11.35
   4 -13   1   54.71   14.20
   4 -13  -1   65.27   15.20
   4 -13   1   59.21   14.22
   4 -13  -1   35.89   11.62
  -4 -13   2    0.85    4.93
   4 -13   2   10.53    8.23
  -4 -13  -2    8.58    7.56
   4 -13   2   -1.61    2.13
   4 -13  -2  -10.22    7.19
   4 -13  -2    2.12    2.85
  -4 -13   3  114.03   20.68
   4 -13   3  142.58   22.62
  -4 -13  -3  132.62   21.01
   4 -13  -3  145.51   22.37
   4 -13   3  118.79   20.17
   4 -13  -3  125.78   20.49
   4 -13   4    2.65    2.92
  -4 -13   4    1.66    2.95
   4 -13   4   10.57   10.61
  -4 -13  -4    6.56    5.30
   4 -13  -4   -0.96    3.07
   4 -13  -4    2.71    4.08
   4 -13   5    8.29    6.77
   4 -13  -5    1.10    3.58
  -4 -13   5   11.19    7.11
   4 -13   5    4.07    5.02
  -4 -13  -5   10.74    6.49
   4 -13  -5   13.40    7.32
  -4 -13   6   11.03    9.11
   4 -13  -6    8.53    5.90
   4 -13   6    6.89    4.37
  -4 -13  -6    8.19    4.96
   4 -13  -6   16.01    8.84
   4 -13   6   10.81    4.96
  -4 -13   7   87.82   16.80
   4 -13   7   76.69   15.81
  -4 -13  -7   60.63   13.45
   4 -13  -7   71.61   16.73
   4 -13  -7   76.91   16.43
   4 -13   7   67.25   14.50
  -4 -13   8   67.41   15.45
   4 -13   8   54.78   13.34
  -4 -13  -8   52.80   13.67
   4 -13  -8   63.86   16.20
   4 -13  -8   44.45   11.80
   4 -13   8   64.58   14.58
  -4 -13   9   12.51    9.60
   4 -13   9   12.48    4.42
  -4 -13  -9   13.38    7.04
   4 -13  -9    7.47    7.52
  -4  13   9   15.84    9.67
   4 -13   9   16.87    6.02
   4 -13  -9    2.74    4.29
  -4 -13  10    0.77    6.66
   4 -13  10    4.23    4.13
  -4 -13 -10   12.75    8.84
   4 -13 -10    2.38    5.68
   4 -13  10   -6.87    5.82
   4 -13 -10   14.69    9.00
  -4 -13  11   -1.87    4.38
   4 -13  11    9.84    8.77
  -4 -13 -11    6.14    7.72
   4 -13 -11    0.28    3.13
   4 -13  11   11.64    6.03
   4 -13 -11    0.21    5.11
   4 -13 -12   62.44   15.20
  -4 -13  12   67.05   17.50
   4 -13  12   79.12   17.34
  -4 -13 -12   64.20   15.95
   4 -13 -12   67.34   16.90
   4 -13  12   55.39   13.86
  -4 -13  13   21.03    9.76
   4 -13  13   14.69    3.50
   4 -13 -13    6.49    5.04
  -4 -13 -13    1.58    5.23
   4 -13  13   26.04   10.99
   4 -13 -13    8.18    6.86
  -4 -13  14    1.16    4.79
   4 -13  14   -9.25    7.69
   4 -13  14   -4.56    3.53
  -4 -13 -14   -2.41    4.90
   4 -13 -14    1.44    7.22
   4 -13 -14   -0.06    4.28
   4 -13  15   37.63   11.70
  -4 -13  15   32.71   11.93
   4 -13  15   66.42   13.33
  -4 -13 -15   36.81   12.49
   4 -13 -15   31.65   10.37
   4 -13 -15   54.62   16.02
   4 -13  16   12.70   11.27
  -4 -13  16   25.53   11.75
   4 -13  16    4.03    1.96
  -4 -13 -16   16.26    7.21
   4 -13 -16   11.76    9.52
   4 -13 -16    7.75    4.78
   4 -13  17    0.39    4.70
  -4 -13  17   21.00    8.88
   4 -13 -17   23.76    9.48
   4 -13 -17   26.69   11.54
   4 -13  17   26.44    9.63
  -4 -13 -17   34.77   14.61
  -4 -14   0   86.95   17.37
   4 -14   0   76.01   17.59
   4 -14   0  100.81   18.86
  -4 -14   1    2.84    5.76
  -4 -14  -1   12.12    8.88
   4 -14   1   17.79    6.95
   4 -14  -1   14.82    6.93
   4 -14   1   17.65    8.28
   4 -14  -1   15.55    8.39
  -4 -14   2   -0.03    2.95
   4 -14   2    7.89    4.49
   4 -14   2   -1.81    4.04
  -4 -14  -2   14.50    9.21
   4 -14  -2   11.53   11.34
   4 -14  -2   -3.71    4.91
   4 -14   3   16.65    9.02
  -4 -14   3   11.76    8.44
   4 -14   3    0.65    2.58
  -4 -14  -3   11.70    6.30
   4 -14  -3    3.69    4.95
   4 -14  -3   10.85    7.31
   4 -14   4    1.22    4.58
  -4 -14   4   -9.32    7.19
   4 -14   4    3.54    4.78
  -4 -14  -4    8.40    3.14
   4 -14  -4   13.50    8.16
   4 -14  -4    5.00    3.64
   4 -14   5   -1.79    1.94
  -4 -14   5    6.43    8.83
   4 -14   5   -0.72    5.73
  -4 -14  -5    0.86    6.09
   4 -14  -5   -3.72    8.11
   4 -14  -5   -6.15    4.85
   4 -14  -6   24.38    9.97
  -4 -14   6   55.34   13.22
   4 -14   6   39.47   11.51
  -4 -14  -6   52.27   13.24
   4 -14  -6   77.41   18.57
   4 -14   6   18.36    7.21
   4 -14  -7   28.89   10.33
  -4 -14   7   46.45   12.80
   4 -14   7   27.40   11.09
  -4 -14  -7    6.04    5.59
   4 -14  -7   19.81    9.11
   4 -14   7   16.19    6.37
  -4 -14   8   17.35    9.37
   4 -14   8    7.05    6.83
   4 -14  -8    7.52    5.39
  -4 -14  -8   22.09    8.67
   4 -14  -8   17.89    6.36
   4 -14   8    8.15    5.60
  -4 -14   9    8.78    5.86
   4 -14   9   -2.68    4.18
  -4 -14  -9    0.15    5.99
   4 -14  -9    9.91    6.61
   4 -14  -9    3.85    4.30
   4 -14   9    1.54    4.37
  -4 -14  10   15.29    8.19
   4 -14  10   17.94    8.74
  -4 -14 -10   12.34    8.23
   4 -14 -10    5.00    5.52
   4 -14 -10    3.95    2.89
   4 -14  10    8.57    4.75
  -4 -14  11   13.48    5.61
   4 -14  11   -6.53    7.61
  -4 -14 -11    6.28    7.06
   4 -14 -11    3.09    5.39
   4 -14  11   -2.84    5.20
   4 -14 -11    4.30    2.17
  -4 -14  12   10.86    8.90
   4 -14  12   11.31    8.06
  -4 -14 -12    3.35    6.73
   4 -14 -12    6.87    5.47
   4 -14  12   32.29   12.45
   4 -14 -12    4.93    3.67
  -4 -14  13   52.94   15.12
   4 -14  13   23.00    9.00
  -4 -14 -13   59.56   15.44
   4 -14  13   41.40   11.19
   4 -14 -13   50.03   15.43
   4 -14 -13   26.78    9.78
   4 -14 -14    0.22    3.89
  -4 -14  14    8.03    6.91
   4 -14  14    8.70    7.62
   4 -14  14   -2.44    4.08
  -4 -14 -14   -0.06    2.99
   4 -14 -14    2.72    4.93
  -4 -15   0   30.38   10.65
   4 -15   0   39.07   13.68
   4 -15   0   15.92    7.92
  -4 -15   1    8.84    8.53
  -4 -15  -1   11.36    7.63
   4 -15   1   -2.50    2.59
   4 -15   1    0.06    3.12
   4 -15  -1   17.36    8.63
   4 -15  -1   15.11    8.22
   4 -15   2    5.66    3.23
  -4 -15   2    4.51    2.73
   4 -15   2    5.89    5.18
  -4 -15  -2   -2.72    5.08
   4 -15  -2    1.22    2.98
   4 -15  -2    2.88    4.28
   4 -15   3    4.39    6.52
  -4 -15   3    5.94    6.66
   4 -15   3    7.66    8.21
  -4 -15  -3   -4.32    7.00
   4 -15  -3    7.47    7.83
   4 -15  -3   -3.02    2.43
  -4 -15   4   70.27   16.95
   4 -15   4   66.43   15.05
   4 -15   4   89.60   18.22
  -4 -15  -4   49.97   13.77
   4 -15  -4   59.01   16.19
   4 -15  -4   69.13   15.87
  -4 -15   5    6.30    4.73
   4 -15   5   -5.68    4.43
  -4 -15  -5   -2.00    4.85
   4 -15  -5    6.05    8.77
   4 -15  -5   -0.34    3.19
   4 -15   5   11.29    6.23
  -4 -15   6   48.95   14.37
   4 -15   6   25.79   10.13
  -4 -15  -6   21.24   11.54
   4 -15  -6   20.13   10.01
   4 -15   6   34.03   10.92
   4 -15  -6    3.08    4.05
   4 -15  -7    1.53    3.50
  -4 -15   7   -0.56    3.38
   4 -15   7    3.23    4.76
  -4 -15  -7    2.79    7.49
   4 -15  -7   -2.86    7.26
   4 -15   7    1.54    3.75
   4 -15  -8   34.08    7.78
  -4 -15   8   71.96   16.83
   4 -15   8   49.14   14.54
  -4 -15  -8   74.33   17.46
   4 -15  -8   61.23   14.85
   4 -15   8   63.42   14.53
  -4 -15   9    4.03    4.27
   4 -15   9   -1.33    8.88
   4 -15  -9   -1.16    3.96
  -4 -15  -9    2.60    6.39
   4 -15  -9   -6.94    8.08
   4 -15   9    9.87    7.51
  -5   0   0   -3.08    3.32
   5   0   0    2.44    2.11
   5   0   1    0.45    1.14
  -5   0  -1    2.01    3.00
  -5   0   1   -2.16    2.03
   5   0  -1   -0.39    0.92
   5   0  -2 1077.51   27.37
   5   0   2 1138.91   32.47
   5   0   3    2.79    1.81
  -5   0   3    3.74    2.84
   5   0  -3    1.66    1.74
   5   0   4 1658.01   42.28
   5   0  -4 1643.25   35.50
   5   0  -5   -1.06    1.59
  -5   0   5   -2.16    4.45
   5   0   5    1.99    2.05
   5   0  -6 1190.54   31.06
  -5   0  -6 1306.04   22.98
  -5   0   6 1234.93   45.84
   5   0   6 1227.70   39.51
  -5   0   7    2.60    3.16
  -5   0  -7    0.34    0.92
   5   0   7    0.19    1.19
   5   0   8  280.06   20.60
  -5   0   8  299.75   23.23
  -5   0   8  314.81   17.77
   5   0   9   -0.58    3.01
  -5   0   9    0.11    2.08
  -5   0   9   -0.55    1.83
   5   0  10  152.06   16.44
  -5   0  10  150.90   16.86
  -5   0  10  150.59   13.80
  -5   0  11   -1.41    2.70
  -5   0  11   -1.10    0.93
   5   0  12  543.70   32.67
  -5   0  12  541.35   34.09
  -5   0  12  472.13   27.04
  -5   0  13    6.04    3.84
   5   0  13   -0.40    3.39
  -5   0  13    6.68    5.27
  -5   0  14  120.17   16.02
  -5   0  14  121.94   14.35
  -5   0  15   -0.39    1.73
  -5   0  15    4.86    5.46
   5   0  15   -1.65    4.55
   5   0  16  638.68   40.00
  -5   0  16  668.40   40.91
  -5   0  16  688.42   37.74
  -5   0  17   -1.17    1.60
   5   0  17    0.59    1.99
  -5   0  17    1.79    4.35
  -5   0  18   29.68    8.17
   5   0  18   25.22    7.89
   5   0  18   35.80    8.37
  -5   0  19    0.71    3.07
   5   0  19    4.56    5.80
  -5   0  19   -1.70    2.36
   5   0  19   -5.44    7.36
   5   0  20  110.01   17.47
  -5   0  20  108.43   17.37
  -5   0  20   97.37   15.73
   5   0  20  155.00   20.96
  -5   0  21    0.94    4.72
   5   0  21   -1.43    4.47
  -5   0  21   -8.18    7.23
   5   0  21   -1.97    3.30
  -5   0  22   44.34   11.50
   5   0  22   33.80    9.29
  -5   0  22   32.30    9.80
   5   0  22   28.08    7.09
  -5   0  23    2.52    5.00
   5   0  23   -5.33    4.66
  -5   0  23   -0.12    4.48
   5   0  23   -1.47    4.43
   5   0  24  290.91   30.27
  -5   0  24  370.97   33.96
   5   0  24  358.33   35.55
  -5   0  24  313.00   30.66
  -5   0  25   20.61   10.65
   5   0  25   -0.28    5.24
  -5   0  25   -3.61    7.04
   5   0  25    0.66    6.77
   5   0  26  127.69   20.10
  -5   0  26   98.87   18.93
   5   0  26  146.69   22.07
   5   0  27   -3.86    3.92
  -5   0  27    0.43    2.96
   5   0  27   -5.21    5.46
   5   0  28   38.89   10.29
  -5   0  28   32.00   12.13
   5   0  28   63.32   16.99
   5   0  29   -6.90    8.24
  -5   0  29   -1.34    5.34
   5   0  29   -3.72    3.45
   5   0  30   92.06   19.41
  -5   0  30   78.01   16.94
   5   0  30   74.49   17.51
   5   1   0   -0.72    0.96
  -5  -1   0   -0.27    0.85
  -5   1   0   -0.06    2.46
  -5  -1   0   -2.22    1.76
   5  -1   0    0.97    2.01
   5  -1   1  131.90   12.05
   5  -1  -1  116.46   10.78
   5  -1  -1  127.43    6.83
   5   1   1  120.22    8.66
  -5  -1  -1  137.08   13.79
  -5   1   1  122.75   15.06
  -5  -1   1  144.25   14.39
  -5   1  -1  134.51   14.71
   5   1  -1  128.11    7.53
  -5  -1  -1  120.19    6.91
  -5  -1  -2    1.47    0.61
   5   1  -2    2.09    0.83
  -5  -1   2    2.70    1.74
   5  -1   2    2.02    1.14
  -5   1   2    3.35    2.29
   5  -1  -2    1.25    1.20
   5   1   2    1.53    1.73
   5  -1  -3   12.26    3.35
  -5  -1  -3   19.29    2.82
   5   1  -3   22.98    3.11
   5  -1   3   20.32    4.66
  -5   1   3   27.96    7.30
  -5  -1   3   20.67    6.05
   5   1   3   21.78    4.31
   5  -1  -4    8.68    2.77
   5  -1   4    5.38    2.54
  -5  -1  -4   11.35    2.35
  -5   1   4    8.52    4.17
  -5  -1   4   11.46    3.81
   5   1  -4   11.17    2.18
   5   1   4    7.29    1.86
  -5  -1   5   11.51    4.09
   5  -1   5   11.91    3.45
  -5  -1  -5   11.60    2.87
   5  -1  -5    9.01    2.92
  -5   1   5   19.80    5.97
   5   1  -5   12.48    2.67
   5   1   5   17.14    4.24
  -5  -1  -6  322.59   14.29
   5   1   6  372.21   21.29
   5  -1  -6  365.91   19.63
  -5   1   6  390.94   26.15
  -5  -1   6  367.07   24.02
   5  -1   6  421.95   23.91
   5   1   7   42.83    7.84
  -5  -1  -7   33.86    4.78
  -5  -1   7   46.09    8.78
   5  -1   7   37.78    7.45
  -5   1   7   41.11    9.27
  -5  -1   7   41.44    5.47
   5  -1   8   25.04    6.15
  -5  -1  -8   21.07    5.69
  -5   1   8   17.64    6.89
   5   1   8   20.00    4.72
  -5  -1   8   24.43    5.83
  -5   1   8   33.22    6.72
  -5  -1   8   22.75    4.72
   5   1   9   96.30   12.67
  -5  -1  -9   73.95    8.74
   5  -1   9   69.01   10.49
  -5   1   9   51.29   10.17
  -5   1   9   62.63    8.92
  -5  -1   9   73.01    8.16
  -5  -1   9   80.87   12.48
   5   1  10  512.56   30.22
  -5  -1 -10  534.67   25.64
  -5   1  10  635.37   34.88
  -5  -1  10  602.31   33.76
  -5   1  10  568.72   27.90
  -5  -1  10  517.60   24.45
   5   1  11   38.89    8.37
  -5   1  11   23.05    6.02
  -5  -1  11   28.64    7.83
  -5  -1 -11   34.73    7.19
  -5  -1  11   40.44    7.14
   5  -1  11   37.87    8.43
  -5   1  11   24.15    5.84
   5   1  12  278.74   23.18
   5  -1  12  285.77   23.63
  -5   1  12  271.51   24.06
  -5  -1  12  233.53   21.76
  -5   1  12  242.11   20.02
  -5  -1  12  254.67   18.95
   5   1  13  408.66   28.73
   5  -1  13  378.82   28.33
  -5   1  13  380.59   28.98
  -5  -1  13  420.92   30.30
  -5   1  13  414.49   26.96
  -5  -1  13  338.35   22.91
   5   1  14  153.41   18.27
   5  -1  14  177.62   19.74
  -5   1  14  112.31   15.44
  -5  -1  14  120.29   16.28
  -5   1  14  154.28   17.04
  -5  -1  14  154.17   16.41
  -5   1  15   14.10    6.14
  -5  -1  15   12.18    3.99
   5   1  15    8.11    5.44
  -5   1  15    8.89    5.81
  -5  -1  15    7.99    4.30
   5  -1  15    8.73    5.09
   5   1  16  180.27   20.39
   5  -1  16  218.17   22.91
  -5   1  16  210.68   23.21
  -5  -1  16  211.30   22.95
  -5   1  16  220.18   22.02
  -5  -1  16  220.11   20.62
   5   1  16  186.58   21.26
  -5   1  17   34.79    8.93
  -5  -1  17   29.34    7.69
   5   1  17   39.68   10.71
   5  -1  17   41.19    9.48
  -5   1  17   38.59   11.12
  -5  -1  17   42.74   11.19
   5   1  17   15.80    7.13
  -5   1  18   27.97    7.21
  -5  -1  18   25.81    7.28
   5   1  18   17.88    5.09
   5  -1  18   34.45   10.93
  -5   1  18   41.25   11.94
  -5  -1  18   26.90    6.95
   5   1  18   35.00    9.74
  -5   1  19    5.24    5.08
  -5  -1  19    3.50    3.99
   5   1  19    8.14    5.15
   5  -1  19   19.00    7.76
  -5   1  19   18.20    7.66
  -5  -1  19   21.88    8.58
   5   1  19   17.45    8.34
   5  -1  19    9.93    4.26
   5   1  20  120.16   18.28
   5  -1  20  115.26   19.07
  -5   1  20  135.12   19.45
  -5  -1  20   99.09   16.81
  -5   1  20  123.54   17.76
   5   1  20  102.78   17.25
   5  -1  20  104.09   17.67
  -5  -1  20  101.87   14.68
  -5   1  21   60.20   13.64
   5   1  21   84.98   15.46
   5  -1  21   57.37   12.49
  -5   1  21   52.33   12.65
  -5  -1  21   54.53   12.41
  -5  -1  21   64.54   14.10
   5   1  21   60.14   11.48
   5  -1  21   66.14   15.26
  -5   1  22    1.93    5.70
   5   1  22    8.06    5.39
   5  -1  22    3.58    4.58
  -5   1  22    5.55    5.41
  -5  -1  22    9.26    4.48
   5   1  22   -2.66    2.86
   5  -1  22    4.08    3.56
  -5   1  23   81.96   15.42
   5   1  23  104.67   18.15
   5  -1  23  106.95   18.26
  -5   1  23  114.47   19.14
  -5  -1  23  104.43   18.66
   5   1  23  131.20   19.73
   5  -1  23  111.88   19.22
   5   1  24  123.21   20.31
   5  -1  24  123.19   19.20
  -5   1  24  142.96   20.95
  -5  -1  24  122.46   20.36
   5   1  24  162.80   23.25
  -5   1  24  155.19   21.71
   5  -1  24  150.18   22.48
  -5   1  25    9.92    8.32
   5   1  25    9.80    6.35
   5  -1  25    9.86    6.18
  -5   1  25   -0.89    2.68
  -5  -1  25    5.90    4.73
   5   1  25    1.79    4.41
   5  -1  25   12.18    8.07
  -5   1  26   43.94   13.30
   5   1  26   23.53    8.87
   5  -1  26   20.89    9.63
  -5   1  26   27.03   10.34
  -5  -1  26   30.06   11.69
   5   1  26   44.36   12.31
   5  -1  26   37.61   11.29
  -5   1  27   25.86   10.28
   5   1  27   22.72    7.49
   5  -1  27   32.01   10.15
  -5   1  27   32.45   10.53
  -5  -1  27   26.20   10.49
   5   1  27   27.65   10.58
   5  -1  27   28.80    9.60
  -5   1  28   -9.70    5.79
  -5   1  28    4.83    3.89
   5   1  28   -4.47    7.82
   5  -1  28   11.64    8.99
  -5  -1  28   -0.11    2.59
   5   1  28    9.77    9.16
   5  -1  28    3.13    8.25
   5   1  29    8.54    3.98
   5  -1  29   14.61    7.78
  -5   1  29   13.56    6.55
  -5  -1  29   12.21    8.46
   5   1  29   -2.67    5.42
   5  -1  29   17.97    9.13
   5   1  30   51.67   13.60
   5  -1  30   65.78   15.58
  -5   1  30   22.52    8.38
  -5  -1  30   39.34   12.21
   5   1  30   44.18   13.30
   5  -1  30   38.14   11.47
  -5  -2   0    0.46    1.02
   5  -2   0   -0.59    2.26
   5  -2   0   -0.61    0.99
  -5   2   0    3.25    4.75
  -5  -2   0   -0.39    1.70
  -5  -2   1   87.15    8.77
  -5  -2  -1   94.37    8.20
   5   2   1   87.42    6.20
   5  -2   1   97.23   10.99
   5  -2  -1   89.33    6.90
  -5   2  -1  102.91   13.65
  -5  -2   1   67.70    9.25
   5  -2  -1   89.78   10.54
  -5   2   1  102.47   13.73
  -5  -2   2   91.29    9.41
  -5  -2  -2   85.39    8.18
   5  -2   2   92.35   11.05
   5   2   2  100.10    7.60
  -5   2   2   99.97   13.73
   5  -2  -2   95.01    7.85
  -5  -2   2   99.69   11.32
   5  -2  -2   81.16    9.95
   5  -2   3 1027.87   36.40
  -5  -2  -3  932.06   26.33
   5   2   3  972.61   26.45
   5  -2  -3 1045.93   29.31
  -5   2   3  966.54   41.77
  -5  -2   3  984.51   37.05
   5  -2  -3 1013.66   35.98
  -5  -2   3 1041.16   33.00
   5   2   4  757.02   25.30
  -5  -2  -4  653.48   22.79
  -5   2   4  774.78   37.96
  -5  -2   4  714.81   31.77
   5  -2   4  754.85   31.86
   5  -2  -4  639.56   28.63
  -5  -2   4  704.08   28.55
   5  -2  -5  746.92   30.57
   5   2   5  642.39   25.88
  -5  -2  -5  773.56   25.31
  -5  -2   5  801.03   34.57
  -5   2   5  746.21   37.06
   5  -2   5  734.70   32.37
  -5  -2   5  649.27   28.68
   5   2   6  599.75   26.73
  -5  -2  -6  583.09   23.20
   5   2  -6  550.84   14.07
   5  -2  -6  596.50   27.92
  -5   2   6  657.83   35.01
  -5  -2   6  633.13   30.81
   5  -2   6  708.39   32.50
  -5  -2   6  599.80   29.15
   5   2   7   88.74   10.44
  -5  -2  -7   65.60    8.29
  -5  -2   7   82.39   11.12
   5  -2   7   73.85   10.86
  -5  -2   7   79.48    6.10
   5  -2   8    3.63    4.32
   5   2   8    1.81    0.99
  -5  -2  -8   -2.09    2.67
  -5   2   8    5.25    3.94
  -5  -2   8   -1.49    1.84
  -5  -2   8    2.10    1.60
   5   2   9  474.26   27.09
  -5  -2  -9  506.12   24.41
  -5   2   9  548.11   32.95
  -5  -2   9  482.09   29.24
   5  -2   9  517.04   30.45
  -5   2   9  509.95   28.04
  -5  -2   9  502.04   20.49
   5   2  10  149.37   16.01
  -5   2  10  156.17   18.00
   5  -2  10  161.00   17.34
  -5  -2  10  194.27   18.85
  -5   2  10  157.76   15.65
  -5  -2  10  133.40   12.13
   5   2  11   44.34    8.92
  -5  -2 -11   50.11    8.83
  -5   2  11   39.65    8.78
  -5  -2  11   46.16    9.44
  -5   2  11   52.17    9.81
  -5  -2  11   52.70    7.64
  -5  -2 -12  115.43   14.13
   5   2  12  155.77   16.83
   5  -2  12  159.80   18.57
  -5   2  12  148.75   17.83
  -5  -2  12  151.58   18.15
  -5  -2  12  127.66   13.00
   5   2  13  607.65   36.32
   5  -2  13  683.08   38.42
  -5  -2 -13  539.20   31.98
  -5   2  13  603.72   36.85
  -5  -2  13  651.89   37.09
  -5   2  13  606.43   34.33
  -5  -2  13  614.46   29.77
   5   2  14   40.62   10.42
  -5  -2  14   63.92   12.51
  -5   2  14   44.67   10.80
  -5  -2 -14   43.31    8.69
   5  -2  14   36.52    8.52
   5   2  14   50.34   11.10
  -5  -2  14   53.85    9.90
  -5   2  14   38.15    8.49
   5   2  15  176.97   19.74
   5  -2  15  189.58   21.20
  -5  -2 -15  196.03   19.85
  -5   2  15  195.51   21.88
  -5  -2  15  201.29   21.83
  -5   2  15  198.53   20.55
   5   2  15  181.24   20.65
  -5  -2  15  188.37   18.19
   5   2  16  108.49   16.59
   5  -2  16  119.67   17.11
  -5   2  16   93.29   16.72
  -5  -2  16  115.40   16.87
  -5   2  16  124.28   16.75
   5   2  16  106.60   16.19
  -5  -2  16   77.83   12.87
   5   2  17  215.09   22.92
   5  -2  17  180.11   21.58
  -5   2  17  168.60   21.52
  -5  -2  17  167.97   20.58
  -5   2  17  194.90   21.06
   5   2  17  173.00   21.22
  -5  -2  17  184.08   19.71
  -5  -2  18  155.22   20.00
   5   2  18  151.05   19.25
   5  -2  18  150.49   19.39
  -5   2  18  162.32   21.43
  -5   2  18  115.11   18.40
   5   2  18  142.81   19.40
  -5   2  19   56.91   13.25
   5   2  19   50.47   11.39
   5  -2  19   61.63   13.18
  -5   2  19   38.62    9.43
  -5  -2  19   24.06    8.43
   5   2  19   28.15    8.75
   5   2  20  206.83   24.30
   5  -2  20  193.02   24.06
  -5   2  20  192.40   23.83
  -5  -2  20  196.66   23.82
  -5   2  20  197.62   23.09
   5   2  20  189.17   24.21
   5  -2  20  228.45   24.49
  -5   2  21   30.10   11.62
  -5   2  21   27.11    9.99
   5   2  21   27.52    9.67
   5  -2  21   23.36    7.23
  -5  -2  21   20.30    7.47
   5   2  21   25.06    8.87
   5  -2  21   42.18   10.65
  -5   2  22   21.98    8.87
   5   2  22   35.22   10.44
   5  -2  22   24.30   10.81
  -5   2  22   19.19    6.96
  -5  -2  22   20.36    7.62
   5   2  22   37.47   11.57
   5  -2  22   25.68    6.92
  -5   2  23   36.11    8.43
   5   2  23   20.13    6.43
   5  -2  23   31.67   11.44
  -5   2  23   37.52   10.89
  -5  -2  23   29.54   10.12
   5   2  23   35.81   12.87
   5  -2  23   36.27   11.72
  -5   2  24   15.46   10.25
   5   2  24   14.22    8.56
   5  -2  24   28.09    8.57
  -5   2  24   26.34   10.48
  -5  -2  24   13.56    5.38
   5   2  24   21.33    7.66
   5  -2  24   23.32    9.27
  -5   2  25   -7.29    6.50
   5   2  25   -2.65    5.72
   5  -2  25    4.10    4.75
  -5   2  25    1.14    6.31
  -5  -2  25   -0.26    4.98
   5   2  25   -2.13    4.71
   5  -2  25   -2.56    3.96
  -5   2  26   17.68    9.24
   5   2  26   25.41    9.85
   5  -2  26    6.58    3.34
  -5   2  26   22.18   11.10
  -5  -2  26   16.98    6.82
   5   2  26   16.96    7.25
   5  -2  26   -3.90    7.76
  -5   2  27   56.82   13.97
   5   2  27  119.53   20.53
   5  -2  27  113.56   20.65
  -5   2  27  117.97   20.59
  -5  -2  27   96.81   17.66
   5   2  27  106.81   21.66
   5  -2  27   92.45   18.57
  -5   2  28   10.71    8.62
   5   2  28   -1.58    2.54
   5  -2  28  -10.49    9.23
  -5   2  28   21.46   11.07
  -5  -2  28    1.47    4.14
   5   2  28   -7.43    9.56
   5  -2  28    3.84    4.24
  -5   2  29    6.05    3.83
   5   2  29   16.99    9.79
   5  -2  29   24.20    9.62
  -5   2  29   20.00    7.69
  -5  -2  29    9.63    9.36
   5   2  29   14.75    8.35
   5  -2  29   10.32    8.49
  -5  -3   0    1.06    2.03
   5  -3   0   -0.19    0.60
   5  -3   0    2.34    3.14
  -5  -3   0   -2.13    3.28
  -5   3   0    0.22    3.49
  -5  -3   1    7.78    3.45
   5  -3   1    3.12    1.74
  -5  -3  -1    8.65    3.66
   5  -3   1    7.91    2.52
   5  -3  -1    9.17    2.72
  -5   3   1    4.07    4.76
  -5  -3   1    6.03    2.77
  -5   3  -1   13.47    5.48
   5  -3  -1    4.07    2.84
   5   3   1    7.68    1.86
  -5  -3   2  300.32   19.37
   5  -3   2  233.20   12.11
  -5  -3  -2  224.53   15.75
   5  -3   2  292.58   20.79
   5  -3  -2  251.23   14.44
  -5   3   2  216.56   20.89
  -5  -3   2  261.83   17.87
   5  -3  -2  236.05   19.03
   5   3   2  295.58   12.36
  -5  -3   3   -0.29    2.08
   5  -3   3    0.70    0.89
   5   3   3   -0.41    1.09
  -5  -3  -3    1.76    2.63
   5  -3  -3    1.27    1.48
  -5   3   3    2.79    1.91
  -5  -3   3   -2.39    3.00
   5  -3  -3    2.16    2.79
   5  -3   3    1.38    1.48
   5  -3   4    0.36    0.68
  -5  -3   4    0.27    2.55
   5   3   4    0.43    1.14
  -5  -3  -4    0.81    1.09
  -5   3   4   -1.02    3.21
  -5  -3   4   -0.29    1.84
   5  -3  -4   -0.98    2.57
   5  -3   4   -0.46    1.03
   5  -3  -4    0.24    2.31
  -5  -3   5  307.56   21.05
   5  -3  -5  337.57   22.55
   5  -3  -5  316.91   19.77
  -5  -3   5  294.87   20.29
   5  -3   5  291.60   21.08
   5  -3   5  297.38   13.84
   5   3   5  349.38   19.10
   5   3   6   50.43    7.95
  -5  -3   6   38.65    7.79
  -5  -3  -6   36.31    6.88
   5  -3  -6   47.36    7.72
   5  -3  -6   50.68    8.19
  -5   3   6   61.16   11.03
  -5  -3   6   31.07    6.74
   5  -3   6   45.67    8.46
   5  -3   6   36.24    5.22
  -5  -3  -7  249.43   17.41
  -5   3   7  238.09   21.50
   5  -3  -7  231.83   18.72
  -5  -3   7  229.39   18.67
   5  -3   7  257.99   20.81
  -5  -3   7  200.47   18.08
  -5  -3   8   11.08    4.35
   5  -3   8    6.16    4.16
   5   3   8   19.62    6.22
  -5   3   8   13.52    5.62
  -5  -3   8   11.94    6.21
  -5  -3  -8   15.47    4.87
  -5  -3   8   20.45    3.89
  -5  -3   9   34.50    8.65
   5   3   9   38.37    8.04
   5  -3   9   33.09    8.31
  -5  -3  -9   20.63    3.31
  -5   3   9   21.74    7.00
  -5  -3   9   33.22    8.14
  -5  -3   9   31.14    5.29
  -5  -3  10   13.58    4.70
   5  -3  10   12.95    4.28
   5   3  10   11.87    4.79
  -5  -3 -10   13.04    3.57
  -5   3  10    9.63    5.55
  -5  -3  10   18.90    6.67
  -5   3  10   11.72    4.43
   5  -3  11    1.49    2.45
   5   3  11    0.88    2.10
  -5  -3 -11   -1.06    2.00
  -5  -3  11   -1.17    3.85
  -5   3  11    3.78    1.55
   5  -3  12   -2.38    3.63
  -5  -3  12   -5.55    2.60
   5   3  12    1.73    1.30
  -5  -3  12    6.19    5.96
  -5  -3 -12    5.02    2.45
  -5   3  12    0.32    2.83
  -5   3  12    7.15    2.31
   5   3  12   -0.61    3.09
   5   3  13  178.97   20.15
   5  -3  13  172.03   19.49
  -5  -3 -13  169.60   17.78
  -5   3  13  202.06   20.72
  -5  -3  13  213.31   21.63
  -5   3  13  177.83   19.02
   5   3  13  150.52   16.82
  -5   3  14   -2.54    6.09
   5   3  14   -0.36    1.51
  -5  -3 -14    1.17    2.12
  -5  -3  14   -6.72    4.51
  -5   3  14   -0.91    2.89
   5   3  14    1.97    2.17
   5   3  15  171.97   19.82
  -5  -3 -15  206.39   21.41
  -5   3  15  199.71   22.70
  -5  -3  15  180.51   20.43
  -5   3  15  208.39   21.47
   5   3  15  169.72   19.42
   5   3  16   24.50    8.84
  -5   3  16   42.83   10.21
  -5  -3 -16   22.18    6.26
  -5  -3  16   33.57    9.04
   5  -3  16   17.85    7.34
  -5   3  16   19.42    6.95
   5   3  16   43.38    8.90
   5   3  17    3.50    3.89
  -5   3  17   13.32    5.71
  -5  -3 -17    4.41    5.06
  -5  -3  17    4.64    3.99
   5  -3  17   -5.35    5.17
   5   3  17   12.21    7.37
  -5   3  17   -0.46    4.43
   5   3  18    1.84    4.31
  -5   3  18    0.97    3.70
  -5  -3 -18   -1.08    4.71
  -5  -3  18    2.92    2.24
   5  -3  18    4.93    6.03
   5   3  18    6.87    5.56
  -5   3  18    6.25    3.46
   5   3  19   25.51    8.08
  -5   3  19   34.59    9.40
  -5  -3 -19   43.16   10.49
  -5  -3  19   31.13    8.21
   5  -3  19   25.87    9.09
   5   3  19   30.96    8.68
  -5   3  19   42.75   10.57
   5   3  20   20.95    7.65
  -5   3  20   14.56    7.80
  -5  -3 -20    5.98    5.71
   5  -3  20   13.85    3.65
  -5  -3  20   26.44    9.76
   5   3  20   18.69    6.99
  -5   3  20   25.39    8.54
   5   3  21   17.40    7.46
  -5   3  21   18.56    8.40
  -5  -3 -21   19.18    6.37
   5  -3  21   14.32    7.57
  -5  -3  21   17.07    2.35
   5   3  21    7.20    4.39
   5  -3  21    8.84    5.48
  -5   3  21   13.09    7.46
   5   3  22    3.09    3.03
   5  -3  22   10.04    7.02
  -5   3  22   13.11    6.16
  -5  -3 -22    9.92    8.25
  -5  -3  22   12.89    6.17
   5   3  22   -1.10    6.93
   5  -3  22    2.72    4.98
  -5   3  22   -0.12    5.16
   5   3  23   22.40    8.87
   5  -3  23   25.06    9.70
  -5   3  23   16.57    5.52
  -5  -3 -23   16.45    8.06
  -5  -3  23   14.43    4.00
   5   3  23   14.80    8.45
   5  -3  23   27.28   10.74
  -5   3  23   24.14    6.90
   5   3  24  112.41   19.50
   5  -3  24  111.82   18.77
  -5   3  24   60.19   14.54
  -5  -3  24   72.61   15.27
  -5   3  24   99.17   17.51
   5  -3  24  132.00   21.95
   5   3  24  104.40   18.82
   5   3  25   14.16    6.23
   5  -3  25   19.97    9.58
  -5   3  25   20.15    9.75
  -5  -3  25    8.26    7.69
   5   3  25   24.05   12.92
   5  -3  25    8.69    7.62
  -5   3  25   16.57    8.32
   5   3  26    0.45    3.84
   5  -3  26   -3.98    7.36
  -5   3  26   -3.08    2.94
  -5  -3  26    1.83    4.13
   5   3  26   -7.61    7.47
   5  -3  26    2.20    6.11
  -5   3  26    7.25    7.11
   5   3  27   37.50   11.40
   5  -3  27   73.48   16.27
  -5   3  27   49.39   13.22
  -5  -3  27   76.81   17.27
   5   3  27   47.83   13.32
   5  -3  27   65.25   15.45
  -5   3  27   53.34   14.11
   5   3  28   -5.91    5.96
   5  -3  28   -2.63    5.14
  -5   3  28   19.81   10.60
  -5  -3  28   -0.14    3.51
   5   3  28    1.15    6.10
   5  -3  28    1.91    5.30
  -5   3  28    4.02    6.45
   5   3  29   31.99    9.48
   5  -3  29   18.18    5.30
  -5   3  29   31.15   10.22
  -5  -3  29   29.00    9.09
   5   3  29   14.47    7.46
   5  -3  29   22.69   11.54
  -5   3  29   16.13    8.62
  -5  -4   0    0.27    2.21
   5  -4   0   -0.43    1.62
   5  -4   0   -0.39    1.24
  -5  -4   1  284.11   20.06
  -5  -4  -1  311.41   20.55
   5  -4   1  286.47   16.81
   5  -4  -1  314.17   17.98
   5  -4   1  264.10   21.00
  -5  -4   1  302.32   17.65
   5  -4  -1  299.81   22.35
  -5   4   1  298.91   25.00
   5  -4  -2    9.25    4.12
   5  -4   2    7.25    3.37
  -5  -4   2    7.60    4.02
   5  -4   2    5.05    2.12
  -5  -4  -2    8.09    4.63
   5  -4  -2    6.15    1.02
  -5   4   2   10.11    5.27
   5   4   2    2.76    0.50
  -5  -4   2   11.58    4.54
   5  -4   3    5.27    4.21
  -5  -4   3    8.15    4.30
   5  -4   3    0.43    1.92
  -5  -4  -3    6.67    4.28
   5  -4  -3    8.54    4.16
  -5   4   3    4.18    4.00
   5  -4  -3    1.11    1.04
  -5  -4   3    1.08    2.25
   5   4   3    5.47    2.23
  -5  -4   4   86.59   12.01
   5  -4   4   80.21    8.60
   5  -4   4   82.38   12.08
  -5  -4  -4   64.00    9.60
  -5  -4   4   72.96    9.52
   5  -4  -4   87.79   10.62
  -5   4   4   80.40   13.23
   5   4   4   91.40    9.05
   5  -4  -4   73.90   11.86
  -5  -4   5   43.25    8.40
   5  -4   5   25.06    5.03
   5  -4  -5   32.28    7.36
  -5  -4  -5   22.44    5.72
   5  -4  -5   39.64    7.41
  -5   4   5   38.37    8.68
  -5  -4   5   25.92    5.98
   5  -4   5   24.36    6.07
   5   4   5   31.45    5.74
   5  -4   6  448.20   22.02
  -5  -4   6  482.77   28.86
   5  -4  -6  454.38   27.43
  -5  -4  -6  367.95   23.98
   5  -4  -6  467.36   26.40
  -5   4   6  460.75   31.01
  -5  -4   6  469.93   25.71
   5   4   6  446.60   23.14
   5  -4   6  447.12   28.62
  -5  -4   7  399.13   26.09
  -5  -4  -7  439.93   26.34
   5  -4  -7  464.43   28.27
  -5   4   7  451.25   30.60
  -5  -4   7  438.07   26.26
   5  -4  -7  428.37   25.95
   5  -4   7  429.53   27.99
   5   4   7  415.81   23.72
   5  -4   7  372.99   21.20
  -5  -4   8  126.45   15.02
  -5  -4  -8  110.31   12.89
  -5   4   8   99.55   14.71
   5  -4  -8   93.81   12.92
  -5  -4   8  104.74   13.41
   5  -4   8  125.01   15.54
   5   4   8  134.21   14.40
   5  -4   8  117.45   11.90
   5  -4   9   42.74    8.92
  -5  -4  -9   72.91   10.83
   5  -4  -9   64.63   10.42
  -5   4   9   64.27   11.15
  -5  -4   9   61.55   10.28
   5   4   9   52.36    8.82
   5  -4   9   40.09    7.41
  -5  -4   9   51.68   10.14
  -5  -4  10   -1.18    2.04
  -5   4  10   -2.70    7.32
   5   4  10    0.24    4.68
   5  -4  10   -1.73    2.87
  -5  -4 -10   -1.05    2.11
  -5  -4  10    2.14    3.64
   5   4  10    1.13    3.10
  -5  -4  11    7.48    3.45
   5  -4  11    3.32    1.94
   5   4  11    3.41    2.11
  -5  -4 -11    0.87    3.34
  -5   4  11    1.13    2.85
  -5  -4  11    7.83    4.74
  -5   4  11   12.14    5.01
   5   4  11   11.60    5.81
  -5  -4 -12  212.30   20.26
  -5   4  12  162.14   20.19
  -5  -4  12  151.21   17.51
   5  -4  12  183.70   19.52
  -5   4  12  164.50   18.67
   5   4  12  199.78   18.70
   5   4  12  153.83   17.45
  -5  -4  12  184.87   20.26
   5  -4  13   11.92    5.77
   5   4  13    7.67    2.89
  -5  -4 -13   22.39    7.59
  -5   4  13    6.77    7.50
  -5  -4  13   10.79    5.18
  -5   4  13   11.40    6.69
   5   4  13   13.18    5.14
   5  -4  14   52.37   11.51
   5   4  14   61.28   11.54
  -5  -4 -14   61.36   11.18
  -5   4  14   60.17   13.41
  -5  -4  14   52.71   11.40
   5   4  14   62.32   11.13
  -5   4  14   62.05   10.85
   5   4  15    8.42    5.62
  -5  -4 -15   18.08    7.76
  -5  -4  15    7.92    5.25
  -5   4  15   16.34    7.76
   5   4  15   17.82    6.49
  -5   4  15    5.55    3.78
   5  -4  15    8.88    6.73
   5  -4  16  232.87   25.79
  -5   4  16  263.47   26.80
  -5  -4  16  218.42   23.93
  -5   4  16  205.14   22.70
   5   4  16  174.80   19.55
  -5  -4 -16  271.10   26.16
   5   4  16  229.15   23.99
   5  -4  17  143.43   19.23
  -5  -4 -17   90.15   14.74
  -5   4  17  102.62   17.14
  -5  -4  17   95.80   15.70
  -5   4  17   91.92   15.17
   5   4  17  119.56   17.14
   5   4  17  152.21   19.84
   5   4  18   10.81    7.37
  -5  -4 -18   -4.21    4.34
  -5   4  18    8.18    5.80
  -5  -4  18    6.82    5.58
   5  -4  18   -1.30    4.79
   5   4  18    8.16    5.31
  -5   4  18    4.58    6.30
  -5  -4  19   57.82   12.91
   5   4  19   51.67   12.37
  -5  -4 -19   62.12   13.91
  -5   4  19   64.78   14.31
   5  -4  19   62.88   12.63
   5   4  19   52.92   13.18
  -5   4  19   37.81   10.22
   5   4  20   26.75    8.67
  -5  -4 -20    7.29    4.73
  -5   4  20    1.23    3.67
  -5  -4  20   10.77    7.93
   5  -4  20   26.13    9.59
   5   4  20   17.68    6.69
  -5   4  20   -0.97    4.67
   5   4  21   10.44    4.11
  -5  -4 -21    8.05    6.38
  -5   4  21   12.61    7.72
  -5  -4  21   18.99    5.64
   5  -4  21   13.31    6.98
   5   4  21   20.18    7.98
  -5   4  21    1.28    4.83
   5  -4  21   13.48    5.58
   5   4  22   -6.95    4.40
  -5  -4 -22   -9.46    7.43
  -5   4  22    3.63    4.68
   5  -4  22    2.36    4.21
  -5  -4  22    9.62    6.93
   5   4  22    7.05    3.81
  -5   4  22    1.95    3.61
   5  -4  22    2.78    7.55
   5  -4  23  292.92   31.22
  -5  -4  23  329.55   34.16
   5   4  23  335.29   34.11
  -5   4  23  324.36   31.50
   5  -4  23  391.75   35.27
  -5  -4 -23  356.35   34.52
  -5   4  23  346.83   33.85
   5   4  23  386.55   34.15
   5   4  24    2.24    4.07
   5  -4  24   -0.34    6.06
  -5  -4 -24    4.48    7.71
  -5   4  24   -4.68    6.84
  -5  -4  24   -5.95    5.11
   5   4  24    9.33    5.77
  -5   4  24    0.74    2.16
   5  -4  24   -3.08    3.82
   5   4  25   20.43   10.15
   5  -4  25    9.89    6.44
  -5   4  25    6.46    6.20
  -5  -4  25    1.01    4.35
   5   4  25   17.72    9.07
   5  -4  25    9.37    8.40
  -5   4  25   -1.37    2.23
   5   4  26   18.32   10.14
   5  -4  26   21.73    8.85
  -5   4  26    8.02    6.73
  -5  -4  26   10.10    5.44
   5   4  26   18.19    9.93
   5  -4  26   25.08    8.86
  -5   4  26   27.63   10.51
   5   4  27   -0.71    4.82
   5  -4  27   -4.93    6.86
  -5   4  27   -2.69    3.41
  -5  -4  27    1.33    2.82
   5   4  27    5.85    3.08
   5  -4  27    9.73    3.77
  -5   4  27    4.55    4.53
   5   4  28    3.29    4.63
   5  -4  28   -1.63    4.41
  -5   4  28   -6.18    6.06
  -5  -4  28    2.55    5.72
   5   4  28   17.33   11.14
   5  -4  28    2.39    3.87
  -5   4  28   -0.14    4.14
   5   4  29   13.96    6.75
   5  -4  29    4.91    7.84
  -5   4  29   -0.75    5.88
  -5  -4  29   -1.38    5.24
   5   4  29   -7.85    8.40
   5  -4  29    2.49    7.93
  -5   4  29   -3.15    5.27
  -5  -5   0   -1.50    1.92
   5  -5   0   -1.88    1.82
   5  -5   0   -2.48    2.55
  -5   5   0   -1.29    1.90
  -5  -5   1  406.80   27.00
  -5  -5  -1  470.08   28.02
   5  -5   1  412.60   23.02
  -5  -5   1  375.13   18.15
   5  -5   1  416.61   27.75
   5  -5  -1  394.12   27.83
  -5   5   1  410.07   29.67
  -5  -5   2  225.47   20.13
   5  -5   2  195.73   15.97
  -5  -5  -2  221.36   19.62
   5  -5  -2  241.56   18.31
   5  -5   2  206.95   19.75
  -5   5   2  218.01   21.82
  -5  -5   2  180.09   13.98
   5  -5  -2  232.59   20.94
   5  -5   3   13.07    5.29
  -5  -5   3   14.58    5.65
   5  -5   3    5.34    1.83
  -5  -5  -3    7.09    3.10
   5  -5  -3    8.44    4.72
  -5   5   3    8.46    5.27
  -5  -5   3    4.67    1.70
   5  -5  -3    2.20    1.41
   5   5   3    8.03    3.42
  -5  -5   4   54.73   10.09
   5  -5   4   31.24    6.54
  -5  -5  -4   30.70    7.54
  -5  -5   4   32.17    5.98
   5  -5  -4   23.78    5.81
   5  -5  -4   42.41    9.49
   5   5   4   26.42    5.42
  -5   5   4   36.91   10.42
   5  -5   4   32.28    8.34
  -5  -5   5   84.28   12.04
   5  -5   5   74.73   10.02
   5  -5  -5   77.34   12.50
   5  -5   5   77.88   12.72
  -5  -5  -5   93.80   12.83
   5  -5  -5   67.54   10.42
  -5   5   5  104.07   15.83
  -5  -5   5   86.67   10.10
   5   5   5  101.26   11.14
  -5  -5   6  224.35   20.37
   5  -5   6  215.56   17.51
   5  -5   6  251.09   21.60
   5  -5  -6  199.83   19.39
  -5  -5  -6  207.25   19.15
   5  -5  -6  232.19   19.46
  -5   5   6  260.25   24.90
  -5  -5   6  255.50   18.10
   5   5   6  288.91   19.30
  -5  -5   7  186.81   19.38
   5  -5   7  204.27   16.65
  -5  -5  -7  201.44   19.03
   5  -5  -7  205.58   19.72
  -5  -5   7  215.18   17.83
   5  -5  -7  206.66   18.67
   5   5   7  217.12   17.75
   5   5   7  202.01   14.45
   5  -5   7  213.16   20.99
   5  -5   8  136.78   14.19
  -5  -5   8   93.81   14.33
   5  -5  -8  122.62   15.30
  -5  -5  -8  112.64   14.94
   5  -5  -8  110.90   14.07
  -5   5   8  122.31   17.48
  -5  -5   8  103.26   13.02
   5   5   8   96.51   10.26
   5   5   8   84.81   10.85
   5  -5   8  109.78   15.33
   5  -5   9   17.12    5.48
  -5  -5   9   13.73    6.55
   5   5   9   11.65    3.50
   5  -5   9   19.56    7.75
  -5  -5  -9    6.07    3.85
   5  -5  -9   12.99    4.56
  -5  -5   9   13.01    5.30
   5   5   9   13.72    4.39
  -5   5   9    7.57    3.57
  -5  -5 -10    9.32    5.66
   5  -5  10    6.57    4.25
  -5  -5  10   10.59    5.65
   5   5  10   14.22    5.62
   5  -5  10   14.86    4.62
  -5   5  10   26.27    7.96
   5  -5 -10   15.72    6.55
  -5  -5  10    6.47    2.56
   5   5  10    8.14    3.13
  -5  -5  11   60.81   11.56
   5  -5  11   68.42   12.00
  -5  -5 -11   72.10   12.61
  -5  -5  11   66.14   11.08
  -5   5  11   73.60   12.90
   5  -5 -11   55.81   10.35
   5   5  11   62.66   10.15
   5   5  11   98.83   13.76
   5  -5  11   65.85   11.53
  -5  -5 -12  248.77   22.80
  -5   5  12  291.45   28.06
   5  -5 -12  248.10   23.84
  -5  -5  12  257.23   22.64
   5  -5  12  258.87   24.93
  -5   5  12  265.48   24.48
   5   5  12  267.94   22.25
   5   5  12  236.55   22.41
   5  -5  12  304.46   24.31
  -5  -5  12  270.50   25.86
  -5  -5  13    2.84    3.94
   5  -5  13    1.65    2.76
   5   5  13   -1.59    2.53
  -5  -5 -13    2.57    2.87
  -5   5  13    3.88    6.40
   5  -5 -13   -6.03    5.22
  -5  -5  13   -0.39    1.56
  -5   5  13    1.35    3.27
   5   5  13   -0.38    2.24
   5  -5  14   11.49    7.21
   5   5  14   12.25    6.74
  -5  -5 -14   16.57    4.84
  -5   5  14   15.15    8.88
   5  -5 -14    1.08    2.95
  -5  -5  14    4.55    2.77
  -5   5  14    5.78    4.65
   5   5  14    4.22    1.86
  -5  -5  14   11.03    6.80
   5  -5  15   18.34    6.18
   5   5  15   14.71    6.85
  -5  -5 -15   13.10    5.34
  -5   5  15   14.42    6.31
   5  -5 -15   16.12    6.29
  -5  -5  15   19.37    7.46
  -5   5  15   21.93    7.30
   5   5  15   16.07    5.83
   5  -5  16   45.45   11.19
   5   5  16   54.23   11.02
  -5  -5 -16   38.56    9.92
  -5   5  16   37.10   10.15
  -5  -5  16   45.69   11.29
  -5   5  16   45.91    9.98
   5   5  16   48.82   11.19
  -5  -5 -17    3.52    4.21
   5   5  17   -4.27    4.74
  -5   5  17   -0.46    4.44
  -5  -5  17    0.60    2.65
  -5   5  17   -3.38    3.70
   5   5  17   -0.14    5.10
   5  -5  17    5.53    5.97
   5   5  18   28.13    9.52
  -5  -5 -18    9.59    6.43
  -5   5  18   29.30    9.05
  -5  -5  18   14.99    5.00
  -5   5  18   23.13    8.83
   5   5  18   13.20    7.95
   5  -5  18   16.05    9.22
   5   5  19   10.15    6.99
  -5  -5 -19   12.83    6.67
  -5   5  19   -0.11    2.52
  -5  -5  19    7.09    2.19
   5   5  19    7.02    6.36
  -5   5  19    0.78    5.00
   5  -5  19    4.86    4.88
   5   5  20   -3.53    3.85
  -5  -5 -20    0.91    5.35
  -5   5  20   -2.34    2.04
  -5  -5  20   -0.34    2.51
   5  -5  20   -0.58    4.96
   5   5  20   -1.17    5.82
  -5   5  20   11.25    8.11
   5   5  21   86.80   16.28
   5  -5  21   93.42   16.34
  -5  -5 -21   93.50   17.81
  -5   5  21   71.94   15.86
  -5  -5  21   66.12   15.23
  -5   5  21   83.35   16.65
   5   5  21   92.46   17.06
   5   5  22   11.51    2.22
  -5  -5 -22    7.52    6.35
  -5   5  22   11.85    8.41
  -5  -5  22   10.60    6.66
   5  -5  22   38.66   11.50
   5   5  22   17.99    7.65
  -5   5  22    9.25    8.80
   5  -5  22    9.44    6.75
   5   5  23   52.32   13.02
  -5  -5 -23   34.08   11.95
  -5   5  23   42.08   12.33
   5  -5  23   54.58   13.45
  -5  -5  23   47.84   13.08
  -5   5  23   55.75   13.49
   5  -5  23   28.79    7.66
   5   5  24   51.89   12.68
  -5   5  24   99.14   18.04
  -5  -5 -24   69.76   16.55
   5  -5  24   66.84   15.10
  -5  -5  24   78.57   15.50
  -5   5  24   63.40   16.10
   5  -5  24   37.14   11.71
   5   5  25    8.36    6.49
  -5  -5 -25   -7.25    3.09
  -5   5  25    0.11    5.46
   5  -5  25   -5.75    4.86
  -5  -5  25    9.97    7.94
  -5   5  25   -1.11    4.20
   5  -5  25   10.06    8.52
   5   5  26   11.16    2.75
  -5   5  26   21.15    9.93
   5  -5  26   18.86    7.91
  -5  -5  26   23.48    8.21
  -5   5  26   10.23    4.75
   5  -5  26   12.77    7.62
   5   5  27   -6.52    8.01
   5  -5  27    2.17    6.53
  -5   5  27   -0.03    5.34
  -5  -5  27   -0.92    5.96
  -5   5  27    2.45    2.34
   5  -5  27   -1.50    4.57
   5   5  28    9.05    7.73
   5  -5  28   21.22    8.81
  -5   5  28   33.72   11.01
  -5  -5  28   25.45    9.26
  -5   5  28   27.21   10.13
   5  -5  28   29.42    9.42
  -5  -6   0    3.09    4.05
   5  -6   0    0.08    2.07
   5  -6   0   -1.34    1.56
  -5  -6   1  487.77   31.70
  -5  -6  -1  549.79   32.57
   5  -6   1  578.21   34.50
   5  -6   1  547.41   29.20
   5  -6  -1  536.90   29.52
  -5   6   1  499.74   34.14
   5  -6  -1  486.48   31.76
  -5  -6   2  233.31   21.44
   5  -6   2  274.28   20.78
  -5  -6  -2  269.66   23.40
   5  -6  -2  261.57   20.76
   5  -6   2  271.44   23.95
  -5   6   2  260.57   24.67
   5  -6  -2  256.45   23.22
  -5  -6   3  355.79   26.88
   5  -6   3  313.88   22.27
  -5   6   3  356.86   29.07
  -5  -6  -3  301.29   24.05
   5  -6  -3  291.75   22.50
   5  -6   3  362.97   27.58
   5  -6  -3  327.38   26.23
  -5  -6   4   81.73   12.58
   5  -6   4  106.64   12.82
  -5  -6  -4  108.36   14.53
   5  -6   4  103.16   14.81
   5  -6  -4   97.95   13.12
  -5   6   4   80.47   14.85
   5   6   4   84.00   10.52
   5  -6  -4   78.48   13.06
  -5  -6   5  163.36   18.73
   5  -6  -5  173.07   19.22
   5  -6   5  169.00   16.53
   5  -6   5  136.80   16.99
  -5  -6  -5  161.51   18.03
   5  -6  -5  142.83   16.37
  -5   6   5  157.05   19.65
   5   6   5  160.45   14.38
  -5  -6   6   16.57    5.81
   5  -6   6   12.91    4.75
   5  -6  -6   16.88    4.73
  -5  -6  -6   18.87    7.56
  -5   6   6   31.86   10.41
   5  -6  -6   18.74    6.20
   5  -6   6   18.31    7.56
   5   6   6   17.46    5.51
  -5  -6   7   19.13    7.24
   5  -6   7   27.32    7.01
  -5  -6  -7   28.25    7.25
   5  -6  -7   20.97    6.80
  -5   6   7   16.93    6.30
  -5  -6   7   26.52    5.97
   5  -6   7   17.43    5.92
   5  -6  -7   33.76    8.77
   5   6   7   18.11    5.71
   5   6   8   42.98    8.26
  -5  -6   8   45.05   10.18
   5  -6   8   49.66    8.87
  -5  -6  -8   68.72   11.95
   5  -6  -8   48.40   10.79
  -5   6   8   41.84   10.34
   5  -6  -8   40.53    9.06
   5  -6   8   43.21   10.73
  -5  -6   8   39.05    7.84
   5  -6   9  289.93   23.20
  -5  -6   9  273.50   25.13
  -5   6   9  331.51   28.80
  -5  -6  -9  292.44   25.09
   5  -6  -9  297.87   25.04
   5  -6  -9  283.67   24.57
  -5  -6   9  268.20   21.24
   5   6   9  330.53   24.34
   5  -6   9  338.49   26.70
   5   6  10    2.49    2.37
   5  -6  10    1.61    1.57
  -5  -6  10    0.24    1.98
   5  -6  10    0.61    4.04
  -5  -6 -10    1.39    3.35
  -5   6  10    3.87    4.42
   5  -6 -10    7.58    6.70
  -5  -6  10    5.47    3.99
   5  -6  11   46.65    8.78
   5   6  11   34.08    7.58
  -5  -6  11   24.40    8.67
  -5  -6 -11   41.55    9.45
  -5   6  11   63.66   13.83
   5  -6 -11   48.91   10.62
  -5  -6  11   58.07   10.38
   5  -6  11   73.25   13.22
   5  -6 -12  188.90   21.49
  -5  -6 -12  212.70   22.04
  -5   6  12  188.67   22.38
  -5  -6  12  170.80   18.71
   5  -6  12  201.34   22.01
   5   6  12  223.44   21.53
   5  -6  12  150.00   17.86
  -5  -6  12  178.66   22.32
   5  -6  13   49.32    9.85
  -5  -6  13   57.70   11.75
   5  -6  13   72.97   12.40
  -5  -6 -13   67.92   13.42
  -5   6  13   69.72   13.63
   5  -6 -13   53.24   11.17
  -5  -6  13   54.39   10.72
   5   6  13   63.47   12.74
  -5  -6  14    8.51    6.66
   5   6  14    0.77    3.90
   5  -6  14   13.17    5.91
  -5  -6 -14   -1.58    3.75
  -5   6  14   14.50    8.85
   5  -6 -14    5.25    6.42
  -5  -6  14    8.30    6.77
  -5   6  14   16.98    6.66
   5  -6  14    8.44    2.33
  -5   6  15  219.39   24.94
  -5  -6 -15  183.27   21.62
   5  -6 -15  227.66   23.93
   5  -6  15  177.74   20.96
  -5  -6  15  162.19   20.60
  -5   6  15  241.35   25.18
   5   6  15  180.32   20.73
  -5  -6  15  212.98   23.89
   5  -6  16   -1.11    3.19
   5   6  16   -0.83    3.26
  -5  -6 -16    4.44    5.54
  -5   6  16    2.42    4.01
   5  -6 -16    8.17    7.52
  -5  -6  16    3.88    5.93
  -5   6  16    0.25    1.80
  -5  -6  16    2.15    3.06
   5  -6  17   -1.42    3.11
   5   6  17    0.63    5.23
  -5  -6 -17   -0.20    2.39
  -5   6  17    4.59    4.58
   5  -6 -17    1.83    4.17
  -5  -6  17    2.24    4.54
  -5   6  17    2.31    2.24
   5   6  18   -1.90    3.94
  -5  -6 -18    1.10    4.85
  -5   6  18    0.32    4.41
   5  -6 -18    4.46    5.02
  -5  -6  18    7.86    7.33
  -5   6  18    3.63    4.11
   5  -6  18    3.33    6.74
   5   6  19   21.38    9.79
  -5  -6 -19   24.64   10.83
  -5   6  19   -2.07    2.71
   5  -6 -19   12.65    7.06
  -5  -6  19   16.56    8.18
  -5   6  19   17.64    8.83
   5  -6  19   13.41    5.90
  -5  -6 -20  255.22   29.15
  -5   6  20  261.09   28.90
   5  -6 -20  196.48   25.78
   5  -6  20  223.00   26.33
  -5  -6  20  236.56   28.17
  -5   6  20  193.09   24.04
   5   6  20  225.48   25.39
   5   6  21    5.96    5.58
  -5  -6 -21    0.36    2.71
  -5   6  21    4.73    5.37
   5  -6 -21   -3.12    6.81
  -5  -6  21    2.33    3.48
  -5   6  21    6.39    7.15
   5  -6  21    7.17    6.74
   5  -6  22  166.48   22.95
  -5   6  22  164.02   22.05
   5  -6 -22  160.47   23.24
  -5  -6  22  163.43   23.11
  -5   6  22  191.01   24.30
   5  -6  22  181.37   24.56
   5   6  22  173.22   22.71
   5   6  23   28.38   10.69
  -5  -6 -23   22.98    7.58
  -5   6  23   19.46    9.57
   5  -6 -23   19.15    8.64
  -5  -6  23   14.63    5.79
   5  -6  23   13.17    6.83
  -5   6  23   25.72    8.66
   5  -6  23   45.62   12.68
   5   6  24   21.98    8.57
  -5  -6 -24   15.21   12.57
  -5   6  24   47.15   12.37
   5  -6 -24   24.52   12.64
  -5  -6  24   42.69   14.26
   5  -6  24   51.24   11.43
  -5   6  24   45.92   11.19
   5  -6  24   31.38    8.69
   5   6  25   16.41    8.71
  -5   6  25   10.39    4.50
   5  -6 -25    8.74   10.20
   5  -6  25   10.42    4.96
  -5  -6  25    5.38    3.29
  -5   6  25    8.09    4.84
   5  -6  25    5.54    5.83
   5   6  26   13.31    6.58
  -5   6  26    8.46    7.06
   5  -6 -26    6.46    7.50
   5  -6  26    7.88    2.90
  -5  -6  26   -3.15    6.07
  -5   6  26    5.93    3.73
   5  -6  26   17.56    5.67
   5   6  27   50.47   14.29
  -5   6  27   24.85    8.35
   5  -6  27   15.63    7.93
   5  -6 -27   25.82   10.24
  -5  -6  27   21.51    9.89
  -5   6  27   23.74    9.68
   5  -6  27   23.20   10.96
  -5  -7   0   -0.78    3.60
   5  -7   0   -1.26    2.44
   5  -7   0   -2.48    3.57
  -5  -7  -1   60.12   11.83
   5  -7   1   50.81    9.73
   5  -7  -1   52.63   10.35
  -5  -7   1   45.25   10.90
   5  -7   1   47.67   10.35
   5  -7  -1   43.39   10.50
  -5  -7   2  605.27   36.90
   5  -7   2  551.87   32.15
  -5  -7  -2  472.25   32.65
   5  -7  -2  577.88   33.57
   5  -7   2  600.20   36.71
  -5   7   2  542.60   36.12
   5  -7  -2  570.53   36.69
  -5  -7   3  225.41   22.89
   5  -7   3  224.87   20.68
  -5  -7  -3  200.69   21.43
   5  -7  -3  219.21   20.58
   5  -7   3  180.83   19.74
  -5   7   3  211.49   22.83
   5  -7  -3  174.14   20.60
  -5  -7   4  203.36   21.01
   5  -7   4  171.68   17.93
  -5  -7  -4  156.37   19.23
   5  -7  -4  185.71   19.12
   5  -7   4  179.65   20.05
  -5   7   4  133.99   18.14
   5  -7  -4  157.12   18.56
  -5  -7   5   64.96   12.11
   5  -7   5   58.64   10.81
   5  -7   5   69.49   12.69
  -5  -7  -5   39.85    9.57
   5  -7  -5   46.10    9.31
  -5   7   5   50.36   11.75
   5   7   5   51.71    8.97
   5  -7  -5   40.31    9.90
   5  -7  -6   -1.66    2.73
  -5  -7   6   -2.57    3.73
   5  -7   6    8.43    5.21
  -5  -7  -6    1.83    3.97
   5  -7  -6   -1.83    3.83
  -5   7   6    1.13    6.28
   5   7   6   -0.18    2.48
   5  -7   6    6.77    5.67
  -5  -7   7    2.24    2.55
   5  -7   7    1.05    4.04
  -5  -7  -7    3.44    2.40
   5  -7  -7    1.71    4.69
  -5   7   7    2.42    6.16
   5  -7  -7    4.87    2.59
   5  -7   7    0.84    4.08
   5   7   7   -1.45    2.29
   5  -7   8   63.84   12.44
  -5  -7   8   67.20   13.18
   5  -7   8   65.00   11.55
  -5  -7  -8   84.17   13.95
   5  -7  -8   79.76   13.84
  -5   7   8   55.78   12.31
   5   7   8   56.83   10.03
   5  -7  -8   58.95   11.12
  -5  -7   9  194.73   22.84
   5  -7   9  210.50   20.85
  -5  -7  -9  203.68   22.62
   5  -7  -9  213.86   22.54
   5  -7  -9  200.54   21.26
  -5   7   9  160.78   20.76
   5   7   9  228.23   20.91
   5  -7   9  275.17   25.27
   5  -7  10    2.53    2.12
  -5  -7  10    2.08    5.74
   5  -7 -10    3.25    4.79
   5  -7  10   -3.10    4.68
  -5  -7 -10   -1.99    3.51
  -5   7  10    3.17    5.37
   5  -7 -10    0.92    1.82
   5   7  10   -0.33    3.61
   5  -7  11   82.16   13.32
   5  -7 -11   59.57   11.87
  -5  -7  11   60.67   12.82
  -5  -7 -11   96.96   16.64
  -5   7  11   93.22   16.19
   5  -7 -11   64.52   12.82
   5  -7  11   86.57   14.68
   5   7  11   70.68   12.27
   5   7  12   28.46   10.04
   5  -7  12   21.63    7.42
  -5  -7  12   39.95    9.29
   5  -7  12   31.17    7.76
  -5   7  12   27.15   10.83
   5  -7 -12   17.50    5.80
  -5  -7 -12   35.76   10.50
  -5  -7  13   92.79   15.63
  -5  -7 -13  119.83   17.83
   5  -7 -13   96.91   16.14
  -5   7  13  123.17   19.60
   5  -7  13  126.04   17.52
   5   7  13   96.72   15.01
   5  -7  13  112.18   16.92
   5   7  14   75.95   13.35
   5  -7  14   75.40   13.64
  -5   7  14   81.75   15.98
  -5  -7 -14   65.33   13.14
   5  -7 -14   74.47   14.99
   5  -7  14  113.43   16.93
  -5  -7  14   75.03   14.53
   5  -7  15   17.15    8.25
  -5  -7  15   12.60    7.17
   5   7  15   13.17    7.05
   5  -7  15   18.41    6.74
  -5  -7 -15   20.86    8.06
  -5   7  15   19.33    8.96
   5  -7 -15   16.87    6.00
  -5  -7  16   35.15   10.50
   5   7  16   33.84    9.82
   5  -7  16   23.62    8.97
  -5  -7 -16   24.55    7.32
  -5   7  16   25.74    9.49
   5  -7 -16   24.05    8.65
  -5   7  16   25.12    8.30
  -5  -7  17    4.31    5.14
   5   7  17    1.50    6.56
   5  -7  17    3.71    5.52
  -5  -7 -17    3.84    3.59
  -5   7  17    3.70    5.80
   5  -7 -17    7.15    6.23
  -5   7  17    2.93    4.01
   5  -7  18   -0.25    6.67
   5   7  18    0.16    4.37
  -5  -7 -18    5.73    6.11
  -5   7  18    5.76    5.95
   5  -7 -18   16.64    7.94
  -5   7  18    1.69    5.13
  -5  -7  18   13.92    6.81
   5   7  19   15.33    6.52
  -5  -7 -19    9.66    5.02
  -5   7  19    9.91    5.93
   5  -7 -19    2.91    6.22
  -5   7  19   16.65    6.36
   5  -7  19   10.68    6.10
   5   7  20   -0.22    4.51
  -5   7  20    9.20    6.65
   5  -7 -20   -2.37    4.94
  -5  -7  20    1.21    3.65
  -5  -7 -20   -2.81    4.53
  -5   7  20    8.20    4.29
   5  -7  20   -6.88    7.05
   5   7  21    9.68    7.23
  -5  -7 -21    5.69    5.56
  -5   7  21   11.46    5.70
   5  -7 -21    5.46    3.38
  -5  -7  21   11.55    8.12
  -5   7  21   15.74    8.42
   5  -7  21   20.01    8.22
   5   7  22    4.85    5.35
  -5  -7 -22    1.21    4.17
  -5   7  22    1.27    6.90
   5  -7 -22    4.54    3.49
  -5  -7  22    4.90    6.99
  -5   7  22    2.96    4.12
   5  -7  22    1.25    2.19
   5  -7  22    1.18    4.16
   5   7  23    4.03    5.42
  -5  -7 -23    8.80    2.84
  -5   7  23   11.00    6.95
   5  -7 -23   12.56    6.37
  -5  -7  23   18.62    7.00
   5  -7  23   12.46    5.27
  -5   7  23   19.65    9.23
   5  -7  23    4.35    4.49
   5   7  24   22.97    9.43
  -5  -7 -24   -4.63    8.28
  -5   7  24    7.01    5.33
   5  -7 -24   23.60   10.21
  -5  -7  24   -6.52    4.29
   5  -7  24   22.90    9.77
  -5   7  24    4.08    3.68
   5  -7  24   11.79    5.41
   5   7  25    8.60    3.22
  -5  -7 -25   40.33   14.22
  -5   7  25   32.29   10.76
   5  -7 -25   12.21    7.17
  -5  -7  25   15.86    8.83
   5  -7  25   24.87   10.10
  -5   7  25   20.94    9.68
   5  -7  25   19.21    7.32
   5   7  26    7.40    8.49
  -5   7  26   17.53    8.65
   5  -7 -26   -0.90    4.48
   5  -7  26    7.28    5.25
  -5  -7  26    7.04    6.66
  -5   7  26    1.73    2.61
   5  -7  26    9.76    6.68
  -5  -8   0    3.01    3.53
   5  -8   0   -0.12    3.81
   5  -8   0    5.05    3.63
  -5  -8   1  757.80   43.31
  -5  -8  -1  740.06   42.83
   5  -8   1  837.14   42.60
   5  -8  -1  723.96   40.01
   5  -8   1  772.48   43.37
   5  -8  -1  743.60   42.55
  -5  -8   2  113.08   16.49
   5  -8   2  103.64   15.19
  -5  -8  -2  111.78   17.47
   5  -8  -2  110.44   15.26
   5  -8   2  115.17   17.26
  -5   8   2  122.13   18.51
   5  -8  -2  123.51   18.23
   5  -8  -3    9.17    5.43
  -5  -8   3    7.18    4.57
   5  -8   3    5.34    4.73
   5  -8   3    2.06    2.03
  -5  -8  -3    2.88    4.80
   5  -8  -3    2.69    1.87
  -5   8   3   -1.80    1.86
   5  -8   4   32.77    8.94
  -5  -8   4   36.50    9.31
   5  -8   4   19.17    6.62
  -5  -8  -4   42.58   10.30
   5  -8  -4   26.50    9.58
   5  -8  -4   23.06    6.31
  -5   8   4   26.97    9.75
  -5  -8   5 1264.67   56.18
   5  -8   5 1203.62   51.32
  -5  -8  -5 1238.55   56.12
   5  -8   5 1334.88   56.69
   5  -8  -5 1278.55   54.71
  -5   8   5 1377.46   61.35
   5  -8  -5 1198.02   54.74
  -5  -8   6   30.05   10.06
   5  -8   6   34.56    8.70
  -5  -8  -6   37.86   10.59
   5  -8  -6   27.79    7.91
   5   8   6   32.67    8.16
   5  -8  -6   32.63    9.73
   5  -8   6   35.91    9.50
  -5   8   6   37.78   10.97
   5  -8  -7    0.10    3.67
  -5  -8   7    3.58    5.44
   5  -8   7    2.05    3.65
  -5  -8  -7    4.16    2.10
   5  -8  -7    6.18    2.64
  -5   8   7   -3.68    3.51
   5  -8   7    8.51    5.96
   5   8   7    2.25    3.27
  -5  -8   8   30.58    9.22
   5  -8   8   24.80    7.56
   5  -8  -8   32.84    8.84
  -5  -8  -8   16.19    7.57
   5  -8  -8   43.92   10.45
  -5   8   8   25.51    9.39
   5  -8   8   29.14    8.56
   5   8   8   24.29    6.61
  -5  -8   9  611.36   40.11
   5  -8   9  585.38   37.63
   5  -8  -9  560.36   37.39
  -5  -8  -9  609.77   40.82
   5  -8  -9  631.97   39.17
  -5   8   9  628.11   42.15
   5   8   9  640.49   36.78
   5  -8   9  635.25   39.99
   5  -8  10   82.70   15.90
  -5  -8  10   74.76   14.12
  -5  -8 -10   94.52   16.75
   5  -8 -10  101.07   16.61
   5  -8 -10   91.77   15.76
  -5   8  10  128.67   19.70
   5   8  10  109.56   16.23
   5  -8  10   84.72   14.47
   5  -8  11   27.07    8.49
  -5  -8  11   35.86   10.12
   5  -8  11   54.53   11.94
  -5  -8 -11   42.98   10.45
  -5   8  11   37.49   11.15
   5  -8 -11   43.33   11.58
   5   8  11   36.82    9.18
   5  -8 -11   54.06   12.17
   5  -8  12   26.84    7.33
  -5  -8  12   55.71   12.90
   5  -8 -12   60.34   12.86
   5  -8  12   42.96    9.48
  -5  -8 -12   31.52    9.33
  -5   8  12   60.67   12.61
   5  -8 -12   31.39   10.76
   5   8  12   26.92    9.47
   5  -8  13  213.70   23.93
  -5  -8  13  241.76   26.97
  -5  -8 -13  254.78   27.34
   5  -8 -13  217.80   25.03
  -5   8  13  251.35   27.17
   5   8  13  231.37   24.25
   5  -8  13  246.91   25.87
   5  -8  14    3.52    2.04
  -5  -8  14    3.81    4.34
  -5   8  14    3.31    5.55
   5  -8  14    3.00    6.29
  -5  -8 -14    4.11    3.94
   5  -8 -14   -1.61    4.28
   5   8  14   -0.67    2.59
   5  -8  15    5.39    2.15
  -5  -8  15    5.50    5.42
   5  -8  15    3.21    6.36
   5  -8 -15    9.11    7.26
  -5  -8 -15    7.06    3.05
  -5   8  15   16.27    7.17
   5   8  15    4.26    3.24
   5   8  16    9.62    7.16
   5  -8  16    3.12    3.27
  -5  -8  16    7.31    6.87
   5  -8  16    7.35    5.78
  -5  -8 -16    7.34    6.57
  -5   8  16    8.44    4.11
   5  -8 -16    2.86    5.34
  -5  -8 -17  133.39   20.35
   5  -8 -17  161.64   22.66
  -5   8  17  177.60   24.13
   5  -8  17  185.90   23.59
   5   8  17  161.70   22.48
   5  -8  17  168.93   22.74
  -5  -8  17  141.54   21.26
   5   8  18   -2.72    4.20
  -5  -8  18    0.59    2.51
   5  -8  18    8.01    3.69
  -5  -8 -18   -4.45    5.70
  -5   8  18    4.41    3.47
   5  -8 -18   -0.87    2.15
  -5   8  18    3.97    3.67
   5  -8 -19  129.08   20.92
  -5   8  19  137.91   21.75
   5  -8  19  120.53   19.08
  -5   8  19  126.71   19.92
   5   8  19  156.03   22.52
  -5  -8 -19   92.07   17.45
  -5  -8  19  171.36   23.88
   5   8  20    9.83    6.88
   5  -8 -20    4.61    6.37
  -5  -8 -20    9.01    6.28
  -5   8  20    9.57    9.36
  -5   8  20   -2.79    4.72
   5  -8  20   14.16    9.21
   5   8  21   38.03   10.88
  -5  -8 -21   39.70   11.28
  -5   8  21   51.32   13.54
   5  -8 -21   49.38   14.89
  -5   8  21   43.01   11.33
   5  -8  21   15.08    8.73
   5   8  22   13.00    8.41
  -5  -8 -22    4.67    5.02
  -5   8  22   20.05    8.39
   5  -8 -22   -4.43    6.78
  -5   8  22   14.28   10.05
   5  -8  22   -1.68    4.12
   5  -8  22   20.80    7.94
  -5  -8 -23  137.86   23.44
   5  -8  23  102.73   18.31
   5  -8 -23  125.26   21.20
  -5   8  23   95.23   18.47
  -5   8  23  107.44   19.28
   5   8  23  125.66   21.29
   5  -8  23  116.18   19.88
   5   8  24    1.75    4.67
  -5  -8 -24    0.46    7.22
  -5   8  24    8.01    8.17
   5  -8 -24    6.90    4.12
  -5   8  24    2.35    3.58
   5  -8  24   -2.66    6.51
   5  -8  24   -1.19    5.69
   5   8  25   -1.05    6.50
  -5   8  25    9.79    6.50
   5  -8 -25    3.07    7.20
   5  -8  25   -5.50    7.06
  -5   8  25   13.05    4.30
   5  -8  25   -2.96    5.02
  -5  -9   0    0.79    3.90
   5  -9   0   -1.56    2.59
   5  -9   0   -4.71    6.56
  -5  -9   1  334.95   30.18
  -5  -9  -1  364.62   31.10
   5  -9   1  305.40   27.53
   5  -9  -1  309.54   28.35
   5  -9   1  360.95   30.64
   5  -9  -1  293.82   28.01
  -5  -9   2    6.72    5.23
   5  -9   2   16.81    8.31
  -5  -9  -2    3.48    2.47
   5  -9  -2    4.99    2.91
   5  -9   2   -2.25    4.31
   5  -9  -2   13.00    6.44
   5  -9  -3   -0.66    2.74
  -5  -9   3   -0.06    5.24
   5  -9   3    2.59    3.46
   5  -9   3   11.24    4.79
  -5  -9  -3   21.31    9.75
   5  -9  -3    5.57    6.31
  -5   9   3   18.64    6.58
   5  -9   4   51.83   11.07
  -5  -9   4   50.21   13.19
   5  -9   4   62.43   11.90
   5  -9  -4   20.48    6.59
  -5  -9  -4   63.37   13.50
  -5   9   4   44.65   11.36
   5  -9  -4   64.90   12.88
  -5  -9   5   69.43   13.56
   5  -9   5   75.19   14.11
   5  -9   5   78.65   14.10
  -5  -9  -5   52.50   12.49
   5  -9  -5   77.22   14.29
  -5   9   5   74.90   15.67
   5  -9  -5   88.19   15.53
  -5  -9   6  163.35   20.84
   5  -9   6  175.22   21.04
   5  -9   6  153.85   19.62
  -5  -9  -6  119.14   18.27
  -5   9   6  189.39   23.84
   5  -9  -6  152.24   19.58
   5  -9  -6  143.15   20.40
  -5  -9   7   -1.10    4.34
  -5   9   7    7.73    7.16
   5  -9   7   -1.40    4.21
  -5  -9  -7   -1.57    3.72
   5  -9  -7   -1.28    2.36
   5  -9   7    0.87    3.76
   5  -9  -7   -0.02    3.35
   5  -9  -8   36.45    9.94
  -5  -9   8   13.85    6.91
   5  -9   8   37.75   10.32
  -5  -9  -8   26.09    9.51
   5  -9  -8   22.84    7.95
  -5   9   8   18.16    7.90
   5   9   8   30.55    7.83
   5  -9   8   28.40    9.16
  -5  -9   9   43.95   11.96
   5  -9   9   31.21    8.78
   5  -9  -9   53.28   11.35
  -5  -9  -9   55.40   12.01
   5  -9  -9   34.01   10.38
  -5   9   9   54.87   13.67
   5  -9   9   55.92   12.56
   5   9   9   61.13   12.80
  -5  -9  10    4.60    2.90
   5  -9  10   17.37    7.14
  -5  -9 -10   12.07    5.35
   5  -9 -10   27.57    8.79
  -5   9  10   22.86    9.10
   5  -9  10   20.38    7.78
   5  -9 -10   19.87    6.41
   5   9  10    8.77    6.39
  -5  -9  11   40.88    9.34
   5  -9  11   43.85   11.57
   5  -9 -11   24.07    8.10
  -5  -9 -11   41.12   11.40
   5  -9  11   50.40   11.86
   5  -9 -11   49.82   11.15
  -5   9  11   44.68   12.90
   5   9  11   30.92    8.86
   5  -9  12   69.23   13.65
  -5  -9  12   80.61   15.56
   5  -9 -12   94.60   16.14
   5  -9 -12   94.14   15.62
  -5  -9 -12   71.17   15.49
  -5   9  12   48.87   15.25
   5   9  12   88.88   15.44
   5  -9  12   97.23   17.92
   5  -9 -13    2.32    6.38
   5  -9  13   -5.17    5.41
  -5  -9  13    2.11    4.94
   5  -9 -13    0.52    3.63
   5  -9  13    6.16    5.71
  -5  -9 -13    1.62    3.84
  -5   9  13   15.62    9.79
   5   9  13    1.51    2.65
   5  -9  14    8.73    7.58
  -5  -9  14    7.55    4.60
   5  -9  14   -3.33    5.63
   5  -9 -14    9.59    6.76
  -5  -9 -14    8.54    5.51
  -5   9  14   11.03    8.42
   5  -9 -14   13.72    6.06
   5   9  14   12.55    6.61
   5  -9  15   41.75   11.35
  -5  -9  15   61.65   13.69
   5  -9  15   63.37   12.84
  -5   9  15   44.84   12.99
   5  -9 -15   49.71   12.34
  -5  -9 -15   44.43   11.81
   5   9  15   65.90   13.78
   5  -9  16   39.76   12.47
  -5  -9  16   28.49    9.48
   5  -9 -16   35.15   10.05
   5  -9  16   33.33   10.81
  -5  -9 -16   41.15   13.01
  -5   9  16   17.21    8.90
   5   9  16   44.31   12.16
   5  -9  17   19.81   10.40
  -5  -9  17   23.17    9.38
   5  -9  17   31.24   11.03
  -5  -9 -17   20.42    6.67
  -5   9  17    6.45    3.01
   5  -9 -17   11.87    8.20
   5   9  17   14.01    4.72
  -5  -9  18    0.64    1.85
   5  -9  18   -1.04    3.34
  -5  -9 -18    4.81    4.87
  -5   9  18    0.98    5.64
   5  -9 -18    1.11    2.49
   5   9  18   -6.41    6.62
   5  -9  18   -4.31    4.17
  -5  -9  19    7.51    6.75
   5  -9  19    5.16    3.54
  -5  -9 -19    5.83    6.26
  -5   9  19    2.22    3.44
   5  -9 -19   11.36    9.67
   5   9  19    0.86    4.52
   5  -9  20   50.38   13.40
  -5  -9 -20   17.63    7.51
  -5   9  20   20.47    8.90
   5  -9 -20   22.67   10.51
   5   9  20   29.53   10.45
  -5  -9  20   45.36   13.03
  -5   9  21   16.30   11.06
  -5  -9 -21    4.71    5.82
   5  -9 -21    2.80    4.62
  -5   9  21    0.97    6.61
   5   9  21   -3.94    6.70
   5  -9  21    1.13    2.64
  -5  -9 -22   -8.49    9.67
  -5   9  22   12.82    9.73
   5  -9 -22    4.37    7.34
  -5   9  22    6.46    5.50
   5  -9  22    9.46    7.49
   5  -9  22   -5.38    5.96
   5   9  22   -0.59    4.65
  -5  -9 -23    3.66    5.27
  -5   9  23    2.45    7.48
   5  -9 -23   -5.79    3.22
  -5   9  23    7.14    8.71
   5  -9  23    0.03    3.99
   5  -9  23    7.04    6.55
   5   9  23    3.75    4.77
  -5  -9 -24   10.59    9.01
  -5   9  24   -0.19    4.46
   5  -9 -24   -2.81    6.90
  -5   9  24    6.65    6.21
   5  -9  24    2.64    3.79
   5  -9  24    9.93    5.27
   5   9  24   11.34    7.24
  -5 -10   0   -3.00    4.58
   5 -10   0    1.32    3.50
   5 -10   0   -3.81    3.55
  -5 -10   1   95.92   16.75
  -5 -10  -1   75.63   14.68
   5 -10   1   75.25   14.23
   5 -10  -1   77.89   14.64
   5 -10   1   84.31   15.72
   5 -10  -1   68.74   14.17
   5 -10   2  128.18   18.36
  -5 -10  -2  143.25   20.71
   5 -10  -2  144.06   20.07
   5 -10   2  142.03   20.17
   5 -10  -2  161.33   21.12
  -5 -10   3  184.76   23.60
   5 -10   3  181.74   22.80
  -5 -10  -3  198.12   24.44
   5 -10  -3  168.88   21.63
   5 -10   3  169.33   21.22
   5 -10  -3  154.05   21.47
  -5 -10   4  305.07   30.18
   5 -10   4  393.74   33.18
  -5 -10  -4  292.56   29.38
   5 -10  -4  297.17   29.13
   5 -10   4  341.43   30.81
   5 -10  -4  318.27   29.81
  -5 -10   5  320.98   30.93
   5 -10   5  342.31   30.57
  -5 -10  -5  273.69   28.59
   5 -10  -5  301.74   29.79
   5 -10   5  368.35   31.84
  -5  10   5  304.33   29.96
   5 -10  -5  337.28   31.39
  -5 -10   6  173.46   22.34
   5 -10   6  186.34   22.51
  -5 -10  -6  157.38   22.20
   5 -10   6  142.62   19.60
   5 -10  -6  184.27   23.29
   5 -10  -6  203.73   24.19
  -5 -10   7    7.43    5.08
   5 -10   7    4.44    2.76
  -5 -10  -7    5.56    6.89
   5 -10  -7    5.27    5.09
  -5  10   7    5.93    2.24
   5 -10  -7   -4.60    4.37
   5 -10   7   11.94    5.83
  -5 -10   8    6.42    4.24
   5 -10   8   13.62    6.45
  -5 -10  -8   20.52    8.63
  -5  10   8    9.93    5.67
   5 -10   8   27.26   10.69
   5 -10  -8   29.07    8.96
   5 -10  -8   16.51    5.10
   5 -10  -9    8.29    6.44
  -5 -10   9    4.53    8.76
   5 -10   9   -2.31    4.03
  -5 -10  -9    5.55    9.35
   5 -10  -9    0.56    4.30
  -5  10   9    3.15    9.32
   5 -10   9   -0.39    1.84
  -5 -10  10   10.83    9.26
   5 -10  10   -0.88    2.48
   5 -10 -10    3.24    4.23
  -5 -10 -10    1.06    3.61
   5 -10 -10    6.19    5.40
  -5  10  10    9.06    6.07
   5 -10  10   12.84    6.07
   5  10  10    6.51    2.68
   5 -10 -11   47.78   13.19
  -5 -10  11   70.44   15.18
   5 -10  11   70.72   15.42
   5 -10 -11   87.41   16.13
  -5 -10 -11   55.26   14.18
  -5  10  11   73.43   16.23
   5  10  11   46.42   12.34
   5 -10  11   74.12   14.84
  -5 -10  12   22.28    6.52
   5 -10  12   25.44    9.07
  -5 -10 -12   18.09    8.00
   5 -10  12   18.67    7.77
   5 -10 -12   18.36    7.81
  -5  10  12   26.64    8.99
   5  10  12   20.79    8.71
   5 -10 -12   24.62    9.29
  -5 -10  13  107.61   18.22
   5 -10  13   73.46   15.63
  -5 -10 -13  129.71   21.24
   5 -10 -13   92.74   16.16
  -5  10  13   64.66   14.99
   5 -10 -13   82.03   15.83
   5  10  13  110.71   18.05
   5 -10  13  108.21   17.63
   5 -10  14    1.89    3.13
  -5 -10  14   -3.43    4.78
   5 -10  14    1.74    3.66
  -5 -10 -14    2.30    2.32
   5 -10 -14    3.45    2.15
  -5  10  14    3.46    2.72
   5 -10 -14   -6.66    5.68
   5  10  14    1.39    2.44
   5 -10  15    5.59    7.51
  -5 -10  15    0.67    3.03
   5 -10 -15    2.26    6.77
   5 -10  15    9.97    2.03
  -5 -10 -15   12.68    7.06
   5 -10 -15   -5.11    6.98
  -5  10  15    1.93    4.35
   5  10  15    2.89    3.78
  -5 -10  16  109.56   18.96
   5 -10  16   79.68   16.94
   5 -10 -16   66.45   14.21
  -5 -10 -16   54.00   13.52
   5 -10 -16   64.61   14.52
  -5  10  16   70.42   15.83
   5 -10  16   88.06   16.87
   5  10  16   89.44   17.90
  -5 -10  17   10.38    5.31
   5 -10 -17    8.66    6.34
   5 -10  17    8.95    4.96
  -5 -10 -17   -4.84    3.69
  -5  10  17    9.83    8.05
   5 -10 -17    6.62    6.54
   5  10  17    7.74    2.97
  -5 -10  18   -2.87    4.15
   5 -10  18    3.00    3.96
  -5 -10 -18   -1.80    5.94
  -5  10  18    5.77    8.92
   5 -10 -18  -15.14    9.57
   5  10  18    9.85    5.63
  -5 -10  19    7.10    5.83
   5 -10  19   11.45    8.57
  -5  10  19    0.83    3.22
   5 -10 -19    7.67    5.13
  -5 -10 -19    7.79    9.71
   5  10  19   12.69    6.14
  -5 -10  20   61.72   14.20
   5 -10  20   36.19   11.68
  -5 -10 -20   25.55    7.73
  -5  10  20   62.55   14.69
   5 -10 -20   65.59   14.66
   5  10  20   36.04   12.18
   5 -10  21   -0.32    4.27
  -5 -10 -21    6.06    4.19
  -5  10  21   -4.93    4.36
   5 -10 -21   17.40    7.75
   5  10  21    8.72    6.05
  -5 -10  21   -3.97    4.82
  -5 -10 -22   51.74   14.70
  -5  10  22   36.94   13.81
   5 -10 -22   44.15   12.82
   5  10  22   64.82   15.92
   5 -10  22   21.11   12.18
   5 -10  22   70.51   15.94
  -5 -11   0    7.13    5.44
   5 -11   0   -1.92    4.50
   5 -11   0    7.76    7.06
  -5 -11   1    3.06    4.60
  -5 -11  -1   -3.13    2.27
   5 -11   1    4.30    3.74
   5 -11  -1    3.43    7.13
   5 -11   1    8.14    7.75
   5 -11  -1   -7.05    7.91
  -5 -11   2  102.91   17.91
   5 -11   2  111.37   17.88
  -5 -11  -2  110.48   18.50
   5 -11  -2  103.61   18.00
   5 -11   2  107.20   18.31
   5 -11  -2  136.60   20.44
   5 -11   3   18.95    7.63
  -5 -11   3   34.98   11.65
   5 -11   3   22.79   11.46
  -5 -11  -3   13.27    4.33
   5 -11  -3   15.52    7.01
   5 -11  -3   28.60    8.86
   5 -11  -4    9.70    7.00
   5 -11   4    3.79    5.23
  -5 -11   4   -7.43    6.97
   5 -11   4    3.76    5.09
  -5 -11  -4    3.40    8.32
   5 -11  -4    0.99    2.84
   5 -11   5    3.40    5.86
   5 -11  -5   -1.87    7.22
  -5 -11   5    4.51    2.42
   5 -11   5    2.10    7.26
  -5 -11  -5   12.28    6.74
   5 -11  -5   13.32    9.52
  -5 -11   6    6.49    6.58
   5 -11   6    4.01    6.34
   5 -11  -6    1.75    1.80
  -5 -11  -6    0.72    4.23
   5 -11  -6    1.88    5.46
  -5  11   6   -2.20    3.70
   5 -11   6    1.57    3.09
  -5 -11   7   47.02   11.62
   5 -11   7   53.93   12.94
  -5 -11  -7   70.82   15.38
   5 -11  -7   48.36   13.18
   5 -11  -7   68.28   15.49
  -5  11   7   69.09   15.20
   5 -11   7   54.10   12.70
  -5 -11   8   16.11    6.85
   5 -11   8   16.84    6.36
  -5 -11  -8   13.31    5.84
   5 -11  -8   20.01    6.49
  -5  11   8   19.48    7.99
   5 -11  -8   19.24    8.56
   5 -11   8    0.58    2.96
   5 -11   9   91.15   17.98
   5 -11   9   99.82   17.09
  -5 -11   9   69.49   16.06
  -5 -11  -9   64.38   14.81
   5 -11  -9   35.66   10.84
  -5  11   9   62.97   15.43
   5 -11  -9   94.02   18.43
   5 -11 -10   63.49   14.15
  -5 -11  10   37.85   12.38
   5 -11  10   44.28   13.59
  -5 -11 -10   47.76   12.60
   5 -11 -10   70.10   15.90
  -5  11  10   76.07   15.91
   5 -11  10   57.35   12.78
  -5 -11  11   56.69   13.37
   5 -11  11   43.39   11.97
   5 -11 -11   60.92   13.38
  -5 -11 -11   34.93    9.47
   5 -11 -11   49.51   13.16
   5 -11  11   68.74   14.69
  -5  11  11   74.16   17.59
  -5 -11  12   73.63   15.80
   5 -11  12   64.59   15.13
  -5 -11 -12   45.49   12.88
   5 -11 -12   64.93   13.87
   5 -11 -12   74.76   15.94
  -5  11  12   57.79   14.25
   5 -11  12   91.68   16.77
  -5 -11  13   -2.15    2.52
   5 -11  13    6.35    6.85
   5 -11  13    1.26    3.58
  -5 -11 -13    5.24    5.75
   5 -11 -13   -4.23    6.24
  -5  11  13   -2.55    6.62
   5 -11 -13    6.88    8.06
   5 -11  14   -0.72    2.72
  -5 -11  14    7.44    6.63
   5 -11  14    0.22    3.57
  -5 -11 -14    5.18    3.50
   5 -11 -14   -1.26    2.77
   5  11  14    2.41    3.76
   5 -11 -14    1.73    2.81
   5 -11  15    1.19    4.25
  -5 -11  15   13.93    3.53
   5 -11 -15   22.77    5.61
   5 -11  15   -5.51    4.98
  -5 -11 -15    7.96    3.99
   5 -11 -15    9.35    8.65
  -5  11  15   -0.18    7.51
   5  11  15    6.38    2.53
  -5 -11  16   51.87   13.16
   5 -11  16   48.91   12.69
  -5 -11 -16   27.32    9.45
   5 -11 -16   46.25   12.34
   5 -11 -16   45.79   12.12
  -5  11  16   50.63   14.75
   5  11  16   44.01    9.99
  -5 -11  17    0.22    5.47
   5 -11  17   14.70    8.25
  -5 -11 -17   -0.69    6.77
   5 -11 -17   17.83    7.78
  -5  11  17   -2.51    5.88
   5  11  17   -3.84    5.13
   5 -11 -17    1.57    5.46
  -5 -11  18   -1.52    5.96
   5 -11  18   12.88    6.72
  -5 -11 -18    1.55    7.86
   5 -11 -18   11.53    5.16
   5 -11 -18    2.12    2.53
  -5  11  18   -4.48    5.24
   5  11  18   13.06    8.22
  -5 -11  19   -6.99    9.20
   5 -11  19   -7.22    7.20
   5 -11 -19   -5.00    4.12
  -5 -11 -19   -7.26    8.56
   5 -11 -19    1.59    2.69
  -5  11  19    6.62    7.36
   5  11  19    2.42    3.56
  -5 -11  20   14.91   10.39
   5 -11  20   26.86    9.79
  -5 -11 -20   18.00    9.21
   5 -11 -20    9.88    5.76
  -5  11  20   17.46    6.77
   5 -11 -20    3.62    5.06
   5  11  20    6.03    3.16
  -5 -11  21   -2.31    4.33
   5 -11  21   -2.15    5.71
  -5 -11 -21    1.04    5.02
   5 -11 -21   11.09    7.30
  -5  11  21   -1.10    4.39
   5  11  21    5.38    6.16
  -5 -12   0    2.93    6.06
   5 -12   0   -1.63    3.18
   5 -12   0    2.91    5.13
  -5 -12   1   53.18   13.66
  -5 -12  -1   21.21   10.68
   5 -12   1   42.74   12.18
   5 -12  -1   31.93    9.12
   5 -12   1   31.10    9.94
   5 -12  -1   23.65    7.19
  -5 -12   2   30.08   12.48
   5 -12   2   17.49    8.04
  -5 -12  -2   29.10   10.78
   5 -12   2   18.38    7.92
   5 -12  -2   41.70   11.87
   5 -12  -2   22.69    9.26
   5 -12   3   -1.56    2.02
  -5 -12   3   -1.79    5.46
   5 -12   3    1.20    4.18
  -5 -12  -3    5.47    6.23
   5 -12  -3    0.85    3.41
   5 -12  -3    2.31    4.65
   5 -12   4   21.28   10.40
  -5 -12   4   15.88    8.54
   5 -12   4    8.17    7.33
  -5 -12  -4    6.30    4.11
   5 -12  -4   10.18    2.54
   5 -12  -4    0.46    3.02
   5 -12   5   54.67   13.74
   5 -12  -5   41.26   11.58
  -5 -12   5   38.56   11.17
   5 -12   5   33.46    9.63
  -5 -12  -5   52.08   14.27
   5 -12  -5   52.31   14.03
  -5 -12   6   16.83    8.30
   5 -12  -6   16.43    6.04
   5 -12   6   24.47   10.86
  -5 -12  -6   14.85    8.48
   5 -12  -6    0.92    4.68
   5 -12   6   17.89    7.51
  -5 -12   7   -2.61    3.77
   5 -12   7   -8.52    4.36
   5 -12  -7   -1.88    3.01
  -5 -12  -7   -1.65    6.68
   5 -12  -7    0.95    5.95
   5 -12   7    2.28    4.61
  -5 -12   8   62.49   14.29
   5 -12   8   32.51    9.18
  -5 -12  -8   25.78    8.62
   5 -12  -8   38.72   11.48
   5 -12  -8   30.30   10.11
  -5  12   8   58.57   14.06
   5 -12   8   32.01    9.55
  -5 -12   9    2.48    6.79
   5 -12   9    3.47    4.16
  -5 -12  -9    0.25    6.03
   5 -12  -9   15.17   10.29
  -5  12   9    6.70    9.04
   5 -12  -9   -4.71    5.13
   5 -12   9   -7.59    7.28
  -5 -12  10   36.49   12.94
   5 -12  10   18.78    9.16
  -5 -12 -10   21.08    9.59
   5 -12 -10   17.63    9.05
  -5  12  10   28.88   11.68
   5 -12  10   50.39   12.58
   5 -12 -10   23.26    9.99
  -5 -12  11    3.46    7.71
   5 -12  11   -6.26    5.97
  -5 -12 -11    1.29    7.30
  -5  12  11    0.41    7.20
   5 -12 -11   17.52    7.50
   5 -12  11    4.94    3.12
   5 -12 -11   -0.03    2.32
  -5 -12  12   92.39   18.72
   5 -12 -12   84.63   16.92
   5 -12  12   69.72   16.28
  -5 -12 -12   84.48   18.66
   5 -12  12   59.66   14.57
   5 -12 -12   59.97   15.01
  -5  12  12   63.75   14.09
  -5 -12  13   73.19   15.17
   5 -12  13   45.40   13.21
   5 -12 -13   47.56   12.54
  -5 -12 -13   46.31   13.90
   5 -12  13   52.74   14.07
  -5  12  13   51.13   14.00
   5 -12 -13   49.98   13.64
  -5 -12  14   17.74    8.46
   5 -12  14   -0.77    2.20
  -5 -12 -14   13.70    6.53
   5 -12 -14    0.88    3.87
   5 -12 -14   -3.35    4.48
  -5  12  14   -0.91    3.80
  -5 -12  15    5.39    3.83
   5 -12  15    9.76    6.81
  -5 -12 -15    3.40    6.41
   5 -12 -15    2.27    2.95
  -5  12  15   -4.63    6.22
   5 -12 -15    3.03    4.90
  -5 -12  16    9.67    3.10
   5 -12  16    6.45    6.43
  -5 -12 -16   25.23    9.04
   5 -12 -16   -0.38    6.47
  -5  12  16   15.07    8.86
   5 -12 -16   15.42    7.62
  -5 -12  17   17.01    9.42
   5 -12 -17   28.87    9.77
   5 -12  17   13.76    7.95
  -5 -12 -17   34.50   10.89
   5 -12 -17   17.49    9.54
  -5  12  17   -1.62    7.97
  -5 -12  18    8.61    6.06
   5 -12  18    9.57    4.84
   5 -12 -18    3.16    4.76
   5 -12 -18    2.10    7.08
  -5  12  18    6.64    6.78
  -5 -13   0    0.14    4.41
   5 -13   0    0.19    3.79
   5 -13   0   -3.00    5.84
  -5 -13   1   41.29   12.53
  -5 -13  -1   22.27    9.60
   5 -13   1   35.40   13.48
   5 -13  -1   12.33    9.11
   5 -13   1   18.41    5.81
   5 -13  -1   30.53   11.19
  -5 -13   2   15.39    8.63
   5 -13   2    2.29    4.61
   5 -13   2   17.95    9.38
  -5 -13  -2    5.02    3.83
   5 -13  -2    6.59    6.33
   5 -13  -2    1.15    3.38
   5 -13   3   14.78    6.10
  -5 -13   3   -2.52    4.67
   5 -13   3   18.24   12.28
  -5 -13  -3   13.65    5.92
   5 -13  -3   17.91   10.65
   5 -13  -3    6.29    1.98
   5 -13   4   19.15    7.97
  -5 -13   4   11.47    6.80
   5 -13   4    2.64    2.61
  -5 -13  -4   15.60    8.16
   5 -13  -4   -3.51    6.06
   5 -13  -4   15.31    7.37
  -5 -13   5   -2.73    3.47
   5 -13   5   -5.52    5.11
  -5 -13  -5   -3.84    3.18
   5 -13  -5    7.81    6.53
   5 -13  -5    4.10    7.34
   5 -13   5    2.61    3.56
   5 -13  -6   -5.73    5.12
  -5 -13   6    3.81    6.97
   5 -13   6    5.17    6.30
  -5 -13  -6    2.33    6.28
   5 -13  -6    9.85    6.16
   5 -13   6    1.01    2.92
   5 -13  -7    0.33    4.31
  -5 -13   7    3.02    5.55
   5 -13   7   -2.00    3.44
  -5 -13  -7    9.11    5.40
   5 -13  -7   -1.22    2.96
   5 -13   7   -2.88    5.46
  -5 -13   8   20.95   10.16
   5 -13   8   16.14    2.52
   5 -13  -8   11.51    7.33
  -5 -13  -8   29.73   11.15
   5 -13  -8   31.63   13.11
   5 -13   8   21.73    8.75
  -5 -13   9   71.91   16.33
   5 -13   9   52.00   13.19
  -5 -13  -9   61.37   17.30
   5 -13  -9   56.36   15.06
   5 -13  -9   72.64   16.07
  -5  13   9   98.47   22.67
   5 -13   9   49.13   12.41
  -5 -13  10    9.47    6.33
   5 -13  10   15.26   10.74
  -5 -13 -10   18.97   11.42
   5 -13 -10    3.69    3.58
  -5  13  10  -12.47   10.57
   5 -13 -10   -1.53    3.58
   5 -13  10   14.41    8.63
  -5 -13  11   12.39   10.25
   5 -13  11  -11.85    9.78
   5 -13  11   -3.18    4.74
  -5 -13 -11   -2.64    4.61
   5 -13 -11   -0.74    5.63
  -5  13  11   -0.77    6.29
   5 -13 -11    7.41    2.76
  -5 -13  12   29.61   12.84
  -5 -13 -12   41.71   10.70
   5 -13 -12   22.36    4.93
   5 -13  12   43.78   12.48
  -5  13  12   27.97   10.39
   5 -13 -12   49.78   12.26
  -5 -13  13   10.70    6.44
  -5 -13 -13   -5.28    8.61
   5 -13  13    2.07    4.99
   5 -13 -13    6.82    6.96
  -5  13  13   -1.45    2.95
   5 -13 -13   -4.64    5.50
   5 -13 -14   25.23   10.54
  -5 -13  14   41.13   10.85
   5 -13  14   32.73   10.30
  -5 -13 -14   39.25   12.67
   5 -13 -14   15.89    7.21
  -5  13  14   59.48   17.55
  -5 -13  15    9.12    6.68
   5 -13 -15   -2.12    3.72
   5 -13  15   -2.05    3.57
  -5 -13 -15    6.42    6.45
  -5  13  15   -5.79   11.52
   5 -13 -15    8.91   11.06
  -5 -14   0    5.03    5.07
   5 -14   0    5.75    5.63
   5 -14   0   -7.57    5.58
  -5 -14   1   14.10    7.53
  -5 -14  -1   12.05    6.43
   5 -14   1    8.15    4.81
   5 -14   1   12.05    6.18
   5 -14  -1   15.92    6.92
   5 -14  -1   10.22    5.58
   5 -14   2   37.10   11.34
  -5 -14   2   37.67   11.96
   5 -14   2   51.78   13.00
  -5 -14  -2   10.22    7.72
   5 -14  -2   11.66    4.57
   5 -14  -2    9.66    6.37
   5 -14   3   10.07    3.92
  -5 -14   3   -3.70    2.41
   5 -14   3    5.22    3.74
  -5 -14  -3   15.11    8.05
   5 -14  -3    5.02    2.96
   5 -14  -3   -1.29    4.93
   5 -14   4   10.62    8.16
  -5 -14   4   13.62    5.17
   5 -14   4    2.83    5.27
  -5 -14  -4   -1.38    7.50
   5 -14  -4    0.41    5.84
   5 -14  -4   -3.02    5.30
  -5 -14   5   74.87   16.83
   5 -14   5   98.05   20.02
  -5 -14  -5   57.98   14.76
   5 -14  -5   55.98   13.84
   5 -14  -5   54.39   13.30
   5 -14   5   66.11   14.70
  -5 -14   6  -13.06    8.65
   5 -14   6    2.63    2.79
  -5 -14  -6   -5.76    7.00
   5 -14  -6   -3.39    4.33
   5 -14   6   14.17    6.70
   5 -14  -6   -9.72    8.46
   5 -14  -7   10.90    6.10
  -5 -14   7   32.10   10.97
   5 -14   7    7.52    6.09
  -5 -14  -7    7.87    8.11
   5 -14  -7   11.32    7.50
   5 -14   7   17.28    6.72
   5 -14  -8    5.09    3.20
  -5 -14   8   20.18    8.66
   5 -14   8   22.67   10.54
  -5 -14  -8   23.10    9.24
   5 -14  -8   11.35   10.19
   5 -14   8    5.61    3.87
  -5 -14   9   23.99    8.81
   5 -14   9    6.69    7.55
   5 -14  -9   18.57    8.01
  -5 -14  -9   14.27    9.58
   5 -14  -9   10.42    3.82
   5 -14   9   14.92    9.19
  -5 -14  10   36.89   12.55
   5 -14 -10   40.52   11.53
  -5 -14 -10   24.34    9.02
   5 -14 -10   37.18   12.34
   5 -14  10   30.12   10.77
  -5 -14  11    5.29    9.01
  -5 -14 -11   -2.65    5.35
   5 -14 -11    6.38    8.36
   5 -14 -11    2.87    4.85
   5 -14  11   -6.03    6.46
  -5 -14  12    1.76    6.27
  -5 -14 -12   -2.28    4.43
   5 -14 -12    0.40    4.70
   5 -14  12   -2.90    3.29
   5 -14 -12    9.71    9.83
  -5 -15   0    8.14    6.49
   5 -15   0    0.03    5.14
   5 -15   0   -1.02    3.55
   5 -15   1    6.57    5.74
  -5 -15   1    2.04    5.54
  -5 -15  -1    4.11    3.94
   5 -15   1    1.69    5.78
   5 -15  -1    7.49    5.61
   5 -15  -1    2.81    2.96
   5 -15   2   34.26   12.44
  -5 -15   2   17.32    9.92
   5 -15   2    4.95    6.48
  -5 -15  -2   36.13   12.67
   5 -15  -2   11.85   10.58
   5 -15  -2   13.51    6.00
   5 -15   3   -7.84    7.03
  -5 -15   3   -3.32    7.60
   5 -15   3    7.38    4.50
  -5 -15  -3    6.16    7.26
   5 -15  -3   -8.81    9.34
   5 -15  -3    3.05    2.96
  -5 -15   4    1.37    4.55
   5 -15   4   26.05   10.94
  -5 -15  -4    7.75    8.14
   5 -15  -4    6.80    8.52
   5 -15  -4    3.14    2.56
   5 -15   4    5.93    5.34
  -5 -15   5    7.20    6.52
   5 -15   5    6.88    6.48
  -5 -15  -5    3.92    6.09
   5 -15  -5    2.92    5.09
   5 -15  -5   12.82    8.14
   5 -15   5   -0.55    4.13
  -5 -15   6   14.12    7.34
   5 -15   6   -0.34    4.09
  -5 -15  -6   14.84    6.82
   5 -15  -6   15.78    8.91
   5 -15  -6    5.41    7.44
   5 -15   6   14.36    8.30
  -6   0   0 5057.40   96.76
   6   0   0 4510.42   63.48
   6   0   1   -1.68    1.43
  -6   0   1    3.69    4.48
   6   0  -1    2.84    2.55
   6   0  -2  198.17   12.63
  -6   0   2  214.40   20.38
   6   0  -3    0.06    1.02
   6   0   3    1.67    2.06
  -6   0   3    1.15    2.76
   6   0  -4  876.49   27.86
  -6   0   4  894.86   41.24
   6   0   4  943.72   34.64
  -6   0   5    1.29    2.96
   6   0  -5    0.92    2.32
   6   0   5    0.07    1.45
   6   0   6  301.24   20.80
  -6   0   6  284.55   23.71
   6   0  -6  321.79   18.07
   6   0  -7    3.46    2.76
  -6   0   7   -2.96    1.63
   6   0   7    3.04    1.16
   6   0   8 1745.32   53.57
   6   0  -8 1924.25   45.55
  -6   0   8 1817.11   61.66
  -6   0   9   -2.97    4.04
   6   0   9   -0.70    2.62
   6   0  10 2145.06   63.09
  -6   0  10 2121.38   67.06
  -6   0  10 2017.23   52.13
  -6   0  11   -1.32    1.93
   6   0  11    0.87    4.24
  -6   0  11    2.48    3.87
   6   0  12   53.08   10.73
  -6   0  12   46.27   10.90
  -6   0  12   43.64    8.11
  -6   0  13   -2.24    3.06
   6   0  13    3.04    5.35
  -6   0  13    0.34    2.57
   6   0  14  960.55   48.34
  -6   0  14  985.24   49.80
  -6   0  14  864.44   40.53
   6   0  15   -0.33    1.82
  -6   0  15   -0.16    2.64
   6   0  16   14.02    7.07
  -6   0  16   19.65    7.02
   6   0  17   -0.89    5.73
  -6   0  17   -5.29    5.45
   6   0  18   64.75   12.69
  -6   0  18   76.57   13.96
   6   0  19   -0.35    3.97
  -6   0  19   13.09    7.14
   6   0  19   -4.47    7.07
   6   0  20    6.43    3.63
  -6   0  20   13.22    7.92
   6   0  20   10.03    6.71
   6   0  21    3.29    4.45
  -6   0  21    2.90    3.35
   6   0  21    3.78    5.79
   6   0  22  115.53   19.29
  -6   0  22   85.07   15.91
   6   0  22  120.49   20.17
   6   0  23   -0.69    2.64
  -6   0  23    3.69    2.58
   6   0  23    1.71    4.32
   6   0  24   57.58   13.65
  -6   0  24   69.73   16.48
   6   0  24   28.01   10.80
   6   0  25   -1.32    3.68
  -6   0  25    2.65    4.46
   6   0  25    0.72    6.70
   6   0  26  145.08   22.31
  -6   0  26  146.35   22.19
   6   0  26  152.67   23.26
   6   0  27    6.44    7.46
  -6   0  27   -3.11    4.48
   6   0  27    0.79    3.74
   6   0  28    4.35    4.95
  -6   0  28    8.72    7.01
   6   0  28   -2.94    3.90
   6  -1   0   41.94    6.89
  -6  -1   0   49.46    9.54
   6   1   0   37.91    5.10
  -6   1   0   31.36    7.74
   6  -1  -1   63.91    8.46
   6   1   1   47.97    6.51
  -6  -1   1   85.88   12.23
   6   1  -1   59.78    6.06
  -6   1   1   63.52   11.46
   6  -1   1   70.33    9.14
   6   1  -2   -0.12    0.86
   6  -1  -2   -0.32    1.18
   6  -1   2    1.50    2.30
  -6   1   2   -0.02    1.23
  -6  -1   2   -2.27    2.11
   6  -1  -2   -0.34    0.52
   6   1   2    0.86    1.91
   6  -1   3   11.37    4.79
   6   1  -3    6.63    1.95
   6  -1  -3   10.63    3.93
  -6   1   3    9.53    4.35
  -6  -1   3    5.29    3.55
   6   1   3    3.61    1.93
   6   1  -4  290.52   11.61
   6   1   4  288.06   17.94
  -6  -1   4  266.32   22.27
  -6   1   4  280.37   24.57
   6  -1  -4  271.70   18.91
   6  -1   4  297.88   20.32
   6  -1   5   -1.16    1.80
  -6   1   5   -2.06    2.85
   6  -1  -5    0.98    2.27
   6   1  -5    1.84    1.14
   6   1   5    1.77    2.22
   6   1   6  291.19   19.56
  -6   1   6  232.85   22.16
  -6  -1   6  224.76   20.73
   6  -1   6  248.06   19.55
   6   1  -6  217.25   12.18
   6  -1  -6  223.30   16.78
   6   1  -7   35.55    5.11
   6   1   7   49.15    8.60
   6  -1   7   31.06    8.71
   6  -1  -7   33.31    6.60
  -6   1   7   38.18    9.72
  -6  -1   7   43.10    8.12
  -6   1   8   19.16    7.01
  -6  -1   8   10.62    4.61
   6   1   8   10.20    3.66
   6   1  -8   16.14    3.47
   6  -1  -8    9.74    3.45
   6  -1   8   12.12    3.86
  -6   1   9   27.22    8.46
   6   1   9   19.79    6.24
  -6  -1   9   21.14    7.51
   6  -1   9   24.05    6.91
   6   1  10   -0.47    1.79
  -6   1  10    7.29    6.27
  -6  -1  10    0.30    3.86
   6  -1  10    5.65    4.44
   6   1  11    1.18    1.72
  -6   1  11   -3.50    4.97
  -6  -1  11    9.02    3.08
  -6   1  11    2.85    1.64
   6  -1  11    5.94    2.89
   6   1  12   50.72    9.77
  -6  -1  12   64.11   12.60
  -6   1  12   55.96   12.10
   6  -1  12   52.87   11.14
  -6   1  12   32.94    8.14
   6   1  13  391.65   29.55
   6  -1  13  399.62   30.90
  -6   1  13  441.39   32.88
  -6  -1  13  424.85   31.03
  -6   1  13  402.59   27.06
   6   1  14  364.18   28.28
   6  -1  14  383.05   30.21
  -6   1  14  357.32   29.85
  -6  -1  14  380.79   30.25
  -6   1  14  356.01   25.76
   6   1  15  136.80   17.61
   6  -1  15   92.86   15.17
  -6   1  15  100.63   15.51
  -6  -1  15  105.75   16.46
  -6   1  15   93.94   13.76
   6   1  16    1.30    2.39
  -6   1  16    4.10    4.37
  -6  -1  16    0.77    4.42
   6  -1  16   -3.57    6.27
  -6   1  16    1.70    3.15
   6   1  17   20.09    7.98
   6  -1  17   57.27   11.96
  -6   1  17   40.30   11.74
  -6  -1  17   54.97   12.36
  -6   1  17   31.27    9.02
   6   1  18   17.25    7.76
   6  -1  18   24.34    8.46
  -6   1  18   11.88    7.75
  -6  -1  18   15.57    5.65
  -6   1  18    9.81    5.49
   6   1  18   10.04    7.01
   6   1  19  245.55   25.97
   6  -1  19  183.99   23.09
  -6   1  19  225.57   25.85
  -6  -1  19  205.24   24.54
  -6   1  19  197.45   22.76
   6   1  19  164.67   22.98
   6   1  20   -0.97    2.62
   6  -1  20   -1.94    4.30
  -6   1  20    3.56    3.11
  -6  -1  20    0.47    3.95
   6   1  20    5.32    5.44
   6  -1  20    0.84    2.12
   6   1  21  141.66   20.71
   6  -1  21  146.93   20.47
  -6   1  21  109.78   19.00
  -6  -1  21  117.87   19.53
   6   1  21  163.90   21.72
   6  -1  21  101.04   16.25
   6   1  22   -2.59    2.59
   6  -1  22    8.46    9.81
  -6   1  22   -2.21    5.06
  -6  -1  22   10.61    8.29
   6   1  22    1.22    4.76
   6  -1  22   -2.00    3.39
   6   1  23    0.18    6.52
   6  -1  23   -2.79    3.15
  -6   1  23   -4.62    8.67
  -6  -1  23    5.13    3.73
   6   1  23    4.53    3.57
   6  -1  23   10.26    5.99
   6   1  24    3.25    3.10
   6  -1  24    6.95    4.71
  -6   1  24    6.60    6.20
  -6  -1  24    6.20    5.60
   6   1  24   10.22    8.03
   6  -1  24   16.88    9.32
   6   1  25   23.33    7.28
   6  -1  25    8.77    5.30
  -6   1  25   21.72    8.49
  -6  -1  25   14.10    6.37
   6   1  25    3.75    3.57
   6  -1  25   23.96    7.18
   6   1  26    3.00    4.64
   6  -1  26    1.98    3.01
  -6   1  26   11.18    8.72
  -6  -1  26   18.10    8.36
   6   1  26   29.27    9.21
   6  -1  26   17.44   10.37
   6   1  27    8.22    7.25
   6  -1  27    0.47    4.43
  -6   1  27   10.83    8.79
  -6  -1  27    3.83    6.95
   6   1  27    0.24    5.83
   6  -1  27   -2.08    3.26
   6   1  28    3.20    4.92
   6  -1  28   13.15    9.35
  -6   1  28    2.79    4.17
  -6  -1  28   20.68   11.10
   6   1  28    5.81    8.38
   6  -1  28    2.26    4.67
  -6  -2   0  264.91   14.47
   6  -2   0  276.09   19.64
  -6   2   0  299.46   24.60
  -6  -2   0  270.54   21.08
  -6  -2  -1  159.55   10.77
   6   2   1  157.93    9.09
   6  -2   1  186.15   16.10
   6  -2  -1  136.73    7.86
   6  -2  -1  175.38   15.15
  -6   2   1  170.56   19.24
  -6  -2   1  142.22   15.32
  -6  -2   1  168.97   11.98
  -6  -2   2   17.24    3.92
  -6  -2  -2    8.67    2.53
   6   2   2   10.96    3.08
   6  -2  -2   13.02    4.65
  -6   2   2   16.86    6.65
  -6  -2   2   13.86    5.09
   6  -2  -2    8.95    1.84
   6  -2   2   16.38    5.19
  -6  -2  -3  504.93   18.72
   6   2   3  544.35   20.92
  -6   2   3  513.60   33.35
   6  -2  -3  506.25   20.76
   6  -2  -3  520.20   27.53
  -6  -2   3  522.19   29.91
  -6  -2   3  499.50   23.72
  -6  -2  -4  933.36   27.26
   6   2   4  908.97   30.10
  -6   2   4  982.30   45.62
  -6  -2   4  905.43   39.27
   6  -2  -4  975.45   31.31
   6  -2  -4  949.43   37.49
   6  -2   4  994.20   38.88
  -6  -2  -5   90.04    8.90
   6   2   5   80.24    9.49
  -6  -2   5   68.43   10.66
   6  -2   5   90.47   12.28
   6  -2  -5  110.35   12.96
   6  -2  -6  440.06   25.58
   6   2   6  453.89   23.64
  -6  -2  -6  400.28   19.27
  -6  -2   6  465.68   29.08
  -6   2   6  388.02   28.96
   6  -2   6  432.04   26.93
   6   2   7  562.85   27.77
   6  -2  -7  668.42   31.46
  -6   2   7  694.91   39.14
  -6  -2   7  664.39   35.46
   6  -2   7  628.12   33.25
   6   2   8   51.84    8.62
   6   2  -8   52.24    5.13
   6  -2  -8   70.11   10.45
   6  -2   8   57.01   10.73
  -6  -2   8   49.92   10.01
   6  -2   9   10.83    5.53
   6   2   9    4.96    3.63
  -6   2   9    5.71    5.00
  -6  -2   9    6.56    4.32
   6   2  10  128.87   15.44
   6  -2  10  141.89   17.19
  -6  -2  10  156.13   17.96
   6  -2  11  819.02   41.47
  -6   2  11  867.40   45.32
  -6  -2  11  838.07   42.71
  -6   2  11  813.45   38.86
   6   2  12   55.51   11.23
   6  -2  12  102.10   15.52
  -6   2  12   96.92   15.25
  -6  -2  12   88.37   14.06
  -6   2  12   90.73   12.54
   6   2  13  442.94   30.89
   6  -2  13  480.63   32.86
  -6  -2  13  530.80   35.52
  -6   2  13  513.96   31.42
   6   2  14   18.86    6.31
  -6   2  14   38.55   11.11
  -6  -2  14   42.17   10.03
   6  -2  14   29.98   10.07
  -6   2  14   22.78    7.00
   6   2  15    1.15    3.05
  -6   2  15    8.28    2.36
  -6  -2  15   -1.13    3.23
   6  -2  15    0.47    4.83
  -6   2  15    3.07    4.09
   6   2  16   55.00   12.29
  -6   2  16   38.96    9.52
  -6  -2  16   60.08   12.38
   6  -2  16   66.92   13.37
  -6   2  16   56.59   11.36
   6   2  16   45.61   10.49
   6   2  17   54.48   11.51
  -6  -2  17   82.57   15.00
  -6   2  17   65.74   13.36
   6  -2  17   61.52   13.82
  -6   2  17   45.46   13.59
   6   2  17   78.73   14.30
   6   2  18   97.05   16.79
   6  -2  18  118.60   18.71
  -6   2  18  117.95   19.38
  -6  -2  18   86.54   16.45
  -6   2  18   76.63   14.30
   6   2  18  109.16   17.44
   6   2  19   59.85   12.27
  -6   2  19   56.71   12.59
   6  -2  19   91.45   15.68
  -6  -2  19   71.52   14.31
   6   2  19   93.25   16.89
  -6   2  19   69.22   13.57
   6   2  20   -0.81    2.54
   6  -2  20   -5.53    7.32
  -6   2  20    1.27    6.61
  -6  -2  20    6.56    5.42
  -6   2  20   -2.75    2.28
   6   2  20    5.33    7.90
   6   2  21   83.64   15.95
  -6   2  21   89.42   16.69
  -6  -2  21   88.36   16.78
   6  -2  21   72.07   15.81
  -6   2  21  108.80   17.84
   6   2  21   71.87   14.97
   6  -2  21   79.79   15.56
   6   2  22   33.69   11.77
   6  -2  22   41.03   12.42
  -6   2  22   38.43   11.67
  -6  -2  22   58.56   13.71
  -6   2  22   62.64   16.55
   6   2  22   50.22   13.51
   6  -2  22   30.67    9.13
   6   2  23   11.87    8.36
   6  -2  23   -0.85    2.97
  -6   2  23    2.53    4.38
  -6  -2  23    4.10    3.58
   6   2  23    3.03    4.40
   6  -2  23    2.12    5.15
   6   2  24   12.02    8.73
   6  -2  24    4.42    6.53
  -6   2  24    0.08    3.40
  -6  -2  24    1.21    3.95
   6   2  24   -0.11    4.88
   6  -2  24    7.73    6.45
   6   2  25   60.50   14.73
   6  -2  25   53.11   13.46
  -6   2  25   71.68   16.46
  -6  -2  25   73.44   16.43
   6   2  25   67.28   14.79
   6  -2  25   71.95   15.94
   6   2  26    2.86    4.46
   6  -2  26    1.39    3.52
  -6   2  26   -2.49    5.28
  -6  -2  26    8.78    7.47
   6   2  26    2.61    7.13
   6  -2  26    2.85    3.52
   6   2  27    7.40    6.83
   6  -2  27    4.58    6.89
  -6   2  27    6.32    6.14
  -6  -2  27   17.16    9.82
   6   2  27   15.92    7.44
   6  -2  27   23.38   11.03
   6   2  28   28.10    9.66
   6  -2  28   34.29   12.05
  -6   2  28   12.68    6.64
  -6  -2  28   29.94   14.26
   6   2  28   28.24   10.48
   6  -2  28    8.39    6.97
  -6   3   0    1.91    3.36
  -6  -3   0    3.28    2.38
   6  -3   0   -0.01    1.54
   6  -3   0   -0.35    1.38
  -6  -3   0    1.68    1.43
  -6  -3   1   43.18    7.07
   6  -3   1   39.33    8.10
  -6  -3  -1   40.61    7.01
   6  -3   1   35.29    4.24
   6  -3  -1   44.14    5.69
   6  -3  -1   44.70    8.60
  -6  -3   1   48.70    8.91
  -6   3   1   25.12    7.94
  -6  -3   2    4.36    1.22
   6   3   2    8.97    2.27
   6  -3   2    7.12    1.56
  -6  -3  -2   13.79    4.81
   6  -3  -2    9.49    2.70
  -6   3   2   13.41    3.54
  -6  -3   2   13.13    4.91
   6  -3  -2   18.65    6.30
   6  -3   2    9.58    4.57
  -6  -3   3   -2.46    3.61
   6   3   3   -0.71    1.41
  -6  -3  -3   -2.47    2.57
  -6   3   3    0.23    1.89
  -6  -3   3   -2.73    2.03
   6  -3  -3   -0.27    2.07
   6  -3   3   -1.74    2.81
   6  -3  -3   -1.16    2.73
  -6  -3  -4  521.25   26.49
   6  -3  -4  554.09   25.00
  -6  -3   4  623.66   32.11
   6  -3  -4  597.43   32.07
   6   3   4  557.36   23.05
   6  -3   4  575.75   31.32
  -6  -3   4  599.81   29.45
   6   3   5   58.26    8.10
  -6  -3  -5   50.34    8.19
   6  -3  -5   68.05    9.10
  -6  -3   5   63.66   10.62
  -6   3   5   63.55   11.89
   6  -3   5   65.19   10.44
   6  -3  -5   67.22   11.59
  -6  -3   5   64.18    9.74
  -6  -3   6    2.03    1.21
   6   3   6    5.42    3.14
  -6  -3  -6    5.04    1.92
   6  -3   6    7.72    2.84
  -6   3   6    5.14    5.43
  -6  -3   6    3.69    3.67
   6  -3  -6    8.25    3.24
   6  -3  -6    5.51    3.12
   6   3   7  235.34   18.52
   6  -3  -7  271.28   21.43
  -6  -3  -7  240.95   18.21
  -6   3   7  312.47   27.59
  -6  -3   7  237.44   20.83
   6  -3  -7  283.89   20.91
   6  -3   7  307.63   23.81
  -6  -3   7  248.12   21.02
   6   3   8  143.65   15.09
   6  -3  -8  141.16   15.50
  -6   3   8  136.62   17.48
  -6  -3   8  174.30   18.02
   6  -3   8  124.15   15.82
   6  -3   9   -1.61    4.28
   6   3   9   -1.35    2.30
  -6  -3  -9    4.04    4.90
  -6   3   9   -0.09    3.79
  -6  -3   9    2.38    4.11
   6  -3  -9    0.97    3.83
   6   3  10  133.51   15.87
  -6  -3 -10  143.71   15.58
  -6   3  10  150.60   19.51
  -6  -3  10  144.71   17.24
   6  -3  10  143.66   17.31
   6  -3  11    4.58    1.83
   6   3  11    4.58    2.91
  -6   3  11    6.04    3.98
  -6  -3  11    7.02    4.69
   6   3  12  184.23   20.77
  -6   3  12  224.48   23.36
   6  -3  12  279.87   25.35
  -6  -3  12  242.01   23.57
  -6   3  12  224.49   21.57
   6   3  13   25.89    7.75
  -6   3  13   15.56    7.32
  -6  -3  13   46.40   10.02
  -6   3  13   36.46    9.47
   6  -3  13   14.67    6.86
   6   3  14   15.02    4.97
  -6   3  14   28.74    9.42
  -6  -3  14   30.66    8.98
  -6   3  14   37.99    9.04
   6  -3  14   27.39    8.99
   6   3  14   34.03    7.93
   6   3  15   13.47    6.72
  -6   3  15   20.85    7.35
  -6  -3  15   10.43    6.77
  -6   3  15   17.08    4.82
   6  -3  15   26.65    8.04
   6   3  15   21.32    7.39
   6   3  16  207.62   23.55
   6  -3  16  200.73   23.36
  -6   3  16  225.00   24.96
  -6  -3  16  257.73   25.92
  -6   3  16  253.55   24.52
   6   3  16  197.64   23.39
   6   3  17    2.74    3.12
  -6   3  17   12.64    6.71
  -6  -3  17    9.19    6.95
   6  -3  17   10.65    7.55
  -6   3  17    5.34    4.27
   6   3  17    9.42    4.53
   6   3  18  133.39   20.57
   6  -3  18  179.32   22.09
  -6   3  18  217.38   24.50
  -6  -3  18  150.15   20.75
   6   3  18  167.86   21.37
   6   3  19  141.89   20.55
   6  -3  19  141.46   20.33
  -6   3  19  116.72   18.52
  -6  -3  19  154.43   21.48
  -6   3  19  133.73   19.36
   6   3  19  176.73   22.36
   6   3  20   19.05    5.04
  -6   3  20   12.56    5.39
  -6  -3  20    9.20    6.52
   6  -3  20   22.82    9.08
  -6   3  20    6.08    2.65
   6   3  20    7.17    2.99
   6   3  21    8.68    5.50
  -6   3  21    7.47    6.47
   6  -3  21    9.40    5.38
  -6  -3  21    5.65    3.47
  -6   3  21    3.45    4.20
   6   3  21    1.97    3.74
   6   3  22   49.90   11.91
  -6   3  22   57.55   15.43
   6  -3  22   84.01   17.33
  -6  -3  22   46.35   11.53
   6   3  22   53.81   12.74
  -6   3  22   47.45   12.27
   6  -3  22   52.41   13.73
   6   3  23   16.98    9.01
   6  -3  23   11.61    3.09
  -6   3  23   23.42    9.42
  -6  -3  23   10.97    7.16
   6   3  23   10.55    6.46
  -6   3  23   16.06    9.06
   6  -3  23   24.99   12.07
   6   3  24   19.03    6.45
   6  -3  24   14.06   10.09
  -6   3  24   19.49    9.58
  -6  -3  24   37.80   10.49
   6   3  24   11.68    7.77
  -6   3  24    8.36    6.95
   6  -3  24   17.22    9.25
   6   3  25    1.34    5.45
   6  -3  25    0.06    5.30
  -6   3  25    0.35    4.96
  -6  -3  25    0.27    4.76
   6   3  25    0.32    6.22
  -6   3  25    3.30    8.36
   6  -3  25   -5.34    8.57
   6   3  26    0.85    5.38
   6  -3  26    1.82    3.97
  -6   3  26   -1.29    4.22
  -6  -3  26    4.55    5.90
   6   3  26    9.62    8.95
   6  -3  26   -3.04    4.46
   6   3  27   -3.81    6.77
   6  -3  27   -3.46    5.19
  -6   3  27    8.39    8.75
  -6  -3  27    3.14    6.79
   6   3  27    4.05    3.91
   6  -3  27   10.35    5.98
   6   3  28   15.43   10.17
   6  -3  28   22.42   12.90
  -6   3  28   21.43    6.30
  -6  -3  28    9.66    6.26
   6   3  28   -0.95    5.10
   6  -3  28    9.18    9.62
  -6  -4   0  115.26   13.34
   6  -4   0  118.68   10.63
   6  -4   0  113.45   14.12
  -6   4   0  136.97   17.52
  -6  -4   1  122.10   13.93
  -6  -4  -1  137.17   13.95
   6  -4   1  136.09   10.71
   6  -4  -1  119.77   11.20
   6  -4   1  126.24   15.11
  -6  -4   1  119.76   13.11
  -6   4   1  105.74   15.92
   6  -4  -1  114.70   13.96
   6  -4   2    7.49    4.33
  -6  -4   2    2.61    3.28
   6  -4   2    5.35    2.12
  -6  -4  -2    5.25    3.36
   6  -4  -2   10.61    3.61
  -6   4   2    6.59    7.92
  -6  -4   2    9.73    5.56
   6  -4  -2    2.55    3.53
   6   4   2    5.10    1.71
  -6  -4   3   57.02    9.39
   6  -4   3   58.45    7.15
  -6  -4  -3   75.67    9.84
   6  -4   3   53.06   10.23
   6  -4  -3   58.58    8.56
  -6   4   3   87.38   15.08
  -6  -4   3   61.59    9.44
   6  -4  -3   87.19   13.59
   6   4   3   83.92    7.85
   6   4   4   12.28    3.02
  -6  -4   4   27.50    7.84
   6  -4   4   20.15    4.11
   6  -4  -4   16.29    6.57
  -6  -4  -4   17.30    5.54
  -6   4   4   35.69   10.11
   6  -4  -4   15.03    4.68
  -6  -4   4   18.31    5.84
   6  -4   4    6.16    4.12
   6  -4   5    9.76    2.47
  -6  -4   5   12.31    5.40
   6   4   5   10.97    2.62
  -6  -4  -5    8.43    3.06
   6  -4  -5   10.27    5.57
  -6   4   5    7.86    4.76
  -6  -4   5   15.64    4.91
   6  -4  -5   13.84    4.69
   6  -4   5   15.31    6.07
   6  -4   6    3.33    2.16
  -6  -4   6    3.38    4.23
   6   4   6    3.05    1.44
  -6  -4  -6    6.20    4.22
   6  -4   6    5.34    3.02
  -6   4   6    0.47    3.89
  -6  -4   6    5.94    3.50
   6  -4  -6    0.06    2.45
   6  -4  -6    2.07    1.76
   6  -4  -7  313.05   24.17
   6  -4  -7  304.15   22.62
  -6  -4   7  286.48   22.70
   6  -4   7  291.50   23.97
   6   4   7  263.94   19.91
  -6  -4   7  349.16   25.86
   6  -4  -8  664.94   35.75
  -6  -4  -8  580.34   31.57
  -6   4   8  585.30   37.73
   6  -4  -8  639.74   34.04
  -6  -4   8  604.45   33.50
   6  -4   8  626.60   36.12
   6   4   8  644.51   31.81
  -6  -4   8  672.14   37.07
  -6  -4  -9  133.83   15.40
   6  -4  -9  115.21   15.16
  -6   4   9  126.45   17.84
   6  -4  -9  125.76   15.73
  -6  -4   9  110.96   14.53
   6  -4   9  155.94   18.34
   6   4   9  110.65   14.25
  -6  -4   9  135.92   17.25
  -6  -4 -10  297.39   23.60
  -6   4  10  242.22   23.86
   6  -4 -10  214.39   21.26
   6  -4 -10  242.55   21.97
  -6  -4  10  250.66   22.53
   6  -4  10  252.23   23.73
   6   4  10  246.83   21.74
  -6  -4  10  274.11   24.25
   6  -4  11   15.73    5.50
   6   4  11   11.09    5.13
  -6  -4 -11   17.81    6.59
  -6   4  11   19.04    6.50
  -6  -4  11   14.09    5.65
   6  -4 -11   17.21    7.30
   6  -4  12   15.52    6.02
   6   4  12    9.17    4.88
  -6  -4 -12   31.83   10.60
  -6   4  12   25.10    9.47
  -6  -4  12   17.26    7.00
   6   4  12   17.92    6.35
   6  -4  13   29.10    8.29
   6   4  13   26.10   10.35
  -6  -4 -13    7.55    6.59
  -6   4  13   45.72   11.71
  -6  -4  13   17.04    5.21
  -6   4  13   18.04    8.98
   6   4  13   46.03    9.82
   6  -4  14   50.02   11.42
   6   4  14   46.63   10.25
  -6   4  14   28.78    9.22
  -6  -4  14   35.58    8.93
  -6   4  14   38.98    9.77
   6   4  14   30.88    7.85
   6  -4  15  237.18   24.71
  -6   4  15  220.20   25.02
  -6  -4  15  205.48   23.37
  -6   4  15  200.68   22.39
   6   4  15  173.86   20.22
   6   4  15  198.10   22.70
   6   4  16   58.25   11.90
  -6   4  16   36.42    9.17
  -6  -4  16   64.49   13.86
  -6   4  16   58.54   11.66
   6   4  16   58.17   11.82
   6  -4  16   38.10    9.56
   6   4  17   60.39   12.39
  -6   4  17   64.46   13.96
  -6  -4  17   66.62   13.71
  -6   4  17   61.85   12.27
   6  -4  17   50.64   11.64
   6   4  17   54.64   12.67
   6  -4  18  125.02   19.09
  -6   4  18  125.43   18.68
  -6  -4  18  123.73   18.57
  -6   4  18  141.96   19.59
   6   4  18  142.76   20.60
   6   4  18  167.71   21.66
   6   4  19   30.68   10.80
  -6   4  19   17.52    8.44
  -6  -4  19   23.20   10.76
   6  -4  19   42.33   12.25
  -6   4  19   17.00    5.71
   6   4  19   34.56   11.58
   6   4  20    7.35    6.43
  -6   4  20   -2.34    4.67
  -6  -4  20   -5.04    5.70
   6  -4  20    3.75    3.97
  -6   4  20   -0.66    2.02
   6   4  20   -0.68    6.80
   6   4  21   58.54   14.03
  -6   4  21   21.22    7.26
  -6  -4  21   30.71   10.00
   6  -4  21   25.16    9.30
  -6   4  21   29.65    8.74
   6   4  21   40.79   11.56
   6   4  22   52.97   12.07
  -6   4  22   64.80   14.27
  -6  -4  22   40.01   10.78
   6  -4  22   40.75   11.20
  -6   4  22   31.72   11.11
   6   4  22   64.75   13.45
   6   4  23   46.00   12.18
  -6   4  23   30.50    9.98
   6  -4  23   37.50   10.70
  -6  -4  23   41.70    9.99
   6   4  23   24.70    6.86
  -6   4  23   17.26    7.17
   6  -4  23   24.13   10.65
   6   4  24    1.41    6.52
   6  -4  24   -0.84    4.82
  -6  -4  24    4.06    5.35
  -6   4  24   -0.65    5.92
   6  -4  24   -3.72    2.96
   6   4  25   37.60   12.87
   6  -4  25   33.24   11.38
  -6   4  25   31.47   12.02
  -6  -4  25   33.14   10.26
  -6   4  25   23.21    8.22
   6  -4  25   38.77   12.35
   6   4  26   15.99    7.71
   6  -4  26   23.41    8.88
  -6   4  26   23.31   11.51
  -6  -4  26   13.55    2.74
  -6   4  26   13.44    9.39
   6  -4  26   11.18    7.91
   6   4  27   19.40    8.84
   6  -4  27   11.53    8.96
  -6   4  27   21.00    8.07
  -6  -4  27    6.96    5.56
  -6   4  27   26.18   12.84
   6  -4  27   13.79    6.62
  -6  -5   0    2.14    3.82
   6  -5   0    2.31    2.30
   6  -5   0    3.06    3.99
  -6  -5   1  223.23   20.09
  -6  -5  -1  230.11   20.32
   6  -5   1  241.44   16.64
   6  -5  -1  204.55   15.98
   6  -5   1  221.24   21.41
  -6   5   1  244.87   23.95
   6  -5  -1  202.37   20.73
   6  -5   2   41.02    6.91
  -6  -5   2   47.37    9.51
  -6  -5  -2   26.63    6.77
   6  -5   2   44.56   10.03
   6  -5  -2   32.49    7.07
  -6   5   2   47.15    9.96
   6  -5  -2   35.71    8.62
   6  -5  -3   -4.81    3.24
  -6  -5   3   -1.45    2.85
   6  -5   3   -0.56    2.42
  -6  -5  -3    0.18    3.97
   6  -5  -3    2.49    2.83
  -6   5   3    1.85    4.26
  -6  -5   3    1.11    3.55
   6   5   3    1.22    1.47
   6  -5   3   -2.85    5.04
  -6  -5   4   -0.47    1.65
   6  -5   4    4.18    3.64
   6  -5  -4   -1.16    3.46
  -6  -5  -4   -0.21    1.32
   6  -5  -4    3.12    1.65
  -6   5   4   -1.48    3.81
  -6  -5   4    7.39    5.06
   6  -5   4    3.94    3.90
   6   5   4    1.35    2.01
  -6  -5   5  239.00   21.44
   6  -5   5  214.86   16.15
   6  -5   5  218.70   20.97
  -6  -5  -5  219.13   20.76
   6  -5  -5  250.42   20.27
  -6   5   5  218.56   23.54
  -6  -5   5  263.99   20.50
   6   5   5  210.46   15.95
   6  -5  -5  205.84   21.49
   6  -5   6  119.37   15.42
   6  -5   6  101.80   11.50
  -6  -5   6   96.13   13.74
  -6  -5  -6  111.20   14.52
   6  -5  -6  123.32   14.74
  -6   5   6  135.88   18.87
  -6  -5   6  119.75   14.05
   6   5   6  105.52   11.38
   6  -5  -6  118.65   15.68
   6  -5   7  133.25   12.90
  -6  -5   7  179.19   19.18
   6  -5  -7  156.54   17.67
  -6  -5  -7  123.60   15.33
   6  -5  -7  138.39   15.83
  -6   5   7  137.55   18.81
  -6  -5   7  156.70   16.80
   6   5   7  142.73   14.64
   6  -5   7  154.28   18.81
   6  -5   8   11.62    4.75
  -6  -5   8   12.75    4.72
   6   5   8   13.90    4.89
  -6  -5  -8   11.93    4.46
   6  -5   8   19.97    6.26
  -6   5   8   10.86    5.20
   6  -5  -8   23.91    7.36
   6  -5  -8   16.44    6.83
  -6  -5   8   15.65    5.38
  -6  -5  -9  150.17   17.25
   6  -5  -9  137.86   17.42
   6  -5  -9  140.85   17.04
  -6   5   9  140.51   19.32
  -6  -5   9  135.10   16.13
   6  -5   9  161.64   18.87
   6   5   9  142.97   16.22
   6   5   9   97.04   12.17
  -6  -5   9  154.78   18.38
  -6  -5  10    2.65    5.04
   6   5  10   13.71    6.63
   6  -5  10    3.84    2.24
  -6  -5 -10    7.84    4.66
  -6   5  10    9.79    6.54
   6  -5 -10    4.44    4.48
  -6  -5  10   10.90    5.27
   6   5  10   12.98    4.37
   6  -5 -10   13.45    5.37
  -6  -5  11    8.90    6.68
   6  -5 -11    6.00    4.02
   6   5  11   17.88    6.55
   6  -5  11    9.48    5.57
  -6  -5 -11    7.53    5.04
  -6   5  11    4.77    6.71
   6  -5 -11   23.77    7.63
  -6  -5  11    2.02    2.99
   6   5  11   15.39    5.05
  -6  -5  12   22.83    7.91
   6   5  12   33.21    8.69
   6  -5  12   35.44   10.97
  -6  -5 -12   44.64   11.05
  -6   5  12   22.62    8.27
   6  -5 -12   42.72   10.41
  -6  -5  12   26.78    7.89
   6   5  12   18.30    6.88
  -6  -5 -13  144.84   18.39
  -6   5  13  216.56   25.27
   6  -5 -13  163.08   21.17
  -6  -5  13  163.34   19.62
   6  -5  13  164.06   21.22
   6   5  13  142.42   18.62
  -6  -5  13  203.72   23.60
   6  -5  14   62.05   13.48
   6   5  14   46.35   10.84
  -6  -5 -14   41.44   10.46
  -6   5  14   31.84    9.98
   6  -5 -14   52.43   11.95
  -6  -5  14   29.09    8.20
   6  -5  15    7.46    7.00
   6   5  15   25.51    7.98
  -6   5  15   29.28   10.03
   6  -5 -15   15.61    4.12
  -6  -5  15   26.25    8.29
  -6   5  15   23.64    7.33
   6  -5  16    4.15    5.10
   6   5  16   14.23    7.35
  -6   5  16   18.17    8.48
   6  -5 -16    9.98    4.41
  -6  -5  16   10.28    1.89
  -6   5  16    5.71    5.36
   6   5  17   -1.68    5.91
  -6   5  17    5.31    6.30
   6  -5 -17   -1.42    2.25
  -6  -5  17   -1.51    2.44
  -6   5  17    0.60    2.79
   6  -5  17   10.20    5.86
   6  -5  18  133.68   20.58
  -6   5  18  138.35   20.94
  -6  -5  18  151.81   21.55
  -6   5  18  148.84   21.51
   6   5  18  174.72   21.99
   6   5  19   41.94    9.98
  -6   5  19   33.97   11.39
  -6  -5  19   38.34   10.89
  -6   5  19   44.40   12.41
   6  -5  19   34.46   11.87
   6   5  20   -0.68    3.44
  -6   5  20   -2.41    4.29
  -6  -5  20    5.12    4.51
  -6   5  20    4.19    4.13
   6  -5  20    2.08    2.00
   6   5  21   30.06    8.93
  -6   5  21   26.88    9.19
  -6  -5  21   19.50    6.59
   6  -5  21   31.66   10.07
  -6   5  21   17.65    7.48
   6   5  22    1.16    4.21
  -6   5  22   -0.62    3.29
  -6  -5  22   -5.55    6.14
   6  -5  22    0.63    6.19
  -6   5  22   -8.67    6.07
   6   5  23    4.63    7.05
  -6   5  23   19.33    8.85
  -6  -5  23   12.18    8.70
   6  -5  23   27.07    9.27
  -6   5  23   20.49    9.07
   6  -5  23    7.58    4.08
   6   5  24   33.10   11.34
  -6   5  24   64.60   16.01
   6  -5  24   58.83   13.87
  -6  -5  24   61.48   14.31
  -6   5  24   49.69   14.93
   6  -5  24   60.33   13.76
   6   5  25   24.08   10.91
  -6   5  25    9.83    7.30
   6  -5  25   18.16    9.20
  -6  -5  25    8.80    9.23
  -6   5  25   11.01    7.89
   6  -5  25    3.47    2.65
   6   5  26   -6.39    6.34
  -6   5  26   14.30    7.44
   6  -5  26   -2.53    4.87
  -6  -5  26   -1.01    3.79
  -6   5  26   -1.84    4.59
   6  -5  26   -0.89    6.81
   6   5  27   -6.86    7.70
   6  -5  27   -5.74    7.44
  -6   5  27   13.21    7.66
  -6  -5  27    7.38    8.46
  -6   5  27    8.25    5.35
   6  -5  27    9.78    6.24
  -6  -6   0   -4.57    4.80
   6  -6   0   -4.11    3.51
   6  -6   0   -1.54    5.11
  -6  -6   1  157.56   17.71
  -6  -6  -1  154.49   17.68
   6  -6   1  191.41   17.19
   6  -6  -1  167.29   16.57
   6  -6   1  178.99   19.84
  -6   6   1  164.42   19.84
   6  -6  -1  133.23   17.69
   6  -6   2   32.21    7.56
  -6  -6   2   14.16    6.43
   6  -6   2   11.33    5.12
  -6  -6  -2   15.80    6.11
   6  -6  -2   13.58    5.39
  -6   6   2    7.82    5.79
   6  -6  -2   15.39    7.73
   6  -6  -3   14.14    6.04
   6  -6   3   14.46    5.83
  -6  -6   3    8.91    6.81
   6  -6   3   11.79    4.36
  -6  -6  -3   13.57    5.31
   6  -6  -3   11.12    4.48
  -6   6   3   17.20    7.33
  -6  -6   4  745.46   40.35
   6  -6   4  787.76   35.15
  -6  -6  -4  710.09   38.92
   6  -6   4  739.53   41.08
   6  -6  -4  760.65   37.15
  -6   6   4  799.33   46.00
   6  -6  -4  755.05   41.81
  -6  -6   5   76.04   12.02
   6  -6   5   56.57    9.70
   6  -6   5   78.76   13.63
  -6  -6  -5   67.12   12.13
   6  -6  -5   59.99   10.90
   6  -6  -5   70.54   12.05
  -6   6   5   61.25   13.48
   6   6   5   65.84    9.27
  -6  -6   6   30.21    8.51
   6  -6   6   16.49    4.78
  -6  -6  -6   42.97   10.58
  -6   6   6   22.55    8.49
   6  -6  -6   32.75    7.48
   6  -6  -6   25.49    8.20
   6  -6   6   32.70    8.43
   6   6   6   40.15    7.35
  -6  -6   7  190.42   21.08
   6  -6   7  201.63   18.07
   6  -6  -7  224.62   22.61
  -6  -6  -7  197.22   21.23
   6  -6  -7  225.39   21.45
  -6   6   7  229.29   23.98
   6   6   7  200.94   18.16
   6  -6   7  230.17   22.35
   6  -6   8   13.96    5.41
  -6  -6   8   16.25    6.61
   6  -6  -8   14.72    5.62
  -6  -6  -8   17.68    6.41
   6  -6   8   23.12    7.39
  -6   6   8   14.76    7.66
   6  -6  -8   14.25    6.33
   6   6   8   23.87    6.95
   6   6   9    5.17    2.40
  -6  -6   9    7.39    5.49
  -6  -6  -9   12.31    6.06
   6  -6   9   12.36    5.55
  -6   6   9   14.47    7.20
   6  -6  -9   -1.54    1.44
   6  -6  -9    7.05    4.52
  -6  -6  10   58.47   12.40
   6  -6 -10   61.98   12.77
  -6  -6 -10   56.24   11.63
  -6   6  10   58.58   12.57
   6  -6 -10   64.70   10.79
   6   6  10   57.26   10.67
   6  -6  10   73.74   13.67
  -6  -6 -11  265.62   25.25
   6  -6 -11  269.46   25.27
   6  -6 -11  280.22   26.98
  -6   6  11  254.55   27.15
   6  -6  11  326.29   28.89
   6   6  11  245.99   22.59
  -6  -6  11  248.55   25.81
  -6  -6 -12   84.02   13.54
   6  -6 -12   96.08   15.12
  -6   6  12  107.83   18.33
   6  -6 -12   87.01   14.89
   6  -6  12  129.31   18.20
   6   6  12  107.62   15.85
  -6  -6  12   96.20   16.49
  -6  -6  13   13.19    6.72
   6   6  13   21.13    6.15
   6  -6  13   44.10   10.56
  -6  -6 -13   25.57    8.76
  -6   6  13   20.04    8.05
   6  -6 -13   21.92    7.97
  -6  -6  13   -3.22    3.47
  -6  -6 -14  395.19   32.93
   6  -6 -14  335.26   29.84
  -6   6  14  354.68   32.23
  -6  -6  14  354.84   30.25
   6  -6  14  373.51   31.42
   6   6  14  345.25   28.90
  -6  -6  14  376.61   32.42
  -6  -6 -15  108.18   18.31
  -6   6  15  119.86   19.83
   6  -6 -15  109.01   18.36
  -6  -6  15  108.14   17.73
   6  -6  15  139.37   19.90
   6   6  15  128.35   17.65
  -6  -6  15  104.18   17.91
   6  -6  16   53.21   12.26
   6   6  16   55.40   11.69
  -6   6  16   44.97   11.84
   6  -6 -16   36.74   12.21
  -6  -6  16   57.19   13.08
   6  -6  17   24.22    8.49
   6   6  17   12.69    7.43
  -6   6  17   20.04    9.28
   6  -6 -17   13.52    4.79
  -6   6  17   19.99    6.99
  -6  -6  17   28.06    9.83
   6   6  18   77.18   15.03
  -6   6  18   66.53   15.28
   6  -6 -18   78.58   15.85
  -6  -6  18   71.72   13.82
  -6   6  18   78.37   16.56
   6  -6  18   59.43   12.02
   6   6  19   21.16    9.35
  -6   6  19   10.74    5.52
   6  -6 -19   16.97    7.91
  -6  -6  19   18.86    9.80
  -6   6  19   31.49   10.07
   6  -6  19   26.03    9.60
   6   6  20   10.11    7.63
  -6   6  20   24.45    8.67
   6  -6 -20   16.69    7.42
  -6  -6  20    7.64    6.97
  -6   6  20    9.60    6.13
   6  -6  20    5.64    4.51
   6   6  21   14.75    7.74
  -6   6  21   29.40   10.18
   6  -6 -21    4.30    2.67
  -6  -6  21   14.15    7.08
  -6   6  21   24.06    8.77
   6  -6  21   16.39    5.90
   6   6  22   45.47   11.76
  -6   6  22   65.68   15.28
   6  -6 -22   60.14   13.45
  -6  -6  22   51.57   13.82
   6  -6  22   72.99   15.37
  -6   6  22   55.86   13.95
   6   6  23   22.27    8.08
  -6   6  23   14.78   10.05
   6  -6 -23   56.59   15.12
  -6  -6  23   16.37    7.04
   6  -6  23   30.76   10.57
  -6   6  23   26.40   10.94
   6  -6  23   22.53    7.68
   6   6  24   55.78   14.83
  -6   6  24   47.73   13.02
   6  -6 -24   68.27   16.71
  -6  -6  24   64.78   15.87
   6  -6  24   37.55    9.17
  -6   6  24   50.58   13.27
   6  -6  24   60.93   14.65
   6   6  25   48.25   12.12
  -6   6  25   33.75   12.59
   6  -6 -25   47.97   13.95
  -6  -6  25   67.98   15.16
   6  -6  25   57.31   13.97
  -6   6  25   84.15   17.81
   6  -6  25   44.11   11.62
   6   6  26  102.83   19.29
  -6   6  26   79.07   16.49
   6  -6 -26   74.54   17.25
   6  -6  26   35.26   10.73
  -6  -6  26   60.21   14.53
  -6   6  26   41.17   12.18
   6  -6  26   59.26   14.34
  -6  -7   0  183.96   20.40
   6  -7   0  170.93   17.91
   6  -7   0  171.00   20.31
  -6  -7   1  110.66   15.93
  -6  -7  -1  137.12   17.55
   6  -7   1   94.22   13.54
   6  -7  -1  132.57   15.67
   6  -7   1  145.06   18.92
   6  -7  -1  146.25   18.76
  -6  -7   2  220.91   23.17
   6  -7   2  229.85   21.07
  -6  -7  -2  223.34   22.80
   6  -7  -2  229.71   21.88
   6  -7   2  250.06   24.31
  -6   7   2  250.15   26.20
   6  -7  -2  237.39   25.21
  -6  -7   3  109.52   15.51
   6  -7   3  109.29   14.28
  -6  -7  -3   89.96   15.71
   6  -7  -3  105.71   14.32
   6  -7   3  106.99   15.44
  -6   7   3  107.10   17.02
   6  -7  -3   80.50   15.10
   6  -7   4    0.93    4.81
  -6  -7   4   -0.93    2.17
   6  -7  -4    1.12    2.73
   6  -7   4   -1.56    2.51
  -6  -7  -4   -0.51    3.55
   6  -7  -4    1.43    2.59
  -6   7   4   -4.03    1.79
  -6  -7   5   31.17    8.87
   6  -7   5   34.44    8.73
  -6  -7  -5   22.80    5.75
   6  -7  -5   26.86    8.32
   6  -7  -5   38.39    9.09
  -6   7   5   18.47    5.85
   6  -7   5   35.12    9.89
  -6  -7   6   -2.46    3.25
   6  -7   6    5.23    4.41
  -6  -7  -6   -2.38    3.38
   6  -7  -6   -0.76    1.53
  -6   7   6   -0.83    4.74
   6  -7  -6   -0.97    3.56
   6  -7   6    3.58    4.60
  -6  -7   7   -1.22    3.30
   6  -7   7    3.63    4.60
  -6  -7  -7    1.47    4.77
   6  -7  -7   -1.02    4.46
  -6   7   7    3.54    4.69
   6  -7   7    2.68    4.01
   6  -7  -7    3.84    5.77
  -6  -7   8    3.14    4.75
   6  -7   8    4.43    4.00
   6  -7  -8    6.70    4.99
  -6  -7  -8    0.45    3.52
  -6   7   8    0.36    3.96
   6  -7  -8    5.39    3.99
   6  -7   8    1.83    2.05
   6   7   8    5.03    4.74
  -6  -7   9    7.63    3.32
  -6  -7  -9    9.75    5.95
   6  -7  -9    7.80    5.34
   6  -7   9    4.13    2.48
  -6   7   9   26.48   10.03
   6  -7  -9   20.12    3.90
   6   7   9    5.17    3.25
  -6  -7  10   47.35   10.90
  -6  -7 -10   49.27   11.52
  -6   7  10   65.27   14.67
   6  -7 -10   43.77    9.79
   6  -7 -10   41.32   11.16
   6  -7  10   92.58   15.76
   6   7  10   51.86   10.79
  -6  -7  11    4.64    5.11
   6  -7 -11    0.76    2.26
   6  -7  11   -3.53    4.52
  -6  -7 -11    0.23    2.41
  -6   7  11    1.58    2.80
   6  -7 -11    1.83    2.42
   6   7  11   -5.16    5.74
   6   7  12   17.94    7.81
  -6  -7  12    9.91    4.37
   6  -7  12   16.29    6.57
  -6  -7 -12   17.45    7.31
  -6   7  12   32.00   11.21
   6  -7 -12   18.34    7.24
   6  -7 -12   22.01    8.01
   6   7  13    7.22    2.88
   6  -7 -13    5.74    4.00
  -6  -7  13   12.85    5.10
   6  -7  13   16.79    7.72
  -6  -7 -13   11.29    4.22
  -6   7  13    5.64    8.55
   6  -7 -13    6.22    4.28
   6   7  14   53.73   11.68
  -6  -7  14   38.82   11.12
   6  -7  14   36.62    9.63
  -6  -7 -14   57.86   13.39
  -6   7  14   65.21   13.65
   6  -7 -14   39.53   11.09
  -6  -7  15   18.02   10.20
   6   7  15   22.41    7.04
   6  -7  15    6.63    3.63
  -6  -7 -15   11.98    5.78
  -6   7  15    6.42    4.93
   6  -7 -15   14.33    8.32
  -6  -7  16   14.69    7.86
   6   7  16    7.36    5.42
   6  -7  16   10.21    7.03
  -6   7  16    8.65    3.45
   6  -7 -16   11.74    5.93
   6   7  17   24.01    9.29
   6  -7  17    9.30    7.93
  -6   7  17    5.36    8.07
   6  -7 -17   20.63    7.39
   6  -7  18   13.45    5.80
   6   7  18   17.11    7.77
  -6   7  18   31.47    9.01
   6  -7 -18   11.10    4.20
   6   7  19    6.15    5.92
  -6   7  19    8.32    8.10
   6  -7 -19   -1.44    5.65
  -6   7  19    0.03    4.32
   6  -7  19   -6.02    5.95
   6   7  20    6.76    7.04
  -6   7  20    6.26    4.49
   6  -7 -20   -0.59    2.75
  -6   7  20   10.70    8.16
   6  -7  20    8.19    6.08
   6   7  21   -5.93    7.59
  -6   7  21    2.50    2.91
   6  -7 -21    5.89    3.82
  -6   7  21   -4.00    5.86
   6  -7  21    7.15    8.15
   6   7  22    4.20    3.53
  -6   7  22   31.02   10.45
   6  -7 -22   18.38    8.81
  -6   7  22   23.12   10.04
   6  -7  22    3.85    3.54
   6   7  23   -8.42    7.62
  -6   7  23    5.25    7.41
   6  -7 -23   -3.63    7.20
  -6   7  23    7.54    5.39
   6  -7  23    0.51    4.36
   6   7  24   -8.35    6.01
  -6   7  24   -2.37    6.53
   6  -7 -24    1.19    4.85
   6  -7  24   13.21    8.88
  -6   7  24   -3.97    4.75
   6  -7  24    0.23    2.91
   6   7  25   13.09    8.44
  -6   7  25   13.26   10.16
   6  -7 -25    4.09    7.68
   6  -7  25   -2.39    3.21
  -6   7  25   -2.41    6.78
   6  -7  25    6.46    6.30
  -6  -8   0    7.48    4.60
   6  -8   0    7.66    4.06
   6  -8   0    5.70    4.01
  -6  -8   1   10.56    4.81
  -6  -8  -1   15.50    6.88
   6  -8   1   12.75    4.19
   6  -8  -1    9.56    6.15
   6  -8   1   15.69    5.72
   6  -8  -1   18.23    7.10
  -6  -8   2   26.93    9.13
   6  -8   2   29.58    9.71
   6  -8   2   28.40    7.31
  -6  -8  -2   13.05    6.65
   6  -8  -2   44.24   10.56
   6  -8  -2   25.34    8.43
  -6  -8   3  201.58   23.27
   6  -8   3  220.33   22.27
  -6  -8  -3  200.94   22.69
   6  -8  -3  185.18   21.05
   6  -8   3  248.22   25.25
  -6   8   3  197.80   23.55
   6  -8  -3  178.94   21.70
   6  -8   4   55.20   12.79
   6  -8  -4   52.79   11.78
  -6  -8  -4   61.37   13.79
  -6  -8   4   65.41   12.83
   6  -8   4   72.16   13.35
   6  -8  -4   55.36   11.91
  -6   8   4   56.44   13.20
  -6  -8   5  267.33   26.47
   6  -8   5  205.24   21.14
   6  -8   5  200.51   22.74
  -6  -8  -5  192.71   21.94
   6  -8  -5  205.20   22.74
  -6   8   5  181.02   23.29
   6  -8  -5  186.18   22.81
  -6  -8   6    6.99    5.45
   6  -8   6   -1.32    1.43
  -6  -8  -6    1.27    1.73
   6  -8  -6   -2.65    4.25
   6  -8  -6    1.75    3.13
  -6   8   6   -4.26    3.33
   6  -8   6    5.78    7.53
  -6  -8   7  471.31   36.57
   6  -8   7  410.20   30.48
   6  -8   7  462.44   34.63
  -6  -8  -7  430.69   34.85
   6  -8  -7  456.37   33.68
  -6   8   7  458.32   37.58
  -6  -8   8    1.97    3.15
  -6  -8  -8   -1.76    2.37
  -6   8   8    3.60    5.06
   6  -8  -8    6.03    2.39
   6  -8   8   -1.16    5.40
   6  -8  -8   -3.45    5.28
  -6  -8   9   19.86    9.03
   6  -8  -9   33.69   10.31
  -6  -8  -9   21.83    8.12
   6  -8  -9   36.49    9.38
  -6   8   9   33.58    9.85
   6  -8   9   41.45   10.40
  -6  -8  10   30.69   10.51
  -6  -8 -10   18.91    8.99
   6  -8 -10    7.62    1.63
   6  -8  10   11.32    1.65
  -6   8  10   12.61    7.02
   6  -8 -10   26.70    8.95
  -6  -8  11  163.06   21.72
   6  -8 -11  189.93   22.59
  -6  -8 -11  222.61   25.65
   6  -8 -11  172.56   21.52
  -6   8  11  212.86   25.48
   6  -8  11  235.53   25.17
  -6  -8  12    8.06    6.36
   6  -8 -12    8.06    6.61
   6  -8  12   10.32    6.85
  -6  -8 -12   19.74    8.75
  -6   8  12    2.99    3.41
   6  -8 -12   -2.37    5.74
   6   8  12    6.53    6.08
  -6  -8  13    7.60    6.29
   6  -8  13    7.81    7.33
  -6  -8 -13    4.14    2.44
  -6   8  13    0.27    3.71
   6  -8 -13    4.49    3.79
   6  -8 -13    4.91    6.85
   6   8  13    8.62    6.22
  -6  -8  14   29.35   10.16
   6  -8 -14   40.63   11.67
   6  -8  14   25.30    8.89
  -6  -8 -14   22.34    9.44
  -6   8  14   17.29    8.12
   6  -8 -14   10.04    5.07
   6   8  14   24.28    7.77
  -6  -8 -15  297.68   30.85
   6  -8 -15  329.47   32.03
  -6   8  15  304.06   31.70
   6  -8 -15  315.88   29.91
   6  -8  15  349.28   32.05
   6   8  15  402.78   34.00
  -6  -8  15  294.74   31.37
  -6  -8  16    4.64    6.08
   6  -8  16    3.83    3.45
  -6  -8 -16   25.53   14.08
  -6   8  16    2.79    5.69
   6  -8 -16    1.79    5.34
   6   8  16    7.58    7.12
   6  -8 -17  130.29   20.28
  -6   8  17  154.12   21.83
   6  -8  17  166.68   22.99
   6   8  17  140.59   22.27
  -6  -8  17  191.79   24.95
   6   8  18   -4.43    8.61
   6  -8  18    8.41    6.40
  -6   8  18   -0.82    3.27
   6  -8 -18   -0.27    6.42
  -6  -8  18    6.45    8.37
   6   8  19   77.33   16.92
   6  -8  19   76.72   15.35
  -6   8  19   87.80   17.58
   6  -8 -19   74.62   16.91
   6   8  20   24.05   10.15
  -6   8  20   13.78    6.52
   6  -8 -20    6.24    5.68
   6  -8  20   14.00    8.92
   6  -8 -21  158.66   25.38
  -6   8  21  102.57   19.73
   6  -8  21  122.35   20.68
   6   8  21  141.34   22.11
   6   8  22   11.74    3.32
  -6   8  22   13.95    9.08
   6  -8 -22   18.90   10.65
   6  -8  22    8.18    4.52
   6   8  23   46.38   11.80
  -6   8  23   27.95   10.63
   6  -8 -23   42.46   13.67
  -6   8  23   44.74   13.69
   6  -8  23   51.85   13.65
   6   8  24   -5.29    6.51
  -6   8  24    3.17    9.37
   6  -8 -24   -4.35    9.20
  -6   8  24    5.16    5.06
   6  -8  24    9.60    6.41
   6  -8  24    5.09    6.43
  -6  -9   0  104.60   17.78
   6  -9   0  105.07   16.86
   6  -9   0   89.36   15.54
  -6  -9   1   -0.98    2.27
  -6  -9  -1    3.31    3.81
   6  -9   1   14.75    7.91
   6  -9  -1    4.29    5.32
   6  -9   1    4.02    3.55
   6  -9  -1    4.16    5.16
  -6  -9   2    8.73    8.30
   6  -9   2   -2.13    3.95
   6  -9   2    3.39    5.01
  -6  -9  -2    5.25    4.81
   6  -9  -2   -3.14    3.02
   6  -9  -2   -2.30    2.33
   6  -9   3    3.78    4.63
  -6  -9   3    1.55    3.07
   6  -9   3    8.65    5.79
  -6  -9  -3   10.87    7.02
   6  -9  -3    9.35    4.44
   6  -9  -3    5.50    4.37
   6  -9   4   12.18    7.40
   6  -9  -4    2.40    2.73
  -6  -9   4   -2.50    3.24
   6  -9   4    8.10    6.49
  -6  -9  -4    1.23    5.30
   6  -9  -4   -1.06    3.72
  -6   9   4   -2.04    5.12
  -6  -9   5  194.81   23.05
   6  -9   5  197.14   22.98
  -6  -9  -5  144.97   21.21
   6  -9   5  194.65   23.39
   6  -9  -5  176.61   21.29
  -6   9   5  172.89   22.60
   6  -9  -5  159.28   20.87
  -6  -9   6   45.71   11.34
   6  -9   6   55.73   12.29
   6  -9  -6   35.54   11.70
  -6  -9  -6   45.87   13.01
   6  -9  -6   31.51    8.65
  -6   9   6   29.55    8.50
   6  -9   6   56.18   13.69
  -6  -9   7    2.23    2.81
  -6  -9  -7    3.75    2.41
   6  -9  -7   -0.82    5.30
  -6   9   7   10.57    6.34
   6  -9  -7    1.62    3.09
   6  -9   7   -1.09    2.03
  -6  -9   8   31.13    9.88
  -6  -9  -8    7.35    3.64
   6  -9  -8   32.75   10.63
  -6   9   8   39.07   13.76
   6  -9   8   49.71   11.66
   6  -9  -8   25.27    8.27
  -6  -9   9   16.12    6.84
  -6  -9  -9    9.48    5.91
   6  -9  -9    6.23    3.18
  -6   9   9    7.59    6.18
   6  -9   9   -3.20    5.27
   6  -9  -9   -4.56    5.87
  -6  -9  10   17.67    9.19
   6  -9 -10   11.95    7.08
  -6  -9 -10   15.13    6.97
   6  -9  10    7.20    5.14
   6  -9 -10    0.74    3.76
  -6   9  10   22.31   10.17
  -6  -9  11    9.75    6.64
   6  -9 -11    3.32    2.45
  -6  -9 -11    3.44    4.06
   6  -9  11    6.90    1.83
   6  -9 -11    6.14    6.54
  -6   9  11   18.21    8.43
  -6  -9  12   20.47    8.73
   6  -9  12   11.74    3.26
  -6  -9 -12    6.51    4.65
  -6   9  12    6.36    5.44
   6  -9 -12   10.30    6.85
   6  -9 -12    5.67    4.19
  -6  -9  13   19.99    9.40
   6  -9  13   15.49    8.42
  -6  -9 -13   12.80    9.44
  -6   9  13    9.73    4.08
   6  -9 -13   23.18    6.08
   6  -9 -13   10.39    4.99
  -6  -9  14   16.73    7.82
   6  -9  14   45.83   11.85
   6  -9 -14   13.29    4.57
  -6  -9 -14   14.25    3.91
  -6   9  14   36.94   11.50
   6  -9 -14   18.28    8.07
  -6  -9  15   13.10    9.19
   6  -9  15    1.46    4.47
  -6  -9 -15   -1.53    3.81
  -6   9  15    3.39    6.10
   6  -9 -15   -1.36    4.68
   6  -9 -15   -1.87    3.02
  -6  -9  16    6.26    5.76
   6  -9  16    1.79    5.09
   6  -9 -16   -6.33    5.46
  -6  -9 -16   10.93    9.81
  -6   9  16    2.59    3.65
   6  -9 -16    1.43    3.44
  -6  -9  17    9.04    5.94
   6  -9  17   16.22    9.05
   6  -9 -17    8.46    5.29
  -6  -9 -17  -10.14    4.88
  -6   9  17   11.15    9.85
   6  -9 -17    9.10    7.32
  -6  -9  18    6.38    3.94
   6  -9  18   -3.47    6.56
  -6   9  18    8.29    6.85
   6  -9 -18   11.93   10.63
   6   9  18    4.52    6.66
   6  -9 -18    8.00    4.82
   6  -9  19    6.78    2.81
  -6   9  19   11.23    6.84
   6  -9 -19    6.71    6.60
   6   9  19   14.57    9.12
  -6  -9  19    4.78    7.15
   6  -9  20    6.87    3.97
  -6   9  20   14.87    4.83
   6  -9 -20   23.26    8.71
   6   9  20   19.46   11.83
  -6   9  21   14.83    7.71
   6  -9 -21   18.66    9.76
   6  -9  21   40.58    9.82
   6   9  21   18.18    9.27
  -6   9  22   21.43    9.99
   6  -9 -22   24.62   12.47
   6  -9  22   32.55   10.42
   6   9  22   26.76   10.10
   6 -10   0   96.83   16.48
  -6 -10   0   79.48   15.71
   6 -10   0   98.45   17.99
  -6 -10   1   20.65    8.78
  -6 -10  -1    8.75    2.32
   6 -10   1    3.82    4.29
   6 -10  -1   28.16    9.84
   6 -10   1   11.30    4.75
   6 -10  -1   -1.65    2.69
  -6 -10   2    8.55    6.12
   6 -10   2    5.19    3.11
   6 -10   2    2.71    3.38
  -6 -10  -2    6.33    3.30
   6 -10  -2    3.21    6.68
   6 -10  -2    6.35    4.19
   6 -10   3   42.81   10.86
  -6 -10   3   49.41   11.57
   6 -10   3   33.90   10.40
  -6 -10  -3   50.95   12.02
   6 -10  -3   30.68    9.40
   6 -10  -3   37.16   11.50
  -6 -10   4  163.55   23.44
   6 -10   4  168.38   21.84
  -6 -10  -4  144.48   20.57
   6 -10  -4  154.88   21.52
   6 -10   4  174.32   22.15
   6 -10  -4  125.02   19.34
   6 -10  -5   -1.38    6.20
  -6 -10   5   12.60    7.51
   6 -10   5   10.86    6.34
  -6 -10  -5   12.89    4.22
   6 -10  -5    1.07    4.55
  -6  10   5    8.27    4.98
   6 -10   5   12.26    7.43
  -6 -10   6   42.61   10.92
   6 -10  -6   55.00   11.22
  -6 -10  -6   51.40   12.92
   6 -10  -6   43.63   12.18
  -6  10   6   28.94    9.84
   6 -10   6   56.86   12.81
  -6 -10   7   22.39    9.66
  -6 -10  -7   27.36   10.51
   6 -10  -7   10.19    7.47
   6 -10  -7    1.50    2.50
  -6  10   7   17.38    9.28
   6 -10   7   23.17    7.19
  -6 -10   8  139.41   21.13
   6 -10   8  118.73   18.51
  -6 -10  -8  136.53   21.54
   6 -10  -8  145.29   21.97
  -6  10   8  164.30   23.15
   6 -10  -8  103.12   16.98
  -6 -10   9   -0.84    3.13
  -6 -10  -9   -0.47    2.55
   6 -10  -9   -4.74    4.28
  -6  10   9   -8.21    7.59
   6 -10   9    0.73    4.22
   6 -10  -9   -1.89    6.00
  -6 -10  10   80.36   16.09
  -6 -10 -10   50.98   13.02
   6 -10 -10   59.44   13.41
  -6  10  10   44.99   12.02
   6 -10 -10   48.96   12.30
   6 -10  10   80.37   15.64
  -6 -10  11   96.42   17.52
   6 -10 -11  135.45   21.07
  -6 -10 -11  114.09   19.20
   6 -10  11   63.40   13.70
   6 -10 -11   76.73   15.96
  -6  10  11  105.04   19.00
  -6 -10  12   58.84   13.92
   6 -10 -12   71.44   15.09
  -6 -10 -12   85.72   18.00
   6 -10  12   63.38   14.39
   6 -10 -12   62.19   14.64
  -6  10  12   84.53   18.88
  -6 -10  13   -2.66    5.03
   6 -10  13    4.10    5.74
  -6 -10 -13   -2.15    4.59
   6 -10 -13   -2.98    6.28
   6 -10 -13    0.26    3.85
  -6  10  13   -0.34    3.59
  -6 -10  14   91.55   18.73
   6 -10 -14  122.45   19.99
  -6 -10 -14  125.81   21.27
   6 -10 -14  146.87   23.17
  -6  10  14  131.58   23.26
   6 -10  14  115.32   19.56
   6 -10 -15   56.16   13.72
  -6 -10  15   40.76   11.62
   6 -10  15   27.51    9.29
  -6 -10 -15   78.63   17.46
   6 -10 -15   32.13    9.75
  -6  10  15   51.37   13.02
  -6 -10  16   13.46    9.57
   6 -10  16    8.57    5.92
   6 -10 -16   -0.35    3.41
  -6 -10 -16   -2.35    6.24
  -6  10  16    9.04    8.29
   6 -10 -16    7.77    6.79
  -6 -10  17   -1.74    4.44
   6 -10  17   -2.63    4.96
  -6 -10 -17   -3.91    7.00
  -6  10  17  -10.82   10.27
   6 -10 -17    3.75    3.16
   6 -10 -17    5.59    6.12
   6 -10 -18   76.88   15.44
  -6  10  18   70.71   16.59
   6 -10 -18   79.62   18.43
   6 -10  18   88.19   17.71
  -6 -10  18   96.29   19.38
  -6 -10  19   26.62    9.78
   6 -10  19   25.74    9.06
  -6  10  19   21.57   10.77
   6 -10 -19    7.74    5.79
   6 -10 -19   18.43    9.02
   6 -10  20   10.27    6.60
   6 -10 -20    0.61    5.96
  -6  10  20   -2.44    3.27
   6 -10 -20   -0.21    5.94
  -6 -10  20   -3.94    3.37
   6 -10  21  125.32   21.22
  -6  10  21  111.94   20.69
   6 -10 -21  135.88   21.03
   6 -10 -21   76.34   15.91
  -6 -11   0    4.81    5.03
   6 -11   0    3.77    5.49
   6 -11   0   18.93    8.52
  -6 -11   1   -1.70    6.31
  -6 -11  -1   25.63    9.81
   6 -11   1   38.26   11.44
   6 -11   1   26.51   10.47
   6 -11  -1   23.24    8.67
   6 -11  -1   29.85   10.56
  -6 -11   2   18.86    9.28
   6 -11   2   16.54    5.89
   6 -11   2   31.29    9.39
  -6 -11  -2   25.76    9.54
   6 -11  -2    6.56    2.58
   6 -11  -2   14.04    5.74
   6 -11   3   63.39   14.35
  -6 -11   3   55.01   13.59
   6 -11   3   59.50   13.35
  -6 -11  -3   56.40   13.54
   6 -11  -3   67.39   15.91
   6 -11  -3   53.97   12.72
   6 -11   4    0.05    2.18
  -6 -11   4    2.52    6.15
  -6 -11  -4    5.47    2.60
   6 -11  -4    4.52    5.54
   6 -11  -4    7.95    6.71
   6 -11  -5    8.60    2.66
  -6 -11   5   -3.47    7.46
  -6 -11  -5    2.05    3.85
   6 -11  -5   -2.32    4.88
   6 -11   5   -6.33    7.94
   6 -11  -6    2.28    3.23
  -6 -11   6   10.76    7.26
  -6 -11  -6    7.11    6.32
   6 -11  -6    9.98    8.23
  -6  11   6   15.93    8.10
   6 -11   6    1.43    4.81
  -6 -11   7    5.76    4.73
   6 -11  -7   12.52    5.32
  -6 -11  -7    0.45    5.83
   6 -11  -7   10.75    5.87
  -6  11   7    8.89    4.00
   6 -11   7   -6.58    6.98
  -6 -11   8   -4.41    6.10
  -6 -11  -8   -6.72    8.10
   6 -11  -8    1.70    4.91
   6 -11  -8    0.58    3.90
  -6  11   8    8.24    8.75
   6 -11   8    1.91    3.91
  -6 -11   9   15.53    5.87
  -6 -11  -9   14.42   10.43
   6 -11  -9   12.90    7.76
  -6  11   9    8.13    3.93
   6 -11  -9    6.87    5.78
   6 -11   9    7.86    6.65
  -6 -11  10   -3.26    3.27
  -6 -11 -10    0.43    4.12
   6 -11 -10   -2.31    5.32
  -6  11  10    5.65    8.07
   6 -11  10    1.65    5.02
   6 -11 -10   -3.06    2.63
  -6 -11  11   -5.08    6.34
  -6 -11 -11   -4.09    4.37
   6 -11 -11    3.00    5.11
   6 -11  11    5.11    3.98
  -6  11  11   -4.56    6.65
   6 -11 -11    6.26    9.04
  -6 -11  12   24.09   10.05
  -6 -11 -12   30.81   12.18
   6 -11  12   33.69   11.96
   6 -11 -12    3.73    4.36
  -6  11  12   27.52   12.42
   6 -11 -12   36.52   10.56
  -6 -11  13   30.35   10.19
   6 -11 -13   17.96    8.13
   6 -11  13   19.29    7.11
  -6 -11 -13   32.28   11.69
  -6  11  13   18.14    8.64
   6 -11 -13   21.57    8.19
  -6 -11  14    0.25    3.52
   6 -11  14    2.81    5.11
   6 -11 -14    5.21    8.29
  -6 -11 -14    2.37    2.97
   6 -11 -14    3.81    3.69
  -6  11  14    7.96    8.73
  -6 -11  15    1.76    4.76
   6 -11  15    3.35    4.11
  -6 -11 -15    2.66    7.08
   6 -11 -15    3.21    6.28
  -6  11  15   -3.55    5.24
   6 -11 -15    4.73    6.93
  -6 -11  16    3.21    4.46
   6 -11  16    2.89    3.42
  -6 -11 -16   15.92    9.90
   6 -11 -16   12.15    8.58
  -6  11  16    5.16    6.73
   6 -11 -16    1.67    3.09
  -6 -11  17   23.66    9.74
   6 -11  17    8.25    6.28
   6 -11 -17   36.37   11.86
  -6  11  17   34.14   12.42
   6 -11 -17   14.15    5.54
  -6 -11  18   25.44   10.19
   6 -11  18   25.07   10.56
   6 -11 -18   16.49    7.92
   6 -11 -18   16.17    8.28
  -6  11  18   14.52   10.06
  -6 -11  19    9.96    7.46
   6 -11  19   -1.08    3.96
   6 -11 -19    6.93    9.93
   6 -11 -19    0.63    6.68
  -6  11  19   -2.81    6.66
  -6 -12   0   14.15    6.54
   6 -12   0   27.90   11.16
   6 -12   0   19.37   10.34
  -6 -12   1   41.73   14.03
  -6 -12  -1   38.86   12.17
   6 -12   1   30.82   10.71
   6 -12   1   45.06   12.89
   6 -12  -1   43.45   11.71
   6 -12  -1   23.02    7.28
   6 -12   2   67.99   15.85
  -6 -12   2   32.74   11.23
  -6 -12  -2   45.65   12.36
   6 -12  -2   66.60   15.39
   6 -12  -2   61.19   15.06
   6 -12   3   42.79   11.19
  -6 -12   3   39.82   13.28
  -6 -12  -3   40.22   12.28
   6 -12  -3   39.23   11.49
   6 -12  -3   54.85   14.51
   6 -12   4   24.54    9.03
  -6 -12   4   23.63    8.87
  -6 -12  -4   24.30   11.47
   6 -12  -4   19.12    7.81
   6 -12  -4   21.46    8.79
  -6 -12   5    9.84    5.28
  -6 -12  -5   13.91    7.11
   6 -12  -5   13.29    7.89
   6 -12  -5   16.93    7.59
   6 -12   5   16.70    7.74
   6 -12  -6    4.49    5.05
  -6 -12   6    5.97    7.90
  -6 -12  -6    0.68    5.50
   6 -12  -6   -2.25    7.15
   6 -12   6    7.38    6.91
   6 -12  -7   10.62    8.70
  -6 -12   7    6.83    8.83
  -6 -12  -7   13.86   10.96
   6 -12  -7   17.41   11.50
   6 -12   7    6.47    6.67
  -6 -12   8   21.47    8.47
   6 -12  -8   21.75    5.12
  -6 -12  -8    9.58    5.64
   6 -12  -8   14.58   10.33
  -6  12   8   26.40   11.67
   6 -12   8   22.61    7.81
  -6 -12   9   43.58   14.21
   6 -12  -9   48.06   13.73
  -6 -12  -9    7.89    7.44
   6 -12  -9   18.90    9.99
  -6  12   9   23.96    9.60
   6 -12   9   32.07   10.69
  -6 -12  10    4.17    8.01
  -6 -12 -10    2.81    3.48
   6 -12 -10    1.47    5.13
   6 -12 -10    3.93    2.71
  -6  12  10    7.48    8.16
   6 -12  10    5.19    2.53
  -6 -12  11  104.63   19.76
  -6 -12 -11   71.20   16.21
   6 -12 -11   77.90   16.22
   6 -12  11   77.34   16.21
  -6  12  11  101.12   19.94
   6 -12 -11   77.59   15.99
  -6 -12  12    3.77    7.03
  -6 -12 -12    4.18   10.00
   6 -12  12    7.05    7.32
   6 -12 -12   -8.57    9.84
  -6  12  12    9.67    4.19
   6 -12 -12   -4.19    5.24
  -6 -12  13    4.65    6.80
   6 -12  13   14.26    6.50
  -6 -12 -13   12.24    3.04
   6 -12 -13   15.66    8.44
  -6  12  13   -1.87    7.68
   6 -12 -13    9.94    7.35
   6 -12 -14   24.63   10.37
  -6 -12  14   21.30    9.79
   6 -12  14    9.35    7.86
  -6 -12 -14   23.89   10.01
   6 -12 -14    9.17    7.84
  -6  12  14   26.19   10.73
  -6 -12  15   -1.62    3.39
   6 -12 -15    8.84    7.42
   6 -12  15   -1.69    4.63
  -6 -12 -15  -12.92    6.50
   6 -12 -15   -0.18    6.13
  -6  12  15    6.77    8.26
  -6 -12  16   44.38   12.94
   6 -12  16   56.78   14.31
   6 -12 -16   43.08   12.30
  -6 -12 -16   64.21   20.51
   6 -12 -16   41.46   14.01
  -6  12  16   58.16   16.70
  -6 -13   0   21.78   11.07
   6 -13   0   47.15   12.10
  -6 -13   1    1.97    3.46
   6 -13   1   -2.34    4.04
  -6 -13  -1   -1.88    2.47
   6 -13  -1    5.40    4.66
   6 -13  -1    5.79    4.96
  -6 -13   2    7.04    6.87
  -6 -13  -2   -5.62    7.82
   6 -13  -2   -7.71    4.80
   6 -13  -2    1.49    2.68
   6 -13   3   10.57    7.08
  -6 -13   3    9.70    7.98
  -6 -13  -3    2.83    3.75
   6 -13  -3    2.79    5.57
   6 -13  -3    1.32    5.90
   6 -13   4   13.06    7.13
  -6 -13   4    5.17    2.49
  -6 -13  -4    7.50    7.64
   6 -13  -4    9.54    8.53
   6 -13  -4    9.87    5.87
  -6 -13   5    0.03    5.53
  -6 -13  -5   -2.92    4.79
   6 -13  -5   -4.70    3.00
   6 -13  -5   -7.88    6.21
   6 -13   5   -2.84    3.51
  -6 -13   6   -2.22    3.95
  -6 -13  -6    3.51    4.38
   6 -13  -6   -7.42    5.35
   6 -13   6   -2.31    4.99
   6 -13  -6    0.80    5.51
   6 -13  -7   10.50    6.42
  -6 -13   7   14.53    7.99
  -6 -13  -7    2.22    3.88
   6 -13  -7   -3.50    8.33
   6 -13   7    1.87    5.36
   6 -13  -8    6.10    7.97
  -6 -13   8    2.66    5.38
  -6 -13  -8   -1.85    3.49
   6 -13  -8    8.74    7.93
   6 -13   8   -1.25    2.48
  -6 -13   9    4.81    3.43
   6 -13  -9   -0.03    4.60
  -6 -13  -9   17.51    9.92
   6 -13  -9   22.05   10.93
   6 -13   9   15.47    5.01
  -6 -13  10    5.19    6.07
   6 -13 -10   -5.32    5.12
  -6 -13 -10    0.12    4.23
   6 -13 -10    2.32    3.93
  -6  13  10   -2.26    6.09
   6 -13  10   16.48    7.94
  -6 -13  11   18.26    6.86
  -6 -13 -11   11.26    7.14
   6 -13 -11   31.71   12.46
   6 -13 -11   14.87    9.98
  -6  13  11    8.83    6.69
   6 -13  11   17.70    6.03
  -6 -13  12    1.43    7.05
  -6 -13 -12    0.58    4.65
   6 -13 -12   -9.64    8.20
   6 -13  12    4.02    4.87
  -6  13  12    6.02    6.38
   6 -13 -12  -11.13    9.90
  -6 -13  13    1.19    6.63
  -6 -13 -13   11.92    6.88
   6 -13  13    0.05    4.08
   6 -13 -13    0.98    6.06
   6 -13 -13    7.04    9.05
  -6  13  13  -12.82   10.06
  -6 -14   0   75.99   16.47
   6 -14   0   75.93   16.10
   6 -14   1   -1.57    3.13
  -6 -14   1   -1.06    4.64
  -6 -14  -1   -1.77    7.11
   6 -14  -1   -1.34    2.78
   6 -14   2   13.19    6.86
  -6 -14   2    2.44    4.05
  -6 -14  -2    8.43    8.04
   6 -14  -2   16.37    8.60
  -6 -14   3   89.73   18.58
   6 -14   3   85.19   18.09
  -6 -14  -3   44.51   13.03
   6 -14  -3   55.86   14.62
  -6 -14   4   47.71   13.92
  -6 -14  -4   32.04   11.18
   6 -14  -4   25.89    9.95
   6 -14  -4   35.78   11.36
   6 -14   4   45.82   12.27
  -6 -14   5    1.05    2.91
  -6 -14  -5   -0.68    3.54
   6 -14  -5   10.86   10.12
   6 -14  -5   -4.91    7.30
   6 -14   5   -3.47    2.89
  -6 -14   6    6.98    3.65
  -6 -14  -6   15.54    8.14
   6 -14  -6    3.45    7.28
   6 -14  -6   13.64    7.76
   6 -14   6   13.38   10.00
  -6 -14   7   44.87   12.41
  -6 -14  -7   44.93   13.33
   6 -14  -7   48.01   14.99
   6 -14   7   41.51   11.98
   6 -14  -7   29.01   11.57
  -6 -14   8   37.32   12.29
  -6 -14  -8   31.48   11.05
   6 -14  -8   46.61   15.36
   6 -14   8   47.36   12.92
   6 -14  -8   34.52   11.30
   6 -14  -9    6.90    5.85
  -6 -14   9    5.07    6.06
  -6 -14  -9   10.07   11.15
   6 -14  -9    0.32    4.84
   6 -14   9    7.19    6.89
   7   0   0    0.11    2.33
  -7   0   0    6.29    5.29
   7   0   1   -1.37    1.01
   7   0  -1    1.02    1.16
  -7   0   1    0.72    1.73
  -7   0   2 1042.86   48.70
   7   0  -2 1034.41   31.14
   7   0   3   -0.97    2.44
  -7   0   3   -1.50    2.86
   7   0  -3    1.98    1.73
   7   0  -4  555.56   23.52
  -7   0   4  539.64   34.87
   7   0   4  613.42   29.03
   7   0  -5   -0.30    1.98
  -7   0   5   -3.39    2.97
   7   0   5    4.77    3.47
   7   0   6  133.39   14.87
  -7   0   6  145.57   18.75
   7   0  -6  130.17   11.68
   7   0  -7   -1.50    2.14
  -7   0   7   -1.65    1.91
   7   0   7   -0.32    1.90
   7   0   8  550.61   31.49
  -7   0   8  532.49   35.73
  -7   0   9   -1.26    3.56
   7   0   9    2.28    3.41
   7   0  10   79.28   12.19
  -7   0  10   94.08   15.45
  -7   0  11   -2.60    6.27
   7   0  11   -1.28    4.85
   7   0  12  169.73   19.46
  -7   0  12  131.29   18.54
  -7   0  13   -0.68    6.10
   7   0  13    4.66    6.29
   7   0  14  843.83   46.57
  -7   0  14  761.24   45.95
   7   0  15   -4.12    3.72
  -7   0  15    7.38    7.20
   7   0  16  603.81   40.40
  -7   0  16  618.92   41.70
   7   0  17    1.48    2.96
  -7   0  17   -1.81    4.12
   7   0  18   56.95   12.11
  -7   0  18   77.13   15.22
   7   0  19    5.62    4.90
  -7   0  19   -2.17    2.50
   7   0  20   98.77   16.29
  -7   0  20  117.60   19.23
   7   0  20  125.93   19.25
   7   0  21    6.65    6.61
  -7   0  21    9.07    5.24
   7   0  21   -3.01    3.23
   7   0  22   53.10   13.26
  -7   0  22   41.18   13.03
   7   0  22   54.54   14.01
   7   0  23    2.00    6.02
  -7   0  23   -2.15    6.33
   7   0  23   -2.99    4.33
   7   0  24  142.59   22.14
  -7   0  24  117.20   19.70
   7   0  24  111.83   21.02
   7   0  25    7.35    3.99
  -7   0  25   -6.38    5.58
   7   0  25    1.49    6.44
   7   0  26   73.57   15.32
  -7   0  26   86.34   18.40
   7   0  26   80.30   17.97
   7   0  27    7.11    3.74
  -7   0  27    1.60    6.38
   7   0  27    4.36    4.31
  -7   1   0    4.89    5.25
  -7  -1   0    1.74    2.39
   7  -1   0    2.31    2.35
   7   1   0   -0.55    1.41
   7  -1  -1  259.46   18.17
   7   1   1  211.17   13.49
  -7  -1   1  212.98   21.09
  -7   1   1  205.89   21.63
   7   1  -1  174.97   11.40
   7  -1   1  259.67   18.38
   7  -1  -2  357.16   21.44
   7   1   2  414.43   20.00
  -7   1   2  361.77   30.17
   7  -1   2  401.62   23.59
   7  -1  -3  156.22   14.62
   7   1   3  177.77   14.05
  -7   1   3  170.30   19.92
  -7  -1   3  205.92   21.20
   7  -1   3  167.50   15.82
   7   1   4   74.92   10.35
   7  -1  -4  120.70   12.47
  -7   1   4   94.23   15.01
  -7  -1   4  105.42   14.63
   7  -1   4   83.20   11.63
   7  -1   5   -1.05    1.92
  -7   1   5   -5.30    5.48
  -7  -1   5    9.38    4.17
   7  -1  -5    1.97    3.37
   7   1   5    3.31    2.94
   7   1   6  359.47   23.62
  -7  -1   6  357.84   28.59
   7  -1   6  360.73   25.10
   7  -1  -6  330.17   21.63
   7  -1   7   19.17    7.18
   7  -1  -7   12.93    5.23
  -7   1   7   12.78    4.64
  -7  -1   7   20.61    7.63
   7   1   7    4.49    1.76
   7   1   8  297.11   23.41
  -7   1   8  320.28   28.34
   7  -1   8  294.90   23.96
  -7  -1   8  318.81   26.70
   7  -1  -8  258.28   20.48
   7  -1  -9  217.09   18.27
   7   1   9  233.22   20.77
   7  -1   9  275.76   23.14
  -7   1   9  236.78   24.16
  -7  -1   9  233.53   23.73
   7  -1 -10   19.48    5.48
   7   1  10   27.31    7.64
  -7  -1  10   31.55    9.78
   7  -1  10   17.78    6.53
   7  -1  11  250.18   23.30
   7  -1 -11  255.26   20.74
  -7   1  11  250.13   25.23
  -7  -1  11  266.10   25.72
   7  -1  12  484.46   34.56
  -7   1  12  507.98   36.47
  -7  -1  12  475.38   34.84
   7   1  13   15.85    6.25
  -7   1  13   12.40    7.09
  -7  -1  13   23.45    7.38
   7  -1  13    6.10    3.83
   7   1  14   81.56   13.74
   7  -1  14   81.18   14.98
  -7   1  14  102.98   16.17
  -7  -1  14   97.52   16.54
   7   1  15    0.02    2.92
  -7   1  15   -2.01    4.41
  -7  -1  15   -1.58    2.20
   7  -1  15   -0.31    3.73
   7   1  16   -7.03    6.01
  -7   1  16   -0.90    5.59
  -7  -1  16    0.64    1.71
   7  -1  16    4.16    6.32
   7   1  17   18.71    7.49
  -7   1  17   11.33    3.70
   7  -1  17   13.22    5.05
  -7  -1  17   13.60    6.03
   7   1  18    4.80    6.53
   7  -1  18    9.43    5.13
  -7   1  18    5.09    3.64
  -7  -1  18   -3.39    5.73
   7   1  19    1.36    2.34
   7  -1  19    2.97    3.58
  -7   1  19   -2.15    2.53
  -7  -1  19    9.87    4.58
   7   1  19    3.98    7.23
   7   1  20   -6.53    4.64
   7  -1  20    4.12    5.81
  -7   1  20    3.56    7.31
  -7  -1  20    8.55    3.56
   7   1  20    9.95    9.02
   7   1  21   10.95    6.17
   7  -1  21    8.82    5.41
  -7   1  21   11.91    7.64
  -7  -1  21    0.41    3.68
   7   1  21    0.93    6.35
   7  -1  21    3.88    6.32
   7   1  22    2.77    6.27
   7  -1  22    2.69    4.35
  -7   1  22   -1.88    4.13
  -7  -1  22    2.28    4.97
   7   1  22    1.45    3.22
   7  -1  22   -1.38    2.93
   7   1  23    3.45    5.34
   7  -1  23   -1.37    5.67
  -7   1  23   14.01    9.33
  -7  -1  23    4.83    6.92
   7   1  23    3.46    3.13
   7  -1  23    1.95    6.13
   7   1  24   -5.18    7.09
   7  -1  24    0.78    3.74
  -7   1  24   -0.13    2.60
  -7  -1  24   -1.89    5.12
   7   1  24    5.31    4.47
   7  -1  24   -3.76    4.02
   7   1  25    0.42    4.81
   7  -1  25    6.69    2.44
  -7   1  25    7.46    4.86
  -7  -1  25    5.14    6.01
   7   1  25   -8.13    7.65
   7  -1  25    3.90    3.60
   7   1  26   -4.11    3.68
   7  -1  26    3.55    6.97
  -7   1  26   -0.20    5.84
  -7  -1  26    0.29    5.01
   7   1  26   10.98    9.50
   7  -1  26    7.72    6.67
   7   1  27    4.42    6.36
   7  -1  27    2.74    7.09
  -7   1  27   10.76    2.84
  -7  -1  27    2.49    5.55
   7   1  27    6.19    7.16
   7  -1  27   -1.36    5.77
  -7   2   0   -1.07    2.34
   7  -2   0   -0.17    2.19
   7  -2   1  448.17   26.89
   7  -2  -1  423.34   26.06
  -7  -2   1  433.81   29.53
  -7   2   1  410.69   31.15
   7   2   2   74.74    7.63
   7  -2  -2   99.20   12.36
  -7   2   2  103.15   16.73
  -7  -2   2   99.82   14.03
   7  -2   2  105.71   13.08
   7   2   3   95.44    9.43
   7  -2  -3   90.02   12.21
  -7  -2   3  104.32   15.04
  -7   2   3   57.44   11.49
   7  -2   3   88.01   12.53
   7  -2   4   -0.96    2.96
   7   2   4    2.84    2.17
  -7   2   4    0.66    4.35
  -7  -2   4    3.69    4.29
   7  -2  -4    3.15    3.62
   7  -2  -4    2.74    2.26
   7   2   5 1317.55   39.97
  -7   2   5 1266.30   55.55
  -7  -2   5 1117.50   48.93
   7  -2  -5 1114.84   36.51
   7  -2  -5 1114.79   43.24
   7  -2   5 1205.64   46.56
   7  -2  -6   27.68    7.02
   7   2   6   57.47    9.17
   7  -2   6   37.72    9.14
  -7   2   6   45.66    9.47
  -7  -2   6   46.69    9.93
   7   2   7  194.16   16.99
  -7  -2   7  220.87   21.90
   7  -2   7  231.07   21.38
   7  -2  -7  216.31   19.47
   7  -2   8   49.22    9.70
   7   2   8   71.88   11.00
  -7   2   8   54.44   11.29
  -7  -2   8   28.45    7.71
   7  -2  -8   47.61    8.99
   7  -2   9    6.22    6.09
   7  -2  -9    2.87    2.22
   7   2   9    0.25    2.98
  -7   2   9    3.96    3.20
  -7  -2   9   -1.67    3.67
   7   2  10  272.27   22.88
   7  -2 -10  299.05   24.00
  -7   2  10  308.13   28.35
  -7  -2  10  356.20   28.47
   7   2  11   74.68   12.31
   7  -2 -11   72.97   11.81
   7  -2  11   78.97   14.52
  -7   2  11   62.03   10.86
  -7  -2  11   69.22   13.29
   7   2  12   19.94    6.93
  -7   2  12   22.74    8.09
  -7  -2  12   29.97    9.05
   7  -2  12   23.26    7.81
   7   2  13  194.73   21.82
   7  -2  13  212.63   23.18
  -7   2  13  262.23   27.15
  -7  -2  13  198.02   22.43
   7   2  14    1.20    2.97
  -7   2  14   -0.16    4.30
  -7  -2  14   -1.49    3.25
   7  -2  14    4.30    2.33
  -7   2  15   53.12   12.94
  -7  -2  15   51.40   11.60
   7  -2  15   59.65   13.29
   7   2  16  108.92   17.25
   7  -2  16  112.16   17.43
  -7   2  16  122.79   19.67
  -7  -2  16  151.18   20.94
   7   2  17   32.98    9.49
  -7   2  17   52.63   14.34
  -7  -2  17   51.66   13.12
   7  -2  17   43.65   11.42
   7   2  17   47.49   11.80
   7   2  18   -1.03    3.01
  -7   2  18    0.38    3.61
  -7  -2  18   -6.65    6.56
   7   2  18    1.79    2.68
   7   2  19  285.57   29.21
   7  -2  19  259.60   28.87
  -7   2  19  240.44   27.53
  -7  -2  19  253.79   27.40
   7   2  19  197.16   24.65
   7   2  20  155.59   22.67
   7  -2  20  185.65   24.10
  -7   2  20  159.91   23.58
  -7  -2  20  181.75   23.99
   7   2  20  214.85   26.23
   7   2  21    1.90    6.28
   7  -2  21   15.31    8.98
  -7   2  21   -1.69    5.41
  -7  -2  21    7.56    7.34
   7   2  21    7.29    7.96
   7   2  22    2.35    5.19
   7  -2  22    3.26    3.25
  -7   2  22   -2.91    2.36
  -7  -2  22    0.74    4.32
   7   2  22   -2.21    3.66
   7  -2  22   -0.47    3.84
   7   2  23  138.24   22.77
   7  -2  23  116.18   18.86
  -7   2  23  104.74   18.55
  -7  -2  23  128.45   20.59
   7   2  23  120.83   20.16
   7  -2  23  107.38   19.85
   7   2  24   -3.33    7.41
   7  -2  24    2.21    4.28
  -7   2  24    0.11    6.26
  -7  -2  24    2.06    3.76
   7   2  24   17.69    8.94
   7  -2  24   15.15    9.69
   7   2  25   -3.06    3.70
   7  -2  25   13.63    8.39
  -7   2  25    8.63    5.44
  -7  -2  25    9.39    5.93
   7   2  25    4.82    8.65
   7  -2  25    3.45    4.97
   7   2  26   16.03    7.20
   7  -2  26   -0.51    3.89
  -7   2  26    1.20    5.74
  -7  -2  26   16.90    8.72
   7   2  26   -2.53    7.14
   7  -2  26   15.32    9.61
   7   2  27   20.68   10.02
   7  -2  27   -0.66    3.73
  -7   2  27    0.49    4.21
  -7  -2  27   14.92    9.28
   7   2  27    8.32    3.69
   7  -2  27    2.55    5.13
   7  -3   0    2.15    2.93
  -7   3   0   -1.58    3.38
   7  -3  -1   37.03    8.04
  -7  -3   1   48.63    9.99
  -7   3   1   33.60   10.09
   7  -3   1   31.35    7.64
   7  -3  -2   23.26    6.77
  -7   3   2   25.34    8.67
   7  -3   2   38.11    8.47
  -7  -3   2   25.47    7.39
  -7   3   3    1.02    2.06
  -7  -3   3    1.20    1.39
   7  -3  -3    4.03    2.83
   7  -3   3    2.20    1.47
   7  -3  -4   53.92    7.64
  -7   3   4   45.15   10.63
  -7  -3   4   59.27   11.37
   7  -3  -4   49.21    9.91
   7  -3   4   60.92   11.30
  -7  -3   4   50.94    9.22
   7  -3  -5  580.58   27.66
  -7   3   5  661.03   41.33
  -7  -3   5  659.27   36.59
   7  -3  -5  659.75   35.78
   7  -3   5  663.31   35.94
  -7  -3   5  514.46   29.64
   7   3   5  546.62   26.45
   7  -3  -6    2.27    2.34
   7   3   6    5.32    3.45
   7  -3   6   -0.70    2.16
  -7   3   6   10.80    5.01
  -7  -3   6    2.48    3.57
   7  -3  -6    3.26    1.32
   7   3   7  118.90   13.46
  -7   3   7  127.11   18.52
  -7  -3   7  117.31   15.88
   7  -3  -7   96.98   12.58
   7  -3   7   91.01   13.28
   7  -3  -7  114.66   15.11
   7  -3  -8   99.41   14.05
   7   3   8   78.88   11.98
  -7   3   8  103.88   16.11
  -7  -3   8   98.23   14.28
   7  -3  -8   82.09   11.70
   7  -3   8   99.13   14.81
   7   3   9  124.26   15.28
   7  -3  -9   96.18   13.59
  -7   3   9  122.15   17.95
  -7  -3   9  105.45   16.06
   7  -3   9   82.42   13.92
   7  -3  10    2.01    2.08
   7   3  10    8.72    5.64
  -7   3  10    5.88    5.05
  -7  -3  10   -4.87    3.61
   7  -3 -10   -1.50    3.59
   7   3  11  225.12   21.47
   7  -3 -11  163.10   18.69
  -7   3  11  188.68   22.78
  -7  -3  11  173.76   20.73
   7  -3  11  216.47   22.19
   7   3  12  116.21   15.46
  -7   3  12   96.17   16.38
   7  -3 -12  121.22   15.78
   7  -3  12  105.45   16.97
  -7  -3  12  118.52   17.44
   7   3  13   46.26   10.94
  -7   3  13   46.77   11.57
  -7  -3  13   48.27   12.54
   7  -3  13   24.77    7.03
   7   3  14   16.94    5.85
  -7   3  14    4.93    7.67
  -7  -3  14    0.46    2.93
   7  -3  14    6.40    5.04
   7   3  15   22.21    6.64
  -7   3  15   50.99   12.56
  -7  -3  15   40.15   10.92
   7  -3  15   31.16   10.57
   7   3  15   43.79   12.04
   7   3  16   11.97    7.18
  -7   3  16   11.03    4.80
  -7  -3  16    1.44    5.63
   7  -3  16    7.32    5.60
   7   3  16    9.60    3.11
   7   3  17    8.49    4.15
  -7   3  17    4.43    5.02
  -7  -3  17    6.94    1.84
   7   3  18   -0.33    3.51
  -7   3  18    9.06    8.30
  -7  -3  18    4.25    5.77
   7  -3  18    0.79    2.90
   7   3  18    4.04    5.75
   7   3  19    2.83    2.39
  -7   3  19   -0.02    4.54
  -7  -3  19    4.84    3.48
   7  -3  19   -0.24    5.52
   7   3  19   11.71    8.38
   7   3  20   -5.13    5.95
  -7   3  20    8.19    6.83
  -7  -3  20   -0.28    3.71
   7  -3  20   -3.02    2.89
   7   3  20   -4.62    6.35
   7   3  21   -4.97    7.15
  -7   3  21   -0.26    3.99
  -7  -3  21   -0.34    2.64
   7  -3  21   -0.54    5.11
   7   3  21    0.87    4.46
   7   3  22   -1.53    3.25
  -7   3  22    0.66    4.87
   7  -3  22   12.67    9.85
  -7  -3  22    1.11    4.11
   7   3  22   -0.76    3.54
   7   3  23   14.09    8.19
   7  -3  23   -7.03    4.43
  -7   3  23    5.74    5.95
  -7  -3  23    2.75    3.63
   7   3  23   16.73    8.39
   7  -3  23   17.05    6.57
   7   3  24   23.43   10.32
   7  -3  24   31.83   11.82
  -7   3  24   17.39    8.57
  -7  -3  24   13.86    8.92
   7   3  24   16.26    5.94
   7  -3  24   40.02   13.62
   7  -3  25   -7.88    5.23
  -7   3  25   -1.78    6.31
  -7  -3  25    6.14    2.68
   7  -3  25   -3.57    4.97
   7   3  26   -0.49    4.85
   7  -3  26    3.69    5.88
  -7   3  26   -0.45    7.08
  -7  -3  26    0.12    2.54
   7  -3  26    4.56    7.98
   7  -4   0    5.21    4.95
   7  -4   1  130.84   16.69
   7  -4  -1  128.41   15.82
  -7   4   1  180.21   21.18
  -7  -4   2  516.31   29.52
   7  -4   2  555.69   33.03
   7  -4  -2  496.00   31.80
  -7  -4   2  460.72   28.55
  -7   4   2  556.88   38.30
  -7  -4   3    8.32    4.27
  -7  -4   3   -0.84    4.27
   7  -4  -3    5.28    2.18
   7  -4   3    5.28    3.92
   7  -4   4  667.06   36.30
  -7  -4   4  612.14   32.88
   7  -4  -4  584.29   28.22
  -7   4   4  696.47   43.27
  -7  -4   4  715.41   37.38
   7  -4  -4  623.03   36.26
   7  -4  -5  132.19   14.07
  -7   4   5  128.96   18.48
  -7  -4   5  125.03   15.69
   7  -4  -5  124.47   16.44
   7  -4   5  144.55   17.41
  -7  -4   5  135.15   15.81
   7  -4  -6   76.40   10.69
  -7   4   6   92.38   15.29
  -7  -4   6  101.85   14.66
   7  -4  -6   77.39   14.13
   7  -4   6   94.89   14.19
  -7  -4   6   90.67   13.86
  -7  -4   7   24.88    6.96
   7  -4   7   56.82   11.30
   7  -4  -7   14.95    5.36
  -7   4   7   44.06   11.66
  -7  -4   7   30.62    7.99
   7  -4  -7   31.58    7.15
   7  -4  -8  139.63   17.91
   7  -4  -8  141.46   16.98
  -7   4   8  138.55   19.88
  -7  -4   8  149.43   17.78
   7  -4   8  151.14   18.52
   7   4   8  109.40   13.97
  -7  -4   8  103.20   14.71
   7  -4  -9  184.05   19.85
  -7   4   9  219.13   24.46
   7  -4  -9  175.85   18.62
  -7  -4   9  176.14   20.25
   7  -4   9  202.65   21.67
   7   4   9  126.79   14.81
   7  -4  10    9.86    5.01
   7   4  10    3.05    2.72
  -7   4  10    3.23    3.53
  -7  -4  10    9.95    5.78
   7  -4 -10    8.31    4.28
   7  -4 -10    3.67    3.78
   7  -4  11    0.56    5.07
   7   4  11    0.66    3.74
   7  -4 -11    5.52    6.57
  -7   4  11    1.50    3.53
  -7  -4  11    3.97    4.65
   7  -4 -11    4.48    4.68
   7  -4  12    7.53    5.33
   7   4  12   16.79    5.95
  -7   4  12   13.78    6.88
  -7  -4  12    0.67    2.74
   7  -4 -12    9.52    4.56
   7  -4 -12   -0.22    2.79
  -7   4  13  195.98   24.07
  -7  -4  13  192.85   22.97
   7  -4  13  225.59   25.16
   7  -4 -13  148.47   20.36
   7  -4 -13  178.55   21.00
   7   4  13  172.78   20.06
   7   4  13  136.06   18.37
   7  -4  14    6.10    3.28
   7   4  14   -4.49    5.11
  -7   4  14    6.64    3.28
  -7  -4  14    6.85    6.17
   7   4  14   14.90    8.86
   7   4  15   12.12    5.91
  -7   4  15   11.81    6.98
  -7  -4  15   10.91    7.25
   7   4  15    7.26    4.52
   7  -4  15   14.28    6.83
   7   4  16   79.02   13.56
  -7   4  16   77.92   14.36
  -7  -4  16   64.59   13.65
   7  -4  16   85.18   15.09
   7   4  16   72.17   14.40
   7   4  17   68.25   14.04
   7  -4  17   81.55   15.91
  -7   4  17   45.46   11.84
  -7  -4  17   71.12   14.93
  -7   4  17   49.82   11.85
   7   4  18   67.18   13.78
  -7   4  18   71.51   15.87
  -7  -4  18   57.79   13.24
  -7   4  18   73.67   14.10
   7  -4  18   59.79   14.17
   7   4  19   27.48    9.99
  -7   4  19   41.68   11.88
  -7  -4  19   32.36    9.90
  -7   4  19   57.85   16.10
   7  -4  19   20.64    7.71
   7   4  20   97.11   16.77
   7  -4  20  121.41   19.33
  -7   4  20   96.25   17.79
  -7  -4  20   88.89   18.10
   7   4  21    3.40    5.47
  -7   4  21   22.58    8.67
  -7  -4  21   25.20    9.78
   7  -4  21   14.72    8.86
   7   4  22    5.20    4.93
  -7   4  22   11.39    3.04
  -7  -4  22    5.22    5.15
   7  -4  22    9.94    6.10
   7   4  23   -0.32    6.37
  -7   4  23    2.66    5.68
   7  -4  23    7.01    6.89
  -7  -4  23    8.57    6.98
   7  -4  23   -3.58    5.62
   7   4  24    4.90    2.82
  -7   4  24   17.09    6.06
   7  -4  24   32.26   10.53
  -7  -4  24   13.00   10.98
   7  -4  24   23.48    6.71
   7   4  25    5.05    5.84
   7  -4  25    9.00    7.46
  -7   4  25   14.76    7.62
  -7  -4  25   -1.71    6.03
   7  -4  25   -1.07    7.56
   7   4  26   26.27   10.13
   7  -4  26   30.05   11.82
  -7   4  26   14.16    5.44
  -7  -4  26   -0.09    6.03
   7  -4  26    6.07    5.73
   7  -5   0   -1.32    1.80
   7  -5   1   -4.00    4.61
  -7  -5   1    7.71    4.86
  -7   5   1    2.06    2.59
  -7  -5   2   17.48    6.40
  -7   5   2   11.87    5.07
   7  -5  -2   20.07    7.97
   7  -5   2   22.27    8.80
  -7  -5   3   47.01   10.13
  -7   5   3   41.40   11.64
   7  -5  -3   57.18   11.41
   7  -5   3   43.90   10.25
  -7  -5   4   26.21    7.11
   7  -5  -4   19.17    5.71
  -7   5   4   24.43    6.91
   7  -5   4   14.53    2.66
   7  -5  -4   24.46    7.66
   7  -5  -5    8.66    2.49
  -7  -5   5   15.00    5.95
   7  -5  -5   10.90    5.17
  -7   5   5    9.04    7.80
   7  -5   5   10.92    4.97
  -7  -5   6  112.63   15.46
   7  -5  -6  101.20   13.55
  -7   5   6  117.19   18.78
   7  -5  -6   85.53   14.47
   7  -5   6   94.20   14.85
   7  -5  -7  123.24   15.58
  -7   5   7  124.90   18.58
   7  -5   7  142.92   18.42
   7  -5  -7  142.90   18.07
  -7  -5   7  114.08   16.11
  -7  -5   8    2.48    2.12
   7  -5   8   -0.17    2.40
  -7   5   8   -1.34    3.52
   7  -5  -8    0.94    2.00
   7  -5  -8    2.90    1.83
  -7  -5   9   -3.85    4.47
   7  -5  -9   -0.81    4.11
   7  -5   9    2.72    3.94
  -7   5   9    4.91    5.17
   7  -5  -9   -2.62    4.74
  -7  -5  10    9.18    6.35
   7  -5  10   -0.68    3.55
   7  -5 -10   10.59    6.25
  -7   5  10    9.63    7.02
  -7  -5  10   -3.11    2.76
   7  -5 -10    4.42    5.32
   7   5  11   30.51    8.88
   7  -5  11   29.73    8.36
  -7  -5  11   49.58   13.27
  -7   5  11   42.79   12.00
   7  -5 -11   35.46    9.27
   7  -5 -11   43.46   10.29
  -7  -5  11   29.16    8.33
   7  -5  12   20.18    7.01
   7  -5 -12   17.51    7.08
  -7   5  12   11.67    3.49
  -7  -5  12   25.60   10.09
   7  -5 -12    9.12    5.75
   7  -5 -13    5.32    6.30
   7  -5  13   -2.41    2.89
   7   5  13    2.22    2.64
  -7   5  13   -0.69    4.68
  -7  -5  13   -1.10    3.83
   7  -5 -13    2.07    4.57
   7  -5  14    7.89    6.75
   7   5  14    5.51    3.01
  -7   5  14   -1.33    4.00
   7  -5 -14   22.80    7.19
  -7  -5  14   14.37    5.84
   7  -5 -14   26.75   10.50
   7  -5  15   35.38    9.35
   7   5  15   35.81   10.14
  -7   5  15   23.10   10.21
  -7  -5  15    5.60    5.10
   7  -5 -15   23.10    9.19
   7   5  16   38.99   10.60
  -7   5  16   27.55    9.01
  -7  -5  16   33.16    7.65
   7  -5 -16   38.06   11.21
   7  -5  16   12.03    5.27
   7   5  17    3.40    2.75
  -7   5  17    8.00    3.54
  -7  -5  17   17.43    7.13
   7  -5 -17   -5.85    7.79
   7  -5  17   12.06    7.93
   7   5  18    2.20    5.10
  -7   5  18   -7.43    8.10
  -7  -5  18    0.45    4.20
   7  -5 -18   -1.80    2.82
   7  -5  18    1.88    3.39
   7   5  19   13.53    9.55
  -7   5  19    0.79    3.63
  -7  -5  19   20.22    9.06
   7  -5 -19    0.63    2.44
  -7   5  19   -1.95    4.66
   7  -5  19   -3.97    2.04
   7   5  20   -0.26    4.66
  -7   5  20   22.99   11.00
  -7  -5  20   27.72   11.18
   7  -5 -20    2.34    7.64
  -7   5  20   10.28    7.68
   7  -5  20    9.00    5.91
   7   5  21    5.24    4.68
  -7   5  21    4.52    6.52
  -7  -5  21   -0.27    3.95
   7  -5 -21    6.13    8.11
  -7   5  21    9.28    6.44
   7  -5  21   -0.62    5.13
   7   5  22   24.68    7.61
  -7   5  22    3.80    6.22
  -7  -5  22   29.96   11.96
   7  -5 -22   30.73   10.91
   7  -5  22   34.73   10.76
   7   5  23   13.67    7.16
  -7   5  23   13.70    7.94
  -7  -5  23   18.32   11.07
   7  -5 -23   10.46    5.77
   7  -5  23    9.99    5.69
   7   5  24   36.96   11.18
  -7   5  24   35.72   14.44
  -7  -5  24   19.96    9.47
   7  -5 -24   36.44   11.80
   7  -5  24   36.14   11.28
   7  -5  24   25.94   10.73
   7   5  25    4.19    3.81
  -7   5  25    3.15    4.85
   7  -5  25    2.28    2.39
  -7  -5  25  -10.03    7.05
   7  -5 -25    5.87    6.29
   7  -5  25    4.71    5.70
  -7  -6   0   -0.43    5.25
   7  -6   0   -2.42    3.38
  -7  -6   1  310.28   25.92
  -7  -6  -1  320.00   27.03
   7  -6   1  334.81   28.46
   7  -6  -1  343.08   28.82
  -7  -6   2  345.61   27.71
   7  -6   2  334.98   28.47
  -7   6   2  381.27   32.26
   7  -6  -2  350.73   29.29
  -7  -6   3   -0.67    3.57
  -7   6   3    0.46    2.02
   7  -6  -3    2.70    3.06
   7  -6   3    0.38    2.76
  -7  -6   4    1.90    3.72
  -7   6   4   -0.20    5.11
   7  -6   4   -8.33    6.41
   7  -6  -4    0.10    4.19
  -7  -6   5  365.06   29.52
   7  -6   5  434.49   31.92
   7  -6  -5  386.89   27.38
   7  -6  -5  435.64   33.63
  -7  -6   6    0.88    4.13
   7  -6  -6    0.91    2.84
   7  -6  -6    3.01    4.40
  -7   6   6   -1.98    2.96
   7  -6   6    2.91    2.69
  -7  -6   7   79.36   13.82
   7  -6  -7   88.34   13.55
  -7   6   7   81.39   16.10
   7  -6  -7  117.26   17.71
   7  -6   7   97.71   15.23
  -7  -6   8   16.37    5.84
   7  -6   8   18.16    6.79
  -7   6   8    4.49    5.42
   7  -6  -8   12.30    3.24
   7  -6  -8   13.80    4.70
  -7  -6   9   39.02   10.30
   7  -6   9   53.51   12.34
  -7   6   9   54.26   13.04
   7  -6  -9   48.74    9.16
   7  -6  -9   46.88   10.91
   7  -6 -10  168.43   21.83
   7  -6 -10  203.26   21.86
  -7   6  10  203.74   24.79
   7  -6  10  165.51   20.92
  -7  -6  10  200.41   23.35
  -7  -6  11   17.65    7.15
   7  -6  11   45.43   10.78
  -7   6  11   20.16    8.96
   7  -6 -11   18.51    6.39
   7  -6 -11   34.71    9.70
   7  -6 -12  311.14   28.72
   7  -6 -12  301.08   28.98
  -7   6  12  294.50   30.62
   7  -6  12  350.49   30.68
  -7  -6  12  314.41   30.29
   7  -6 -13  112.88   17.66
   7  -6 -13  107.89   16.80
  -7   6  13  114.84   19.69
   7  -6  13  102.17   16.64
  -7  -6  13  107.55   18.74
   7  -6  14   -0.86    4.11
  -7   6  14  -12.48    5.63
   7  -6 -14   -4.73    7.16
   7  -6 -14   -4.76    4.70
   7  -6  15   -0.23    2.89
   7   6  15    8.60    6.24
   7  -6 -15    8.94    6.13
  -7   6  15    4.91    4.74
   7  -6 -15    5.39    4.21
   7   6  16   58.07   12.33
  -7   6  16   96.78   19.49
   7  -6  16   95.82   17.84
   7  -6 -16   70.83   14.09
   7  -6  17   20.27    8.13
   7   6  17   27.03    9.23
  -7   6  17   12.79    8.59
   7  -6 -17    4.28    6.17
   7   6  18    9.90    4.62
  -7   6  18   12.05    8.17
   7  -6 -18    5.93    2.65
   7  -6  18   11.66    8.30
   7   6  19   10.02    4.98
   7  -6 -19   12.45    6.62
   7  -6  19   14.23    6.90
   7   6  20   44.66   12.19
  -7   6  20   57.49   14.89
   7  -6 -20   45.48   14.66
   7  -6  20   65.61   14.78
   7   6  21    6.34    7.88
  -7   6  21    9.34    6.66
   7  -6 -21    4.11    7.07
   7  -6  21   -0.53    3.73
   7   6  22   14.78    2.62
  -7   6  22    5.39    4.93
   7  -6 -22   23.92    7.48
  -7   6  22   11.25    5.92
   7  -6  22    9.62    6.76
   7   6  23   24.93    9.19
  -7   6  23   36.66   13.13
   7  -6 -23   21.12    8.71
  -7   6  23   38.88   12.83
   7  -6  23   21.63    8.90
   7   6  24   16.96   10.96
  -7   6  24   18.33   12.29
   7  -6 -24   -8.18    6.23
  -7   6  24    1.41    7.40
   7  -6  24    6.80    6.54
   7  -6  24   -8.51    9.21
  -7  -7   0    0.02    1.78
   7  -7   0    1.46    1.90
  -7  -7   1    1.71    2.02
   7  -7   1    1.74    2.46
  -7  -7  -1   -2.82    4.74
   7  -7  -1    3.18    5.92
  -7  -7   2   54.42   11.40
  -7  -7  -2   46.03   11.30
   7  -7   2   82.78   14.42
  -7   7   2   75.16   14.54
   7  -7  -2   66.16   12.99
  -7  -7   3   99.29   15.89
  -7  -7  -3  121.63   17.47
   7  -7   3   98.07   15.62
  -7   7   3  116.14   18.36
   7  -7  -3  129.47   18.08
  -7  -7   4    1.30    5.00
  -7   7   4   -2.73    5.49
   7  -7   4    1.35    4.21
   7  -7  -4   -3.37    5.16
   7  -7  -5   48.66   11.80
  -7  -7   5   30.11    9.11
   7  -7  -5   31.95    8.75
  -7   7   5   34.29   11.25
   7  -7   5   25.62    8.11
  -7  -7   6    6.73    6.25
   7  -7  -6    6.78    5.60
   7  -7  -6    1.82    2.96
  -7   7   6   -2.62    4.15
   7  -7   6    0.58    3.00
  -7  -7   7    5.63    3.01
   7  -7  -7   10.06    8.03
   7  -7  -7    4.62    2.05
   7  -7   7    9.07    5.55
  -7  -7   8   -5.13    6.33
   7  -7   8   -5.63    4.49
   7  -7  -8    1.25    4.71
  -7   7   8   -3.08    2.96
   7  -7  -8   -0.68    3.31
  -7  -7   9   89.49   16.05
   7  -7   9   69.54   13.57
  -7   7   9   39.39   11.18
   7  -7  -9   69.60   13.05
   7  -7  -9   43.35   11.83
   7  -7 -10    8.99    7.24
  -7  -7  10   14.86    4.81
   7  -7  10   17.53    7.20
  -7   7  10   11.31    7.15
   7  -7 -10   11.52    5.65
  -7  -7  11    8.59    5.67
   7  -7 -11   11.56    3.63
  -7   7  11   17.80    6.98
   7  -7 -11    9.07    5.34
  -7  -7  12    0.35    4.56
   7  -7  12   10.20    5.20
  -7   7  12   12.75    7.44
   7  -7 -12   13.30    6.65
   7  -7 -12   -2.55    2.09
   7  -7 -13  212.23   24.40
   7  -7 -13  171.33   22.24
  -7   7  13  197.00   25.45
   7  -7  13  233.02   25.52
  -7  -7  13  225.67   26.37
  -7  -7  14   56.02   14.14
   7  -7  14   31.52    9.44
   7  -7 -14   37.58   11.79
  -7   7  14   49.66   14.09
   7  -7 -14   18.16    6.35
   7  -7  15   -0.38    4.23
  -7   7  15   -0.98    3.51
   7  -7 -15    0.12    3.38
   7  -7 -15    1.62    4.35
  -7  -7  15    0.39    3.51
   7  -7  16   26.44   11.03
   7  -7 -16   25.09    7.98
  -7   7  16    3.53    3.93
   7  -7 -16   23.11    8.62
   7  -7  17    5.39    4.93
   7  -7 -17   19.07    8.82
  -7   7  17    3.64    6.46
   7  -7  18    0.63    3.21
  -7   7  18    0.03    6.61
   7  -7 -18   -6.90    4.04
  -7   7  19   41.64   11.46
   7  -7 -19   83.53   17.75
   7  -7  19   45.21   14.59
  -7   7  20   61.00   14.76
   7  -7 -20   43.35   13.74
   7  -7  20   49.43   17.58
  -7   7  21   35.41    9.58
   7  -7 -21   49.73   13.22
   7  -7  21   23.62    5.97
  -7   7  22   11.64    4.52
   7  -7 -22   14.66   10.95
   7  -7  22   11.50    7.39
  -7   7  23   27.85   10.05
   7  -7 -23   25.10   11.76
   7  -7  23   55.86   13.80
  -7  -8   0   10.68    6.90
   7  -8   0   -3.63    5.23
  -7  -8   1  397.57   33.21
  -7  -8  -1  352.85   30.86
   7  -8   1  415.69   34.41
   7  -8  -1  344.76   30.78
   7  -8   2   31.62   10.14
  -7  -8   2   24.78    9.38
  -7  -8  -2   27.36    7.72
   7  -8  -2   38.88   10.54
   7  -8   3   44.48   11.27
  -7  -8   3   48.63   11.39
  -7  -8  -3   58.18   13.39
  -7   8   3   26.81    8.23
   7  -8  -3   36.68   10.19
  -7  -8   4   27.12    9.52
  -7  -8  -4   31.22   13.14
  -7   8   4   11.08    5.99
   7  -8  -4    8.90    4.17
   7  -8   4   20.63    6.63
   7  -8  -5   67.76   14.66
   7  -8   5   75.10   15.02
  -7  -8   5   57.95   13.04
  -7   8   5   53.93   12.78
  -7  -8   6   -0.88    3.88
   7  -8  -6    1.67    5.12
   7  -8  -6    7.09    5.15
  -7   8   6   -0.17    2.49
   7  -8   6    4.33    4.81
  -7  -8   7   65.29   14.61
   7  -8  -7   57.90   13.25
   7  -8  -7   76.42   13.89
  -7   8   7   63.09   13.65
   7  -8   7   71.54   13.92
  -7  -8   8    0.02    2.34
   7  -8  -8    2.47    5.32
   7  -8  -8    4.98    5.11
  -7   8   8   -2.12    5.74
   7  -8   8   -0.13    2.83
  -7  -8   9  293.02   29.56
   7  -8  -9  279.66   27.74
  -7   8   9  240.11   28.16
   7  -8   9  277.05   28.22
   7  -8  -9  307.46   30.30
  -7  -8  10   -0.36    6.54
   7  -8  10    8.22    4.16
  -7   8  10    1.89    6.76
   7  -8 -10   17.83    7.95
   7  -8 -10    9.01    6.57
   7  -8 -11   10.92    4.03
  -7  -8  11   20.27    6.99
   7  -8  11   25.94   10.30
  -7   8  11   29.98   10.77
   7  -8 -11   11.24    3.92
  -7  -8  12   18.14    7.98
   7  -8 -12   21.51    8.06
   7  -8  12   18.54    8.87
  -7   8  12    4.41    3.81
   7  -8 -12    3.57    5.60
  -7  -8  13   29.51   10.10
   7  -8  13   43.70   11.00
   7  -8 -13   33.25    7.91
  -7   8  13   47.40   11.81
   7  -8 -13   60.10   14.29
  -7  -8  14   23.92    9.65
   7  -8  14   -1.18    5.11
  -7   8  14   11.36    9.20
   7  -8 -14   17.36    9.04
   7  -8 -14   12.56    5.73
   7  -8 -15   72.71   14.19
  -7   8  15  101.65   17.24
   7  -8 -15   80.74   16.92
   7  -8  15  107.92   18.10
  -7  -8  15  119.75   19.70
   7  -8  16   -0.73    2.78
   7  -8 -16   -3.98    4.68
  -7   8  16   -0.25    2.64
   7  -8 -16   -5.04    5.03
  -7  -8  16   -0.79    3.02
  -7   8  17   73.13   15.00
   7  -8  17  113.63   19.31
   7  -8 -17   59.10   14.61
   7  -8 -17   74.79   15.39
   7  -8  18   10.39    3.50
   7  -8 -18    5.40    2.02
  -7   8  18   30.40   12.45
   7  -8 -18   20.86    8.98
   7  -8  19   84.03   16.58
   7  -8 -19  105.34   19.55
  -7   8  19   81.84   17.07
   7  -8 -19   95.60   17.18
   7  -8 -20   12.65    6.19
  -7   8  20   18.20   10.36
   7  -8 -20   20.27    6.27
   7  -8  20    4.76    6.50
  -7   8  21    0.21    4.20
   7  -8 -21   24.83    9.81
   7  -8  21   17.67    8.49
  -7   8  22   75.44   17.25
   7  -8 -22   39.07   10.88
   7  -8  22   39.96   12.82
  -7  -9   0   -5.44    6.21
   7  -9   0   -2.47    2.95
  -7  -9   1   -0.58    3.96
   7  -9   1   -0.02    2.82
  -7  -9  -1    8.89    7.39
   7  -9  -1    2.90    3.96
   7  -9   2   -0.61    3.43
  -7  -9   2    6.27    8.54
  -7  -9  -2   11.18    8.49
   7  -9  -2    1.23    2.34
   7  -9   3   -0.11    3.07
  -7  -9   3    8.68    6.31
  -7  -9  -3   -1.13    3.94
   7  -9  -3   -2.29    6.02
  -7  -9   4    2.51    4.71
  -7  -9  -4    7.18    6.05
  -7   9   4   13.23    7.48
   7  -9  -4   19.87    9.75
   7  -9   4    8.25    6.60
   7  -9   5  106.67   17.65
  -7  -9  -5  128.99   19.73
  -7  -9   5   89.65   16.08
  -7   9   5  124.57   19.66
   7  -9  -5  127.15   20.53
   7  -9  -6   10.62    7.64
  -7  -9   6    3.83    4.43
  -7   9   6    5.76    3.70
   7  -9   6    0.75    2.44
   7  -9   7   78.51   16.01
  -7  -9   7   44.11   12.10
   7  -9  -7   56.89   14.59
  -7   9   7   69.54   15.43
  -7  -9   8   25.97    7.94
   7  -9  -8   29.31    9.70
   7  -9  -8    8.65    2.61
  -7   9   8   12.18    6.24
   7  -9   8   22.72    7.63
  -7  -9   9    8.60    6.20
   7  -9  -9   22.75   10.02
   7  -9  -9   38.52   11.07
  -7   9   9   17.70    7.03
   7  -9   9   27.55   10.57
   7  -9  10   16.73    8.37
   7  -9 -10    3.28    4.23
  -7   9  10    1.74    4.33
   7  -9 -10    5.86    4.30
  -7  -9  11   46.08   12.63
   7  -9  11   53.83   13.22
   7  -9 -11   55.35   13.34
  -7   9  11   51.08   14.96
   7  -9 -11   48.34   12.12
   7  -9 -12    5.53    4.89
  -7  -9  12   -2.17    4.57
   7  -9  12    8.33    6.99
   7  -9 -12   -9.42    9.02
  -7   9  12    3.42    3.21
  -7  -9  13   80.89   16.32
   7  -9 -13   54.86   13.55
   7  -9  13   62.17   13.80
  -7   9  13   61.11   15.32
   7  -9 -13   72.28   14.62
  -7  -9  14    7.27    5.16
   7  -9  14    3.60    4.53
   7  -9 -14   -2.88    5.62
  -7   9  14    1.26    7.49
   7  -9 -14    7.59    5.50
  -7  -9  15    0.30    1.99
   7  -9  15    5.58    6.24
  -7   9  15    2.80    8.51
   7  -9 -15    7.00    7.12
   7  -9 -15   -1.15    4.93
  -7  -9  16    8.13    6.67
   7  -9  16    5.41    5.28
  -7   9  16   16.92    9.46
   7  -9 -16   -4.67    6.30
   7  -9 -16    5.41    7.70
   7  -9 -17  139.36   21.54
   7  -9 -17  125.14   21.68
  -7   9  17   81.44   20.89
  -7  -9  17  118.38   20.76
   7  -9  18    1.74    4.74
   7  -9 -18   -6.12    6.10
  -7   9  18   -0.50    3.48
   7  -9 -18   -1.90    4.92
  -7  -9  18    9.53    5.69
   7  -9  19    9.77    4.68
  -7   9  19    6.85    6.07
   7  -9 -19    7.44    6.89
   7  -9 -19   16.15    7.64
   7  -9  20   -2.21    5.59
   7  -9 -20    2.48    2.98
  -7   9  20    3.28    3.23
   7  -9 -20   -0.36    4.84
  -7   9  21   10.51    5.69
   7  -9 -21   18.71   12.53
   7  -9 -21    8.61    5.83
   7  -9  21   10.92    4.93
  -7 -10   0   -1.94    3.21
   7 -10   0   -0.02    4.28
  -7 -10   1   -3.76    5.10
   7 -10   1    5.53    5.91
  -7 -10  -1    0.76    3.45
   7 -10  -1    4.97    3.94
  -7 -10   2   85.18   17.27
  -7 -10  -2   60.01   14.69
   7 -10   2   78.64   15.40
   7 -10  -2   83.23   16.54
   7 -10   3   32.92   11.13
  -7 -10   3   28.57    9.49
  -7 -10  -3   19.81    8.12
   7 -10  -3   24.51    9.22
  -7 -10   4   -0.23    4.63
  -7 -10  -4   -7.28    5.88
   7 -10  -4    2.03    2.67
   7 -10   4   -7.37    7.24
  -7 -10   5   -2.49    3.98
  -7 -10  -5   21.51   11.68
   7 -10   5    2.86    2.30
   7 -10  -5   12.93    8.07
  -7 -10   6   51.09   13.36
  -7  10   6   57.80   15.18
   7 -10  -6   99.99   17.88
   7 -10   6   52.70   12.09
   7 -10  -7   47.94   12.40
  -7 -10   7   58.25   13.90
  -7  10   7   57.80   13.90
   7 -10   7   65.35   14.36
  -7 -10   8   37.22   11.26
   7 -10  -8   44.66   11.90
  -7  10   8   60.32   14.36
   7 -10   8   48.51   12.67
  -7 -10   9   28.36   10.34
   7 -10  -9   47.17   12.96
  -7  10   9   58.91   14.51
  -7 -10  10   82.21   16.06
  -7  10  10  128.65   21.39
   7 -10 -10   83.08   17.18
   7 -10 -10   79.18   16.55
   7 -10  10  103.43   17.78
  -7 -10  11    3.24    5.53
   7 -10  11   -5.40    4.87
   7 -10 -11   -2.02    5.40
  -7  10  11    2.90    7.96
   7 -10 -11   11.50    4.52
  -7 -10  12   89.26   17.05
   7 -10  12   82.82   16.11
  -7  10  12  113.42   21.37
   7 -10 -12  114.75   19.53
   7 -10 -12   83.59   16.27
  -7 -10  13   19.58   10.14
   7 -10  13   24.06   10.81
   7 -10 -13    3.34    8.21
  -7  10  13   16.19    9.78
   7 -10 -13   19.26    5.68
  -7 -10  14    4.70    6.80
   7 -10 -14    8.09    4.22
   7 -10  14   -2.99    3.07
   7 -10 -14   -4.14    7.38
  -7  10  14    7.28    8.57
  -7 -10  15   15.02    5.67
   7 -10  15   19.74    8.43
   7 -10 -15    2.17    4.46
   7 -10 -15   14.31    8.26
  -7  10  15   11.97    5.79
   7 -10 -16  121.05   19.63
  -7  10  16   84.55   18.22
   7 -10 -16   70.57   16.67
   7 -10  16  101.36   18.59
  -7 -10  16  134.74   22.01
  -7 -10  17   -2.73    4.02
   7 -10  17    2.81    4.14
  -7  10  17   21.50   11.34
   7 -10 -17    4.98    7.18
   7 -10 -17   12.16    9.07
  -7 -10  18   -3.30    6.08
   7 -10  18   -2.06    2.63
  -7  10  18   -2.81    5.42
   7 -10 -18   -6.72    5.73
   7 -10 -18    1.24    3.01
   7 -10  19    5.46    7.02
   7 -10 -19   11.95    7.58
  -7  10  19    6.27    6.09
   7 -10 -19    8.08    6.66
  -7 -10  19    4.28    5.77
  -7 -11   0    4.92    4.60
   7 -11   0   -1.41    5.30
   7 -11   1    9.78    3.69
  -7 -11   1    8.87    7.21
  -7 -11  -1    5.30    5.91
   7 -11  -1   16.65    9.98
   7 -11   2    5.46    2.54
  -7 -11   2   15.67    6.84
  -7 -11  -2   14.71    8.97
   7 -11  -2   11.09    9.72
   7 -11   3   15.64    8.01
  -7 -11   3   15.60    7.97
  -7 -11  -3    2.31    3.92
   7 -11  -3    5.81    5.08
  -7 -11   4   10.38    7.80
  -7 -11  -4    7.43    6.98
   7 -11  -4    9.20    7.12
   7 -11   4    1.84    4.18
  -7 -11   5   14.16    8.70
  -7 -11  -5   36.59   12.97
   7 -11  -5   40.31   11.84
   7 -11   5   32.85   12.34
  -7 -11   6   -1.68    4.40
  -7 -11  -6   -0.84    7.61
   7 -11   6   -9.04    5.19
   7 -11  -6   -0.72    4.15
   7 -11  -7    4.73    5.46
  -7 -11   7    3.56    5.81
  -7  11   7    0.20    5.75
   7 -11   7    7.86    5.20
  -7 -11   8   -7.51    7.34
   7 -11  -8   -4.50    6.72
  -7  11   8   -5.24    3.37
   7 -11   8   -6.89    4.40
  -7 -11   9   -1.51    4.67
   7 -11  -9   10.36    6.39
  -7  11   9    4.19    5.79
   7 -11   9    1.09    6.41
  -7 -11  10    1.80    6.55
   7 -11 -10    8.75    4.88
   7 -11  10   -1.51    3.70
  -7  11  10    0.12    4.45
  -7 -11  11    1.76    2.08
   7 -11  11   -0.30    3.13
   7 -11 -11   -1.63    5.45
  -7  11  11   -0.75    8.62
  -7 -11  12    4.49    6.89
   7 -11  12    0.03    3.21
  -7  11  12    7.91    8.20
   7 -11 -12    5.27    6.31
  -7 -11  13    2.75    6.29
   7 -11  13   24.78    9.44
   7 -11 -13   22.49   11.66
  -7  11  13   10.87    5.75
   7 -11 -13    6.84    8.21
  -7 -11  14    7.47    6.14
   7 -11  14    0.19    2.87
   7 -11 -14    3.03    5.24
  -7  11  14    3.24    6.08
   7 -11 -14    5.66    6.30
   7 -11 -15   -5.27    5.02
  -7 -11  15    8.91    6.29
   7 -11  15   11.15    8.64
   7 -11 -15   -0.88    3.24
  -7  11  15    8.06    4.95
  -7 -11  16    7.08    6.60
   7 -11 -16    8.16    4.75
   7 -11  16   -0.65    5.04
   7 -11 -16    7.16    7.02
  -7  11  16    1.40    8.43
  -7 -11  17   17.89   10.86
   7 -11  17    4.96    5.78
   7 -11 -17    4.25    4.13
   7 -11 -17   15.39    7.63
  -7  11  17   14.91    8.42
  -7 -12   0   -4.83    6.57
   7 -12   0    2.73    3.78
   7 -12   1   -0.18    3.22
  -7 -12   1   -2.04    4.69
  -7 -12  -1   10.00    8.99
   7 -12  -1    7.49    6.94
   7 -12   2   39.34   10.66
  -7 -12   2   47.94   14.95
  -7 -12  -2   52.89   14.56
   7 -12  -2   61.24   14.73
   7 -12   3   58.61   14.40
  -7 -12   3   39.68   12.70
  -7 -12  -3   37.04   10.52
   7 -12  -3   58.47   13.80
  -7 -12   4    4.00    5.48
  -7 -12  -4   -1.62    7.96
   7 -12  -4    6.63    2.90
   7 -12   4    0.26    3.14
  -7 -12   5   -2.88    8.74
  -7 -12  -5   13.95    6.71
   7 -12  -5   -6.40    6.32
   7 -12   5   16.06    8.11
  -7 -12   6   21.91   10.67
  -7 -12  -6   -4.67    6.38
   7 -12   6   13.45    7.90
   7 -12  -6   32.45   11.35
   7 -12   7   -1.32    2.97
   7 -12  -7   -3.94    3.59
   7 -12  -8   60.71   15.71
  -7 -12   8   36.86   10.40
   7 -12   8   36.91   11.82
  -7 -12   9   67.20   16.85
   7 -12  -9   81.46   17.00
  -7  12   9   55.44   15.60
   7 -12   9   95.38   17.56
  -7 -12  10   22.88   10.87
   7 -12 -10   19.32    7.90
  -7  12  10   15.42    8.26
   7 -12  10   10.61    3.99
  -7 -12  11    6.12    8.83
   7 -12 -11    6.94    6.16
   7 -12  11   -3.62    3.28
  -7  12  11   -5.15    8.50
  -7 -12  12    6.68    6.36
   7 -12  12   20.63   10.08
   7 -12 -12    8.96    5.72
  -7  12  12    9.98    4.68
  -7 -12  13   56.44   15.40
   7 -12  13   47.19   12.08
  -7  12  13   62.87   15.43
   7 -12 -13   51.24   14.36
  -7 -12  14    5.28    7.73
   7 -12  14   12.51    8.50
  -7  12  14   -6.16    8.20
   7 -12 -14    2.12    5.18
  -7 -13   0   -4.55    6.02
   7 -13   0    2.26    5.99
   7 -13   1   38.72    9.85
  -7 -13   1   25.80   10.66
  -7 -13  -1   34.96   10.61
   7 -13  -1   28.02    9.38
   7 -13   2   -3.09    4.14
  -7 -13   2   -1.61    2.56
  -7 -13  -2   -3.69    4.68
   7 -13  -2    1.54    4.94
  -7 -13   3    3.17    5.38
  -7 -13  -3   -2.65    6.62
   7 -13  -3    7.74    7.52
   7 -13   3    1.61    2.30
  -7 -13   4    0.12    6.18
  -7 -13  -4    0.16    5.15
   7 -13  -4    4.78    7.22
   7 -13   4    1.10    2.98
  -7 -13   5   -1.09    2.94
   7 -13  -5    6.65    5.83
   7 -13   5    5.11    5.09
  -7 -13   6    2.40    3.44
   7 -13  -6    3.22    6.41
   7 -13   6    2.81    2.14
  -7 -13   7    7.63    6.13
   7 -13   7    4.11    4.12
   7 -13  -7    6.63    6.60
  -7 -13   8   -9.51   11.06
   7 -13   8   -2.82    5.44
   7 -13  -8   -9.75    8.10
   7 -13  -9   25.62   11.63
  -7 -13   9   -1.23    2.72
   7 -13   9   14.12    6.47
   7 -13 -10    3.44    6.03
  -7 -13  10    1.07    5.29
   7 -13  10   16.13    5.28
   7 -14   0    4.29    3.83
  -7 -14   0   -1.65    6.89
  -8   0   1    0.14    4.21
  -8   0   2  104.34   16.17
  -8   0   3    4.55    6.59
   8   0   3    0.05    4.14
   8   0   4   82.45   11.52
  -8   0   4   77.67   13.90
  -8   0   5    3.28    2.09
   8   0   5   -0.77    1.35
   8   0   6  103.70   13.73
  -8   0   6  124.76   19.07
  -8   0   7   -2.94    1.70
   8   0   7    6.40    6.67
  -8   0   8   26.11    7.81
   8   0   8   26.91    7.53
  -8   0   9   -1.11    3.07
   8   0   9   -2.87    2.48
   8   0  10  383.15   29.87
  -8   0  10  573.85   39.50
  -8   0  11   -0.61    5.86
   8   0  11   -0.30    1.97
  -8   0  12   13.61    6.18
   8   0  12   14.88    6.79
  -8   0  13    1.36    2.79
   8   0  13   -0.71    3.82
   8   0  14  274.71   27.56
  -8   0  14  143.17   20.73
   8   0  15    0.54    4.03
  -8   0  15    4.16    4.66
   8   0  16   41.42   11.46
  -8   0  16   62.16   14.30
   8   0  17    1.83    5.77
  -8   0  17   -1.99    3.47
   8   0  18   42.99   11.30
  -8   0  18   42.29   11.87
   8   0  19   -0.88    2.56
  -8   0  19    3.48    7.93
   8   0  20   50.45   13.43
  -8   0  20   47.22   12.75
   8   0  21   -4.06    7.78
  -8   0  21    1.62    6.94
   8   0  21    2.53    5.02
   8   0  22   54.19   14.13
  -8   0  22   59.16   13.74
   8   0  22   72.13   16.79
   8   0  23   -7.59    7.42
  -8   0  23    1.45    3.66
   8   0  23   -1.34    4.20
   8   0  24    6.80    6.29
   8   0  24   -4.57    5.11
   8   0  25    9.60    7.28
  -8   0  25    3.25    5.88
   8   0  25    9.69   10.28
   8  -1   0  424.70   25.66
  -8  -1   1  304.87   27.33
  -8   1   1  343.26   29.57
   8  -1   1  340.66   22.77
   8  -1  -1  341.44   23.06
   8  -1   2    1.09    3.48
  -8  -1   2    1.64    3.38
  -8   1   2    1.41    3.48
   8  -1  -2   -1.20    3.05
   8  -1   3   29.36    7.56
  -8   1   3   24.18    8.28
  -8  -1   3   37.68   10.01
  -8   1   4  319.85   29.34
  -8  -1   4  317.45   28.20
   8  -1   4  288.52   23.29
   8  -1   5    9.49    5.10
  -8   1   5    7.60    4.94
  -8  -1   5   20.69    8.14
   8   1   6   85.47   12.53
  -8   1   6   99.29   16.81
  -8  -1   6  123.51   17.92
   8  -1   6  100.27   13.95
   8   1   7   63.72   11.12
   8  -1   7   95.22   14.19
  -8   1   7   60.35   12.35
  -8  -1   7   59.57   12.96
   8   1   8   73.48   12.40
   8  -1   8  116.15   15.56
  -8   1   8   72.64   13.35
  -8  -1   8   73.43   14.14
  -8   1   9   35.15   10.77
  -8  -1   9   35.27   10.15
   8   1   9   20.48    6.25
   8  -1   9   18.67    6.97
   8   1  10   42.94    9.82
  -8   1  10   39.87   11.49
  -8  -1  10   27.85    8.43
   8  -1  10   31.20    8.74
   8   1  11    7.82    3.29
  -8   1  11   15.78    5.62
  -8  -1  11    7.34    3.45
   8  -1  11   11.18    7.05
   8   1  12  335.24   28.72
   8  -1  12  295.46   27.96
  -8   1  12  283.17   28.89
  -8  -1  12  299.52   28.49
   8   1  13    0.34    4.10
  -8   1  13   -4.69    5.26
   8  -1  13    0.42    3.28
   8   1  14  107.99   17.19
   8  -1  14   99.46   16.99
  -8   1  14  103.86   18.04
  -8  -1  14   71.28   14.41
   8   1  15  105.77   17.36
   8  -1  15  104.12   17.13
  -8   1  15  111.32   19.23
  -8  -1  15  115.56   19.47
   8   1  16   43.55   11.76
  -8   1  16   60.53   13.76
  -8  -1  16   37.28   11.67
   8  -1  16   69.03   15.47
   8   1  17   42.64   12.82
  -8   1  17   47.18   11.60
   8  -1  17   37.31    9.77
  -8  -1  17   38.69    9.78
   8   1  18  328.03   32.17
   8  -1  18  426.75   37.34
  -8   1  18  398.13   35.82
  -8  -1  18  437.83   36.76
   8   1  19    4.57    7.60
   8  -1  19    5.63    7.80
  -8   1  19   13.96    7.63
  -8  -1  19   11.17    7.87
   8   1  20    3.41    5.38
   8  -1  20    0.26    5.21
  -8   1  20    1.31    4.35
  -8  -1  20    5.89    7.48
   8   1  20   -4.18    7.17
   8   1  21   48.07   12.87
   8  -1  21   26.22    9.00
  -8   1  21   53.29   12.61
  -8  -1  21   26.51    9.52
   8   1  21   46.21   13.06
  -8   1  22  108.47   19.22
   8  -1  22   97.71   18.06
  -8  -1  22   87.99   17.36
   8   1  22   96.05   18.81
   8  -1  22  106.05   17.58
   8   1  23  -11.95    8.27
   8  -1  23    2.38    5.62
  -8   1  23    2.94    5.55
  -8  -1  23   -7.02    5.96
   8   1  23    6.85    5.84
   8  -1  23    0.60    4.11
   8   1  24   80.17   17.20
   8  -1  24   68.51   15.65
  -8   1  24   71.88   16.55
  -8  -1  24   89.39   17.45
   8   1  24   71.12   15.45
   8  -1  24   45.55   11.20
   8   1  25   63.19   15.83
   8  -1  25   24.56    7.95
  -8   1  25   66.92   15.37
  -8  -1  25   39.54   12.64
   8   1  25   56.82   15.55
   8  -1  25   56.50   12.37
   8  -2   0   40.74    8.04
   8  -2  -1   92.27   13.05
  -8  -2   1  123.93   17.21
  -8   2   1  104.62   17.34
   8  -2   1  110.97   13.96
   8  -2   2   18.17    5.66
  -8  -2   2   15.62    6.95
  -8   2   2   13.65    6.73
   8  -2  -2    7.50    3.34
   8  -2  -3  302.29   23.69
  -8   2   3  297.07   29.35
  -8  -2   3  336.42   28.19
   8  -2   3  350.22   25.81
   8  -2  -4   18.41    6.93
   8  -2   4   15.38    4.22
  -8   2   4   22.67    8.06
  -8  -2   4   30.22    9.60
   8  -2   5   33.57    8.36
   8  -2  -5   28.67    7.89
  -8   2   5   30.90   10.02
  -8  -2   5   25.97    8.60
  -8   2   6   67.32   14.12
   8  -2  -6   73.45   12.35
  -8  -2   6   65.30   13.13
   8  -2   6   72.19   12.41
  -8   2   7  516.15   38.04
  -8  -2   7  441.49   33.76
   8  -2   7  433.56   30.77
   8  -2  -7  481.07   30.54
   8  -2   8   10.62    6.29
  -8   2   8    7.45    5.94
  -8  -2   8   20.74    7.56
  -8   2   9   19.47    9.69
  -8  -2   9   21.82    8.49
   8  -2   9    6.72    1.52
   8   2  10    2.44    5.51
  -8   2  10    6.25    4.74
  -8  -2  10    5.95    7.26
   8  -2  10   -2.47    4.08
   8   2  11  106.81   15.42
   8  -2  11  139.05   18.40
  -8   2  11  143.86   20.54
  -8  -2  11  146.56   19.51
   8   2  12   63.29   13.82
  -8  -2  12   69.04   15.35
  -8   2  12   49.14   12.73
   8  -2  12   31.54    8.65
   8   2  13   53.66   12.74
  -8   2  13   55.03   14.12
  -8  -2  13   29.92    8.75
   8  -2  13   16.94    7.32
   8   2  14   38.88   11.13
  -8   2  14   18.14    7.28
  -8  -2  14   52.05   12.85
   8  -2  14   36.84    9.78
   8   2  15    1.44    2.16
  -8   2  15   -4.58    5.25
  -8  -2  15    9.19    2.84
   8  -2  15   17.45    7.10
   8   2  16   11.80    4.66
  -8   2  16    8.00    5.53
  -8  -2  16   12.35    6.68
   8  -2  16    9.38    4.25
   8   2  17   10.04    7.57
  -8   2  17   -0.05    6.97
  -8  -2  17    1.99    7.72
   8  -2  17   -1.02    2.75
   8   2  18    2.86    4.23
  -8   2  18    2.79    3.44
  -8  -2  18    2.65    6.37
   8  -2  18   -1.40    2.73
   8   2  18   -1.66    2.73
   8   2  19   54.41   14.13
  -8   2  19   54.02   14.42
  -8  -2  19   51.41   13.86
   8  -2  19   83.46   16.94
   8   2  19   47.49   13.09
   8   2  20   35.13   13.45
  -8   2  20   29.38   11.77
   8  -2  20   30.04    9.87
  -8  -2  20   17.32    8.18
   8   2  20   25.73   10.08
   8  -2  21  172.68   24.53
   8   2  21  107.05   18.83
  -8   2  21   99.51   18.78
  -8  -2  21  157.50   23.64
   8   2  21  141.27   22.84
   8   2  22   -5.88    5.80
   8  -2  22    2.51    6.25
  -8   2  22   13.48    9.06
  -8  -2  22   -3.19    3.56
   8   2  22   13.62    7.63
   8   2  23   -4.01    4.64
   8  -2  23   -5.95    5.51
  -8   2  23   -2.76    5.81
  -8  -2  23    5.34    6.47
   8   2  23    0.30    8.03
   8  -2  23   -3.52    4.36
   8   2  24   -1.77    4.89
   8  -2  24    2.22    6.03
  -8   2  24   -5.38    7.14
  -8  -2  24   -2.85    3.13
   8   2  24   15.59    9.21
   8  -2  24    3.51    5.63
   8   2  25    8.06    5.66
   8  -2  25   -4.94    5.25
  -8   2  25    8.28    6.42
  -8  -2  25    2.00    4.20
   8  -2  25   -6.47    4.69
   8  -3   0   41.09    8.74
   8  -3   1   63.55   10.89
  -8   3   1   37.59   10.39
   8  -3  -1   46.46    9.47
   8  -3  -2   28.24    7.34
  -8  -3   2   23.69    7.52
  -8   3   2   25.81    9.37
   8  -3   2   12.17    5.45
   8  -3  -3  131.70   16.58
  -8   3   3  122.23   19.44
  -8  -3   3  122.19   16.63
   8  -3   3  130.51   16.41
   8  -3  -4   90.53   13.79
  -8   3   4  100.22   17.29
  -8  -3   4   77.05   14.25
   8  -3   4  112.57   15.35
   8  -3   5   36.08    9.72
  -8   3   5   41.98   11.06
  -8  -3   5   26.71    8.33
   8  -3  -5   25.85    8.27
  -8   3   6  286.01   28.28
  -8  -3   6  283.29   26.86
   8  -3  -6  321.39   26.70
   8  -3   6  361.36   28.03
  -8   3   7  132.77   19.12
  -8  -3   7   94.95   15.48
   8  -3   7  152.15   18.20
   8  -3  -7  138.46   17.61
  -8   3   8  163.02   22.25
  -8  -3   8  164.55   20.50
   8  -3   8  152.82   18.58
   8  -3  -8  147.85   18.67
   8  -3   9    7.15    7.02
   8  -3  -9    2.87    4.54
  -8   3   9    7.14    7.82
  -8  -3   9    8.17    6.10
  -8  -3  10    6.36    3.31
   8  -3 -10    5.69    3.63
   8  -3 -11  132.42   17.69
  -8   3  11  101.86   17.15
  -8  -3  11   91.40   15.92
   8  -3  11  122.15   16.88
   8  -3 -12   -2.17    1.90
  -8   3  12    3.11    5.64
  -8  -3  12   -4.65    7.62
   8  -3  12   -2.83    3.07
  -8   3  13   17.73   10.29
  -8  -3  13    8.08    6.20
   8  -3  13    9.36    7.19
   8   3  14   12.50    6.47
  -8   3  14   18.72   10.12
  -8  -3  14   27.44   10.21
   8  -3  14   20.62    8.19
   8   3  15   23.82    7.46
  -8   3  15   36.83   11.60
  -8  -3  15   49.44   12.56
   8  -3  15   55.61   13.16
   8   3  16   34.15    9.01
  -8   3  16   40.68   12.36
  -8  -3  16   18.51    8.24
   8  -3  16   29.11    9.89
   8   3  16   35.40   10.56
   8   3  17  158.01   22.26
   8  -3  17  105.76   17.94
  -8   3  17  150.81   22.85
  -8  -3  17  114.05   18.80
   8   3  17  117.88   18.38
   8   3  18    4.91    6.07
  -8   3  18    4.73    2.15
  -8  -3  18    9.34    6.68
   8  -3  18   -3.29    6.32
   8   3  19  148.67   21.91
   8  -3  19  152.60   22.54
  -8  -3  19  115.96   20.24
   8   3  20    3.84    5.95
  -8   3  20   15.14   10.27
  -8  -3  20   -1.50    3.50
   8  -3  20   -1.47    4.60
   8   3  21  112.95   18.69
   8  -3  21  122.92   19.90
  -8   3  21   93.22   18.37
  -8  -3  21   67.51   16.99
   8   3  22   36.40   10.37
  -8   3  22   32.83   11.89
   8  -3  22   49.40   14.43
  -8  -3  22   27.87    9.26
   8   3  23    4.34    5.73
   8  -3  23   -0.64    5.80
  -8   3  23    6.85    6.86
  -8  -3  23    2.96    3.23
   8   3  24    5.26    2.65
   8  -3  24    4.04    4.06
  -8   3  24   -2.30    6.54
  -8  -3  24   -3.24    4.76
   8  -3  24   -2.58    5.73
   8   3  25   43.22   13.93
   8  -3  25   13.76    9.18
  -8   3  25   35.21   10.91
  -8  -3  25   16.05    6.24
   8  -3  25   17.20    6.06
   8  -4   0   17.44    6.36
   8  -4  -1   42.94    9.00
   8  -4   1   60.97   12.98
  -8   4   1   45.40   11.11
   8  -4   2  184.75   20.00
   8  -4  -2  174.76   20.08
  -8   4   2  185.68   23.50
   8  -4  -3   -1.76    4.68
  -8   4   3    5.39    6.18
   8  -4   3    1.94    4.10
   8  -4   4   27.77    6.95
   8  -4  -4   27.74    7.24
  -8   4   4   41.39   11.92
  -8   4   5  240.78   27.13
   8  -4  -5  236.47   23.47
   8  -4   5  234.73   23.15
  -8   4   6   70.10   15.30
   8  -4   6   84.10   13.89
   8  -4  -6   53.14   10.90
   8  -4  -7   73.22   12.96
   8  -4   7   62.85   12.03
  -8   4   7   78.49   15.99
  -8   4   8  167.67   22.24
  -8  -4   8  153.76   20.07
   8  -4   8  138.95   18.18
   8  -4  -8  106.26   16.02
   8  -4   9   33.94   10.71
   8  -4  -9   34.94   10.04
  -8   4   9   26.10   10.14
  -8  -4   9   39.32   11.55
   8  -4  10   40.59    9.93
  -8   4  10   51.38   14.53
  -8  -4  10   61.33   12.99
   8  -4 -10   55.44   12.57
   8  -4  11   29.88    8.72
  -8   4  11   32.62   11.11
  -8  -4  11   12.55    5.47
   8  -4 -11   33.58   10.52
   8  -4  12   -0.02    3.76
   8  -4 -12   12.41    5.34
  -8   4  12   11.93    7.66
  -8  -4  12    7.56    5.98
   8  -4  13    9.77    4.78
  -8   4  13   11.60    7.73
  -8  -4  13    4.47    3.49
   8  -4 -13    9.98    6.28
   8  -4 -14    8.06    6.13
  -8   4  14   11.05    7.44
  -8  -4  14   14.52    6.68
   8  -4  14    2.52    4.49
  -8   4  15   34.23   10.35
   8  -4 -15   31.97    9.27
  -8  -4  15   32.16   10.25
   8  -4  15   24.29   10.10
  -8   4  16    1.28    5.66
  -8  -4  16    4.80    3.06
   8  -4 -16   -3.66    3.33
   8  -4  16   -1.12    4.34
  -8   4  17   23.40   10.62
  -8  -4  17   34.97   10.33
   8  -4  17   42.74   12.17
  -8   4  18   69.43   15.82
  -8  -4  18   72.74   14.98
   8  -4  18   61.69   14.48
  -8   4  19   38.80   11.46
  -8  -4  19   30.36   10.00
   8  -4  19   39.53   13.84
   8   4  20   10.85    6.00
  -8   4  20   20.81   11.12
  -8  -4  20    7.47    5.84
   8  -4  20   30.17   10.76
   8   4  21    1.85    6.38
  -8   4  21    5.45    4.89
  -8  -4  21    4.41    4.72
   8  -4  21    4.45    5.68
   8   4  22   -9.44    7.88
  -8   4  22    5.88    4.48
  -8  -4  22   -4.91    3.81
   8  -4  22    7.04    4.60
   8   4  23   -1.13    4.57
  -8   4  23   -2.84    4.29
  -8  -4  23   -2.21    2.77
   8  -4  23    9.09    5.79
   8   4  24   14.33    9.52
  -8   4  24    5.73    3.13
   8  -4  24   11.61    9.02
  -8  -4  24   20.20   10.28
   8  -4  24   17.90    9.94
   8  -5   0 1134.90   52.66
   8  -5  -1   37.27    9.83
   8  -5   1   47.02    9.84
   8  -5  -2    8.20    5.80
  -8   5   2    6.04    4.37
   8  -5   2   13.06    7.42
   8  -5   3   86.20   14.73
   8  -5  -3   66.32   13.93
  -8   5   3   81.40   15.38
  -8   5   4   97.31   16.81
   8  -5  -4   77.90   14.31
   8  -5   4   97.78   15.48
  -8   5   5   74.00   15.42
   8  -5  -5   77.73   14.42
   8  -5   5   82.38   14.72
  -8   5   6  169.04   23.50
   8  -5  -6  130.65   17.90
   8  -5   6  159.94   19.90
  -8   5   7   82.08   14.44
   8  -5  -7   81.08   14.63
   8  -5   7   85.80   15.63
   8  -5  -8   49.89   12.78
   8  -5   8   66.46   13.41
  -8   5   8   81.19   15.96
   8  -5   9   27.12    8.30
   8  -5  -9   40.45    9.76
  -8   5   9   16.28    6.46
   8  -5  10   74.18   14.40
  -8   5  10   84.50   15.51
   8  -5 -10   89.43   16.17
   8  -5  11   36.62   10.01
  -8   5  11   25.58   10.75
   8  -5 -11   22.18    8.85
   8  -5  12    0.54    2.20
   8  -5 -12    4.52    4.59
  -8   5  12    8.38    8.50
   8  -5  13    9.20    7.78
   8  -5 -13   26.65   10.74
  -8   5  13   10.61    4.19
   8  -5  14   51.66   11.93
  -8   5  14   49.44   12.21
   8  -5 -14   39.81   10.93
   8  -5 -15    3.57    4.14
  -8   5  15    7.31    9.80
   8  -5  15    4.05    6.07
  -8   5  16   -1.91    3.98
   8  -5 -16    1.34    2.43
   8  -5  16    5.52    3.83
   8  -5 -17   10.35    7.55
  -8   5  17    0.52    4.64
   8  -5  17   17.75    6.13
   8  -5 -18   79.15   15.47
  -8   5  18   82.74   18.59
   8  -5 -18   78.35   17.54
   8  -5  18   71.46   15.37
  -8   5  19   -0.92    7.45
   8  -5 -19   -5.63    5.14
   8  -5  19   -7.98    7.90
  -8   5  20    8.59    9.07
   8  -5 -20   12.90    5.68
   8  -5  20   12.62    6.28
  -8   5  21   14.29    7.64
   8  -5 -21   20.95   10.68
   8  -5  21   12.71    4.45
  -8   5  22   46.96   14.61
   8  -5 -22   33.68   13.28
   8  -5  22   47.53   11.68
  -8   5  23    1.85    6.31
   8  -5 -23    7.33    4.22
   8  -5  23    1.07    7.51
   8  -6   0    4.14    4.94
   8  -6   1    1.02    2.34
   8  -6  -1   11.97    6.55
   8  -6   2  455.71   34.51
   8  -6  -2  453.41   34.61
  -8   6   2  458.31   36.78
   8  -6   3  131.61   18.87
   8  -6  -3  163.28   20.96
  -8   6   3  110.72   18.70
  -8   6   4    4.89    6.63
   8  -6  -4    1.27    2.44
   8  -6   4    4.54    2.14
  -8   6   5    1.85    3.30
   8  -6   5    6.41    3.53
   8  -6  -5    1.19    5.62
  -8   6   6    2.43    4.28
   8  -6   6    0.45    5.10
   8  -6  -6   -3.49    3.06
   8  -6  -7    6.68    6.42
   8  -6   7    0.71    1.85
   8  -6  -8   -0.41    3.57
   8  -6   8    8.68    6.51
  -8   6   8    2.38    5.13
   8  -6   9    6.81    3.87
   8  -6  -9   17.69    7.98
  -8   6   9   10.52    5.44
   8  -6  10   19.50    8.65
  -8   6  10   24.11    7.39
   8  -6 -10   31.88    9.93
   8  -6  11   33.25   10.34
  -8   6  11   30.59   10.72
   8  -6 -11   25.48   10.48
   8  -6 -12   38.49   11.24
   8  -6  12   42.97   12.21
  -8   6  12   46.82   13.20
   8  -6  13    6.30    6.27
   8  -6 -13   -7.62    7.23
  -8   6  13   10.24    9.33
   8  -6  14   38.00   10.77
   8  -6 -14   50.10   12.43
  -8   6  14   49.94   11.00
   8  -6  15    0.02    3.29
  -8   6  15   -9.94    7.02
   8  -6 -15    5.81    8.14
   8  -6  16    4.77    6.56
   8  -6 -16    3.53    3.57
  -8   6  16   -1.43    4.98
   8  -6 -17   23.81    8.67
  -8   6  17   24.91   12.78
   8  -6  17    7.98    4.77
   8  -6  18   20.80    7.47
   8  -6 -18   25.58    7.77
  -8   6  19   -2.15    3.51
   8  -6 -19    3.23    6.97
   8  -6  19   13.19    6.93
  -8   6  20    7.10    8.73
   8  -6 -20   12.05    7.32
   8  -6  20   -3.19    3.06
  -8   6  21   26.63   11.28
   8  -6  21   17.29    8.48
  -8   6  22   11.69    6.67
   8  -6  22   12.60    7.64
   8  -7   0    8.14    3.09
   8  -7   1  186.91   22.13
   8  -7  -1  176.45   21.90
   8  -7  -2    0.91    4.72
   8  -7   2   17.42    8.08
   8  -7   3  398.64   32.43
  -8   7   3  369.33   33.86
   8  -7  -3  368.95   32.32
  -8   7   4   30.77    9.66
   8  -7  -4   37.53   11.75
   8  -7   4   48.39   10.86
  -8   7   5    7.18    2.93
   8  -7   5    4.28    5.46
   8  -7  -5   -0.60    4.00
  -8   7   6    3.21    5.74
   8  -7   6    8.18    7.79
   8  -7  -6   -0.14    1.91
   8  -7   7   84.34   14.71
  -8   7   7   73.67   15.31
   8  -7  -7   85.01   16.78
   8  -7   8   78.89   14.70
  -8   7   8   70.50   15.46
   8  -7  -8  105.29   17.84
   8  -7  -9   23.17    9.34
   8  -7   9   25.56    9.34
  -8   7   9   22.26    8.56
   8  -7 -10   88.42   16.44
  -8   7  10   58.63   15.66
   8  -7  10   89.18   15.75
  -8   7  11  199.87   26.27
   8  -7  11  193.00   24.07
   8  -7 -11  203.54   25.77
  -8  -7  12    0.97    5.91
   8  -7  12   -2.64    2.37
  -8   7  12   -0.79    3.85
   8  -7 -12   -6.21    7.81
   8  -7 -13   27.32   11.20
   8  -7  13   23.05    9.16
  -8   7  13   16.75    7.18
  -8  -7  13   17.42    6.88
   8  -7  14   -0.02    3.03
  -8   7  14    2.74    2.60
   8  -7  15   22.58    7.92
   8  -7 -15   52.30   13.44
  -8   7  15   34.94   12.00
   8  -7  16   -2.31    5.80
  -8   7  16   -2.04    5.88
   8  -7 -16    2.63    3.74
   8  -7  17   56.48   14.34
   8  -7 -17   37.14   11.91
  -8   7  17   53.08   14.51
   8  -7 -18    5.24    7.23
  -8   7  18    7.42   10.13
   8  -7  18   -2.54    2.20
  -8   7  19   43.31   12.29
   8  -7 -19   57.84   14.54
   8  -7  19   52.58   13.14
   8  -7 -20   -0.86    3.23
  -8   7  20    2.35    5.83
   8  -7  20   -1.23    4.20
  -8   7  21   41.30   12.58
   8  -7 -21   30.60   11.91
   8  -7  21   17.24    8.32
   8  -8   0  181.45   22.96
   8  -8   1   45.35   11.62
   8  -8  -1   40.82   10.48
   8  -8  -2   -2.85    3.82
   8  -8   2    4.38    5.33
   8  -8  -3   15.59    7.24
   8  -8   3    8.53    2.57
  -8   8   4   17.84    7.33
   8  -8  -4    2.49    4.93
   8  -8   4    7.30    5.21
  -8   8   5   49.78   12.11
   8  -8   5   52.08   12.13
   8  -8  -5   30.12   10.63
  -8   8   6   20.79   10.26
   8  -8   6   29.04    7.83
  -8   8   7   69.08   14.97
   8  -8   7   41.43   11.94
   8  -8  -7   85.89   16.56
   8  -8  -8    4.37    3.01
   8  -8   8   -4.32    5.19
  -8   8   8    6.97    6.37
   8  -8  -9    2.89    2.59
   8  -8   9   -0.63    2.95
  -8   8   9    3.42    8.59
  -8  -8  10   -1.17    6.29
   8  -8  10    6.62    3.03
   8  -8 -10   -0.77    5.99
  -8   8  10   -6.63    5.79
  -8   8  11   76.31   16.57
   8  -8  11   90.26   17.32
   8  -8 -11   97.37   17.98
  -8  -8  11  137.34   23.06
  -8  -8  12   -0.56    5.31
   8  -8  12   20.23    9.44
  -8   8  12   11.27    9.59
   8  -8 -12    5.01    3.94
  -8  -8  13    0.85    3.55
   8  -8  13    3.96    5.42
  -8   8  13    3.63    6.91
   8  -8 -13    5.01    5.55
  -8  -8  14    2.46    5.59
   8  -8 -14    4.05    4.12
   8  -8  14    1.73    3.52
  -8   8  14    8.83    8.29
   8  -8 -15   92.83   17.92
  -8   8  15   83.42   17.46
   8  -8  15  137.01   20.97
  -8  -8  15  132.43   20.96
   8  -8  16   -4.04    7.16
   8  -8 -16    4.29    4.39
  -8   8  16    6.58    8.12
   8  -8  17   60.60   14.41
  -8   8  17   63.23   14.38
   8  -8 -17   45.22   12.71
   8  -8  18   -2.14    4.30
  -8   8  18    1.55    6.76
   8  -8 -18    3.50    5.05
   8  -8 -19   38.19   11.06
  -8   8  19   59.30   16.01
   8  -8  19   59.01   14.64
   8  -8 -20    7.02    5.70
  -8   8  20    7.52    6.51
   8  -8  20    5.69    6.05
   8  -9   0   88.75   17.84
   8  -9   1   60.92   13.68
   8  -9  -1   39.08   10.56
   8  -9   2   31.46    9.64
   8  -9  -2   28.61   10.20
   8  -9  -3   39.60   12.16
   8  -9   3   50.09   12.29
   8  -9  -4    3.47    4.98
   8  -9   4    3.79    3.65
  -8   9   5   15.81    7.81
   8  -9  -5   25.63    9.32
   8  -9   5   27.21   10.10
  -8   9   6   17.47    8.15
   8  -9   6   26.32    9.96
   8  -9  -6   14.99    8.17
  -8   9   7  248.51   29.61
   8  -9  -7  218.56   27.32
   8  -9   7  273.61   28.92
  -8   9   8   75.16   17.78
   8  -9   8   79.81   15.77
   8  -9  -8   90.78   18.32
   8  -9  -9    1.50    4.59
   8  -9   9    2.93    4.85
  -8   9   9    4.51    3.58
   8  -9 -10   -0.76    3.36
   8  -9  10    8.19    5.56
  -8  -9  11   40.47   13.48
   8  -9  11   71.03   15.32
   8  -9 -11   43.05   12.65
  -8   9  11   53.31   13.78
  -8  -9  12   32.38   11.78
   8  -9  12   24.43    9.15
  -8   9  12   16.59    9.13
   8  -9 -12   34.26   11.26
  -8  -9  13   39.53   10.71
   8  -9  13   41.34   12.34
  -8   9  13   54.62   14.57
   8  -9 -13   48.23   13.51
  -8  -9  14   33.48   11.34
   8  -9  14   19.13    7.30
  -8   9  14   11.68    5.73
   8  -9 -14   18.27    7.74
   8  -9 -15   18.04    8.17
  -8  -9  15    4.77    5.79
   8  -9  15   25.54   10.39
  -8   9  15   34.46   10.78
   8  -9  16    0.89    3.99
   8  -9 -16    2.99    4.51
  -8   9  16   -0.06    5.12
  -8  -9  16    3.75    5.64
   8  -9  17   32.52   10.17
   8  -9 -17   28.15   10.71
  -8   9  17   24.93    9.47
   8  -9  18   83.99   17.11
   8  -9 -18   62.40   14.74
  -8   9  18   53.45   12.49
   8 -10   0    9.03    6.44
   8 -10   1   22.09    8.45
   8 -10  -1    9.93    5.39
   8 -10   2    5.03    8.78
   8 -10  -2    2.59    4.26
   8 -10  -3   -0.85    5.38
   8 -10   3    2.92    5.22
   8 -10  -4   79.09   16.61
   8 -10   4   63.83   14.16
   8 -10  -5   11.12    5.98
   8 -10   5   -7.35    7.42
  -8  10   6    1.77    5.25
   8 -10   6   -0.96    3.27
   8 -10  -6   -3.20    3.88
  -8  10   7   13.52    7.01
   8 -10   7    9.81    4.36
  -8  10   8    4.85    4.48
   8 -10   8   10.43    3.28
   8 -10  -8    2.91    3.93
   8 -10  -9    1.83    3.30
  -8 -10   9   -4.53    4.07
   8 -10   9   11.65    6.37
  -8  10   9    8.79    3.57
  -8 -10  10    8.16    9.03
   8 -10 -10    0.48    4.40
   8 -10  10   -4.77    4.74
  -8  10  10    0.92    5.51
  -8 -10  11    6.49    3.81
   8 -10 -11    0.54    6.25
   8 -10  11    1.08    4.77
  -8  10  11   15.44    9.03
  -8 -10  12    5.80    6.09
   8 -10  12   21.35    9.83
   8 -10 -12   16.75    6.22
  -8  10  12    2.60    2.93
  -8 -10  13    5.43    5.72
   8 -10  13   -0.40    3.69
  -8  10  13   -4.29    3.94
   8 -10 -13   11.74    9.70
  -8 -10  14   53.47   15.21
   8 -10  14   42.32   13.21
   8 -10 -14   58.93   17.11
  -8 -10  15   14.01    9.75
   8 -10  15   -0.19    3.68
  -8  10  15   -2.23    6.52
   8 -10 -15    0.03    3.30
  -8 -10  16    0.72    3.26
   8 -10  16   -0.41    4.38
  -8  10  16   -2.72    8.32
   8 -10 -16   -0.27    2.16
   8 -11   0   38.65   12.23
   8 -11   1    0.21    4.21
   8 -11  -1    9.34    7.33
   8 -11   2    9.27    6.75
   8 -11  -2   18.45    4.35
   8 -11  -3   15.81    6.29
   8 -11   3    1.15    5.51
   8 -11   4  152.99   23.01
   8 -11  -4  163.73   23.97
   8 -11  -5    5.64    4.53
   8 -11   5    2.68    6.49
   8 -11   6    4.20    4.57
   8 -11  -6   -2.87    3.11
   8 -11   7    6.93    2.65
   8 -11  -7    9.58    7.92
  -8  11   8   16.28    7.18
   8 -11   8   14.58    6.70
   8 -11  -8   23.98    7.97
   8 -11  -9   33.02   10.42
  -8  11   9   34.32   11.51
   8 -11   9   52.56   13.91
   8 -11 -10   66.10   13.29
   8 -11  10   73.46   15.79
  -8  11  10   92.50   18.19
   8 -11 -11    2.39    2.58
   8 -11  11   -3.59    2.68
  -8  11  11   -4.26    4.84
  -8 -11  12    0.21    3.96
   8 -11 -12   11.80    4.81
   8 -11  12   41.30   12.80
  -8  11  12   28.03    9.67
  -8 -11  13    5.68    8.99
   8 -11  13   -0.49    3.59
   8 -11 -13   -0.57    8.08
  -8  11  13   12.06    8.79
  -8 -11  14   25.75    8.87
   8 -11  14   41.21   11.40
   8 -11 -14   59.27   16.42
  -8  11  14   38.08   13.74
   8 -12   0   38.96   12.09
   8 -12   1   27.00   10.56
   8 -12  -1   30.46   10.22
   8 -12  -2   10.53    7.07
   8 -12   2    9.33    4.69
   8 -12  -3    1.14    5.60
   8 -12   3   -1.49    2.28
   8 -12  -4    5.44    3.73
   8 -12   4   -3.31    5.31
   8 -12  -5   14.44    7.63
   8 -12   5   10.35    7.61
   8 -12  -6   -1.35    4.96
   8 -12   6   12.45    4.04
   8 -12   7    4.53    5.21
   8 -12  -7    6.94    5.05
   8 -12   8   10.54    6.63
   8 -12  -8   -8.27    8.20
   8 -12   9    5.98    5.70
   8 -12  -9   -0.68    4.40
   8 -12  10   25.68   10.74
  -8  12  10   26.64   14.00
   8 -12 -10   23.30    9.09
   8 -13   0    2.35    4.91
   8 -13   1   -1.52    3.95
   8 -13  -1   -7.64    7.32
   8 -13  -2   -1.36    2.21
   8 -13   2    0.53    3.28
   8 -13  -3   -2.33    4.18
   8 -13   3    1.70    3.24
  -9   0   2   18.18    7.62
  -9   0   3    0.79    5.96
  -9   0   4    9.29    5.89
  -9   0   5   -3.35    2.96
  -9   0   6   65.94   14.03
  -9   0   7   -1.89    5.27
  -9   0   8   25.63   10.08
  -9   0   9   -4.88    5.85
  -9   0  10   13.95    7.84
  -9   0  11    2.52    2.07
  -9   0  12    6.59    2.99
  -9   0  13    2.96    2.68
   9   0  13    0.14    7.04
   9   0  14   36.84   12.26
  -9   0  14   37.68   10.69
   9   0  15   -4.35    6.32
  -9   0  15    8.01    8.12
   9   0  16   22.82    9.37
  -9   0  16    8.81    8.38
   9   0  17    2.22    5.87
  -9   0  17    6.77    8.25
  -9   0  18   92.83   19.69
   9   0  18   73.18   15.55
   9   0  19    8.67    6.15
  -9   0  19   13.99    9.74
   9   0  20   34.49    9.02
  -9   0  20   43.60   13.61
   9   0  21    0.76    5.77
  -9   0  21    8.29    8.16
   9   0  21    8.95    8.22
   9   0  22    8.58    9.58
  -9   0  22   11.25    8.56
   9   0  22   12.24    9.17
   9   0  23   -1.67    2.77
  -9   0  23    2.46    4.94
   9   0  23  -10.26    9.46
  -9  -1   2  670.10   43.38
  -9   1   2  612.44   42.32
  -9  -1   3    6.23    7.09
  -9   1   3    7.47    4.60
  -9   1   4  219.58   24.58
  -9  -1   4  187.08   23.32
  -9   1   5   48.85   12.67
  -9  -1   5   64.48   14.24
  -9   1   6  140.08   20.50
  -9  -1   6  140.04   20.02
  -9   1   7    8.31    8.18
  -9  -1   7    7.25    6.49
   9  -1   8  226.41   23.55
  -9   1   8  238.93   27.10
  -9  -1   8  219.98   25.70
   9  -1   9  135.44   18.32
  -9   1   9  137.18   20.31
  -9  -1   9  133.02   20.06
   9  -1  10  197.74   23.02
  -9   1  10  224.96   26.19
  -9  -1  10  176.75   23.78
  -9   1  11   11.87    5.44
  -9  -1  11   16.06    7.79
   9  -1  11   26.33    8.75
   9  -1  12  189.59   22.78
  -9   1  12  149.93   21.70
  -9  -1  12  133.70   20.11
  -9   1  13   34.40   12.22
  -9  -1  13   67.37   13.94
   9  -1  13   79.54   14.46
  -9   1  14   15.45    9.76
  -9  -1  14   13.59    8.07
   9  -1  14    4.63    7.10
  -9   1  15    1.57    3.60
  -9  -1  15   11.94    7.87
   9  -1  15    6.24    5.74
   9  -1  16  123.22   20.67
  -9   1  16   79.54   16.94
  -9  -1  16  102.75   17.88
  -9   1  17   21.55   11.01
   9  -1  17   27.18   10.18
  -9  -1  17   25.68   12.21
   9  -1  18   13.69    7.06
  -9   1  18    8.28    5.36
  -9  -1  18   -7.37    5.24
   9   1  19    7.08    5.86
   9  -1  19   -3.50    6.74
  -9   1  19   -2.82    2.21
  -9  -1  19   -1.19    4.56
   9   1  20   37.34   11.68
   9  -1  20   43.40   11.48
  -9   1  20   51.42   14.16
  -9  -1  20   57.59   15.52
   9   1  20   52.81   15.19
   9   1  21    7.99    5.34
   9  -1  21   -6.95    4.08
  -9   1  21    3.00    4.60
  -9  -1  21    0.85    2.37
   9   1  21    4.56    5.41
   9   1  22   -2.71    6.09
   9  -1  22   -3.19    3.35
  -9   1  22    9.39    8.28
  -9  -1  22   12.21    8.84
   9   1  22    0.58    5.51
   9  -1  22    8.35    7.28
   9   1  23   37.32   11.37
   9  -1  23   24.63    7.88
  -9   1  23   32.99   12.30
  -9  -1  23   21.33    7.69
   9   1  23   26.96    9.07
   9  -1  23   28.31   11.02
  -9  -2   2    0.78    2.67
  -9   2   2   -0.61    3.29
  -9  -2   3    0.94    4.84
  -9   2   3    8.33    7.09
   9  -2   4   12.94    6.14
  -9   2   4    7.78    5.34
  -9  -2   4   -1.99    3.66
  -9   2   5   98.12   17.53
  -9  -2   5   56.44   12.97
   9  -2   5   99.47   15.46
   9  -2   6   16.56    5.89
  -9   2   6   19.94    6.62
  -9  -2   6   18.37    7.08
   9  -2   7   41.72   10.58
  -9   2   7   37.94   11.84
  -9  -2   7   57.60   13.52
  -9   2   8    2.55    5.16
  -9  -2   8    8.80    9.03
   9  -2   8    7.09    5.36
  -9   2   9   41.50   13.59
  -9  -2   9   32.12    9.72
   9  -2   9   48.23   12.07
  -9   2  10   20.57    9.51
  -9  -2  10   26.15    9.14
   9  -2  10   11.75    5.74
  -9   2  11   -3.17    4.87
  -9  -2  11   -3.06    4.49
   9  -2  11   -7.11    6.41
  -9   2  12   19.02    9.33
  -9  -2  12   15.13   11.46
   9  -2  12    3.80    4.33
  -9   2  13    6.60    7.29
  -9  -2  13    2.52    7.13
   9  -2  13   -5.92    5.09
  -9   2  14    8.69    8.53
  -9  -2  14    5.25    3.74
   9  -2  14   10.22    6.72
   9  -2  15  138.88   20.00
  -9   2  15  124.32   20.90
  -9  -2  15  104.21   18.27
  -9   2  16   -2.69    6.24
  -9  -2  16    5.03    6.40
   9  -2  16    0.95    3.61
  -9   2  17   78.29   16.62
  -9  -2  17   55.61   15.08
   9  -2  17  100.89   18.84
  -9   2  18   -2.23    5.36
  -9  -2  18    3.10    4.62
  -9   2  19   11.80    5.19
  -9  -2  19   16.38    6.25
   9  -2  19   17.22   10.22
  -9   2  20    4.44    5.76
   9  -2  20   -3.65    6.04
  -9  -2  20    7.25    7.08
   9  -2  21    9.94    6.44
  -9   2  21   10.97    6.37
  -9  -2  21   18.69    8.40
   9  -2  22   -2.43    5.52
  -9   2  22    2.06    3.58
  -9  -2  22   -0.06    6.54
   9  -2  23    1.80    3.10
  -9   2  23   -3.38    4.52
  -9  -2  23    2.18    5.52
   9  -2  23   -3.71    4.40
   9  -3   0    0.95    2.57
   9  -3   1  231.52   22.40
   9  -3   2   -2.75    4.45
  -9   3   2    7.72    3.46
   9  -3   3   59.25   12.47
  -9   3   3   47.51   11.14
   9  -3   4   24.76    9.25
  -9   3   4   15.93    6.85
  -9   3   5  195.13   24.81
  -9  -3   5  211.23   24.93
   9  -3   5  206.41   22.06
   9  -3   6    6.10    6.37
  -9   3   6    2.46    5.00
   9  -3   7    5.74    2.01
  -9   3   7    0.92    6.97
  -9  -3   7    5.78    6.55
   9  -3   8   17.52    7.11
  -9   3   8   14.95    7.76
  -9  -3   8    1.00    5.37
  -9   3   9  335.78   32.36
  -9  -3   9  317.31   30.55
   9  -3  10   10.77    5.11
  -9   3  10   24.64    9.52
  -9  -3  11   -1.61    5.87
   9  -3  11   10.16    5.27
  -9   3  12   10.00    8.37
  -9  -3  12   12.64    8.70
   9  -3  12    7.54    7.76
  -9   3  13   36.66    8.95
  -9  -3  13   24.81   10.63
   9  -3  13   26.22    7.22
  -9   3  14   21.09    8.53
  -9  -3  14    2.68    8.51
   9  -3  14   10.57    6.79
   9  -3  15  133.76   21.14
  -9   3  15  109.39   19.69
  -9  -3  15  106.01   19.01
  -9   3  16   -0.36    5.05
  -9  -3  16   16.85   10.23
   9  -3  16    6.84    5.85
  -9   3  17   -0.11    2.11
  -9  -3  17   -4.13    6.72
   9  -3  17   -5.20    4.87
  -9   3  18   20.95    8.46
  -9  -3  18   18.62    9.36
   9  -3  18   15.11    8.98
  -9   3  19   69.43   16.26
  -9  -3  19   64.23   16.42
   9  -3  19   92.09   17.78
  -9   3  20   32.10   11.54
  -9  -3  20   40.17   12.76
   9  -3  20   51.74   14.85
  -9   3  21    2.93    2.30
   9  -3  21   14.20    4.38
  -9   3  22   29.37    9.81
   9  -3  22   18.68    7.67
  -9  -3  22   30.99    9.88
   9  -4   0   -4.28    3.86
   9  -4   1    0.64    2.97
   9  -4  -1   10.03    6.19
  -9   4   2   28.15    8.67
   9  -4   2   16.94    6.31
   9  -4  -2   18.08    6.98
   9  -4  -3    2.16    3.92
   9  -4   3    8.70    6.16
  -9   4   3    6.09    5.93
   9  -4  -4    4.16    4.70
   9  -4   4    4.94    6.49
  -9   4   4    8.64    6.40
   9  -4   5   35.95    8.81
  -9   4   5   26.75   11.42
   9  -4   6    7.97    5.26
  -9   4   6   21.79    7.04
   9  -4   7    2.13    1.80
  -9   4   7   10.90    7.44
  -9   4   8  188.57   24.78
   9  -4   8  192.29   23.34
   9  -4   9   18.91    7.58
  -9   4   9   12.91    8.50
   9  -4  10   11.02    5.46
  -9   4  10   15.27    8.26
   9  -4  11   -4.19    6.60
  -9   4  11    2.66    6.95
   9  -4  12    3.64    7.10
  -9   4  12    0.48    5.81
  -9   4  13    2.44    6.02
   9  -4  13    1.64    3.51
  -9   4  14   24.71    9.36
   9  -4  14   15.75    8.41
  -9   4  15    1.35    4.17
   9  -4  15   -7.11    5.76
  -9   4  16   -4.07    4.29
   9  -4  16   -2.16    3.99
  -9   4  17   13.01    8.69
   9  -4  17   10.66    8.19
  -9   4  18   19.91   10.14
   9  -4  18    4.73    7.20
  -9   4  19    4.29    3.82
   9  -4  19   10.92    9.70
  -9   4  20    2.30    5.19
   9  -4  20   10.10    5.75
  -9   4  21    0.33    6.69
   9  -4  21    3.24    3.17
  -9   4  22   32.48   11.56
   9  -4  22   28.97   10.49
   9  -5   0   -2.17    3.28
   9  -5   1   -0.27    3.69
   9  -5  -1   -3.04    6.69
   9  -5   2  124.99   17.79
   9  -5  -2  122.66   17.73
   9  -5  -3   11.42    6.22
  -9   5   3    4.43    4.45
   9  -5   3   12.40    6.75
   9  -5  -4    0.23    4.92
   9  -5   4   -3.13    3.16
   9  -5  -5    3.02    3.55
   9  -5   5    5.99    5.44
  -9   5   5   -6.79    9.83
   9  -5   6   70.49   13.75
  -9   5   6   57.95   13.86
   9  -5  -6   46.86   11.01
   9  -5   7    1.57    7.73
  -9   5   7   12.79   10.07
   9  -5  -7    9.60    7.47
  -9   5   8  164.06   23.41
   9  -5  -8  121.22   19.56
   9  -5   8  162.48   21.93
   9  -5   9   17.48    7.15
  -9   5   9   17.64    6.36
   9  -5  10   53.41   12.89
  -9   5  10   97.49   17.37
   9  -5  11   16.52    7.42
  -9   5  11   20.64   11.13
   9  -5  12   98.97   16.80
  -9   5  12  110.82   19.37
   9  -5  13   30.37   10.55
  -9   5  13   28.14    9.84
  -9   5  14   26.16   11.31
   9  -5  14   50.98   12.57
  -9   5  15   17.39    8.42
   9  -5  15   43.78   12.10
   9  -5  16  157.69   23.72
  -9   5  16  212.65   27.34
  -9   5  17   -2.59    4.85
   9  -5  17   10.36    6.77
  -9   5  18    3.89    5.23
   9  -5  18    6.68    6.33
  -9   5  19    8.56    4.98
   9  -5  19   -4.86    2.68
  -9   5  20   27.77   10.03
   9  -5  20   21.14   10.78
  -9   5  21   38.30   11.18
   9  -5  21   31.83   12.94
   9  -6   0    2.58    5.69
   9  -6  -1   12.56    3.04
   9  -6   1   12.10    7.43
   9  -6  -2    0.91    3.08
   9  -6   2   20.31    7.44
   9  -6  -3   32.08    9.61
  -9   6   3   23.89   10.70
   9  -6   3   16.65    6.97
   9  -6  -4    2.41    3.87
  -9   6   4    2.37    5.30
   9  -6   4    3.83    3.88
   9  -6  -5   -3.87    2.59
  -9   6   5   -1.28    3.47
   9  -6   6   -1.60    2.79
  -9   6   6   -5.96    9.42
   9  -6  -6    2.61    4.73
   9  -6   7    4.85    2.83
  -9   6   7    1.99    5.29
   9  -6  -7    2.18    3.63
   9  -6   8   15.35    8.86
  -9   6   8   13.25    8.02
   9  -6   9    3.12    4.09
  -9   6   9   13.36    9.23
   9  -6  -9    2.81    2.64
   9  -6 -10   -1.96    4.86
   9  -6  10   -2.71    4.07
  -9   6  10   -4.93    4.65
   9  -6  11   -4.92    5.92
   9  -6 -11   -0.50    6.59
  -9   6  11   -4.30    8.01
   9  -6  12   -2.37    4.84
  -9   6  12   -0.96    7.27
   9  -6  13   10.34    6.23
  -9   6  13   13.41    7.72
   9  -6  14    5.47    6.44
  -9   6  14   -0.98    4.54
   9  -6  15    6.36    2.81
  -9   6  15    6.91    3.36
  -9   6  16    8.03    3.16
   9  -6  16   10.73    7.46
  -9   6  17   41.82   12.85
   9  -6  17   36.97   11.97
  -9   6  18   29.83    9.88
   9  -6  18   35.80   12.85
  -9   6  19    1.93    5.74
   9  -6  19   10.84    6.57
  -9   6  20    3.27    4.00
   9  -6  20    1.65    5.26
   9  -7   0   -1.06    3.30
   9  -7  -1   13.09    7.69
   9  -7   1   25.93    7.55
   9  -7  -2   45.53   11.80
   9  -7   2   41.36   12.50
   9  -7   3  171.65   21.69
   9  -7  -3  141.00   20.47
   9  -7  -4   -6.50    8.41
  -9   7   4    3.84    5.64
   9  -7   4   -2.53    5.35
   9  -7  -5   94.82   17.82
  -9   7   5   88.83   17.48
   9  -7   5  108.41   18.61
   9  -7   6   16.59    8.00
  -9   7   6   23.60   11.03
   9  -7  -6   29.73   10.55
   9  -7   7    6.04    4.01
  -9   7   7   19.51    8.40
   9  -7  -7    7.60    5.19
   9  -7   8   11.53    8.41
  -9   7   8    8.50    8.31
   9  -7  -8   13.66    8.97
   9  -7  -9  139.86   21.86
   9  -7   9  149.64   20.97
   9  -7 -10   52.43   13.02
   9  -7  10   38.20   11.49
  -9   7  10   52.66   14.20
   9  -7 -11    2.33    5.03
   9  -7  11    8.66    6.13
  -9   7  11   -6.41    9.61
   9  -7  12   32.93   11.16
   9  -7 -12   42.91   12.76
  -9   7  12   26.36   10.48
  -9   7  13  130.74   22.20
   9  -7  13  167.41   23.22
   9  -7 -13  165.67   23.01
   9  -7  14   -3.48    4.07
  -9   7  14    1.09    3.69
   9  -7  15   36.00   10.57
  -9   7  15   24.99    9.01
   9  -7  16   72.14   16.31
  -9   7  16   90.01   18.48
   9  -7  17   87.17   18.45
  -9   7  17   61.04   16.11
  -9   7  18    1.19    5.68
   9  -7  18    1.06    3.43
  -9   7  19    9.32    6.36
   9  -7  19    6.24    7.08
   9  -8   0   -5.44    5.54
   9  -8  -1    5.64    6.19
   9  -8   1    7.00    4.74
   9  -8  -2    6.29    4.80
   9  -8   2   11.21    5.49
   9  -8  -3   29.53   10.47
   9  -8   3   25.53    9.09
   9  -8  -4    8.38    2.59
   9  -8   4    7.50    4.83
  -9   8   5   38.11   11.97
   9  -8  -5   20.71    8.59
   9  -8   5   55.80   12.95
  -9   8   6   -4.74    8.00
   9  -8   6    5.49    3.86
   9  -8  -6    2.24    8.23
  -9   8   7   -0.42    4.24
   9  -8  -7    6.90    4.99
   9  -8   8   -3.16    2.13
  -9   8   8    9.79    6.10
   9  -8  -8    1.31    5.18
   9  -8   9    4.05    3.04
  -9   8   9   18.40   10.23
   9  -8  -9   10.83    7.46
   9  -8 -10   -4.57    4.47
   9  -8  10   13.14    7.05
  -9   8  10   12.60   10.00
   9  -8 -11    2.86    5.52
   9  -8  11    0.40    4.22
  -9   8  11    6.53    5.38
   9  -8  12   -5.91    6.35
   9  -8 -12   -0.14    3.01
  -9   8  12    3.21    5.54
   9  -8  13   -0.03    3.62
   9  -8 -13   11.08    7.09
  -9   8  13    3.29    3.98
   9  -8  14   10.92    9.31
   9  -8 -14   12.36    4.81
  -9   8  14    5.56    8.04
   9  -8  15    8.99    7.09
  -9   8  15    5.09    3.76
   9  -8 -15    1.92    5.32
   9  -8  16    1.87    2.83
  -9   8  16    5.73    6.80
   9  -8 -16    3.71    7.90
   9  -8  17   14.08    8.44
  -9   8  17   11.36    6.33
   9  -9   0   -3.10    4.51
   9  -9  -1   49.62   13.68
   9  -9   1   52.72   13.45
   9  -9  -2    8.57    3.52
   9  -9   2   19.53    9.90
   9  -9  -3   27.05    9.94
   9  -9   3    1.87    4.08
   9  -9  -4    4.83    5.62
   9  -9   4   10.58    6.42
   9  -9  -5   -0.68    5.13
   9  -9   5    4.96    4.71
  -9   9   6  156.68   24.11
   9  -9  -6  186.85   25.51
   9  -9   6  145.61   22.51
  -9   9   7   16.75   10.19
   9  -9   7   16.17    5.79
   9  -9  -7   16.67   10.12
   9  -9   8   17.02    6.79
  -9   9   8   26.03   12.32
   9  -9  -8   17.03   10.07
  -9   9   9  136.86   23.22
   9  -9  -9  110.38   19.19
   9  -9   9  117.28   18.95
   9  -9  10    1.70    4.84
  -9   9  10   -1.31    4.12
   9  -9 -10    1.58    3.85
   9  -9 -11   -0.54    7.96
   9  -9  11    1.29    2.78
  -9   9  11    6.40    8.00
   9  -9 -12   14.97   10.51
   9  -9  12   17.40    7.90
  -9   9  12   27.98   10.96
   9  -9 -13   60.81   15.66
  -9   9  13   52.19   14.63
   9  -9  13   92.18   19.00
   9  -9  14   18.35    9.66
   9  -9 -14    1.83    7.44
  -9   9  14   -2.45    4.52
   9  -9  15   28.71   12.24
   9  -9 -15   14.60    7.77
  -9   9  15   24.33   11.62
   9 -10   0   -2.39    2.13
   9 -10  -1   -0.73    3.18
   9 -10   1    2.09    3.46
   9 -10  -2    3.27    3.04
   9 -10   2   13.45    7.72
   9 -10  -3    3.28    4.65
   9 -10   3   10.43    5.68
   9 -10  -4   32.50   12.07
   9 -10   4   27.33    9.79
   9 -10  -5   18.09    9.68
   9 -10   5    0.34    2.86
   9 -10  -6    9.62    5.98
   9 -10   6   -1.42    2.99
   9 -10   7   -1.03    4.97
   9 -10  -7    3.09    5.74
  -9  10   8    5.44    7.52
   9 -10   8    2.82    3.27
   9 -10  -8   17.72    8.76
   9 -10   9   48.15   11.95
  -9  10   9   61.63   16.45
   9 -10  -9   37.09   12.36
   9 -10  10   -0.57    3.41
   9 -10 -10   -3.81    6.12
   9 -10 -11    1.43    4.58
   9 -10  11    2.73    5.60
  -9  10  11    8.12    6.02
   9 -10 -12   10.45    6.77
   9 -10  12   10.05    3.46
  -9  10  12   14.13   11.34
   9 -10 -13    5.03    4.15
  -9  10  13   15.71    5.73
   9 -11   0    8.20    4.13
   9 -11  -1    1.36    5.04
   9 -11   1   -6.03    6.71
   9 -11  -2   95.10   17.59
   9 -11   2   70.30   16.37
   9 -11  -3    7.61    2.88
   9 -11   3    8.42    2.98
   9 -11  -4    7.09    5.18
   9 -11   4    2.90    4.23
   9 -11  -5    9.37    8.08
   9 -11   5   -3.63    4.43
   9 -11  -6   -1.72    3.42
   9 -11   6   -6.34    6.79
   9 -11   7   -3.60    7.22
   9 -11  -7   -0.33    3.43
   9 -11   8   49.07   14.89
   9 -11  -8   39.17   11.96
   9 -11   9   12.74    4.72
  -9  11   9   24.97    8.76
   9 -11  -9   27.13    9.11
 -10   0   3    1.57    4.64
 -10   0   4   47.55   13.17
 -10   0   5   -0.49    6.62
 -10   0   6    1.33    3.78
 -10   0   7    0.32    8.39
 -10   0   8   65.03   13.27
 -10   0   9    9.50    3.72
 -10   0  10   13.02    9.69
 -10   0  11    7.18    6.06
 -10   0  12   57.22   15.25
 -10   0  13    4.05    5.69
 -10   0  14   26.34    7.66
 -10   0  15   -7.65    5.59
 -10   0  16   -2.43    2.85
 -10   0  17   15.14   10.13
 -10   0  18   27.16    9.50
 -10   0  19    3.79    8.07
 -10   0  20    7.23    5.54
 -10  -1   3   20.32    5.76
 -10   1   3   20.25    5.87
 -10   1   4   97.87   18.37
 -10  -1   4   90.67   17.29
 -10  -1   5   32.50   10.48
 -10   1   5   17.66    6.92
 -10   1   6   20.48    9.68
 -10  -1   6   26.30    8.29
 -10   1   7   67.14   14.45
 -10  -1   7   68.45   15.99
 -10  -1   8  128.91   21.42
 -10   1   8   97.27   17.15
 -10   1   9   37.13   11.85
 -10  -1   9   22.66    6.51
 -10   1  10   39.33   11.58
 -10  -1  10   68.21   14.41
 -10   1  11  103.07   18.30
 -10  -1  11   82.65   15.77
 -10   1  12    1.63    5.12
 -10  -1  12   13.63    7.28
 -10   1  13   24.08    9.21
 -10  -1  13   18.79    9.80
 -10   1  14   42.01   11.68
 -10  -1  14   30.87    9.91
 -10   1  15    1.48    3.35
 -10  -1  15   36.53   11.87
 -10   1  16   10.07    4.00
 -10  -1  16    6.83    4.81
 -10   1  17   -5.25    6.48
 -10  -1  17    1.72    6.98
 -10   1  18   88.43   17.06
 -10  -1  18   42.13   14.06
 -10   1  19   -1.44    6.58
 -10  -1  19   -0.31    6.91
 -10   1  20    6.35    7.18
 -10  -1  20   -3.49    6.49
 -10  -2   3   33.73   13.27
 -10   2   3    4.53    5.95
 -10  -2   4   75.22   14.79
 -10   2   4   66.18   15.31
 -10  -2   5    1.00    3.04
 -10   2   5    7.44    6.27
 -10   2   6    7.67    3.40
 -10  -2   6   12.81    8.35
 -10   2   7    2.31    4.65
 -10  -2   7    2.16    5.09
 -10   2   8   38.69   10.95
 -10  -2   8   32.23   10.71
 -10   2   9    5.96    5.63
 -10  -2   9   -4.75    4.28
 -10   2  10   55.78   14.07
 -10  -2  10   55.82   14.70
 -10   2  11   31.40   10.86
 -10  -2  11   30.93    9.77
 -10   2  12    2.58    7.15
 -10  -2  12    9.89    6.23
 -10   2  13    3.48    3.25
 -10  -2  13   11.85    6.86
 -10   2  14   10.06    8.71
 -10  -2  14   20.92    5.89
 -10   2  15   -5.80    7.05
 -10  -2  15    5.68    7.81
 -10   2  16   11.75   10.29
 -10  -2  16    8.91    6.11
 -10   2  17    8.69    5.84
 -10  -2  17    4.01    5.18
 -10   2  18   32.79   11.90
 -10  -2  18   14.23    9.43
 -10   2  19   36.31   11.08
 -10  -2  19   56.17   14.21
 -10   2  20   -6.96    5.31
 -10  -2  20    5.21    4.91
 -10   3   3  176.61   24.12
 -10   3   4    5.38    4.31
 -10   3   5   50.51   13.56
 -10   3   6   12.90    6.45
 -10   3   7  313.39   33.72
 -10   3   8   21.98   10.24
 -10   3   9    9.38    4.21
 -10   3  10    9.35    8.07
 -10   3  11   37.53   12.14
 -10   3  12    4.48    2.26
 -10   3  13   79.58   18.03
  10  -3  13   54.56   14.44
 -10   3  14    2.50    6.88
  10  -3  14    1.63    2.86
 -10   3  15   37.26   13.64
  10  -3  15   47.51   12.55
 -10   3  16    1.93    5.74
  10  -3  16    0.60    4.79
 -10   3  17    5.61    3.10
  10  -3  17   22.34    9.10
 -10   3  18    9.52    7.70
  10  -3  18   -8.68    7.66
 -10   3  19   71.11   16.13
  10  -3  19   39.43   12.93
 -10   3  20   29.22   11.03
  10  -3  20   10.99    7.89
 -10   4   4   11.91    7.18
 -10   4   5    3.80    3.36
 -10   4   6    7.73    6.04
 -10   4   7   67.84   16.00
  10  -4   8   -3.04    4.99
 -10   4   8   -7.75   10.00
  10  -4   9   12.79    6.85
 -10   4   9   10.88    4.57
  10  -4  10    2.31    3.80
 -10   4  10   -1.73    2.71
 -10   4  11   -4.75    7.44
  10  -4  11    6.16    6.19
 -10   4  12   17.23   10.19
  10  -4  12   10.47    6.57
 -10   4  13   41.58   13.74
  10  -4  13   52.29   12.53
 -10   4  14    4.34    4.83
  10  -4  14    0.30    3.82
 -10   4  15   -0.86    2.49
  10  -4  15   -0.77    3.33
 -10   4  16    7.53    8.84
  10  -4  16    0.74    3.86
 -10   4  17    8.05    7.52
  10  -4  17   19.00   11.47
 -10   4  18    8.99    6.72
  10  -4  18    8.55    6.43
 -10   4  19    6.71    2.42
  10  -4  19    7.18    4.68
  10  -5   4   82.03   15.07
 -10   5   4  121.09   21.29
  10  -5   5    2.41    4.59
 -10   5   5    2.22    4.93
  10  -5   6   -3.21    4.87
 -10   5   6   16.38    8.27
  10  -5   7   -1.64    2.74
 -10   5   7   -7.11    8.96
  10  -5   8   39.41   12.79
 -10   5   8   38.88   10.12
  10  -5   9   30.42   10.82
 -10   5   9   33.72    9.71
 -10   5  10  123.73   21.57
  10  -5  10  100.78   18.09
  10  -5  11    9.94    7.11
 -10   5  11    2.48    2.54
  10  -5  12    4.52    5.55
 -10   5  12   -4.89    8.33
 -10   5  13   -0.36    4.66
  10  -5  13   -2.96    3.05
 -10   5  14   56.05   13.02
  10  -5  14    5.10   10.54
 -10   5  15   14.71    8.67
  10  -5  15    2.44    5.23
 -10   5  16   -5.96    6.12
  10  -5  16   -0.46    5.22
 -10   5  17   -5.10    6.62
  10  -5  17   11.30    9.65
 -10   5  18   35.83   11.60
  10  -5  18   37.31   12.06
  10  -6   0   88.33   16.53
  10  -6   1  -10.54    7.02
  10  -6   2   12.42    6.56
  10  -6   3   -4.46    3.90
  10  -6   4   51.19   13.93
  10  -6   5   10.58    4.72
 -10   6   5   13.14    8.37
  10  -6   6    3.17    5.17
 -10   6   6    4.84    5.59
  10  -6   7   16.28    6.66
 -10   6   7    4.36    8.28
  10  -6   8   25.27    9.53
 -10   6   8   14.65    5.25
  10  -6   9   22.46    8.80
 -10   6   9    6.45    8.67
 -10   6  10  122.19   21.15
  10  -6  10   97.98   18.01
  10  -6  11   -1.31    5.45
 -10   6  11  -10.20    4.53
  10  -6  12    1.21    5.49
 -10   6  12    3.00    6.05
  10  -6  13    4.71    8.17
 -10   6  13    5.50    2.29
  10  -6  14    0.28    5.69
 -10   6  14    5.93    8.75
 -10   6  15   29.40   12.96
  10  -6  15   -0.23    6.28
 -10   6  16   25.44   12.96
  10  -6  16    8.93    6.72
 -10   6  17   -0.44    6.26
  10  -6  17    0.65    5.64
  10  -7   0   14.56    9.02
  10  -7   1  110.00   17.95
  10  -7  -1  121.42   20.76
  10  -7   2   20.55    6.43
  10  -7  -2   22.73    8.27
  10  -7  -3   83.77   16.21
  10  -7   3   56.53   13.74
  10  -7  -4    1.96    5.44
  10  -7   4   11.61    7.15
  10  -7   5   -3.75    2.48
  10  -7   6   12.22    7.60
 -10   7   6    3.28    4.17
  10  -7   7   35.69   11.79
 -10   7   7   51.48   13.87
  10  -7   8   -5.62    4.48
 -10   7   8    5.21    7.46
  10  -7   9    4.14    6.20
 -10   7   9   -2.92    5.47
  10  -7  10   13.61    7.80
 -10   7  10    5.94    6.49
 -10   7  11  151.49   25.12
  10  -7  11  135.20   21.94
  10  -7  12   14.05    6.46
 -10   7  12   -2.86    5.00
  10  -7  13   35.51   11.79
 -10   7  13   40.69   13.59
  10  -7  14    8.92    6.98
 -10   7  14    5.23    7.82
  10  -7  15   38.71   11.58
 -10   7  15   39.61   10.53
  10  -8   0   37.70   10.54
  10  -8   1    5.10    4.36
  10  -8  -1    4.86    5.79
  10  -8  -2   16.17    6.00
  10  -8   2    5.28    4.65
  10  -8  -3    8.74    7.21
  10  -8   3    6.19    3.68
  10  -8  -4    4.40    2.45
  10  -8   4    1.15    5.28
  10  -8  -5    0.69    4.79
  10  -8   5    5.25    4.65
  10  -8  -6   36.81   13.53
  10  -8   6   43.10   11.92
 -10   8   6   35.56   12.94
  10  -8   7   77.64   16.56
 -10   8   7   69.74   15.35
  10  -8   8   -2.26    5.67
 -10   8   8   -5.63   10.46
  10  -8   9    7.96    5.55
 -10   8   9    6.27    6.33
  10  -8  10   -2.82    4.05
 -10   8  10    0.82    5.40
  10  -8  11   45.99   13.38
 -10   8  11   37.77   14.51
  10  -8  12   28.67    9.28
 -10   8  12   53.70   16.14
  10  -8  13   16.01    8.78
 -10   8  13   24.41   10.73
  10  -9   0   54.50   14.30
  10  -9   1    1.90    4.19
  10  -9  -1   18.94    7.17
  10  -9  -2   17.07    9.64
  10  -9   2   14.09    5.80
  10  -9  -3   45.04   13.55
  10  -9   3   45.45   12.70
  10  -9  -4   35.23   11.35
  10  -9   4   74.07   16.43
  10  -9  -5   10.43    6.01
  10  -9   5   23.65   10.18
  10  -9  -6   -1.99    4.56
  10  -9   6   -2.82    2.93
  10  -9   7   95.49   18.53
  10  -9  -7   94.39   19.18
  10  -9   8   22.32    7.96
 -10   9   8   27.23   10.12
  10  -9  -8    9.44    8.63
  10  -9   9    3.65    3.60
  10  -9  -9   -9.45    9.75
  10  -9  10   -6.06    7.69
 -10   9  10   11.74    9.09
  10  -9  11   -6.93    6.22
 -10   9  11   18.48    9.46
  10 -10   0   -3.74    6.29
  10 -10   1   19.95    9.10
  10 -10  -1   -0.55    2.60
  10 -10  -2    8.14    7.60
  10 -10   2    7.83    4.12
  10 -10  -3   25.35   11.66
  10 -10   3   12.22    8.73
  10 -10  -4    4.35    5.21
  10 -10   4    6.36    5.11
  10 -10  -5    4.75    2.92
  10 -10   5    6.90    7.78
  10 -10  -6   -2.56    5.36
  10 -10   6    4.69    2.25
  10 -10  -7   12.90   10.34
  10 -10   7    3.38    4.39
 -11   0   4   47.07   13.10
 -11   0   5   -2.59    4.55
 -11   0   6   28.45   11.95
 -11   0   7   -5.42    6.25
 -11   0   8   18.51   10.51
 -11   0   9   -6.34    7.40
 -11   0  10   49.55   13.39
 -11   0  11   -6.86    5.46
 -11   0  12   -6.96    8.25
 -11   0  13   -3.82    6.02
 -11   0  14   64.97   16.00
 -11   0  15    5.07    3.42
 -11   0  16  125.12   22.39
 -11   0  17    7.35    5.88
 -11   1   4   23.47    8.50
 -11  -1   5    3.50    7.05
 -11   1   5   16.90    8.48
 -11  -1   6   40.19   12.59
 -11   1   6   29.39   10.96
 -11   1   7   -7.81    6.35
 -11  -1   7   -5.70    8.58
 -11   1   8    7.83    8.95
 -11  -1   8   -0.90    3.58
 -11   1   9   -2.25    4.24
 -11  -1   9    2.97    3.43
 -11   1  10   43.78   14.46
 -11  -1  10   39.50   14.67
 -11   1  11    4.19    4.00
 -11  -1  11    9.94    8.48
 -11   1  12   22.21   11.66
 -11  -1  12   18.20    9.36
 -11   1  13   12.44    6.32
 -11  -1  13   46.51   14.42
 -11   1  14   28.61   10.96
 -11  -1  14   11.44    5.85
 -11   1  15    0.85    4.52
 -11  -1  15   15.41   11.18
 -11   1  16   35.52   12.53
 -11  -1  16   21.55   11.53
 -11   1  17    2.96    6.69
 -11  -1  17    3.91    5.46
 -11   2   4    7.47    3.43
 -11   2   5   18.89    8.32
 -11   2   6    9.01    7.98
 -11   2   7    3.09    6.94
 -11   2   8   15.51    9.65
 -11   2   9   39.96   13.33
 -11   2  10   40.01   12.36
 -11   2  11   51.92   14.29
 -11   2  12    9.02    5.69
 -11   2  13   18.77    9.68
 -11   2  14   -0.78    6.42
 -11   2  15    1.21    2.83
 -11   2  16   -8.97    6.97
 -11   2  17   54.02   15.60
 -11   3   5   79.32   17.99
 -11   3   6   -0.99    4.73
 -11   3   7   13.09   10.01
 -11   3   8    2.48    5.62
 -11   3   9   11.15    8.68
 -11   3  10   22.91   10.88
 -11   3  11    3.88    6.93
 -11   3  12   14.47    6.75
 -11   3  13   60.04   14.47
 -11   3  14    4.43    5.24
 -11   3  15   12.71    3.12
 -11   3  16   10.26    8.07
 -11   4   5    0.20    3.42
 -11   4   6    4.03    8.93
 -11   4   7   -1.85    7.68
 -11   4   8   14.98    9.30
 -11   4   9   12.31    7.76
 -11   4  10   75.11   16.79
 -11   4  11   16.01   10.54
 -11   4  12    7.16    9.21
 -11   4  13   22.38   10.21
 -11   4  14    2.80    3.58
 -11   4  15   11.53   10.10
 -11   5   6   39.48   12.65
 -11   5   7   -1.34    2.99
 -11   5   8    3.05    6.58
 -11   5   9    7.22    4.36
 -11   5  10    1.42    6.24
 -11   5  11   20.58   10.80
 -11   5  12   14.60    9.42
 -11   5  13    5.67    6.89
 -11   5  14   17.63    8.85
 -11   6   6   16.03    9.92
 -11   6   7    6.05    6.92
 -11   6   8    9.18   10.72
 -11   6   9   50.07   15.61
 -11   6  10   11.96    9.93
 -11   6  11   -1.07    2.78
 -11   6  12   46.61   13.12
 -11   7   7   10.82    9.05
 -11   7   8    2.92    4.38
 -11   7   9    3.74    5.17
 -11   7  10    5.73    6.35
  11  -8   7   -9.31    9.11
 -12   0   6   -7.66    9.44
 -12   0   7    2.85    9.81
 -12   0   8   82.90   18.39
 -12   0   9   -7.52    9.16
 -12   0  10  105.77   20.99
 -12   0  11  -10.57    8.27
 -12   0  12   29.79   12.22
 -12   1   6    6.32    6.50
 -12   1   7   -1.20    8.18
 -12   1   8    6.82    7.04
 -12   1   9   10.16    9.26
 -12   1  10   21.63   11.58
 -12   1  11   19.11    8.89
 -12   1  12   16.43    9.17
 -12   2   6    5.15    5.43
 -12   2   7  129.28   22.27
 -12   2   8   -0.06    4.59
 -12   2   9   19.68    8.79
 -12   2  10    8.19    8.29
 -12   2  11   79.36   17.60
 -12   2  12    0.60    5.02
 -12   3   6   33.06   11.71
 -12   3   7    1.00    5.42
 -12   3   8   57.80   14.98
 -12   3   9   -0.35    3.79
 -12   3  10    3.38    3.55
 -12   3  11   14.96    8.23
 -12   4   7   49.30   15.01
 -12   4   8   43.68   13.65
 -12   4   9   53.85   15.83
 -12   5   7    9.98    6.04
 -12   5   8    4.29    8.54
   0   0   0    0.00    0.00

TITL 038_220K_SulfamerazineF2_ in Pbca
REM Pbca (#61 in standard setting)
CELL 0.68890   9.115816  11.622157  22.871549  90.0000  90.0000  90.0000
ZERR    8.00   0.000207   0.000181   0.000316   0.0000   0.0000   0.0000
LATT  1
SYMM -x+1/2,-y, z+1/2
SYMM -x, y+1/2,-z+1/2
SYMM  x+1/2,-y+1/2,-z
SFAC C H N O S
UNIT 88.00 96.00 32.00 16.00 8.00
TREF
HKLF 4
END
_computing_structure_solution     'SHELXT 2014/5 (Sheldrick, 2014)'
;
_shelx_hkl_checksum              40728
loop_
_space_group_symop_operation_xyz
'x, y, z'
'-x+1/2, -y, z+1/2'
'-x, y+1/2, -z+1/2'
'x+1/2, -y+1/2, -z'
'-x, -y, -z'
'x-1/2, y, -z-1/2'
'x, -y-1/2, z-1/2'
'-x-1/2, y-1/2, z'
loop_
_atom_site_label
_atom_site_type_symbol
_atom_site_fract_x
_atom_site_fract_y
_atom_site_fract_z
_atom_site_U_iso_or_equiv
_atom_site_adp_type
_atom_site_occupancy
_atom_site_site_symmetry_order
_atom_site_calc_flag
_atom_site_refinement_flags_posn
_atom_site_refinement_flags_adp
_atom_site_refinement_flags_occupancy
_atom_site_disorder_assembly
_atom_site_disorder_group
S1 S 0.33209(5) 0.34620(4) 0.38972(2) 0.02865(13) Uani 1 1 d . . . . .
O2 O 0.19738(15) 0.39699(12) 0.40957(6) 0.0357(3) Uani 1 1 d . . . . .
O1 O 0.34214(17) 0.22362(11) 0.38644(6) 0.0383(3) Uani 1 1 d . . . . .
N4 N 0.66666(18) 0.42625(14) 0.48542(7) 0.0329(4) Uani 1 1 d . . . . .
N3 N 0.65589(19) 0.28520(13) 0.40897(7) 0.0330(4) Uani 1 1 d . . . . .
N2 N 0.45152(19) 0.39501(13) 0.43744(7) 0.0314(4) Uani 1 1 d . . . . .
N1 N 0.4553(2) 0.53266(18) 0.15487(8) 0.0462(5) Uani 1 1 d . . . . .
C1 C 0.3756(2) 0.40401(15) 0.32165(7) 0.0298(4) Uani 1 1 d . . . . .
C2 C 0.4479(2) 0.33725(17) 0.28026(8) 0.0388(5) Uani 1 1 d . . . . .
H2 H 0.4766 0.2626 0.2894 0.050 Uiso 1 1 calc R U . . .
C3 C 0.4770(3) 0.38180(17) 0.22567(9) 0.0404(5) Uani 1 1 d . . . . .
H3 H 0.5275 0.3373 0.1985 0.052 Uiso 1 1 calc R U . . .
C4 C 0.4319(2) 0.49297(16) 0.21032(8) 0.0344(4) Uani 1 1 d . . . . .
C5 C 0.3591(2) 0.55928(15) 0.25288(9) 0.0362(4) Uani 1 1 d . . . . .
H5 H 0.3288 0.6336 0.2438 0.047 Uiso 1 1 calc R U . . .
C6 C 0.3322(2) 0.51552(15) 0.30777(8) 0.0325(4) Uani 1 1 d . . . . .
H6 H 0.2849 0.5605 0.3356 0.042 Uiso 1 1 calc R U . . .
C7 C 0.5980(2) 0.36603(14) 0.44333(7) 0.0282(4) Uani 1 1 d . . . . .
C8 C 0.8082(2) 0.40071(18) 0.49300(9) 0.0374(4) Uani 1 1 d . . . . .
H8 H 0.8606 0.4398 0.5217 0.049 Uiso 1 1 calc R U . . .
C9 C 0.8796(2) 0.31939(18) 0.46027(9) 0.0385(5) Uani 1 1 d . . . . .
H9 H 0.9785 0.3036 0.4661 0.050 Uiso 1 1 calc R U . . .
C10 C 0.7988(2) 0.26156(16) 0.41814(8) 0.0354(4) Uani 1 1 d . . . . .
C11 C 0.8662(3) 0.1686(2) 0.38154(11) 0.0513(6) Uani 1 1 d . . . . .
H11A H 0.8214 0.0962 0.3909 0.067 Uiso 1 1 calc R U . . .
H11B H 0.9695 0.1646 0.3893 0.067 Uiso 1 1 calc R U . . .
H11C H 0.8508 0.1855 0.3409 0.067 Uiso 1 1 calc R U . . .
H1N2 H 0.419(3) 0.448(2) 0.4589(11) 0.049(7) Uiso 1 1 d . . . . .
H1N1 H 0.511(3) 0.494(2) 0.1341(12) 0.053(7) Uiso 1 1 d . . . . .
H2N1 H 0.449(3) 0.605(2) 0.1477(11) 0.056(7) Uiso 1 1 d . . . . .
loop_
_atom_site_aniso_label
_atom_site_aniso_U_11
_atom_site_aniso_U_22
_atom_site_aniso_U_33
_atom_site_aniso_U_23
_atom_site_aniso_U_13
_atom_site_aniso_U_12
S1 0.0294(3) 0.0303(2) 0.0262(2) -0.00199(15) -0.00035(17) -0.00357(17)
O2 0.0270(8) 0.0493(8) 0.0309(6) -0.0021(6) 0.0004(5) -0.0024(6)
O1 0.0508(10) 0.0286(6) 0.0354(7) -0.0013(5) -0.0009(6) -0.0065(6)
N4 0.0306(10) 0.0379(8) 0.0301(7) -0.0036(6) -0.0026(6) 0.0022(7)
N3 0.0346(10) 0.0323(7) 0.0322(7) -0.0021(6) 0.0031(7) 0.0040(7)
N2 0.0291(9) 0.0341(8) 0.0312(7) -0.0089(6) -0.0024(6) 0.0033(7)
N1 0.0623(14) 0.0409(10) 0.0355(9) 0.0052(7) 0.0143(9) 0.0031(10)
C1 0.0315(11) 0.0305(8) 0.0275(8) -0.0016(6) 0.0022(7) -0.0022(7)
C2 0.0479(13) 0.0341(9) 0.0344(9) 0.0005(7) 0.0080(9) 0.0084(9)
C3 0.0500(14) 0.0370(10) 0.0341(9) -0.0023(7) 0.0136(9) 0.0071(9)
C4 0.0355(12) 0.0354(9) 0.0323(9) -0.0009(7) 0.0040(8) -0.0052(8)
C5 0.0431(13) 0.0268(8) 0.0386(9) 0.0014(7) 0.0053(8) -0.0001(8)
C6 0.0362(11) 0.0278(8) 0.0335(8) -0.0052(6) 0.0071(8) -0.0018(7)
C7 0.0281(10) 0.0299(8) 0.0266(7) 0.0025(6) 0.0015(7) 0.0015(7)
C8 0.0300(12) 0.0484(11) 0.0339(9) 0.0015(8) -0.0035(8) 0.0020(9)
C9 0.0299(12) 0.0484(11) 0.0373(10) 0.0072(8) 0.0026(8) 0.0067(9)
C10 0.0345(12) 0.0356(9) 0.0359(9) 0.0069(7) 0.0080(8) 0.0084(8)
C11 0.0491(16) 0.0479(12) 0.0568(14) -0.0041(10) 0.0103(11) 0.0155(11)
loop_
_atom_type_symbol
_atom_type_description
_atom_type_scat_dispersion_real
_atom_type_scat_dispersion_imag
_atom_type_scat_source
C C 0.0033 0.0016 'International Tables Vol C Tables 4.2.6.8 and 6.1.1.4'
H H 0.0000 0.0000 'International Tables Vol C Tables 4.2.6.8 and 6.1.1.4'
N N 0.0061 0.0033 'International Tables Vol C Tables 4.2.6.8 and 6.1.1.4'
O O 0.0106 0.0060 'International Tables Vol C Tables 4.2.6.8 and 6.1.1.4'
S S 0.1246 0.1234 'International Tables Vol C Tables 4.2.6.8 and 6.1.1.4'
loop_
_geom_angle_atom_site_label_1
_geom_angle_atom_site_label_2
_geom_angle_atom_site_label_3
_geom_angle
_geom_angle_site_symmetry_1
_geom_angle_site_symmetry_3
O1 S1 O2 118.75(9) . .
O1 S1 N2 109.67(8) . .
O2 S1 N2 102.40(8) . .
O1 S1 C1 108.84(8) . .
O2 S1 C1 108.58(9) . .
N2 S1 C1 108.06(9) . .
C8 N4 C7 115.28(16) . .
C7 N3 C10 115.75(17) . .
C7 N2 S1 128.33(13) . .
C7 N2 H1N2 117.4(18) . .
S1 N2 H1N2 114.1(18) . .
C4 N1 H1N1 116.3(18) . .
C4 N1 H2N1 120.0(17) . .
H1N1 N1 H2N1 117(3) . .
C2 C1 C6 119.94(16) . .
C2 C1 S1 120.09(14) . .
C6 C1 S1 119.90(14) . .
C3 C2 C1 119.92(18) . .
C3 C2 H2 120.0 . .
C1 C2 H2 120.0 . .
C2 C3 C4 121.16(17) . .
C2 C3 H3 119.4 . .
C4 C3 H3 119.4 . .
N1 C4 C3 119.90(18) . .
N1 C4 C5 122.04(19) . .
C3 C4 C5 118.04(17) . .
C6 C5 C4 120.83(17) . .
C6 C5 H5 119.6 . .
C4 C5 H5 119.6 . .
C5 C6 C1 120.09(16) . .
C5 C6 H6 120.0 . .
C1 C6 H6 120.0 . .
N3 C7 N4 127.16(18) . .
N3 C7 N2 119.75(17) . .
N4 C7 N2 113.09(15) . .
N4 C8 C9 122.8(2) . .
N4 C8 H8 118.6 . .
C9 C8 H8 118.6 . .
C8 C9 C10 117.5(2) . .
C8 C9 H9 121.2 . .
C10 C9 H9 121.2 . .
N3 C10 C9 121.51(18) . .
N3 C10 C11 117.1(2) . .
C9 C10 C11 121.3(2) . .
C10 C11 H11A 109.5 . .
C10 C11 H11B 109.5 . .
H11A C11 H11B 109.5 . .
C10 C11 H11C 109.5 . .
H11A C11 H11C 109.5 . .
H11B C11 H11C 109.5 . .
loop_
_geom_bond_atom_site_label_1
_geom_bond_atom_site_label_2
_geom_bond_distance
_geom_bond_site_symmetry_2
S1 O1 1.4296(13) .
S1 O2 1.4361(14) .
S1 N2 1.6427(16) .
S1 C1 1.7413(18) .
N4 C8 1.336(3) .
N4 C7 1.345(2) .
N3 C7 1.334(2) .
N3 C10 1.348(3) .
N2 C7 1.383(2) .
N2 H1N2 0.84(3) .
N1 C4 1.366(2) .
N1 H1N1 0.83(3) .
N1 H2N1 0.86(3) .
C1 C2 1.390(3) .
C1 C6 1.392(2) .
C2 C3 1.378(3) .
C2 H2 0.9300 .
C3 C4 1.401(3) .
C3 H3 0.9300 .
C4 C5 1.408(3) .
C5 C6 1.377(3) .
C5 H5 0.9300 .
C6 H6 0.9300 .
C8 C9 1.370(3) .
C8 H8 0.9300 .
C9 C10 1.386(3) .
C9 H9 0.9300 .
C10 C11 1.498(3) .
C11 H11A 0.9600 .
C11 H11B 0.9600 .
C11 H11C 0.9600 .
loop_
_geom_hbond_atom_site_label_D
_geom_hbond_atom_site_label_H
_geom_hbond_atom_site_label_A
_geom_hbond_distance_DH
_geom_hbond_distance_HA
_geom_hbond_distance_DA
_geom_hbond_angle_DHA
_geom_hbond_site_symmetry_A
C6 H6 O1 0.93 2.51 3.408(2) 163.1 8_665
C8 H8 O2 0.93 2.52 3.240(2) 134.5 5_666
C9 H9 O2 0.93 2.61 3.248(3) 126.0 1_655
N2 H1N2 N4 0.84(3) 2.09(3) 2.931(2) 177(2) 5_666
N1 H1N1 O2 0.83(3) 2.27(3) 3.087(3) 169(3) 6_656
N1 H2N1 O1 0.86(3) 2.47(3) 3.038(2) 124(2) 3_655
N1 H2N1 N3 0.86(3) 2.64(3) 3.431(3) 153(2) 3_655
loop_
_geom_torsion_atom_site_label_1
_geom_torsion_atom_site_label_2
_geom_torsion_atom_site_label_3
_geom_torsion_atom_site_label_4
_geom_torsion
_geom_torsion_site_symmetry_1
_geom_torsion_site_symmetry_2
_geom_torsion_site_symmetry_3
_geom_torsion_site_symmetry_4
O1 S1 N2 C7 46.54(18) . . . .
O2 S1 N2 C7 173.53(16) . . . .
C1 S1 N2 C7 -71.96(18) . . . .
O1 S1 C1 C2 -16.7(2) . . . .
O2 S1 C1 C2 -147.33(17) . . . .
N2 S1 C1 C2 102.30(18) . . . .
O1 S1 C1 C6 160.49(16) . . . .
O2 S1 C1 C6 29.88(19) . . . .
N2 S1 C1 C6 -80.48(18) . . . .
C6 C1 C2 C3 0.3(3) . . . .
S1 C1 C2 C3 177.47(17) . . . .
C1 C2 C3 C4 -1.5(3) . . . .
C2 C3 C4 N1 -176.5(2) . . . .
C2 C3 C4 C5 1.6(3) . . . .
N1 C4 C5 C6 177.5(2) . . . .
C3 C4 C5 C6 -0.5(3) . . . .
C4 C5 C6 C1 -0.7(3) . . . .
C2 C1 C6 C5 0.8(3) . . . .
S1 C1 C6 C5 -176.37(16) . . . .
C10 N3 C7 N4 0.5(3) . . . .
C10 N3 C7 N2 -179.29(16) . . . .
C8 N4 C7 N3 -0.2(3) . . . .
C8 N4 C7 N2 179.59(16) . . . .
S1 N2 C7 N3 -3.2(3) . . . .
S1 N2 C7 N4 177.06(13) . . . .
C7 N4 C8 C9 0.3(3) . . . .
N4 C8 C9 C10 -0.6(3) . . . .
C7 N3 C10 C9 -0.8(3) . . . .
C7 N3 C10 C11 178.18(17) . . . .
C8 C9 C10 N3 0.9(3) . . . .
C8 C9 C10 C11 -178.0(2) . . . .
