#------------------------------------------------------------------------------
#$Date: 2017-09-28 16:24:04 +0300 (Thu, 28 Sep 2017) $
#$Revision: 201452 $
#$URL: file:///home/coder/svn-repositories/cod/cif/1/54/74/1547450.cif $
#------------------------------------------------------------------------------
#
# This file is available in the Crystallography Open Database (COD),
# http://www.crystallography.net/
#
# All data on this site have been placed in the public domain by the
# contributors.
#
data_1547450
loop_
_publ_author_name
'Anuradha R. Pallipurath'
'Jonathan M. Skelton'
'Mark R. Warren'
'Naghmeh Kamali'
'Patrick McArdle'
'Andrea Erxleben'
_publ_section_title
;
 Sulfamerazine: Understanding the Influence of Slip Planes in the
 Polymorphic Phase Transformation through X-Ray Crystallographic Studies
 and ab Initio Lattice Dynamics
;
_journal_name_full               'Molecular Pharmaceutics'
_journal_page_first              3735
_journal_page_last               3748
_journal_paper_doi               10.1021/acs.molpharmaceut.5b00504
_journal_volume                  12
_journal_year                    2015
_chemical_formula_moiety         'C11 H12 N4 O2 S'
_chemical_formula_sum            'C11 H12 N4 O2 S'
_chemical_formula_weight         264.31
_chemical_name_common            Sulfamerazine
_chemical_name_systematic        4-amino-N-(4-methylpyrimidin-2-yl)
_space_group_crystal_system      orthorhombic
_space_group_IT_number           61
_space_group_name_Hall           '-P 2ac 2ab'
_space_group_name_H-M_alt        'P b c a'
_symmetry_space_group_name_Hall  '-P 2ac 2ab'
_symmetry_space_group_name_H-M   'P b c a'
_atom_sites_solution_hydrogens   mixed
_cell_angle_alpha                90
_cell_angle_beta                 90
_cell_angle_gamma                90
_cell_formula_units_Z            8
_cell_length_a                   9.1405(3)
_cell_length_b                   11.6923(2)
_cell_length_c                   22.8838(4)
_cell_measurement_reflns_used    7282
_cell_measurement_temperature    280
_cell_measurement_theta_max      28.8090
_cell_measurement_theta_min      1.7240
_cell_volume                     2445.67(10)
_computing_cell_refinement
;
CrysAlisPro, Agilent Technologies,
Version 1.171.37.34 (release 22-05-2014 CrysAlis171 .NET)
(compiled May 22 2014,16:03:01)
;
_computing_data_collection
;
CrysAlisPro, Agilent Technologies,
Version 1.171.37.34 (release 22-05-2014 CrysAlis171 .NET)
(compiled May 22 2014,16:03:01)
;
_computing_data_reduction
;
CrysAlisPro, Agilent Technologies,
Version 1.171.37.34 (release 22-05-2014 CrysAlis171 .NET)
(compiled May 22 2014,16:03:01)
;
_computing_molecular_graphics    OSCAIL
_computing_structure_refinement  'SHELXL-2014/7 (Sheldrick, 2014)'
_computing_structure_solution    SHELXT
_diffrn_ambient_temperature      280
_diffrn_measured_fraction_theta_full 0.990
_diffrn_measured_fraction_theta_max 0.973
_diffrn_measurement_device       'CrystalLogic Kappa (3 circle)'
_diffrn_measurement_device_type  'Rigaku Saturn724+ (2x2 bin mode)'
_diffrn_measurement_method
;
omega rotation with 1 degree frames
;
_diffrn_measurement_specimen_support 'MiTeGen loop'
_diffrn_radiation_monochromator  'double crystal Silicon 111'
_diffrn_radiation_source         'Diamond Light Source Beamline I19'
_diffrn_radiation_type           Synchrotron
_diffrn_radiation_wavelength     0.68890
_diffrn_reflns_av_R_equivalents  0.1173
_diffrn_reflns_av_unetI/netI     0.0598
_diffrn_reflns_Laue_measured_fraction_full 0.990
_diffrn_reflns_Laue_measured_fraction_max 0.973
_diffrn_reflns_limit_h_max       12
_diffrn_reflns_limit_h_min       -11
_diffrn_reflns_limit_k_max       16
_diffrn_reflns_limit_k_min       -13
_diffrn_reflns_limit_l_max       32
_diffrn_reflns_limit_l_min       -31
_diffrn_reflns_number            21670
_diffrn_reflns_point_group_measured_fraction_full 0.990
_diffrn_reflns_point_group_measured_fraction_max 0.973
_diffrn_reflns_theta_full        24.415
_diffrn_reflns_theta_max         29.470
_diffrn_reflns_theta_min         1.725
_exptl_absorpt_coefficient_mu    0.265
_exptl_absorpt_correction_T_max  1.00000
_exptl_absorpt_correction_type   multi-scan
_exptl_absorpt_process_details
;
CrysAlisPro, Agilent Technologies,
Version 1.171.36.28 (release 01-02-2013 CrysAlis171 .NET)
Empirical absorption correction using spherical harmonics,
implemented in SCALE3 ABSPACK scaling algorithm.
;
_exptl_crystal_colour            Colourless
_exptl_crystal_density_diffrn    1.436
_exptl_crystal_description       Parallelepiped
_exptl_crystal_F_000             1104
_exptl_crystal_size_max          0.50
_exptl_crystal_size_mid          0.40
_exptl_crystal_size_min          0.20
_refine_diff_density_max         0.245
_refine_diff_density_min         -0.424
_refine_diff_density_rms         0.069
_refine_ls_extinction_coef       .
_refine_ls_extinction_method     none
_refine_ls_goodness_of_fit_ref   1.040
_refine_ls_hydrogen_treatment    mixed
_refine_ls_matrix_type           full
_refine_ls_number_parameters     176
_refine_ls_number_reflns         3627
_refine_ls_number_restraints     0
_refine_ls_restrained_S_all      1.040
_refine_ls_R_factor_all          0.0907
_refine_ls_R_factor_gt           0.0605
_refine_ls_shift/su_max          0.000
_refine_ls_shift/su_mean         0.000
_refine_ls_structure_factor_coef Fsqd
_refine_ls_weighting_details
'w=1/[\s^2^(Fo^2^)+(0.0463P)^2^+1.4827P] where P=(Fo^2^+2Fc^2^)/3'
_refine_ls_weighting_scheme      calc
_refine_ls_wR_factor_gt          0.1339
_refine_ls_wR_factor_ref         0.1558
_reflns_Friedel_coverage         0.000
_reflns_Friedel_fraction_full    .
_reflns_Friedel_fraction_max     .
_reflns_number_gt                2442
_reflns_number_total             3627
_reflns_threshold_expression     'I > 2\s(I)'
_cod_data_source_file            Exp_Form-II2FSynchrotron_Form-II_280K.cif
_cod_data_source_block           280k_smz-f2_a
_cod_database_code               1547450
_shelx_space_group_comment
;
The symmetry employed for this shelxl refinement is uniquely defined
by the following loop, which should always be used as a source of
symmetry information in preference to the above space-group names.
They are only intended as comments.
;
_shelx_estimated_absorpt_t_min   0.879
_shelx_estimated_absorpt_t_max   0.949
_shelx_res_file
;

    280k_smz-f2_a.res created by SHELXL-2014/7

TITL 280k_smz-f2_a.res in Pbca
REM Old TITL 032_280K_SulfamerazineF2_ in Pbca
REM SHELXT solution in Pbca
REM R1 0.138,  Rweak 0.321,  Alpha 0.023,  Orientation as input
REM Formula found by SHELXT:  C12 N3 O2 S
CELL  0.68890   9.1405  11.6923  22.8838   90.000   90.000   90.000
ZERR    8.000   0.0003   0.0002   0.0004    0.000    0.000    0.000
REM SG 61 8 8 Pbca P21/b21/c21/a PGmmm Orthorhombic
LATT 1
REM SG  ASUN  1  .5 .5 .5
REM SG  ORGN  at Inv.cen.
SYMM 0.5-X,-Y,0.5+Z
SYMM -X,0.5+Y,0.5-Z
SYMM 0.5+X,0.5-Y,-Z
SFAC C H N O S
UNIT 88 96  32  16  8
FMAP 2
PLAN -32
BOND $H
L.S. 12
SIZE    0.50  0.40  0.20
ACTA
CONF
REM Instructions for potential hydrogen bonds
EQIV $1 -x+1/2, y+1/2, z
HTAB C6 O1_$1
EQIV $2 -x+1, -y+1, -z+1
HTAB C8 O2_$2
EQIV $3 x+1, y, z
HTAB C9 O2_$3
HTAB N2 N4_$2
EQIV $4 x+1/2, y, -z+1/2
HTAB N1 O2_$4
EQIV $5 -x+1, y+1/2, -z+1/2
HTAB N1 O1_$5
HTAB N1 N3_$5
LIST 4
WGHT    0.046300    1.482700
FVAR       0.57777
S1    5    0.333019    0.346625    0.389837    11.00000    0.03981    0.04059 =
         0.03512   -0.00308   -0.00017   -0.00462
O2    4    0.198080    0.396980    0.409623    11.00000    0.03602    0.06325 =
         0.04171   -0.00105    0.00070   -0.00281
O1    4    0.343041    0.225099    0.386339    11.00000    0.06511    0.03840 =
         0.04712   -0.00133   -0.00032   -0.00987
N4    3    0.666254    0.426200    0.485497    11.00000    0.03968    0.04800 =
         0.03941   -0.00320   -0.00261    0.00203
N3    3    0.655109    0.286248    0.409264    11.00000    0.04590    0.04498 =
         0.04170   -0.00205    0.00539    0.00783
N2    3    0.451780    0.394859    0.437863    11.00000    0.03982    0.04388 =
         0.04279   -0.01034   -0.00483    0.00629
N1    3    0.457549    0.533113    0.155604    11.00000    0.07857    0.05278 =
         0.04767    0.00463    0.01796    0.00136
C1    1    0.376400    0.404458    0.321940    11.00000    0.04049    0.04011 =
         0.03578   -0.00296    0.00075   -0.00251
C2    1    0.449367    0.339110    0.280513    11.00000    0.06417    0.04458 =
         0.04679    0.00007    0.00993    0.01328
AFIX  43
H2    2    0.478599    0.265050    0.289645    11.00000   -1.30000
AFIX   0
C3    1    0.478607    0.383139    0.226179    11.00000    0.06985    0.04925 =
         0.04577   -0.00333    0.01728    0.01163
AFIX  43
H3    2    0.529123    0.338812    0.199133    11.00000   -1.30000
AFIX   0
C4    1    0.433791    0.493605    0.210689    11.00000    0.04964    0.04615 =
         0.04090   -0.00180    0.00705   -0.00595
C5    1    0.361377    0.558964    0.253367    11.00000    0.05684    0.03536 =
         0.05198    0.00139    0.00596   -0.00107
AFIX  43
H5    2    0.331444    0.632940    0.244422    11.00000   -1.30000
AFIX   0
C6    1    0.333939    0.515308    0.308277    11.00000    0.04762    0.03926 =
         0.04451   -0.00606    0.00841   -0.00163
AFIX  43
H6    2    0.287013    0.560100    0.336143    11.00000   -1.30000
AFIX   0
C7    1    0.597538    0.366620    0.443535    11.00000    0.03901    0.03985 =
         0.03369    0.00185    0.00164    0.00222
C8    1    0.807018    0.401192    0.492835    11.00000    0.03977    0.06310 =
         0.04363    0.00069   -0.00540    0.00287
AFIX  43
H8    2    0.859160    0.440280    0.521453    11.00000   -1.30000
AFIX   0
C9    1    0.878614    0.320743    0.460288    11.00000    0.03794    0.06385 =
         0.05144    0.00912    0.00171    0.00819
AFIX  43
H9    2    0.977427    0.305434    0.466000    11.00000   -1.30000
AFIX   0
C10   1    0.797803    0.262927    0.418413    11.00000    0.04774    0.04658 =
         0.04765    0.00879    0.00990    0.00971
C11   1    0.866100    0.170398    0.382014    11.00000    0.06339    0.06226 =
         0.07654   -0.00740    0.01691    0.01853
AFIX 137
H11A  2    0.822651    0.098125    0.391765    11.00000   -1.30000
H11B  2    0.969316    0.167503    0.389629    11.00000   -1.30000
H11C  2    0.850006    0.186398    0.341372    11.00000   -1.30000
AFIX   0
H1N2  2    0.423233    0.447429    0.458665    11.00000    0.04647
H1N1  2    0.510703    0.493323    0.135634    11.00000    0.07068
H2N1  2    0.452496    0.605495    0.149030    11.00000    0.06438
HKLF 4

REM  280k_smz-f2_a.res in Pbca
REM R1 =  0.0605 for    2442 Fo > 4sig(Fo)  and  0.0907 for all    3627 data
REM    176 parameters refined using      0 restraints

END

WGHT      0.0660      0.8911

REM Highest difference peak  0.245,  deepest hole -0.424,  1-sigma level  0.069
Q1    1   0.9126  0.0854  0.4023  11.00000  0.05    0.25
Q2    1   0.2682  0.7105  0.2704  11.00000  0.05    0.24
Q3    1   0.5238  0.3773  0.4374  11.00000  0.05    0.24
Q4    1   0.2106  0.5173  0.3826  11.00000  0.05    0.23
Q5    1   0.7989  0.1001  0.3592  11.00000  0.05    0.23
Q6    1   0.2088  0.5013  0.4090  11.00000  0.05    0.22
Q7    1   0.5529  0.4743  0.3599  11.00000  0.05    0.22
Q8    1   0.3417  0.1560  0.3314  11.00000  0.05    0.22
Q9    1   0.3603  0.1989  0.3926  11.00000  0.05    0.22
Q10   1   0.1761  0.4615  0.3965  11.00000  0.05    0.22
Q11   1   0.7482  0.3210  0.4034  11.00000  0.05    0.21
Q12   1   0.3656  0.7119  0.3592  11.00000  0.05    0.21
Q13   1   0.6579  0.4436  0.3012  11.00000  0.05    0.21
Q14   1   0.1244  0.4192  0.3627  11.00000  0.05    0.21
Q15   1   0.7430  0.0799  0.3883  11.00000  0.05    0.21
Q16   1   0.6513  0.4153  0.4513  11.00000  0.05    0.21
Q17   1   0.3226  0.2427  0.2503  11.00000  0.05    0.20
Q18   1   0.8586  0.4809  0.5197  11.00000  0.05    0.20
Q19   1   0.7281  0.3176  0.3100  11.00000  0.05    0.20
Q20   1   0.2707  0.7738  0.2996  11.00000  0.05    0.20
Q21   1   0.3240  0.1991  0.3661  11.00000  0.05    0.20
Q22   1   0.7950  0.0442  0.4217  11.00000  0.05    0.19
Q23   1   1.1068  0.1604  0.3787  11.00000  0.05    0.19
Q24   1   0.3168  0.5158  0.2706  11.00000  0.05    0.19
Q25   1   0.4443  0.5164  0.4408  11.00000  0.05    0.18
Q26   1   0.5000  0.5000  0.5000  10.50000  0.05    0.18
Q27   1   0.9579  0.0270  0.3754  11.00000  0.05    0.18
Q28   1   0.3329  0.6874  0.1896  11.00000  0.05    0.18
Q29   1   0.9897  0.0963  0.3557  11.00000  0.05    0.18
Q30   1   0.9824  0.1022  0.4446  11.00000  0.05    0.18
Q31   1   0.1867  0.3838  0.3874  11.00000  0.05    0.18
Q32   1   0.0998  0.4971  0.3739  11.00000  0.05    0.18
;
_shelx_res_checksum              27552
_shelx_hkl_file
;
   0   0   2 1163.06   20.04
   0   0   2  780.74   17.16
   0   0   3   -0.40    1.24
   0   0   3   -0.08    0.45
   0   0   4 3255.57   49.97
   0   0   4 2876.62   45.17
   0   0   5    0.52    1.06
   0   0   5   -1.68    1.86
   0   0   6 8197.82   91.47
   0   0   6 7318.87   88.60
   0   0   7   -1.43    3.19
   0   0   7    0.12    0.16
   0   0   8 1042.75   37.54
   0   0   8  871.90   34.95
   0   0   9   -1.00    1.31
   0   0   9    0.37    2.86
   0   0  10 4551.89   89.01
   0   0  10 5370.70   95.00
   0   0  11   -0.89    2.07
   0   0  11   -0.62    1.09
   0   0  12    5.22    4.16
   0   0  12    4.42    3.82
   0   0  13    0.31    3.54
   0   0  13    1.01    1.34
   0   0  14  833.01   46.15
   0   0  14  732.23   41.99
   0   0  15    2.59    3.71
   0   0  15    1.18    1.52
   0   0  16   15.20    8.51
   0   0  16   34.64   10.45
   0   0  17   -0.50    5.29
   0   0  17   -0.19    4.70
   0   0  18 1176.08   60.42
   0   0  18 1292.07   65.57
   0   0  19    4.17    1.43
   0   0  19   -1.19    3.19
   0   0  20  120.07   20.34
   0   0  20  121.13   21.31
   0   0  21    6.53    6.58
   0   0  21    2.06    4.08
   0   0  22  147.82   23.75
   0   0  22  117.08   20.72
   0   0  23    0.02    2.31
   0   0  23    1.38    0.85
   0   0  24   54.77   16.08
   0   0  24   76.54   17.77
   0   0  25    7.32    6.66
   0   0  25    1.46    3.13
   0   0  26   23.88   10.14
   0   0  26   18.36   11.12
   0   0  27    1.39    4.12
   0   0  27   -0.95    5.98
   0   0  28   42.82   13.83
   0   0  28   38.28   14.22
   0   0  29   -1.18    1.90
   0   0  29   -4.79    7.11
   0   0  30  153.23   27.09
   0   0  30  157.35   27.81
   0   0  31    0.03    5.32
   0   0  31    2.94    6.77
   0   0  32    3.21    5.58
   0   0  32    3.35    4.64
   0   1   0   -0.18    0.24
   0   1   0    0.61    0.56
   0   1   1    0.55    1.04
   0   1  -1    0.16    0.13
   0   1   1    0.27    0.41
   0  -1   1   -0.72    0.48
   0   1   2    1.00    0.88
   0  -1   2    0.05    0.59
   0  -1   2    0.20    0.82
   0   1   3   -1.23    1.37
   0  -1   3   -0.03    0.25
   0   1   3   -1.28    0.86
   0  -1   3   -1.00    1.60
   0  -1   4    1.14    0.88
   0   1   4   -1.23    1.69
   0   1   4    1.59    1.17
   0   1   4    1.17    0.58
   0  -1   4    0.74    0.42
   0  -1   5   -0.89    1.22
   0   1   5    0.49    0.86
   0   1   5    0.56    1.27
   0  -1   5    1.35    2.80
   0   1   5   -1.97    1.30
   0  -1   6   -0.65    1.73
   0   1   6   -0.76    0.77
   0   1   6   -1.50    0.75
   0  -1   6    0.83    2.04
   0  -1   7    1.56    1.98
   0   1   7   -0.58    0.32
   0  -1   7    1.27    1.66
   0   1   7   -0.43    1.74
   0  -1   8    0.53    2.11
   0   1   8    1.65    1.55
   0  -1   8   -1.92    1.30
   0   1   8    0.12    1.87
   0   1   9    0.69    1.89
   0  -1   9    1.54    3.31
   0  -1   9   -0.97    1.78
   0   1   9   -0.33    1.26
   0  -1  10   -0.95    1.24
   0   1  10   -1.97    1.66
   0  -1  10   -1.78    2.24
   0   1  10   -2.04    2.17
   0  -1  11    2.29    4.98
   0   1  11   -0.59    1.53
   0  -1  11   -0.35    0.95
   0   1  11   -4.59    3.93
   0  -1  12    2.49    4.50
   0  -1  12   -1.41    2.26
   0   1  12    2.37    0.53
   0   1  12   -0.56    1.16
   0   1  13    0.30    5.43
   0   1  13   -3.00    1.80
   0  -1  13    1.72    4.47
   0  -1  13   -0.81    2.48
   0   1  14    3.21    4.55
   0  -1  14    1.01    3.86
   0   1  14    1.17    3.72
   0  -1  14    0.23    1.78
   0  -1  15   -1.26    1.15
   0  -1  15   -1.87    1.42
   0   1  15    0.15    1.32
   0   1  15   -3.39    4.30
   0   1  16   -1.97    1.95
   0  -1  16   -0.28    2.35
   0   1  16   -1.52    2.29
   0  -1  16    1.39    2.09
   0  -1  17    0.37    1.81
   0   1  17   -5.43    5.62
   0   1  17   -3.17    5.08
   0  -1  17    1.64    3.01
   0  -1  18    2.66    1.38
   0  -1  18   -0.37    0.75
   0   1  18    1.74    5.03
   0   1  18    2.71    3.95
   0   1  19    0.68    5.08
   0   1  19    0.23    1.77
   0  -1  19   -0.06    2.12
   0  -1  19    5.68    5.18
   0   1  20    2.86    1.88
   0  -1  20    0.55    3.77
   0   1  20    3.57    5.90
   0  -1  20   -3.50    5.85
   0  -1  21   -5.05    5.40
   0   1  21    1.20    1.50
   0   1  21    5.91    6.56
   0  -1  21    0.16    4.99
   0  -1  22    6.82    7.67
   0   1  22    7.89    8.08
   0   1  22    1.13    4.60
   0  -1  22   -0.65    2.26
   0  -1  23   -4.65    3.35
   0   1  23    4.50    4.18
   0   1  23    4.21    4.33
   0  -1  23   -1.48    4.85
   0  -1  24   -2.88    6.19
   0   1  24   -4.63    3.20
   0   1  24    3.15    2.19
   0  -1  24    8.68    8.82
   0   1  25   -0.98    8.45
   0  -1  25   -2.16    3.76
   0   1  25    1.35    2.96
   0  -1  25   -3.79    2.61
   0   1  26   -1.46    5.03
   0  -1  26    1.04    3.62
   0   1  26    3.33    8.52
   0  -1  26    1.59    4.60
   0  -1  27   -0.85    5.80
   0   1  27    4.58    5.87
   0  -1  27    2.86    4.71
   0   1  27   -4.80    3.00
   0  -1  28    1.66    0.71
   0   1  28   -4.05    7.87
   0  -1  28    0.82    5.95
   0   1  28    2.84    2.76
   0   1  29   -2.86    4.34
   0  -1  29    5.22    8.44
   0   1  29   -0.67    4.47
   0  -1  29   14.96    9.19
   0   1  30   -1.31    0.38
   0  -1  30    2.71    7.37
   0  -1  30   -3.49    4.07
   0   1  30   -2.60    4.56
   0  -1  31    0.63    2.86
   0   1  31    8.72    8.90
   0  -1  31    5.62    6.28
   0   1  31    6.36   10.31
   0   1  32   -6.20    5.47
   0  -1  32   -3.16    3.46
   0   1  32   -2.03    3.38
   0   2   0    0.39    1.27
   0   2   0    0.49    1.11
   0   2  -1 8023.08   72.23
   0   2   1 8196.79   70.17
   0   2   1 8230.56   77.35
   0  -2   2 4534.39   57.55
   0   2   2 4552.75   53.41
   0   2  -3 9911.90   98.27
   0   2   3 9693.86   84.25
   0   2  -4 7292.75   83.07
   0  -2   4 7420.59   76.29
   0  -2   4 9999.00   94.57
   0   2   4 9179.65   89.00
   0   2   4 8868.79   92.01
   0  -2   5 8939.20  101.17
   0   2   5 8908.08   93.74
   0  -2   6 8189.29  100.64
   0   2   6 7555.40   98.79
   0   2   6 8489.40  102.85
   0   2   6 7811.62   93.65
   0  -2   6 8546.75   98.14
   0  -2   7   52.15    8.22
   0   2   7   74.14    9.83
   0  -2   7   69.28    9.88
   0   2   7   47.02    7.44
   0   2   7   59.79    9.14
   0   2   8  541.57   27.39
   0  -2   8  522.69   27.12
   0   2   8  584.86   28.92
   0   2   8  613.96   30.88
   0  -2   8  544.31   28.79
   0  -2   9 1793.89   55.39
   0  -2   9 1639.21   50.97
   0   2   9 1821.44   53.28
   0   2   9 1828.72   54.78
   0  -2  10  839.39   38.40
   0  -2  10  857.13   41.52
   0   2  11 1310.71   50.34
   0   2  11 1505.63   54.76
   0  -2  11 1331.02   50.65
   0  -2  11 1475.14   54.83
   0  -2  12  592.18   34.99
   0   2  12  549.13   34.34
   0   2  12  474.65   31.18
   0   2  13  130.80   17.65
   0   2  13  146.33   18.49
   0  -2  13   92.82   14.44
   0  -2  13  162.46   19.28
   0  -2  14  605.38   38.49
   0  -2  14  529.42   35.81
   0   2  14  743.28   43.62
   0   2  14  663.16   40.99
   0   2  15    9.18    6.87
   0  -2  15   10.23    4.33
   0   2  15    8.69    5.79
   0  -2  15   16.10    7.63
   0   2  16   54.33   13.02
   0   2  16   61.67   12.96
   0  -2  16   62.49   13.46
   0  -2  16   85.41   16.27
   0  -2  17  460.87   36.34
   0   2  17  439.92   37.02
   0  -2  17  565.99   40.73
   0   2  17  434.74   36.15
   0   2  18  161.25   22.16
   0  -2  18  171.53   23.15
   0  -2  18  207.47   25.31
   0  -2  19  678.16   47.34
   0   2  19  605.77   44.13
   0  -2  19  657.64   45.64
   0   2  19  718.22   47.97
   0   2  20   47.66   13.02
   0   2  20   61.65   14.34
   0  -2  20   35.04    9.62
   0  -2  20   51.73   13.92
   0   2  21   51.76   14.22
   0   2  21   65.47   14.49
   0  -2  21   68.71   16.45
   0  -2  21   50.13   12.10
   0   2  22   -1.88    4.04
   0  -2  22   -1.99    4.11
   0  -2  22   -3.70    3.45
   0   2  22    5.24    4.59
   0  -2  23  360.81   37.73
   0  -2  23  272.79   32.31
   0   2  23  328.56   36.23
   0   2  23  371.21   38.18
   0  -2  24    2.64    6.79
   0  -2  24    0.49    3.21
   0   2  24    6.24    8.06
   0   2  24   -3.38    8.54
   0   2  25   -0.80    3.69
   0  -2  25    3.38    3.37
   0   2  25    3.35    1.94
   0  -2  26   31.33   11.35
   0   2  26   69.34   16.52
   0   2  26   69.36   16.60
   0  -2  26   73.20   17.01
   0   2  27   15.63    8.39
   0  -2  27   11.20    8.03
   0  -2  27    2.77    5.33
   0   2  27   15.87    9.80
   0  -2  28    3.63    4.13
   0   2  28    7.17    8.98
   0   2  28   17.65   10.19
   0  -2  28   12.19    5.53
   0   2  29   50.94   15.74
   0   2  29   53.82   15.43
   0  -2  29   36.05   12.88
   0  -2  29   48.20   15.66
   0   2  30    5.86    8.01
   0  -2  30    0.85    6.45
   0  -2  30    5.88    7.46
   0   2  30   -3.14    6.67
   0   2  31    1.27    5.43
   0  -2  31    8.08    5.35
   0  -2  31    2.92    3.53
   0   2  31   -3.27    6.84
   0  -2  32    9.49    6.27
   0  -2  32    5.80    1.65
   0   3   0    1.95    2.18
   0   3   0    1.75    1.61
   0   3   1   -1.22    1.47
   0   3   1   -2.01    1.91
   0   3  -1   -2.75    2.39
   0  -3   1    1.18    0.99
   0   3   2   -0.35    0.24
   0   3   2   -0.38    1.58
   0  -3   2   -0.91    0.89
   0   3  -2    1.58    1.68
   0  -3   2   -0.37    1.45
   0   3  -3   -0.14    0.41
   0  -3   3    1.24    1.75
   0   3   3    0.34    1.83
   0  -3   3   -0.49    1.26
   0   3   3   -0.91    0.36
   0   3   4    1.67    2.18
   0   3  -4    2.04    2.40
   0  -3   4   -0.63    0.77
   0  -3   4    1.08    1.77
   0   3   4    0.32    1.76
   0   3   5   -0.34    1.78
   0  -3   5    2.16    1.74
   0   3   5   -1.76    2.02
   0   3  -5   -2.29    3.08
   0  -3   5    3.02    2.74
   0   3   6    1.79    2.54
   0   3   6    0.15    0.69
   0  -3   6   -0.05    1.83
   0   3  -6    0.11    2.59
   0  -3   6    0.79    2.27
   0   3   7    1.19    2.19
   0  -3   7   -2.10    2.56
   0   3   7   -1.52    0.73
   0  -3   7    0.18    1.32
   0   3   8    2.19    3.20
   0   3   8    1.09    1.18
   0  -3   8    2.28    3.33
   0   3   8    1.95    2.73
   0  -3   8   -0.99    2.21
   0   3   9   -0.73    1.97
   0  -3   9   -0.59    2.82
   0   3   9    0.46    3.23
   0  -3   9    1.86    3.97
   0   3   9    1.81    1.36
   0  -3  10    0.41    2.08
   0  -3  10    3.29    3.06
   0   3  10   -1.37    0.83
   0   3  10   -0.72    1.57
   0   3  10    0.25    0.86
   0   3  11    1.77    3.08
   0   3  11   -1.09    3.05
   0  -3  11    0.33    3.30
   0  -3  11    1.31    3.66
   0   3  11   -0.17    2.51
   0  -3  12    1.64    2.64
   0   3  12    2.48    3.67
   0   3  12    0.68    3.55
   0   3  12   -1.55    2.05
   0  -3  12   -1.91    1.82
   0  -3  13    4.44    3.85
   0   3  13   -1.78    0.62
   0   3  13    4.87    4.40
   0  -3  13   -2.19    3.85
   0  -3  14    0.30    3.04
   0   3  14    0.27    2.53
   0   3  14    6.41    6.06
   0  -3  14    3.96    5.31
   0   3  15   -2.07    2.49
   0   3  15   -0.89    2.53
   0  -3  15    1.62    4.63
   0  -3  15    0.31    3.98
   0  -3  16   -0.53    1.66
   0   3  16    3.08    5.81
   0  -3  16   -1.86    2.15
   0   3  16    3.68    6.50
   0   3  17   -0.71    3.32
   0  -3  17    0.44    0.22
   0  -3  17    3.27    1.80
   0   3  17    0.08    4.74
   0  -3  18   -1.27    3.99
   0  -3  18   -1.44    4.91
   0   3  18    2.68    1.68
   0   3  18    1.86    3.48
   0  -3  19   -3.69    4.26
   0   3  19   -4.08    3.76
   0  -3  19    8.35    7.35
   0   3  19    1.23    4.52
   0   3  20   -5.28    6.61
   0  -3  20   -0.96    5.20
   0  -3  20   -0.82    2.34
   0   3  20   -0.33    1.19
   0   3  21    4.54    2.15
   0  -3  21    1.29    4.89
   0   3  21    0.98    2.19
   0  -3  21   -1.13    1.89
   0  -3  22   -3.09    2.27
   0  -3  22    2.19    5.21
   0   3  22    3.01    4.71
   0   3  22   -2.81    3.67
   0   3  23   -0.48    2.75
   0  -3  23    1.27    3.93
   0  -3  23   -0.16    3.16
   0   3  23   -2.59    2.08
   0  -3  24    6.42    6.49
   0  -3  24   -0.02    4.98
   0   3  24    7.73    5.10
   0   3  24    2.60    5.07
   0   3  25   -7.00    4.65
   0  -3  25   -3.30    1.48
   0   3  25    2.94    5.49
   0  -3  25   -2.71    4.72
   0  -3  26   -0.90    1.93
   0   3  26    1.55    3.67
   0  -3  26    1.48    6.80
   0   3  26   -8.27    9.15
   0  -3  27    4.89    1.36
   0  -3  27   -1.03    3.89
   0   3  27   -2.82    6.57
   0   3  27   -1.30    3.82
   0   3  28    3.07    5.99
   0   3  28   -9.08    7.86
   0  -3  28   -1.15    2.87
   0   3  29    5.44    4.18
   0   3  29    4.71    7.75
   0  -3  29    1.33    3.23
   0  -3  29   -1.37    2.09
   0  -3  30   -1.35    6.20
   0  -3  30    2.88    2.55
   0   3  30    2.56    5.88
   0   3  30   -4.49    5.53
   0   3  31    4.70    5.28
   0  -3  31   -0.41    1.01
   0   3  31   -2.64    4.72
   0   3  32    3.86    5.48
   0  -3  32   -6.10    6.21
   0   3  32   -2.98    5.53
   0  -3  32    1.54    2.68
   0   4   0 3925.46   73.10
   0   4   0 4342.41   71.45
   0   4   1 1444.31   40.74
   0   4  -1 1541.10   43.38
   0  -4   1 1459.12   34.96
   0   4  -1 1511.45   44.60
   0   4   2 1743.58   51.33
   0  -4   2 1818.78   39.06
   0   4   2 1823.94   46.00
   0  -4   3   82.21    8.42
   0   4   3   99.76   10.97
   0  -4   3  102.69   11.41
   0   4   3   82.12   11.30
   0   4  -3   89.83   11.21
   0  -4   4  220.93   13.73
   0   4   4  246.16   17.44
   0   4  -4  279.99   20.57
   0  -4   4  259.32   18.56
   0   4   4  204.83   18.01
   0   4  -5  241.77   19.61
   0   4   5  230.82   19.44
   0  -4   5  225.75   18.32
   0   4   5  253.94   18.30
   0  -4   5  191.10   13.71
   0  -4   6  846.75   31.20
   0  -4   6  793.72   34.96
   0   4   6  875.25   38.63
   0   4   6  816.45   34.97
   0   4   7  325.98   24.54
   0   4  -7  382.87   26.87
   0  -4   7  386.02   25.58
   0   4   7  338.04   23.63
   0  -4   7  324.49   20.95
   0   4   8  236.38   19.79
   0  -4   8  213.55   17.69
   0   4   8  195.95   19.04
   0  -4   8  271.41   22.52
   0   4  -8  240.25   21.94
   0   4   9    2.42    1.51
   0   4  -9    4.49    2.80
   0   4   9   -0.79    1.75
   0  -4   9    3.16    2.59
   0  -4   9    6.13    2.89
   0   4   9    5.29    4.73
   0  -4  10    0.01    0.97
   0  -4  10   -1.47    2.64
   0   4  10   -0.35    1.82
   0   4  10    2.65    1.31
   0   4  11  109.72   16.28
   0  -4  11  107.78   14.27
   0   4  11  125.80   16.45
   0   4  11   87.63   13.75
   0  -4  11   79.92   13.25
   0  -4  12    3.67    3.60
   0   4  12    3.43    4.51
   0   4  12   -0.01    1.27
   0  -4  12    5.22    4.64
   0   4  12   -1.68    3.00
   0  -4  13    9.98    3.79
   0   4  13   11.86    4.60
   0   4  13    5.13    2.86
   0  -4  13    3.04    3.29
   0   4  13    5.88    6.15
   0   4  14  196.43   22.05
   0  -4  14  175.66   21.28
   0   4  14  208.81   24.79
   0  -4  14  150.11   19.87
   0   4  15   63.26   14.48
   0  -4  15   72.80   14.18
   0   4  15   71.72   14.20
   0  -4  15   77.02   15.24
   0   4  16  116.31   18.68
   0  -4  16  148.80   20.23
   0   4  17  580.84   43.24
   0  -4  17  443.31   37.52
   0   4  17  491.53   38.37
   0  -4  17  524.44   39.30
   0   4  18 1233.33   64.45
   0  -4  18 1083.65   59.86
   0   4  18 1284.68   66.59
   0  -4  18 1133.67   59.16
   0  -4  19  258.63   28.17
   0   4  19  325.01   33.83
   0   4  19  324.81   33.59
   0  -4  19  310.02   32.47
   0   4  20    0.54    3.24
   0  -4  20    2.96    5.65
   0  -4  20   -0.11    3.02
   0   4  20   -0.20    2.36
   0  -4  21   52.57   14.32
   0   4  21   51.65   15.93
   0   4  21   21.73    9.84
   0  -4  21   24.01    8.66
   0   4  22    2.48    5.78
   0   4  22    2.69    4.33
   0  -4  22    1.16    3.21
   0  -4  22    3.71    2.37
   0  -4  23   69.74   16.15
   0   4  23   80.25   17.22
   0   4  23   84.94   18.73
   0  -4  23   91.72   19.12
   0  -4  24  236.69   30.86
   0   4  24  226.12   30.72
   0  -4  24  177.59   27.58
   0   4  24  200.98   29.17
   0   4  25   82.93   18.05
   0  -4  25   99.02   21.92
   0  -4  25  103.23   20.00
   0   4  25   78.57   18.44
   0   4  26    7.40    5.99
   0  -4  26   20.91   10.36
   0   4  26    7.59    2.13
   0  -4  26    7.64    7.87
   0  -4  27   -1.10    2.35
   0   4  27    2.16    5.34
   0  -4  27    4.22    5.30
   0   4  27    0.24    4.67
   0  -4  28   21.03    8.94
   0   4  28   30.39   13.32
   0   4  28   25.20   11.31
   0  -4  28   18.33    9.09
   0  -4  29    6.90    5.43
   0   4  29    4.89    4.49
   0  -4  29   16.43    8.47
   0  -4  30    4.24    8.42
   0   4  30    6.46    8.60
   0   4  30    9.69   11.90
   0  -4  30   -1.04    3.40
   0   4  31   -1.17    4.17
   0  -4  31    2.25    2.35
   0  -4  31    6.20    5.65
   0   4  31    1.18    8.49
   0   5   0    0.97    1.89
   0   5   0   -0.35    2.76
   0   5   1   -1.17    1.12
   0   5  -1   -0.94    2.44
   0   5  -1    1.13    2.53
   0   5   1    0.87    3.48
   0   5   2    0.55    1.09
   0  -5   2   -0.24    0.75
   0   5  -2    3.04    1.36
   0   5   2    1.40    1.96
   0   5  -2   -2.65    2.43
   0   5   3    1.48    2.51
   0   5   3   -0.46    0.87
   0   5  -3   -0.18    2.03
   0  -5   3   -0.27    0.72
   0   5   4    0.57    2.57
   0  -5   4   -0.55    1.95
   0  -5   4    0.78    0.48
   0   5   4   -1.73    2.29
   0   5  -4    3.75    3.18
   0   5   5   -3.64    2.37
   0   5   5    0.83    2.63
   0  -5   5    0.01    0.68
   0   5  -5   -1.42    1.15
   0  -5   5   -1.97    2.39
   0   5   6   -1.97    2.05
   0  -5   6   -0.29    1.45
   0   5  -6    0.91    3.18
   0   5   6    4.22    4.57
   0  -5   6   -0.85    0.67
   0   5  -7   -0.97    1.93
   0  -5   7   -1.72    2.41
   0   5   7    1.93    3.91
   0   5   7    2.09    3.57
   0  -5   7    0.16    2.14
   0   5   8   -0.54    3.12
   0   5  -8   -0.62    0.91
   0  -5   8   -1.08    1.92
   0   5   8    0.57    1.27
   0  -5   8   -0.83    1.58
   0   5  -9   -1.36    1.98
   0  -5   9   -1.10    2.81
   0   5   9    1.72    3.78
   0   5   9    0.68    0.90
   0  -5   9    1.61    4.58
   0   5  10    0.07    2.32
   0   5  10   -1.17    0.97
   0   5 -10    1.30    3.99
   0   5  10    0.14    2.86
   0  -5  10    0.63    2.17
   0  -5  10   -0.22    2.25
   0   5  11   -0.18    3.39
   0   5  11    3.26    3.61
   0   5 -11    0.55    2.98
   0   5  11    0.06    3.24
   0  -5  11   -1.61    2.80
   0  -5  11    3.10    3.70
   0   5  12   -1.30    2.30
   0   5  12    0.48    2.66
   0   5  12    4.70    4.24
   0  -5  12    4.72    5.40
   0  -5  12    2.99    3.47
   0   5 -12   -2.45    3.30
   0  -5  13   -2.29    1.81
   0   5 -13   -1.76    4.81
   0   5  13   -1.80    1.80
   0   5  13    1.82    6.10
   0   5  13   -2.57    2.94
   0  -5  13   -1.40    1.37
   0   5  14   -3.42    5.42
   0   5 -14    0.53    1.97
   0   5  14    1.86    2.45
   0  -5  14    0.70    2.26
   0   5  14    1.02    5.87
   0  -5  14    1.39    2.65
   0   5  15   -0.88    4.40
   0  -5  15    4.49    0.38
   0   5  15   -1.78    3.13
   0   5  15    2.40    5.32
   0  -5  15    5.97    6.32
   0   5 -15   -0.68    2.67
   0  -5  16   -0.39    3.01
   0  -5  16    0.31    3.44
   0   5  16   -1.82    4.02
   0   5  16   -0.27    3.73
   0   5  16    0.47    2.21
   0  -5  17   -0.14    3.45
   0   5  17    0.89    1.78
   0  -5  17    2.13    0.41
   0   5  17   -2.32    2.78
   0  -5  18   -2.12    1.79
   0   5  18    0.05    4.98
   0  -5  18    0.70    6.01
   0   5  18   -0.19    3.49
   0  -5  19    0.15    5.08
   0   5  19    5.77    5.73
   0   5  19    0.98    3.67
   0  -5  19    0.90    0.63
   0   5  20    2.31    0.89
   0  -5  20   -0.27    3.49
   0  -5  20    2.75    6.53
   0   5  20    4.63    5.26
   0  -5  21   -0.99    4.20
   0   5  21    3.02    5.17
   0  -5  21   -1.66    3.29
   0   5  21   -1.59    4.69
   0  -5  22   -3.36    6.35
   0   5  22    5.42    3.16
   0  -5  22    2.55    5.94
   0   5  22    3.00    4.34
   0  -5  23   -0.88    2.40
   0   5  23   -4.09    5.00
   0  -5  23    4.91    6.28
   0   5  23    0.82    6.46
   0   5  24    4.92    8.66
   0   5  24    0.76    4.18
   0  -5  24    2.27    7.85
   0  -5  24    5.54    7.43
   0  -5  25   -4.37    9.09
   0  -5  25    0.68    5.58
   0   5  25    4.60    6.98
   0   5  25    1.07    6.44
   0   5  26   -0.03    5.51
   0   5  26   -3.99    7.61
   0  -5  26    4.14    5.14
   0  -5  26    0.68    3.48
   0  -5  27    0.23    5.49
   0  -5  27    2.31    4.92
   0   5  27   -0.18    2.11
   0   5  27   -0.89    2.49
   0  -5  28    1.19    4.14
   0  -5  28    6.93    9.03
   0   5  28   -1.85    4.34
   0   5  28   -1.64    3.63
   0  -5  29    0.17    3.39
   0   5  29    0.90    3.18
   0  -5  29    3.81    6.03
   0   5  29   -1.07    2.61
   0  -5  30    1.99    3.72
   0   5  30   10.57    6.63
   0   5  30   -8.96    9.04
   0  -5  30   -6.05    4.92
   0   5  31   -0.60    0.74
   0   5  31   -1.44    5.89
   0  -5  31   -4.65    3.15
   0  -5  31    0.61    1.93
   0   6   0   16.14    6.38
   0   6   0   14.97    5.55
   0   6  -1 4241.04   86.60
   0   6   1 3831.94   83.21
   0   6   2 1232.58   46.26
   0  -6   2 1297.15   39.58
   0   6  -2 1248.89   47.52
   0   6   2 1319.93   54.02
   0   6   3  194.92   18.59
   0  -6   3  247.46   17.89
   0   6   3  240.99   23.00
   0  -6   4  657.47   29.65
   0   6   4  562.66   31.30
   0   6   4  683.57   39.01
   0   6  -4  619.74   36.08
   0  -6   5   13.52    4.38
   0   6  -5   13.13    4.39
   0  -6   5   13.59    5.08
   0   6   5   25.66    8.03
   0   6   6    4.83    3.34
   0   6  -6    2.61    0.74
   0  -6   6    5.45    3.88
   0   6   6    5.12    4.36
   0  -6   6    3.27    3.34
   0   6  -7  267.88   24.52
   0  -6   7  334.11   26.03
   0  -6   7  255.92   19.28
   0   6   7  263.51   24.57
   0   6   7  284.78   24.17
   0  -6   8   36.49    7.60
   0  -6   8   55.88   12.09
   0   6   8   41.72   10.32
   0   6   8   35.54    7.88
   0   6  -8   31.05    8.65
   0   6  -9   48.14   10.84
   0  -6   9   43.63   10.26
   0   6   9   71.13   13.20
   0  -6   9   41.80    8.43
   0   6   9   70.36   13.96
   0   6  10   54.15   12.01
   0   6  10   86.05   15.37
   0  -6  10   60.35   10.40
   0   6 -10   62.81   12.31
   0   6  10   72.78   13.43
   0  -6  10   83.78   14.28
   0   6  11    1.15    1.34
   0  -6  11   -0.03    1.99
   0   6  11    2.97    5.39
   0   6 -11    3.10    6.20
   0  -6  11    4.96    4.34
   0   6  11   -1.26    4.30
   0  -6  12 2938.53   87.81
   0   6 -12 2472.87   82.99
   0   6  12 2775.14   87.04
   0  -6  12 2183.45   71.40
   0   6  12 2996.42   86.78
   0   6  12 2693.38   86.47
   0   6  13    3.03    2.41
   0   6  13   -1.31    2.93
   0   6 -13    0.30    3.20
   0  -6  13    1.81    2.50
   0   6  13    2.83    3.45
   0  -6  13    0.91    4.48
   0   6  14  263.03   28.65
   0   6 -14  354.96   34.29
   0   6  14  302.52   29.81
   0  -6  14  250.16   27.16
   0  -6  14  281.83   26.82
   0   6  14  232.60   26.04
   0   6  15  611.11   44.37
   0  -6  15  503.27   39.37
   0   6  15  550.18   40.77
   0   6 -15  496.74   40.39
   0  -6  15  580.67   40.03
   0   6  16   76.95   14.97
   0   6 -16   66.08   13.90
   0  -6  16   80.70   17.45
   0  -6  16   68.39   13.84
   0   6  16   64.46   13.55
   0   6  16   80.29   16.39
   0   6 -17   90.48   17.59
   0  -6  17   78.39   16.13
   0   6  17  114.48   19.67
   0   6  17   51.27   17.37
   0   6  17   80.43   14.86
   0  -6  17   71.13   16.45
   0  -6  18  371.81   34.88
   0   6  18  441.67   41.49
   0  -6  18  383.69   36.98
   0   6  18  379.99   36.65
   0   6  18  313.01   32.91
   0   6 -18  364.33   36.02
   0  -6  19  198.58   25.62
   0   6 -19  240.72   29.15
   0   6  19  264.57   31.36
   0  -6  19  163.31   23.80
   0   6  19  184.82   27.09
   0   6  20   79.28   17.06
   0  -6  20   35.52   11.81
   0  -6  20   83.05   16.58
   0   6 -20   41.82   12.86
   0   6  20   80.70   17.20
   0   6  21  354.45   36.97
   0   6 -21  276.26   33.10
   0  -6  21  311.12   34.36
   0   6  21  376.04   38.81
   0  -6  21  339.20   35.41
   0  -6  22  136.30   23.33
   0   6  22  209.74   30.03
   0  -6  22  173.73   26.09
   0   6 -22  157.90   24.70
   0   6  22  205.71   29.08
   0   6  23    0.38    1.34
   0   6 -23   -1.37    3.19
   0   6  23    5.96    6.02
   0  -6  23    9.64    7.38
   0  -6  23    7.10    8.00
   0   6  24   40.46   14.38
   0  -6  24   37.91   12.33
   0  -6  24   41.15   11.74
   0   6 -24   20.99   11.16
   0   6  25  127.18   23.86
   0   6 -25   67.01   16.77
   0  -6  25   97.40   20.76
   0  -6  25   80.33   18.70
   0   6  25   87.78   19.80
   0   6  26   93.03   21.59
   0  -6  26   98.26   20.76
   0   6 -26  103.15   21.30
   0  -6  26   59.96   15.25
   0   6  26   85.55   19.74
   0   6  27    6.81    9.75
   0   6  27    3.40    2.26
   0  -6  27    2.34    2.22
   0   6 -27   -2.56    5.09
   0  -6  27    1.03    3.39
   0   6 -28   51.58   15.96
   0   6  28   16.85    6.86
   0  -6  28   42.64   11.71
   0  -6  28   74.75   18.59
   0   6  28   35.18   13.17
   0   6  29    3.39    5.31
   0  -6  29   -4.68    8.62
   0   6 -29    4.47    6.89
   0  -6  29    3.08    3.66
   0   6  29   -0.73    4.78
   0  -6  30   14.38    9.50
   0   6  30   13.29   12.21
   0  -6  30   16.55   10.03
   0   6 -30   -6.57    6.75
   0   6  30   -2.87    5.72
   0   7   0    1.06    2.69
   0   7   0    0.91    4.27
   0   7  -1    1.54    4.72
   0   7   1    0.95    3.16
   0   7  -1    0.58    0.87
   0   7   1    0.19    4.00
   0   7  -2   -0.33    3.25
   0   7  -2    0.92    3.73
   0   7   2    0.08    3.19
   0   7   2    6.41    5.77
   0  -7   3   -0.67    1.90
   0   7  -3   -0.55    1.50
   0   7   3   -0.62    1.49
   0   7   3    1.03    2.28
   0   7  -3    1.03    3.51
   0  -7   4    1.85    2.33
   0   7   4   -1.48    3.75
   0   7  -4    0.50    0.92
   0   7   4   -1.54    1.59
   0  -7   5    2.83    3.52
   0   7  -5    1.27    1.84
   0   7   5    0.60    2.27
   0   7   5    1.62    3.60
   0   7   6   -0.60    2.60
   0  -7   6    0.77    3.03
   0   7   6   -1.96    3.27
   0   7  -6    1.48    2.97
   0  -7   6   -2.64    2.89
   0   7   7   -4.01    2.24
   0  -7   7   -1.48    0.60
   0  -7   7   -1.23    1.08
   0   7   7   -1.07    2.40
   0   7  -8    0.37    4.48
   0  -7   8   -2.05    2.03
   0   7   8    0.65    3.46
   0   7   8    1.06    3.14
   0  -7   8   -1.73    4.21
   0   7   9   -0.81    4.45
   0   7   9   -2.14    5.63
   0  -7   9    2.76    3.42
   0   7  -9    0.20    4.85
   0  -7   9    1.06    2.47
   0  -7  10    0.15    3.21
   0   7  10   -3.10    6.55
   0   7  10   -1.39    2.61
   0   7 -10    2.39    3.20
   0  -7  10   -0.30    2.81
   0   7  11    0.25    4.26
   0   7  11    0.20    3.74
   0  -7  11    2.89    4.84
   0   7 -11   -0.09    1.92
   0  -7  11    3.57    4.57
   0   7  11   -2.48    4.79
   0  -7  12   -2.39    2.71
   0   7  12   -4.49    3.47
   0   7  12    0.02    3.65
   0   7  12   -0.18    4.44
   0   7 -12    3.45   11.36
   0  -7  12   -0.99    2.41
   0   7  13    0.71    2.90
   0  -7  13    4.13    5.22
   0   7 -13   -1.06    5.80
   0   7  13   -1.69    2.09
   0  -7  13   -1.11    3.76
   0   7  13   -2.02    2.30
   0   7  14   -1.82    1.22
   0  -7  14   -1.61    4.77
   0  -7  14   -3.54    1.34
   0   7  14    0.59    3.54
   0   7  14    1.10    2.32
   0   7 -14    4.38    5.42
   0   7  15   -1.34    1.68
   0   7 -15    2.64    4.49
   0  -7  15    1.07    1.51
   0   7  15   -2.01    1.65
   0   7  15    7.77    7.01
   0  -7  15   -4.20    4.61
   0  -7  16    0.21    7.05
   0   7 -16    3.23    5.40
   0   7  16    4.36    5.89
   0  -7  16    3.30    3.70
   0   7  16    5.71    6.13
   0   7  16    0.39    1.47
   0   7  17    0.41    1.57
   0   7 -17   -2.58    2.85
   0   7  17    4.76    4.44
   0  -7  17    3.73    7.10
   0   7  17   -0.44    4.15
   0  -7  17    2.76    4.82
   0   7  18    4.30    5.48
   0   7 -18   -3.62    5.05
   0  -7  18   -5.03    6.22
   0  -7  18    2.09    4.09
   0   7  18    3.11    4.94
   0   7  18   -2.93    5.84
   0   7  19    5.98    2.40
   0   7  19   -0.56    2.79
   0   7 -19   -2.44    3.18
   0  -7  19    3.54    0.63
   0  -7  19   -3.24    2.52
   0   7  19    0.52    3.71
   0  -7  20    0.74    6.39
   0   7  20   -2.47    2.23
   0   7 -20    0.91    5.63
   0   7  20   -1.78    7.20
   0  -7  20   -4.03    6.44
   0   7  20    1.45    2.04
   0  -7  21   -6.25    3.24
   0  -7  21   -2.93    2.13
   0   7  21   -4.18    6.65
   0   7  21    0.94    2.03
   0   7 -21   -4.17    5.57
   0  -7  22   -0.49    4.47
   0  -7  22   -3.33    6.15
   0   7  22    2.05    5.44
   0   7  22   -6.43    5.74
   0  -7  23    0.03    4.69
   0   7  23    5.41    7.56
   0   7  23   -1.20    3.90
   0  -7  23    0.57    4.59
   0   7 -23    2.54    3.81
   0   7 -24    2.68    4.99
   0   7  24    4.74    6.38
   0   7  24   -0.53    2.81
   0  -7  24    5.27    1.19
   0  -7  24    6.91    4.58
   0   7  25    0.26    6.91
   0  -7  25   -2.30    6.05
   0   7 -25   -0.72    6.04
   0  -7  25    2.91    3.96
   0   7  25   -7.75    8.57
   0   7  26   -3.89    7.11
   0  -7  26    0.06    3.62
   0   7  26    4.26    4.02
   0  -7  26   -1.66    2.07
   0   7 -26   -5.02    3.74
   0   7 -27   -3.63    3.35
   0   7  27    0.53    3.12
   0  -7  27    5.09    5.70
   0   7  27   -1.12    3.26
   0  -7  27    2.20    6.40
   0  -7  28   -3.57    3.39
   0   7  28   -6.59    9.86
   0   7 -28   -2.56    8.56
   0  -7  28   -8.79    7.02
   0   7  28    7.03    8.93
   0   7 -29   12.08   11.09
   0  -7  29   -0.96    8.47
   0   7  29   -6.32    8.06
   0  -7  29   -5.30    5.20
   0   7  29    8.06    8.73
   0   8   0  409.73   30.62
   0   8   0  307.22   29.27
   0   8   1    9.55    5.01
   0   8   1   12.08    3.03
   0   8  -1    5.76    2.19
   0   8  -1   19.69    6.51
   0   8  -2   24.08    8.82
   0   8   2   49.24   11.02
   0   8   2   25.88    8.98
   0   8  -2   27.84    7.73
   0   8  -3   20.73    8.61
   0   8   3   12.87    6.17
   0   8  -3    5.97    5.14
   0   8   3   23.92    8.94
   0   8  -4  153.82   20.45
   0   8   4  222.59   25.16
   0   8  -4  156.45   19.96
   0   8   4  169.57   20.07
   0  -8   4  168.79   17.27
   0   8   5   82.50   14.74
   0  -8   5   81.67   12.59
   0   8  -5   72.19   13.16
   0   8   5   63.35   12.41
   0   8  -5   61.38   13.33
   0   8   6  225.48   24.21
   0   8  -6  235.13   25.22
   0   8   6  222.63   26.89
   0  -8   6  229.79   20.56
   0   8   7 1043.39   51.54
   0   8   7 1043.78   56.49
   0   8   8  350.47   32.22
   0  -8   8  357.23   27.16
   0  -8   8  343.29   29.37
   0   8  -8  327.19   28.97
   0   8   8  401.82   32.39
   0  -8   9  191.23   20.28
   0  -8   9  179.73   22.32
   0   8   9  171.77   22.93
   0   8   9  146.70   19.73
   0   8  -9  194.68   24.52
   0  -8  10   79.43   15.65
   0   8  10  133.35   19.58
   0  -8  10   98.00   15.09
   0   8  10  127.73   19.35
   0   8 -10   99.11   18.64
   0   8 -11 1055.99   58.90
   0  -8  11 1236.36   54.47
   0  -8  11 1202.41   58.89
   0   8  11 1258.32   61.34
   0   8  11 1180.95   61.44
   0  -8  12   51.02   12.85
   0   8  12   32.98   13.41
   0   8 -12   17.23    7.13
   0   8  12   55.94   12.40
   0  -8  12   30.86    8.71
   0   8  12   48.18   11.93
   0  -8  13  135.46   20.58
   0   8  13  119.89   19.11
   0   8  13  174.65   22.77
   0  -8  13  125.20   17.46
   0   8 -13  151.01   21.23
   0   8  13  168.45   22.91
   0  -8  14   88.28   17.22
   0   8  14   99.57   17.70
   0   8 -14   80.28   15.49
   0  -8  14  129.56   17.90
   0   8  14  136.38   20.99
   0   8  14  115.42   19.54
   0  -8  15  592.57   40.60
   0   8 -15  531.55   42.60
   0   8  15  547.08   42.66
   0  -8  15  480.60   39.48
   0   8  15  584.57   46.16
   0   8  16    4.38    5.41
   0  -8  16   12.03    8.75
   0   8 -16    4.07    6.23
   0   8  16    4.61    4.84
   0   8  16    2.49    1.15
   0  -8  16    7.85    5.96
   0   8  17  555.96   44.87
   0  -8  17  440.00   37.25
   0   8  17  566.22   46.09
   0   8 -17  440.95   40.25
   0  -8  17  509.59   42.02
   0   8  17  459.63   41.55
   0  -8  18   32.58   13.53
   0  -8  18   85.98   18.05
   0   8  18   73.19   16.25
   0   8  18   74.68   16.48
   0   8  18   32.95   11.13
   0   8 -18   80.48   16.10
   0  -8  19  150.70   23.22
   0   8 -19  107.37   19.98
   0   8  19  149.80   24.37
   0   8  19  146.58   25.13
   0  -8  19   99.15   18.31
   0   8  20    6.44    7.26
   0  -8  20    6.39    7.59
   0   8  20    5.69    2.42
   0   8  20    1.30    1.49
   0   8 -20   -0.15    2.31
   0  -8  20   11.75    7.75
   0   8  21  100.59   20.75
   0   8  21  137.21   25.97
   0  -8  21  125.62   21.94
   0  -8  21  156.62   23.18
   0   8 -21  110.01   20.53
   0   8  21  135.84   24.02
   0   8 -22    5.96    5.77
   0  -8  22   -4.07    1.60
   0   8  22    8.10    5.83
   0  -8  22    3.58    3.43
   0   8  22    2.72    4.95
   0   8  23   65.39   20.00
   0   8 -23   59.09   16.39
   0  -8  23   58.03   15.21
   0  -8  23   55.79   15.27
   0   8  23   70.91   17.24
   0  -8  24    3.83    2.58
   0   8 -24    2.75    4.93
   0  -8  24   21.36    7.85
   0   8  24   23.86   11.96
   0   8  24    0.61    4.88
   0   8 -25  189.01   29.37
   0  -8  25   97.32   19.69
   0   8  25  217.05   32.38
   0   8  25  152.23   27.36
   0  -8  25  120.57   22.48
   0  -8  26    5.33    6.88
   0  -8  26   -5.07    8.19
   0   8  26    0.25    4.49
   0   8  26   -0.84    7.77
   0   8 -26    2.25    7.77
   0  -8  27   21.21   13.39
   0   8  27   26.62   14.28
   0   8  27   33.64   11.82
   0   8 -27   23.00   10.03
   0  -8  27   13.05    7.14
   0   8 -28   -2.41    3.83
   0   8  28    1.89    3.06
   0   8  28    2.25    4.04
   0  -8  28   -4.79    4.45
   0   9   0    1.46    2.42
   0   9   0   -0.36    2.42
   0   9   1    1.30    3.93
   0   9  -1    3.25    2.67
   0   9   1   -1.63    5.33
   0   9  -1   -0.26    3.41
   0   9  -2    3.10    2.28
   0   9   2   -3.80    5.47
   0   9  -2    5.24    5.36
   0   9   2   -2.26    4.31
   0   9   3    2.13    2.70
   0   9   3   -1.20    1.32
   0   9  -3   -2.87    3.63
   0   9  -3    1.50    4.93
   0   9  -4    1.51    4.31
   0   9   4    0.27    2.49
   0   9  -4    4.96    4.49
   0   9   4    2.58    4.66
   0   9   5   -1.20    0.50
   0   9  -5    3.16    5.59
   0   9   5    1.98    2.12
   0   9  -5    3.88    3.15
   0  -9   5   -0.60    2.32
   0   9   6    1.88    4.59
   0   9  -6   -3.04    5.14
   0   9   6   -2.58    2.90
   0  -9   6    0.90    1.81
   0   9  -6    5.24    6.66
   0   9   7   -1.22    3.25
   0   9  -7    0.70    2.42
   0  -9   7    6.87    4.48
   0   9   7    0.86    3.17
   0   9  -8   -3.05    3.54
   0   9   8    8.42    7.49
   0   9   8    1.49    4.77
   0  -9   8    1.93    4.58
   0   9   9    8.28    6.32
   0   9   9   -0.08    3.01
   0   9  -9   13.17    6.02
   0  -9   9    5.24    6.10
   0  -9   9   -2.40    3.71
   0  -9  10    1.01    1.88
   0   9 -10    2.59    5.09
   0  -9  10   -0.05    3.12
   0   9  10   -1.13    0.54
   0  -9  11   -0.71    4.61
   0   9  11    3.02    3.49
   0   9  11   -1.91    3.79
   0  -9  11    0.08    2.12
   0   9  11    2.11    3.53
   0   9 -11   -2.34    0.86
   0   9  12   10.18    7.15
   0   9 -12   -0.02    2.44
   0   9  12   -1.80    4.16
   0  -9  12    3.58    6.67
   0   9  12    4.36    5.98
   0  -9  12    0.84    1.34
   0   9 -13    3.07    2.81
   0   9  13   -2.05    1.57
   0  -9  13    1.95    4.84
   0   9  13   -0.28    1.75
   0  -9  13   -1.93    3.42
   0   9  13   -1.92    3.83
   0   9  14   10.29    6.68
   0  -9  14    1.37    2.54
   0   9 -14   -1.13    2.59
   0  -9  14    0.88    3.36
   0   9  14   -2.18    6.10
   0   9  14   -3.09    1.86
   0   9 -15   -3.29    3.95
   0   9  15    3.97    5.61
   0  -9  15    5.56    7.84
   0   9  15    5.76    5.82
   0   9  15   -4.27    1.49
   0  -9  15    1.84    1.05
   0  -9  16    3.24    5.62
   0   9  16   -0.10    3.26
   0   9 -16   -4.83    6.60
   0  -9  16    0.28    7.01
   0   9  16    4.16    7.07
   0   9  16    6.69    5.66
   0   9  17   -0.56    3.05
   0   9  17   -4.68    7.15
   0  -9  17   -1.55    4.15
   0   9 -17   -1.59    4.83
   0   9  17    1.80    5.41
   0  -9  17   -2.06    4.47
   0  -9  18   -0.32    5.05
   0   9  18   -2.82    3.35
   0  -9  18    2.33    4.05
   0   9  18    2.58    6.84
   0   9  18    1.26    6.05
   0   9 -18   -1.77    3.16
   0  -9  19    3.25    5.31
   0  -9  19   -2.57    4.99
   0   9  19    2.57    5.17
   0   9  19   -2.13    5.72
   0   9  19    6.17    5.08
   0   9 -19    2.20    5.95
   0   9 -20    4.23    3.07
   0  -9  20    0.39    2.48
   0  -9  20    1.77    6.67
   0   9  20    5.56    4.20
   0   9  20   -1.57    2.18
   0   9  20   -1.08    2.65
   0   9  21   -2.35    4.60
   0   9  21    2.67    7.58
   0   9 -21   -1.75    5.11
   0  -9  21   -3.27    5.91
   0   9  21    8.19    7.25
   0  -9  21    5.78    7.22
   0   9  22    1.57    1.13
   0  -9  22   -8.26    7.01
   0   9 -22   -5.67    4.32
   0  -9  22    3.03    4.71
   0   9  22   -1.24    4.27
   0   9  22    0.96   10.52
   0   9 -23    0.37    5.86
   0   9  23   -5.24    4.20
   0  -9  23    2.43    4.14
   0   9  23   -4.88    3.72
   0   9  24    1.80    8.17
   0  -9  24   -2.21    3.96
   0   9  24   -7.65    5.73
   0   9 -24    5.41    7.22
   0   9 -25   -1.23    4.51
   0   9  25    7.08    3.92
   0   9  25   -6.33    6.62
   0  -9  25    3.91    4.84
   0   9  26   -5.27    7.39
   0  -9  26    7.74    7.87
   0   9 -26   -2.40    3.39
   0   9  26   -4.06    5.99
   0   9 -27    1.06    5.74
   0   9  27  -10.85    9.05
   0   9  27   -8.40    9.90
   0  -9  27    1.62    4.86
   0  10   0   30.49   12.58
   0  10   0   22.19    8.23
   0  10  -1    4.05    2.54
   0  10  -1    9.07    5.99
   0  10   1   20.01    8.67
   0  10   1   15.14    7.06
   0  10  -2   11.25    7.17
   0  10   2   13.41    7.04
   0  10   2    7.90    3.27
   0  10  -2    3.97    4.32
   0  10   3   -0.76    3.95
   0  10  -3    3.64    2.34
   0  10   3   -0.66    2.37
   0  10  -3    0.73    2.77
   0  10   4  195.91   23.53
   0  10  -4  237.54   27.40
   0  10   4  166.61   24.39
   0  10  -4  163.98   22.11
   0  10  -5  209.14   25.65
   0  10   5  222.67   25.65
   0  10  -5  207.70   25.39
   0  10   5  199.21   26.74
   0  10  -6  199.40   25.10
   0  10   6  211.36   27.06
   0  10   6  166.91   22.08
   0  10  -6  213.81   26.54
   0 -10   6  177.47   20.03
   0  10  -7   75.87   15.80
   0  10   7   65.16   13.63
   0 -10   7   64.60   12.74
   0  10  -7   53.65   12.22
   0  10   7   81.97   17.93
   0  10   8  532.98   43.58
   0  10   8  453.32   38.14
   0  10  -8  585.31   43.52
   0 -10   8  474.41   34.96
   0 -10   9   54.16   13.19
   0  10  -9   29.31   10.57
   0  10   9   37.97   10.52
   0  10   9   42.85   12.94
   0  10 -10    0.18    3.16
   0  10  10   -1.25    1.69
   0  10  10    1.15    4.20
   0  10  11  290.18   32.57
   0  10  11  224.34   28.49
   0  10 -11  200.44   26.52
   0  10  11  297.97   32.29
   0  10  12   79.13   16.61
   0  10 -12   49.59   13.96
   0 -10  12   70.56   14.92
   0  10  12   72.17   16.41
   0  10  12   69.36   15.85
   0  10  13   48.09   13.92
   0  10  13   43.13   12.68
   0 -10  13   66.58   13.72
   0  10 -13   40.11   13.03
   0  10  13   58.81   15.14
   0  10  14  229.67   29.83
   0  10  14  221.15   29.12
   0  10 -14  196.78   27.70
   0  10  14  216.52   27.03
   0  10  15    5.46    8.32
   0  10  15   10.96    7.77
   0  10  15   -4.52    5.79
   0  10 -15    4.96    4.39
   0 -10  15   14.52    9.23
   0  10  16    4.43    5.39
   0  10 -16   -1.92    4.48
   0 -10  16    3.80    3.79
   0  10  16   -4.94    5.24
   0  10  16    1.12    1.85
   0  10  17    0.56    2.37
   0  10  17   -3.88    6.22
   0  10 -17    9.36    9.46
   0 -10  17   -1.26    1.13
   0  10  17   13.89    9.52
   0  10  18  122.28   23.76
   0  10  18  108.81   21.91
   0  10 -18  101.09   20.63
   0 -10  18   61.81   15.13
   0  10  18   75.55   18.29
   0  10 -19    8.22   10.02
   0  10  19    2.83    4.85
   0  10  19   13.39   10.77
   0 -10  19   10.91    7.79
   0  10  19   15.66    8.22
   0  10 -20    6.63    3.15
   0  10  20    9.23    7.50
   0 -10  20   -4.13    3.58
   0  10  20    8.07    8.06
   0  10  20   12.71    7.07
   0  10  21   39.66   14.58
   0 -10  21   45.34   14.73
   0  10 -21   26.40   11.17
   0  10  21   14.84   10.30
   0  10  21   11.85    9.02
   0 -10  22  222.13   31.24
   0  10  22  274.18   36.49
   0  10  22  152.68   27.21
   0  10 -22  222.87   30.88
   0  10  23   -5.49    8.71
   0  10  23   -6.79    5.05
   0 -10  23    0.15    4.25
   0  10  23    2.55    6.33
   0  10 -23   -4.46    8.48
   0  10  24   -3.02    5.00
   0  10  24   14.46    9.22
   0  10 -24    9.02    7.65
   0 -10  24   21.84    9.85
   0 -10  25   29.75   12.73
   0  10  25   42.25   14.49
   0  10 -25   29.27   10.39
   0  10  25   16.19    7.77
   0 -10  26   18.68    8.35
   0  10  26   32.63   12.81
   0  10 -26   40.30   14.18
   0  10  26   35.83   18.83
   0  11   0   -2.90    6.72
   0  11   0   -1.30    5.63
   0  11  -1    1.68    6.59
   0  11  -1    0.11    2.10
   0  11   1    4.44    4.59
   0  11   1    1.67    7.04
   0  11  -2    7.91    7.54
   0  11   2    0.68    2.88
   0  11  -2    5.58    4.90
   0  11   2    6.15    4.55
   0  11  -3   -3.15    3.66
   0  11   3   -5.24    7.28
   0  11   3    0.14    3.17
   0  11  -3   -3.43    6.22
   0  11  -4   -0.04    1.56
   0  11  -4    6.38    5.27
   0  11   4    1.18    4.52
   0  11   4    1.60    5.36
   0  11   5   -6.96    7.88
   0  11  -5    2.97    4.02
   0  11  -5   -5.26    4.85
   0  11   5    0.36    6.63
   0  11   6    0.38    1.12
   0  11  -6   -2.35    5.75
   0  11   6    0.73    8.13
   0  11  -6    0.29    5.36
   0  11   7    1.96    3.84
   0  11   7    6.55    4.39
   0  11  -7   -0.69    1.82
   0  11  -7   -0.85    3.71
   0  11  -8   -3.00    7.64
   0  11  -8   -2.55    6.31
   0  11   8    2.23    5.93
   0  11   8   -1.97    3.44
   0  11  -9   -0.75    5.42
   0  11  -9    5.07    7.66
   0  11   9    4.29    2.52
   0  11   9    2.28    5.21
   0  11  10    2.86    3.37
   0  11  10    3.83    2.60
   0  11 -10    1.38    2.75
   0  11  11   -6.87    6.62
   0  11  11    3.32    4.47
   0  11 -11    2.56    4.12
   0  11  12   -3.08    1.31
   0  11 -12    0.61    4.77
   0  11  12    1.20    3.76
   0  11  13    5.80    5.46
   0  11 -13    1.07    5.18
   0  11  13    0.99    5.06
   0  11  14   -3.48    4.63
   0  11 -14   -1.00    3.67
   0 -11  14    1.09    3.91
   0  11  14   -0.31    5.03
   0 -11  15   -2.50    2.63
   0  11 -15    1.70    5.45
   0  11  15    6.83    7.74
   0  11  15   -2.19    1.10
   0 -11  16   -2.95    4.81
   0  11  16    2.57    4.70
   0  11  16   -0.59    3.36
   0  11 -16   -1.51    2.91
   0  11  17    0.98    6.99
   0  11  17    3.06    8.24
   0  11 -17   -8.31    7.23
   0 -11  17   -1.62    4.78
   0  11 -18    4.46    6.56
   0  11  18   -6.42    7.63
   0  11  18   -9.38    7.47
   0  11  18  -16.74    8.36
   0 -11  18   -2.55    4.32
   0  11 -19    1.74    4.47
   0  11  19  -10.98    7.03
   0 -11  19   -6.26    7.29
   0  11  19   -1.35    4.77
   0  11  19   -4.20    8.37
   0  11  20  -10.50    7.14
   0  11  20    4.47    8.21
   0 -11  20    5.57    4.87
   0  11 -20    1.10    4.04
   0  11  20   -5.05    7.60
   0 -11  21    2.44    5.26
   0  11  21  -10.06    6.98
   0  11  21   -0.10    3.36
   0  11  21    3.58    3.93
   0  11 -21    4.10    1.93
   0 -11  22    0.83    1.25
   0  11  22    7.62    8.25
   0  11  22    3.14    5.91
   0  11 -22   -8.82    8.37
   0 -11  23   -2.25    4.39
   0  11  23   -6.90    5.96
   0  11  23    1.41    6.32
   0  11  23    3.98    9.18
   0  11 -23    1.66    0.93
   0  11  24    1.64    0.61
   0  11  24   -3.65    7.00
   0  11  24   -4.74    4.88
   0 -11  24    1.41    2.59
   0  12   0  145.00   23.95
   0  12   0  156.11   23.00
   0  12   1    0.87    3.41
   0  12  -1    4.71    6.33
   0  12   1    8.01    5.77
   0  12  -1   14.22    4.50
   0  12   2    5.87    8.22
   0  12  -2   -2.27    5.56
   0  12  -2   -2.62    5.37
   0  12   2   -3.79    4.86
   0  12   3  118.27   20.40
   0  12   3   73.90   17.08
   0  12  -3   90.39   17.38
   0  12  -3  104.64   19.24
   0  12  -4   -2.84    5.32
   0  12   4    4.05    5.73
   0  12   4    5.07    7.51
   0  12  -4    0.34    4.58
   0  12  -5   84.82   18.22
   0  12   5   79.59   17.40
   0  12  -5   90.83   18.90
   0  12   5   56.34   16.98
   0  12   6   12.11    6.87
   0  12  -6    4.68    3.42
   0  12  -6   19.06    8.83
   0  12   6   10.77    9.22
   0  12   7   38.74   12.43
   0  12  -7   12.61    5.40
   0  12   7   21.64    9.81
   0  12  -7   23.13    8.37
   0  12   8   20.51    7.92
   0  12  -8   27.33   11.60
   0  12  -8    5.80    3.89
   0  12   8   10.33    6.70
   0  12   9    9.49    5.72
   0  12   9    8.78    2.45
   0  12  -9   14.96    9.90
   0  12  -9   18.74    8.86
   0  12  10  214.12   29.68
   0  12 -10  181.85   25.87
   0  12  10  263.58   33.09
   0  12 -10  254.27   32.10
   0  12 -11  100.72   19.72
   0  12  11  120.50   22.52
   0  12  11  117.58   22.49
   0  12 -11  135.98   23.51
   0  12 -12   32.94   11.23
   0  12 -12   23.18    5.43
   0  12  12   20.27    9.83
   0  12  12   24.01   10.40
   0  12  13    5.04    8.27
   0  12  13    2.56    4.81
   0  12 -13    0.34    4.95
   0  12 -14   15.44    9.88
   0  12  14   18.14    8.70
   0  12  14   13.05    8.74
   0  12  15   -3.15    3.97
   0  12  15    6.57    7.71
   0  12 -15    5.58    4.08
   0  12  16   -1.34    2.48
   0  12  16    2.33    2.65
   0  12 -16    9.17    8.72
   0 -12  17    4.89    5.99
   0  12  17    0.27    2.25
   0  12 -17    2.31    2.71
   0  12  17   10.91    5.40
   0  12 -18    4.03    2.72
   0  12  18    6.11    5.09
   0  12  18   15.68    8.92
   0 -12  18   10.59    4.81
   0  12  19    7.77    5.04
   0 -12  19   -1.18    5.23
   0  12 -19    2.69    2.17
   0  12  19    2.10    6.06
   0 -12  20    9.23    5.12
   0  12  20    3.28    3.00
   0  12  20    9.17    7.81
   0  12 -20    2.50    3.47
   0  12 -21   22.00   10.61
   0 -12  21   30.94    9.63
   0  12  21    5.17    1.98
   0  12  21   13.10    4.89
   0  12  22    5.66    9.56
   0 -12  22    0.46    3.34
   0  12 -22    3.99    5.07
   0  12  22   -5.61    4.07
   0  13   0    2.33    6.00
   0  13   0   -6.69    5.94
   0  13  -1   -1.06    7.58
   0  13  -1    7.14    8.21
   0  13   1    2.07    6.49
   0  13   1    2.23    3.27
   0  13  -2   -2.95    6.87
   0  13   2    3.61    7.27
   0  13   2    4.65    4.04
   0  13  -2    1.19    2.92
   0  13  -3    1.26    1.94
   0  13   3    2.02    0.42
   0  13  -4   -2.54    2.70
   0  13  -4    3.12    5.61
   0  13   4    0.45    3.92
   0  13   4    2.29    7.52
   0  13   5   -0.08    4.60
   0  13  -5   -0.73    2.65
   0  13   5    2.53    6.70
   0  13  -5   -5.37    4.93
   0  13   6   -3.44    6.59
   0  13   6   -9.65    8.35
   0  13  -6    3.55    5.40
   0  13  -6   -5.85    6.54
   0  13  -7    4.56    6.25
   0  13   7   -5.17    7.08
   0  13   7    5.87    7.59
   0  13  -7   -1.10    3.53
   0  13   8    1.31    1.58
   0  13   8   -0.20    2.11
   0  13  -8    0.11    4.08
   0  13  -8    6.39    1.72
   0  13   9   -0.84    3.51
   0  13  -9    2.44    5.06
   0  13  -9    0.03    5.04
   0  13   9    1.17    2.72
   0  13 -10    5.62    5.84
   0  13 -10    0.91    3.49
   0  13  10    1.71    6.05
   0  13  10   11.78    8.13
   0  13  11    0.21    3.34
   0  13  11   -6.57    7.52
   0  13 -11    3.67    5.30
   0  13 -11    3.39    7.07
   0  13 -12   -0.27    2.24
   0  13 -12    0.94    5.02
   0  13  12    3.50    5.81
   0  13  12    5.52    5.33
   0  13  13    1.84    2.86
   0  13 -13    6.56    8.98
   0  13 -13   -2.95    3.39
   0  13  13    3.41    4.88
   0  13  14    2.72    1.23
   0  13  14   -0.47    4.44
   0  13 -14    4.40    2.73
   0  13 -14   -1.33    1.16
   0  13  15   -4.67    5.86
   0  13 -15   -0.06    4.65
   0  13  15    0.59    3.36
   0  13  16    0.94    5.87
   0  13  16    3.58    5.91
   0  13 -16   -1.16    6.93
   0  13  17    3.33    5.67
   0  13  17    8.67    8.32
   0  13 -17    3.82    7.59
   0  13  18   -0.16    6.71
   0  13 -18   -1.44    0.93
   0  13  18    0.74    3.64
   0  13  19    8.46    7.22
   0  13 -19   -4.49    9.00
   0  13  19    2.42    2.63
   0  13  20    1.12    1.23
   0  13  20    5.15    6.58
   0  13 -20    1.68    2.05
   0  14   0   -2.80    6.34
   0  14   0   28.22    9.21
   0  14  -1   56.91   15.43
   0  14   1   37.25   11.58
   0  14   1   26.55    9.41
   0  14  -1   27.55   11.12
   0  14  -2    1.25    4.66
   0  14   2    0.87    2.97
   0  14   2   -5.39    6.68
   0  14  -2   -0.80    1.61
   0  14  -3   -1.48    4.71
   0  14   3   15.01    6.95
   0  14  -3    2.30    5.19
   0  14   3    0.65    3.11
   0  14  -4    9.58    6.37
   0  14  -4    7.76    6.92
   0  14   4   14.52    6.45
   0  14   4    2.51    5.90
   0  14  -5    3.79    4.69
   0  14   5    7.62    8.94
   0  14  -5    5.84    1.83
   0  14   5    3.76    7.94
   0  14  -6   30.89   11.48
   0  14   6   23.84    9.25
   0  14   6   43.14   14.75
   0  14  -6   34.68    9.87
   0  14  -7   65.45   16.67
   0  14   7   58.50   16.43
   0  14  -7   37.78   14.45
   0  14   7   55.31   16.86
   0  14   8   73.26   17.76
   0  14   8   43.80   12.34
   0  14  -8   48.58   17.71
   0  14  -8   32.74   11.56
   0  14   9   14.15    9.99
   0  14  -9   -4.31    8.73
   0  14  -9    6.49    6.35
   0  14   9   -0.94    6.41
   0  14  10   86.23   20.31
   0  14  10   31.39   10.50
   0  14 -10   77.62   18.06
   0  14 -10   44.02   14.19
   0  14  11    2.02    6.71
   0  14  11    6.04    6.86
   0  14 -11   -0.90    5.83
   0  14 -11    1.69    2.54
   0  14 -12   15.56    9.76
   0  14  12   21.19   12.45
   0  14 -12   13.29    7.54
   0  14  12   26.95   10.26
   0  14 -13    0.62    4.72
   0  14 -13   51.26   16.02
   0  14  13   52.05   16.87
   0  14  13   28.67   11.48
   0  14  14    9.87    6.98
   0  14  14   20.36   10.17
   0  14 -14    8.25    3.71
   0  14 -14   13.98    7.57
   0  14 -15   -2.67    5.46
   0  14  15   -0.86    5.10
   0  14  15    0.66    5.35
   0  14 -15   -0.53    1.13
   0  14  16   12.64    4.46
   0  14 -16   -2.33    7.68
   0  14  16    6.53    3.05
   0  14 -16   -0.84    4.58
   0  14  17    8.93    8.10
   0  14  17    9.88    1.46
   0  14 -17   -1.24    5.12
   0  14 -17    1.24    2.14
   0  15   0    0.55   13.64
   0  15   0   10.14    6.40
   0  15  -1   -5.10    6.27
   0  15   1   -2.29    6.10
   0  15   1    3.29    2.13
   0  15  -1   -3.05    1.94
   0  15  -2   -2.04    3.81
   0  15   2    1.17    2.86
   0  15  -2   -8.14    7.93
   0  15   2    0.17    4.33
   0  15   3    4.83    6.10
   0  15  -3    9.70    6.90
   0  15  -3    1.49    3.33
   0  15   3    5.00    9.03
   0  15  -4    6.23    8.90
   0  15   4   -5.32    2.87
   0  15   4    0.03    3.64
   0  15  -4    6.28    6.48
   0  15  -5   -2.13    5.18
   0  15  -5    5.29    4.44
   0  15   5    5.43    8.35
   0  15   5    1.83    5.23
   0  15   6    5.66    8.00
   0  15  -6   -6.50    7.64
   0  15  -6   -1.73    2.73
   0  15   6    2.75    4.52
   0  15   7    5.21    3.36
   0  15  -7   -4.58    7.34
   0  15  -7    2.15    3.33
   0  15   7   -1.99    6.94
   0  15  -8    0.03    3.48
   0  15   8    6.82    8.31
   0  15   8   -1.38    3.84
   0  15  -8    4.88    5.60
   0  15   9   -1.78    6.28
   0  15   9    4.68    5.15
   0  15  -9    4.29    5.51
   0  15  -9    3.80    2.86
   0  15  10    4.91    5.69
   0  15 -10   11.41   10.59
   0  15 -10    7.12    9.39
   0  15  10   -1.87    3.03
   0  15 -11   -8.06    7.91
   0  15 -11    0.23    5.34
   0  15  11   -2.12    2.33
   0  15  11   -1.79    6.29
   0  15  12   -1.88    2.63
   0  15 -12    3.31    4.28
   0  15  12    2.51    3.00
   0  15  13   -8.70    9.01
   0  15 -13   -0.21    3.99
   0  15  13   -0.32    4.63
   0  15 -13   -8.95    9.07
   0  15 -14   -5.35    4.54
   0  15  14   -6.09    6.18
   0  15 -14   -0.89    5.54
   0  15  14    0.42    2.96
   0  16   0   97.15   20.79
   0  16   0   81.94   19.72
   0  16   1   -1.67    0.37
   0  16  -1    0.55    4.94
   0  16   1    1.98    4.05
   0  16  -1   -5.73    3.74
   0  16   2    5.11    4.66
   0  16  -2    4.52    4.06
   0  16   2   15.40    7.63
   0  16  -2   12.40    7.19
   0  16  -3    4.52    6.76
   0  16   3   10.63    1.46
   0  16  -4  148.27   28.39
   0  16  -4  167.57   27.27
   0  16   4  119.28   22.83
   0  16   4  162.18   28.82
   0  16  -5    9.66    6.52
   0  16   5    1.03    5.38
   0  16  -5   -8.56    9.69
   0  16   5   -0.07    4.75
   0  16  -6   -2.38    3.57
   0  16  -6    0.10    5.74
   0  16   6    9.55    8.53
   0  16   6   -3.61    7.72
   0  16  -7    9.05    8.44
   0  16   7   25.60   10.53
   0  16   7   16.40    9.57
   0  16  -7   12.84    3.60
   0  16   8   20.83   12.16
   0  16  -8    2.28    4.47
   0  16   8   14.90    8.06
   0  16  -8   10.49   10.11
   0  16   9   17.52    8.92
   0  16  -9    5.02    4.10
   0  16   9   11.19    6.72
   0  16  -9    9.96    3.96
   1   0   0    0.13    0.26
   1   0   1   -0.12    0.14
  -1   0   1   -0.36    0.35
   1   0   2 2803.23   30.86
  -1   0   2 2786.21   35.12
  -1   0   3    2.43    1.26
   1   0   3   -1.31    1.28
   1   0   3   -0.04    0.97
   1   0   4 1987.96   40.08
  -1   0   4 2069.01   39.06
   1   0   5    1.59    0.95
   1   0   5    2.69    1.80
  -1   0   5    4.86    2.39
  -1   0   6 3640.36   65.08
   1   0   6 3570.29   60.05
  -1   0   7   -2.22    2.74
   1   0   7   -2.03    2.44
   1   0   7    2.19    1.75
  -1   0   7   -2.29    1.78
  -1   0   8 3439.76   74.10
  -1   0   8 3149.36   67.22
   1   0   8 3376.55   68.22
   1   0   8 3663.17   73.90
   1   0   9    1.96    3.79
   1   0   9   -0.99    1.60
  -1   0   9   -0.60    2.23
  -1   0   9   -0.83    2.61
   1   0  10    4.40    2.45
  -1   0  10    4.76    1.88
  -1   0  10    1.75    2.38
   1   0  10    7.93    4.22
   1   0  11    3.39    4.02
  -1   0  11   -2.45    3.40
  -1   0  11   -0.53    1.91
   1   0  11   -1.44    1.21
  -1   0  12 1905.84   63.04
  -1   0  12 1464.97   54.21
   1   0  12 1391.95   55.58
   1   0  12 1824.94   61.40
   1   0  13    1.18    2.44
  -1   0  13   -1.75    2.97
   1   0  13    0.26    2.43
  -1   0  13   -0.87    4.41
  -1   0  14  621.85   39.15
  -1   0  14  729.87   42.50
   1   0  14  705.73   41.13
  -1   0  15   -1.45    4.12
   1   0  15   -1.54    3.64
   1   0  15   -0.53    1.24
  -1   0  15   -0.08    2.55
   1   0  16 2079.28   75.72
  -1   0  16 2058.81   76.61
  -1   0  16 2275.92   79.47
   1   0  17   -0.31    0.80
  -1   0  17    3.36    2.82
  -1   0  17    0.88    1.58
   1   0  17   -0.19    2.92
  -1   0  18    0.13    3.54
   1   0  18    0.60    3.24
  -1   0  18    4.60    3.78
   1   0  18    0.16    3.42
   1   0  19    8.83    6.47
  -1   0  19   -0.84    4.05
   1   0  19   -3.05    2.70
  -1   0  19    1.48    5.88
   1   0  20   69.77   14.54
  -1   0  20   93.48   17.76
   1   0  20   62.16   13.33
  -1   0  20   91.48   17.81
   1   0  21    3.30    5.26
  -1   0  21    0.63    5.56
  -1   0  21   -0.49    3.29
   1   0  21   -5.66    7.02
  -1   0  22   43.96   12.10
   1   0  22   73.76   15.88
  -1   0  22   69.31   16.24
   1   0  22   31.05   11.31
   1   0  23    3.91    8.12
  -1   0  23    0.79    4.20
  -1   0  23    2.92    4.32
   1   0  23    3.47    3.23
  -1   0  24  211.20   29.67
   1   0  24  235.49   30.88
   1   0  24  289.67   33.78
  -1   0  24  311.46   34.38
  -1   0  25   -2.51    3.87
  -1   0  25    2.28    4.46
   1   0  25    7.54    6.02
   1   0  25    2.99    7.89
  -1   0  26  270.70   33.55
   1   0  26  279.08   34.70
   1   0  26  311.62   36.68
  -1   0  26  230.60   31.38
   1   0  27    0.19    5.52
  -1   0  27    1.49    2.04
   1   0  27    2.55    3.29
  -1   0  27   -1.75    3.09
  -1   0  28    4.56    7.37
  -1   0  28    4.88    6.26
   1   0  28    0.72    4.21
   1   0  28    0.43    4.66
   1   0  29    0.11    1.03
  -1   0  29   -5.17    9.09
  -1   0  29   -0.79    1.09
   1   0  29   -1.97    4.01
  -1   0  30   19.06    6.33
  -1   0  30   -0.86    6.74
   1   0  30   11.75    6.50
   1   0  31   18.30   13.21
  -1   0  31    8.13    8.22
   1   0  31    5.71    5.82
  -1   0  31    0.45    7.26
  -1   0  32    2.27    5.22
  -1   0  32   -2.22    4.41
   1   0  32    4.79    5.99
   1   0  32   -2.00    5.02
  -1   1   0    0.02    0.18
   1   1   0    0.01    0.39
   1   1  -1 1246.97   21.78
   1   1   1 1323.54   20.26
  -1  -1   1 1381.16   21.17
   1  -1   1 1320.95   27.68
  -1   1   1 1298.61   24.99
   1   1   1 1163.21   23.85
   1  -1   2 3781.12   49.54
  -1   1   2 3118.38   42.67
   1   1   2 3626.94   45.43
  -1  -1   2 3415.22   40.65
   1  -1   2 3468.36   44.75
   1   1   2 2561.83   33.85
  -1   1   2 2646.54   35.02
  -1  -1   3  589.58   19.57
   1   1   3  589.96   15.64
   1  -1   3  563.35   19.39
  -1   1   3  437.35   15.18
  -1   1   3  506.16   19.19
   1  -1   3  530.70   20.15
   1   1   3  484.74   17.76
   1   1   3  494.61   18.65
   1  -1   4  176.71   12.68
  -1  -1   4  196.44   13.04
   1   1   4  112.02   10.07
   1  -1   4  197.79   12.35
  -1   1   4  157.57   11.39
   1   1   4  172.21   10.10
  -1   1   4  216.62   12.05
  -1  -1   4  184.14   11.09
   1   1   4  227.51   13.56
  -1   1   5  715.68   25.50
   1   1   5  593.40   23.99
  -1   1   5  637.69   24.85
  -1  -1   5  683.13   23.57
   1  -1   5  523.18   23.53
   1   1   5  683.89   23.30
   1   1   5  775.25   28.39
  -1  -1   5  558.59   24.51
   1  -1   5  707.93   25.89
   1  -1   6  124.55   11.47
  -1  -1   6  112.11   11.79
   1   1   6  153.50   12.62
   1   1   6  150.15   13.73
   1  -1   6  111.54   11.17
  -1   1   6  152.30   13.05
   1   1   6  121.39   11.64
  -1  -1   6  135.03   12.15
   1  -1   7  384.37   22.71
   1   1   7  433.37   23.61
  -1   1   7  323.60   20.55
  -1  -1   7  414.43   22.05
   1  -1   7  377.70   22.14
  -1  -1   7  358.68   22.66
   1   1   7  403.05   22.25
   1   1   8  451.48   25.48
  -1   1   8  401.90   24.39
   1  -1   8  344.41   21.91
   1   1   8  431.74   24.74
  -1  -1   8  501.06   28.20
  -1  -1   8  379.22   22.20
   1  -1   8  390.05   24.43
   1  -1   9   60.84   10.37
  -1   1   9   95.81   12.74
  -1  -1   9   79.16   10.70
   1   1   9   98.03   12.02
   1  -1   9  108.20   12.92
  -1  -1   9  110.97   14.21
   1   1   9  100.12   12.22
  -1   1   9   99.68   12.72
   1  -1  10   33.86    8.21
   1  -1  10   36.22    7.36
  -1   1  10   17.87    6.38
  -1   1  10   26.92    6.81
   1   1  10   33.03    7.29
   1   1  10   32.41    7.05
  -1  -1  10   31.35    8.42
  -1  -1  10   17.77    7.00
  -1  -1  11  319.60   24.67
  -1  -1  11  238.14   23.40
   1   1  11  281.89   23.63
   1  -1  11  232.41   21.79
  -1   1  11  255.91   23.29
   1   1  11  235.61   20.93
   1  -1  11  314.91   24.75
  -1   1  11  190.33   19.16
  -1   1  12   48.71   10.74
  -1  -1  12   43.45    9.41
   1  -1  12   40.15    9.98
   1  -1  12   42.62    9.24
   1   1  12   45.81    9.06
  -1   1  12   31.29    8.40
  -1  -1  12   67.76   12.47
   1   1  12   54.16   10.65
   1   1  13  612.12   35.78
  -1  -1  13  712.52   39.89
  -1   1  13  709.06   39.85
  -1  -1  13  641.09   38.95
   1   1  13  719.00   40.47
   1  -1  13  653.92   38.25
   1  -1  13  775.95   42.17
  -1   1  13  552.06   37.50
  -1  -1  14   93.88   15.47
  -1  -1  14   78.03   13.00
   1  -1  14   75.67   13.59
  -1   1  14   77.74   14.22
  -1   1  14  111.83   17.08
   1  -1  14   77.40   13.38
   1   1  14   62.76   13.38
   1   1  14   54.01   11.20
  -1  -1  15   84.48   14.45
   1  -1  15   73.95   13.83
   1  -1  15  114.33   17.05
   1   1  15  106.07   15.83
  -1   1  15  106.56   17.00
  -1  -1  15   50.28   11.69
   1   1  15   89.83   15.02
  -1   1  15   34.79    9.08
  -1  -1  16  144.93   19.30
  -1   1  16  187.19   22.43
   1   1  16  168.84   21.60
  -1   1  16  136.32   21.01
   1  -1  16  150.97   20.45
  -1  -1  16  129.85   19.61
   1   1  16  156.93   21.09
   1  -1  16  153.19   20.91
  -1   1  17  689.18   44.57
   1  -1  17  852.22   50.16
  -1  -1  17  799.65   46.71
   1   1  17  817.46   49.41
  -1  -1  17  654.37   44.99
   1   1  17  833.95   49.07
  -1   1  17  622.63   43.25
   1  -1  17  675.26   44.54
  -1  -1  18    3.00    4.94
  -1   1  18    1.53    0.58
   1   1  18    1.34    2.14
   1   1  18    4.86    6.41
   1  -1  18    1.22    1.56
  -1   1  18    1.39    2.81
   1  -1  18    1.19    3.88
  -1  -1  18    2.29    0.95
  -1   1  19    4.93    7.94
  -1   1  19    7.06    4.00
   1   1  19    5.26    7.11
   1  -1  19    0.25    6.14
  -1  -1  19    9.46    4.86
   1  -1  19   11.81    7.21
  -1  -1  19   -3.90    2.89
   1   1  19    5.53    7.00
  -1   1  20  466.43   39.30
  -1  -1  20  406.85   37.85
   1  -1  20  444.80   39.09
   1  -1  20  418.52   37.25
  -1  -1  20  428.70   37.59
  -1   1  20  463.48   40.05
   1   1  20  474.48   40.97
   1   1  20  446.85   38.83
  -1  -1  21   -2.02    5.50
  -1   1  21    4.00    5.19
   1  -1  21    3.79    4.84
  -1   1  21    6.01    7.46
  -1  -1  21   -5.20    5.10
   1   1  21   -4.17    1.90
   1  -1  21    0.32    4.59
   1   1  21   -0.47    4.79
   1  -1  22   78.26   15.68
   1   1  22   50.40   13.66
   1   1  22   88.48   17.25
  -1  -1  22   84.16   18.28
  -1  -1  22   62.41   14.98
  -1   1  22   59.93   15.61
   1  -1  22   49.21   13.84
  -1   1  22   86.83   19.09
   1  -1  23   83.20   18.33
  -1   1  23   68.29   16.73
  -1  -1  23   57.77   14.72
   1  -1  23   76.48   17.29
  -1  -1  23   56.22   14.82
   1   1  23   59.03   15.31
  -1   1  23   84.82   19.09
   1   1  23   72.55   17.53
  -1   1  24   -4.66    4.08
  -1  -1  24    3.82    4.36
   1   1  24    8.36    7.57
   1  -1  24    1.80    1.63
  -1  -1  24    3.09    4.75
   1  -1  24   -3.56    2.46
   1   1  24    7.72    2.86
  -1   1  24   -2.61    4.87
   1  -1  25   43.48   13.14
  -1  -1  25   57.84   15.11
  -1   1  25   60.49   15.96
   1   1  25   50.06   13.82
   1  -1  25   52.52   13.03
  -1   1  25   79.85   17.24
   1   1  25   73.00   17.59
  -1  -1  25   58.66   13.99
  -1   1  26   31.94   11.76
   1  -1  26   61.50   15.77
  -1  -1  26   42.11   13.31
   1  -1  26   45.89   14.43
   1   1  26   50.55   16.03
  -1  -1  26   34.16   12.87
  -1   1  26   62.60   16.73
   1   1  26   48.23   15.11
  -1   1  27    5.30    9.87
   1  -1  27   -0.71    1.92
  -1   1  27   -1.96    5.52
   1   1  27    5.19    7.14
  -1  -1  27    1.06    7.75
   1  -1  27   -2.71    6.93
   1   1  27    2.90    6.04
  -1  -1  27    4.83   10.30
  -1  -1  28   -2.44    9.68
   1  -1  28    1.69    7.32
  -1   1  28   -0.12    2.79
   1   1  28   -1.53    5.38
  -1   1  28    0.63    4.89
   1   1  28   -0.42    3.15
  -1  -1  28   -0.68    7.56
   1  -1  28   -6.77    5.84
  -1   1  29    5.20    4.26
  -1  -1  29   -2.97    3.41
  -1   1  29   -3.27    3.85
   1  -1  29    4.47    7.95
   1   1  29    7.11    9.34
   1   1  29   -6.52    6.75
  -1  -1  29    6.28    5.83
   1  -1  29   -0.41    7.00
  -1   1  30    7.71    4.17
   1  -1  30   -3.29    2.92
  -1  -1  30    4.09    6.06
   1   1  30   -1.25    5.56
  -1  -1  30    3.08    7.49
   1  -1  30   -3.21    4.12
   1   1  30    4.28    5.24
  -1   1  30    3.29    5.10
   1   1  31   18.03   12.43
   1  -1  31    3.63    1.91
  -1  -1  31    2.32    3.40
   1   1  31    9.29    7.25
  -1  -1  31   11.02    7.41
   1  -1  31   -1.04    3.51
  -1   1  31   11.17    7.55
  -1   1  31    4.82    7.53
   1  -1  32   16.16    8.33
  -1   1  32   14.83    7.45
  -1  -1  32    5.35    4.38
   1   1  32    3.17    1.68
   1  -1  32   14.83   11.72
  -1  -1  32   15.13    8.09
   1   1  32    7.51    6.72
  -1   1  32   11.97    5.60
   1  -2   0   -0.29    0.77
   1   2   0   -0.32    1.15
  -1   2   0   -0.10    0.97
  -1   2   0    0.02    1.44
  -1   2  -1  100.66    8.94
   1   2   1  113.90    6.83
   1   2   1  108.39    9.45
  -1  -2   1  117.52    7.74
  -1   2   1   95.46    8.30
  -1   2   1  131.38   10.01
  -1   2   2  566.48   21.32
   1  -2   2  444.51   19.02
  -1  -2   2  326.56   14.56
   1  -2   2  510.31   20.30
  -1   2   2  467.57   19.80
   1   2  -2  590.29   21.06
   1   2   2  506.51   14.92
   1   2   2  592.06   22.75
  -1   2  -2  463.10   18.78
  -1  -2   3 8966.24   61.56
   1   2   3 9062.23   75.75
   1   2  -3 8896.50   85.53
  -1   2   3 9015.42   89.84
   1  -2   3 8316.56   85.03
   1  -2   3 8556.15   91.00
   1   2   3 6939.06   80.73
  -1  -2   3 8756.72   85.09
  -1   2   3 7576.71   77.68
  -1   2   4  306.04   17.75
   1  -2   4  330.94   17.79
   1   2   4  332.46   14.74
   1   2   4  238.85   15.94
   1   2   4  356.40   16.97
   1   2  -4  317.19   17.95
  -1  -2   4  460.99   16.69
   1  -2   4  385.32   19.70
  -1   2   4  309.08   16.85
  -1  -2   4  368.57   18.53
  -1  -2   5 7572.37   92.42
   1   2   5 7171.72   90.90
   1  -2   5 7214.85   92.22
   1   2  -5 8271.16   93.00
  -1  -2   5 7454.30   76.03
  -1   2   5 7195.47   90.64
   1  -2   5 7586.09   93.27
   1   2   5 8017.13   79.74
  -1   2   5 7949.29   87.20
  -1  -2   6 1061.99   37.11
   1   2   6 1007.20   31.42
  -1   2   6 1009.92   35.42
   1  -2   6  989.00   34.60
   1   2   6  877.17   31.75
  -1  -2   6  827.63   29.90
   1  -2   6 1062.18   36.29
   1   2   6 1022.38   36.50
   1  -2   7  324.35   21.34
  -1   2   7  374.35   22.85
   1   2   7  324.14   19.62
  -1  -2   7  322.35   19.14
   1  -2   7  317.01   20.95
   1   2   8  113.77   13.48
   1  -2   8   82.99   11.53
   1   2   8   96.66   11.74
  -1   2   8   79.73   10.79
  -1  -2   8   84.48   10.21
   1   2   8   87.89   10.50
  -1   2   8   82.82   10.85
  -1  -2   8   69.39   10.62
   1  -2   8   99.00   12.36
   1   2   9  614.32   32.11
   1  -2   9  575.47   31.09
   1   2   9  507.70   27.28
   1   2   9  635.60   34.02
   1  -2   9  508.01   30.18
  -1   2   9  564.65   30.67
  -1   2   9  490.26   28.93
  -1  -2   9  672.60   30.82
  -1  -2   9  524.55   30.34
  -1  -2  10 2949.33   68.28
  -1   2  10 2631.15   71.46
   1  -2  10 2602.92   70.84
   1  -2  10 2432.05   67.05
   1   2  10 2728.41   70.11
  -1  -2  10 2636.66   71.71
   1   2  10 2738.64   69.98
   1  -2  11  178.10   18.38
  -1   2  11  192.56   19.84
  -1  -2  11  204.62   19.06
  -1  -2  11  187.60   20.26
   1  -2  11  167.53   18.09
   1   2  11  187.90   18.84
  -1   2  11  230.25   22.27
   1   2  11  181.65   18.59
  -1   2  12   39.83    8.99
  -1  -2  12   25.97    8.16
  -1  -2  12   66.00   11.28
   1  -2  12   39.99    9.10
  -1   2  12   39.28    9.33
   1   2  12   41.56    9.65
   1  -2  12   41.17    8.76
   1   2  12   52.14   11.01
  -1  -2  13  629.46   36.98
   1   2  13  709.13   41.02
  -1   2  13  568.26   36.68
  -1  -2  13  677.84   39.98
  -1   2  13  653.89   38.79
   1  -2  13  600.68   36.94
   1  -2  13  598.15   35.78
   1   2  13  698.65   40.60
  -1  -2  14   69.67   12.46
   1  -2  14   72.56   13.16
  -1   2  14   62.93   12.02
  -1   2  14   68.71   13.10
   1   2  14   56.56   11.91
   1   2  14   79.30   15.13
  -1  -2  14   53.92   12.18
   1  -2  14   74.90   13.35
  -1  -2  15  571.05   38.41
   1   2  15  544.04   37.42
  -1   2  15  600.61   41.00
   1  -2  15  493.93   35.67
  -1   2  15  422.16   33.09
   1  -2  15  547.44   36.85
  -1  -2  15  644.19   41.26
   1   2  15  527.31   36.67
  -1  -2  16  138.87   19.93
   1   2  16  151.95   19.65
   1   2  16  132.80   19.36
  -1   2  16  183.35   22.37
  -1  -2  16  121.99   18.88
   1  -2  16  111.91   16.74
  -1   2  16  138.89   21.03
   1  -2  16  106.04   17.51
   1   2  17   57.53   12.16
   1   2  17   72.03   14.93
   1  -2  17   67.48   14.34
  -1   2  17   68.00   15.41
   1  -2  17   57.09   12.84
  -1   2  17   44.10   11.17
  -1  -2  17   82.13   15.84
  -1  -2  17   85.89   15.65
  -1   2  18    0.95    4.59
  -1  -2  18    9.18    8.49
  -1   2  18   -1.72    3.84
   1   2  18   11.00    4.56
   1  -2  18    1.68    1.46
  -1  -2  18    6.02    3.38
   1  -2  18    7.22    4.11
   1   2  18   10.53    6.70
   1   2  19   67.93   14.13
  -1  -2  19   82.42   17.20
   1  -2  19   83.42   15.44
   1   2  19   84.59   16.83
  -1   2  19   48.77   13.25
  -1  -2  19  105.24   17.62
   1  -2  19   87.25   16.82
  -1   2  19  117.57   20.38
   1   2  20  883.77   56.25
  -1   2  20  939.91   57.41
  -1  -2  20  735.78   50.39
   1   2  20  843.79   54.88
  -1  -2  20  792.04   51.35
   1  -2  20  848.89   52.73
  -1   2  20  858.52   56.14
   1  -2  20  875.72   52.48
   1   2  21   56.58   14.04
  -1   2  21   65.54   15.50
   1  -2  21   63.93   14.71
  -1  -2  21   58.87   14.53
   1   2  21   45.74   13.19
  -1   2  21   43.87   12.15
   1  -2  21   47.27   12.87
  -1  -2  21   55.60   14.12
   1   2  22   27.45   11.04
  -1  -2  22   22.42    8.69
   1  -2  22   29.28    9.06
  -1   2  22   45.30   13.08
  -1   2  22   24.88    8.50
   1   2  22   43.30   13.18
   1  -2  22   32.08   11.71
  -1  -2  22   27.30    9.49
  -1  -2  23   46.96   13.96
   1  -2  23   43.07   13.49
  -1   2  23   65.91   16.06
   1   2  23   68.53   17.69
  -1  -2  23   85.87   18.53
  -1   2  23   60.25   14.89
   1   2  23   83.54   17.63
   1  -2  23   68.37   15.74
   1   2  24   28.67   11.41
  -1   2  24   24.47   10.88
   1   2  24   30.39   10.54
  -1  -2  24   34.50   12.59
  -1   2  24   17.09    7.19
  -1  -2  24   26.59   10.40
   1  -2  24   20.03    8.07
   1  -2  24   30.16   10.96
   1   2  25    4.63    3.90
  -1  -2  25    4.61    6.22
  -1   2  25    1.17    1.11
   1   2  25   12.67    7.56
   1  -2  25   -1.66    4.68
  -1  -2  25   11.04    3.29
   1  -2  25    8.81    3.34
  -1   2  25   -1.83    6.77
   1  -2  26   27.00    8.67
  -1  -2  26   34.01   11.00
   1   2  26   35.09   12.42
   1  -2  26   33.40   11.73
  -1  -2  26   62.89   17.04
  -1   2  26   31.37   10.41
   1   2  26   44.45   15.66
  -1   2  26   27.31   11.32
  -1   2  27   86.97   21.35
   1   2  27   99.99   20.91
   1  -2  27   94.11   20.38
  -1  -2  27   94.69   19.52
   1  -2  27   76.82   18.58
   1   2  27   94.22   20.34
  -1   2  27   93.32   19.94
  -1  -2  27   85.38   18.03
  -1   2  28    9.31    5.38
   1  -2  28   18.93    7.35
  -1   2  28   -5.54    1.85
  -1  -2  28   -8.03    2.49
   1  -2  28   -3.83    7.05
  -1  -2  28   -0.56    3.32
   1   2  28   -3.71    7.43
   1   2  28   12.75   10.53
   1   2  29   13.21   11.26
   1   2  29   11.04    4.27
  -1  -2  29    9.04    5.88
   1  -2  29    1.24    2.08
  -1   2  29   11.42    5.97
   1  -2  29   19.46    8.16
  -1   2  29   11.28   11.19
  -1  -2  29   28.76   11.31
  -1  -2  30   31.23   11.48
   1  -2  30   41.32   15.20
   1   2  30   28.51    9.76
  -1  -2  30   60.12   16.21
   1  -2  30   11.01    8.93
  -1   2  30   19.55   11.07
   1   2  30   21.60   10.64
  -1   2  30   38.85   13.13
  -1   2  31   13.01    7.33
   1  -2  31   16.70    1.86
  -1  -2  31   21.13    9.59
   1  -2  31   22.24   10.76
  -1  -2  31   20.83    9.36
   1   2  31   19.59   10.27
  -1   2  31   36.34   12.04
   1   2  31   21.99   10.83
   1   2  32   -2.58    5.43
   1  -2  32    2.80    5.94
  -1   2  32   -5.76    8.32
   1   2  32   -5.67    6.09
  -1  -2  32   -2.40    5.17
  -1   2  32   -5.86    5.34
  -1  -2  32   -8.09   10.41
   1  -2  32    8.62   10.87
   1   3   0    0.72    1.86
   1  -3   0    0.04    0.72
  -1   3   0   -1.50    1.93
  -1   3   0    0.92    1.27
   1   3   0   -0.82    1.34
  -1   3  -1 2127.57   47.65
  -1   3   1 2097.09   46.42
  -1   3  -1 1344.72   36.67
   1   3   1 1755.85   34.62
   1  -3   1 1669.34   40.48
  -1  -3   1 2356.88   41.97
   1   3   1 1724.80   24.52
   1   3  -1 1684.85   41.18
  -1   3   1 1914.21   44.31
   1   3   1 2065.32   48.85
  -1  -3   2  283.63   15.92
   1   3   2  452.52   17.82
   1   3   2  479.51   23.86
   1   3  -2  489.22   22.78
   1   3   2  588.69   17.34
  -1   3  -2  331.64   19.09
  -1   3   2  439.54   21.58
   1  -3   2  475.88   22.14
  -1   3   2  401.76   20.86
   1  -3   3 2666.04   52.74
   1   3  -3 2683.07   55.92
  -1   3   3 2635.35   54.16
   1   3   3 2323.37   40.33
   1   3   3 2710.89   45.43
   1   3   3 2366.55   56.22
  -1   3  -3 2378.71   51.30
  -1   3   3 2603.11   54.14
  -1  -3   3 2443.34   48.67
  -1   3   4  316.21   19.46
   1   3  -4  254.04   17.38
   1   3   4  267.58   15.26
   1  -3   4  270.12   18.56
  -1  -3   4  221.30   10.95
   1   3   4  261.22   18.73
  -1  -3   4  216.16   15.78
   1  -3   4  275.12   16.91
  -1   3   4  291.13   18.87
  -1   3  -5  838.45   34.28
   1  -3   5  919.80   35.00
   1   3   5  622.11   25.26
   1   3   5  788.51   28.86
   1   3  -5  677.76   29.11
   1   3   5  868.20   35.04
  -1   3   5  920.35   35.30
  -1  -3   5  548.32   21.04
  -1  -3   5  877.70   32.23
  -1   3   5  842.10   32.56
   1  -3   5  825.73   30.56
   1  -3   6  544.67   26.14
   1   3   6  488.55   23.47
   1  -3   6  481.93   26.22
   1   3   6  456.87   25.90
  -1   3   6  518.07   25.72
   1   3   6  569.37   26.06
  -1   3   6  518.44   27.44
   1   3  -6  510.60   28.38
  -1   3  -6  497.31   27.13
  -1  -3   6  485.86   26.33
  -1   3   7   95.76   11.63
   1   3   7   92.14   10.97
   1   3  -7  129.91   14.66
  -1  -3   7  102.43   12.54
  -1   3   7   78.41   10.16
   1  -3   7   80.78   10.99
   1   3   7   76.13   11.03
   1  -3   7  123.27   13.70
   1   3   7   60.13    9.30
   1  -3   8 2401.94   63.23
   1   3   8 2684.84   65.81
   1  -3   8 3204.10   74.66
   1   3   8 2675.78   68.79
   1   3  -8 2784.88   67.60
  -1   3   8 2533.59   65.16
  -1  -3   8 2992.25   70.03
   1   3   8 2472.27   60.10
  -1  -3   8 2739.78   60.56
  -1   3   8 2514.07   64.22
   1   3   9  287.22   20.91
  -1   3   9  231.86   20.24
   1  -3   9  249.18   20.80
  -1  -3   9  249.32   21.10
  -1   3   9  251.81   21.37
   1   3   9  317.30   24.83
  -1  -3   9  297.47   20.92
   1   3   9  298.74   23.40
   1  -3   9  276.84   22.18
   1   3  10  612.39   35.91
  -1   3  10  576.44   33.28
  -1  -3  10  734.09   34.63
   1  -3  10  542.54   32.04
  -1   3  10  543.62   32.89
   1  -3  10  625.99   34.48
  -1  -3  10  645.97   35.59
   1   3  10  640.04   35.21
   1   3  11   41.10    9.39
  -1   3  11   66.40   11.89
   1  -3  11   61.38   11.70
   1   3  11   55.81   10.76
  -1  -3  11   69.53   11.64
  -1   3  11   58.08   10.79
   1  -3  11   80.67   12.78
  -1  -3  11   59.66   10.35
  -1   3  12  120.93   16.41
  -1  -3  12  102.58   14.56
   1   3  12  112.57   14.87
   1   3  12  134.04   17.27
  -1   3  12  154.88   18.87
  -1   3  12  103.27   14.91
  -1  -3  12  113.22   16.18
   1  -3  12   97.69   14.75
   1  -3  12  116.98   16.42
   1   3  12   87.42   15.00
  -1  -3  13    6.17    3.08
  -1   3  13    4.38    4.85
   1  -3  13    9.56    5.75
  -1  -3  13    0.24    2.19
   1   3  13    7.60    4.49
   1   3  13   -0.09    3.86
  -1   3  13   -0.85    1.71
   1  -3  13    4.07    4.19
  -1  -3  14  145.74   18.59
   1  -3  14  103.38   17.05
   1  -3  14  113.62   16.94
  -1  -3  14   99.03   16.30
   1   3  14  126.73   18.44
   1   3  14  128.35   17.88
  -1   3  14   84.07   14.91
  -1   3  14  122.66   17.79
   1  -3  15    2.47    3.07
   1   3  15   -4.27    3.88
  -1  -3  15   -0.48    2.06
   1  -3  15    2.25    4.30
   1   3  15   -2.37    4.45
  -1   3  15    1.36    1.45
  -1   3  15    3.24    1.00
  -1  -3  15   -1.19    5.18
   1   3  16    0.53    0.62
  -1  -3  16    0.56    1.18
   1  -3  16   -0.13    3.10
  -1  -3  16    0.29    6.27
  -1   3  16    0.55    0.44
  -1   3  16   -3.82    3.17
   1   3  16    2.29    5.79
   1  -3  16    1.65    5.79
  -1   3  17   34.62   10.69
   1   3  17   41.34   11.59
   1  -3  17   47.59   11.69
   1  -3  17   26.11    8.94
   1   3  17   46.64   12.78
  -1  -3  17   24.64    9.30
  -1  -3  17   38.66   11.24
  -1   3  17   32.70   10.18
  -1   3  18   31.55   11.01
  -1   3  18   31.57    8.73
   1  -3  18   47.74   11.73
   1   3  18   55.38   12.38
  -1  -3  18   39.81   10.61
  -1  -3  18   71.97   14.68
   1  -3  18   48.26   12.59
   1   3  18   39.07   11.73
  -1   3  19  658.97   48.57
   1  -3  19  562.69   42.57
  -1  -3  19  588.55   43.77
   1  -3  19  511.57   41.56
  -1  -3  19  547.62   43.16
   1   3  19  576.61   44.27
  -1   3  19  625.23   45.53
   1   3  20  116.87   20.45
  -1   3  20  108.57   20.25
   1  -3  20  118.24   20.14
  -1  -3  20  128.43   20.88
   1   3  20  134.00   21.25
  -1   3  20  108.52   19.54
  -1  -3  20   87.47   16.85
   1  -3  20  111.10   20.44
   1   3  21  155.21   23.13
   1  -3  21  156.68   22.96
  -1  -3  21  129.29   21.51
  -1   3  21  147.23   22.99
   1  -3  21  122.91   20.80
  -1  -3  21  130.14   21.40
   1   3  21  147.08   23.61
  -1   3  21  142.21   24.57
  -1   3  22   23.73   10.32
   1  -3  22   12.10    8.98
   1   3  22   30.39   12.39
   1   3  22   30.82   11.47
  -1  -3  22   21.02    8.81
  -1  -3  22   20.55    8.91
  -1   3  22    1.51    4.43
   1  -3  22   18.14    5.35
   1  -3  23   23.98    8.46
   1  -3  23   60.35   15.63
   1   3  23   38.47   10.97
  -1  -3  23   37.25   11.43
  -1   3  23   37.76   13.23
   1   3  23   24.34   10.54
  -1  -3  23   35.45   11.80
  -1   3  23   26.00   11.21
   1  -3  24    2.70    4.08
  -1  -3  24    0.34    3.68
   1   3  24    3.21    6.24
   1   3  24    4.30    5.79
  -1   3  24    0.42    3.64
  -1   3  24    3.67    6.79
   1  -3  24    0.23    2.38
  -1  -3  24   -3.58    6.17
  -1  -3  25   30.42   10.67
   1  -3  25   36.26   13.24
   1  -3  25   21.13    9.99
  -1  -3  25   47.53   13.35
   1   3  25   35.25   13.83
  -1   3  25   35.59   12.29
   1   3  25   42.01   14.17
  -1   3  25   17.39    5.61
  -1  -3  26   16.31    7.66
  -1   3  26   10.55    6.20
   1   3  26   -1.72    4.19
   1  -3  26    8.18    7.35
  -1  -3  26    4.49    2.58
   1  -3  26    4.67    1.98
  -1   3  26    4.27    8.51
   1   3  26   17.83    9.04
   1   3  27   -8.39    6.97
   1  -3  27   -2.22    6.03
   1   3  27    9.39    7.20
  -1   3  27    2.18    2.34
   1  -3  27   17.68   12.25
  -1  -3  27    6.34    6.05
  -1  -3  27    0.06    3.92
  -1   3  27    0.51    4.58
  -1  -3  28   -4.66    6.66
  -1   3  28   -1.38    4.96
   1  -3  28    6.69    7.69
   1   3  28    5.27    6.10
  -1   3  28    7.30   10.87
  -1  -3  28    0.69    3.71
   1  -3  28    4.53    6.55
   1   3  28   11.88    9.60
   1  -3  29   -2.84    5.15
  -1  -3  29    6.15    6.81
   1   3  29    2.64    2.84
   1  -3  29   -2.98    0.37
  -1   3  29    1.10    6.33
   1   3  29    1.85    5.55
  -1  -3  29   -0.87    3.07
  -1   3  29    3.51    5.47
  -1  -3  30    7.27    7.16
  -1  -3  30    2.68    3.80
  -1   3  30   -1.06    3.68
   1  -3  30    8.79    5.37
   1   3  30   -1.82    4.10
   1  -3  30   -0.62    6.03
  -1   3  30    1.97    5.76
   1   3  30    6.16    9.17
  -1   3  31    9.06    1.42
  -1  -3  31   15.73    9.10
   1   3  31   16.02    6.08
   1  -3  31   22.18   11.71
   1   3  31   17.80   11.38
   1  -3  31   13.58    8.10
  -1  -3  31   22.35   10.61
  -1   3  31   13.99    7.83
  -1  -3  32    2.98    4.62
  -1   3  32    6.67    2.34
   1   3  32    8.41    5.21
   1  -3  32   -1.83    4.69
  -1   3  32   10.05   10.02
   1  -3  32   13.25    9.07
   1   3  32   -4.29    4.65
  -1  -3  32    3.18    5.38
   1  -4   0    1.81    2.27
  -1   4   0    2.87    2.00
   1   4   0    0.66    1.36
   1   4   0    0.92    1.91
  -1   4   0    0.45    0.59
  -1   4   1   13.80    4.45
   1   4  -1   11.89    3.86
  -1   4   1   14.94    3.99
   1   4   1   11.21    3.23
   1   4   1   19.38    5.33
  -1   4  -1   12.25    3.66
  -1   4  -1    6.64    4.06
   1  -4   1   12.56    3.53
   1   4   2 1858.37   54.26
  -1   4   2 1767.87   50.54
  -1  -4   2 2063.48   28.50
   1  -4   2 2130.98   50.54
  -1   4   2 1765.01   49.00
   1   4  -2 1735.63   48.68
  -1  -4   2 1474.63   40.07
  -1   4  -2 1969.57   53.65
  -1   4  -2 2287.69   54.31
   1   4   2 1916.89   44.22
  -1   4   3   33.29    7.52
   1  -4   3   40.22    7.20
   1   4   3   27.11    5.10
  -1  -4   3   29.88    3.73
  -1   4  -3    9.80    3.46
  -1  -4   3   32.93    5.93
   1   4  -3   37.84    7.44
  -1   4   3   40.62    7.49
   1   4   3   27.23    6.28
  -1   4   4  572.00   29.38
   1   4   4  674.26   27.10
  -1   4  -4  906.22   36.51
  -1  -4   4  847.07   22.64
   1   4   4  782.47   35.97
   1   4   4  445.60   21.00
   1   4  -4  636.91   30.91
  -1  -4   4  826.34   33.05
   1  -4   4  792.95   33.75
  -1   4   4  669.42   31.10
   1  -4   4  685.33   29.74
   1  -4   5 1025.94   39.19
   1   4   5  870.00   30.77
  -1  -4   5 1094.31   39.28
  -1   4  -5 1211.49   42.90
  -1   4   5  873.59   37.43
   1   4  -5 1142.50   42.56
   1  -4   5 1055.62   36.59
  -1   4   5  856.37   35.92
  -1  -4   5  847.16   25.97
   1   4   5  881.01   32.61
   1   4   5  925.91   38.98
  -1  -4   6  508.77   22.28
   1   4   6  534.70   30.54
  -1   4   6  451.56   27.31
   1   4   6  435.50   23.54
   1  -4   6  404.10   23.36
   1   4  -6  508.60   28.98
  -1   4   6  542.71   29.93
   1  -4   6  525.98   29.71
   1   4   6  519.40   26.43
  -1   4  -6  510.08   29.69
  -1  -4   6  510.55   28.63
   1  -4   7 1128.24   44.34
  -1  -4   7  713.74   28.88
   1   4  -7  868.10   38.80
  -1  -4   7 1410.63   48.42
   1  -4   7 1070.54   39.69
   1   4   7 1181.06   41.94
  -1   4   7 1139.98   44.89
  -1   4  -7  475.37   30.43
   1   4   7  967.71   42.09
  -1   4   7 1252.19   47.06
  -1   4   8 1947.86   60.51
  -1  -4   8 1891.07   57.01
   1   4   8 1407.04   52.01
   1   4   8 1704.06   50.86
  -1   4  -8 1520.19   55.16
  -1  -4   8 1598.60   45.08
  -1   4   8 1542.46   52.45
   1  -4   8 1631.74   54.63
   1  -4   8 1869.31   55.35
   1   4  -8 1780.48   60.00
   1   4   8 1202.68   44.65
  -1   4   9 1621.83   55.89
   1   4  -9 1981.52   64.82
   1  -4   9 1694.56   58.03
  -1  -4   9 1463.63   47.00
  -1   4   9 1596.65   56.39
  -1   4  -9 1020.07   45.42
   1   4   9 1561.11   51.71
  -1  -4   9 1492.02   53.88
   1  -4   9 1230.57   49.34
   1   4   9 1607.16   57.54
  -1  -4  10  375.33   24.57
   1   4  10  471.89   32.06
   1   4  10  389.95   27.29
  -1   4  10  386.37   28.70
   1   4  10  294.49   24.38
  -1   4  10  478.82   31.38
   1  -4  10  448.88   31.36
   1   4 -10  356.03   28.26
   1  -4  10  517.87   32.21
  -1  -4  10  411.57   29.79
   1   4  11    2.67    2.66
  -1  -4  11    7.91    3.61
   1   4  11    5.94    4.95
   1   4  11   11.22    4.42
  -1   4  11    5.03    5.23
  -1   4  11    3.27    3.66
  -1  -4  11    5.24    2.79
   1  -4  11    1.64    0.82
   1  -4  11    0.10    0.89
   1   4 -11    7.58    4.67
  -1   4  12   72.31   13.36
   1  -4  12   66.09   12.48
  -1   4  12   73.78   13.16
   1   4  12   63.63   12.02
  -1  -4  12   72.80   12.27
   1   4  12   58.86   12.19
   1   4  12   65.73   12.18
  -1  -4  12  118.39   16.90
   1  -4  12   92.23   14.80
   1  -4  13   47.65   10.88
  -1   4  13   35.35   11.29
   1   4  13   73.07   12.90
   1   4  13   64.68   12.78
  -1  -4  13   79.93   14.21
  -1   4  13   92.58   14.78
  -1  -4  13   72.43   11.95
   1  -4  13   75.62   13.31
   1   4  13   75.15   13.90
  -1   4  13   89.15   15.15
   1  -4  14  369.47   30.34
   1   4  14  356.44   31.00
  -1   4  14  307.19   29.97
  -1  -4  14  342.89   31.32
   1   4  14  455.39   35.65
  -1   4  14  418.48   32.83
   1   4  14  363.29   30.01
   1  -4  14  358.02   30.09
  -1  -4  14  394.04   30.72
  -1   4  14  406.52   34.26
   1   4  15   34.79    9.22
   1   4  15   15.29    6.93
   1  -4  15   28.61    7.72
  -1   4  15   26.86    9.21
  -1   4  15   14.51    4.26
   1  -4  15   28.14    9.72
  -1  -4  15   14.60    6.27
  -1  -4  15   29.06   10.23
   1   4  16   27.43   10.13
  -1  -4  16   30.24    9.52
   1  -4  16   30.22    9.02
  -1   4  16   15.21    6.84
  -1   4  16   40.74   10.75
  -1  -4  16   56.34   12.73
   1  -4  16   23.26    7.36
   1   4  16   29.25    9.06
   1   4  17  272.46   28.73
  -1  -4  17  243.11   26.37
   1  -4  17  214.14   25.27
  -1  -4  17  261.77   28.70
  -1   4  17  235.52   26.47
  -1   4  17  266.59   27.89
   1   4  17  258.76   29.37
   1  -4  17  257.67   27.90
  -1  -4  18  126.89   20.12
  -1  -4  18  114.94   18.93
   1  -4  18  150.40   22.52
   1  -4  18  146.20   21.73
   1   4  18  189.53   24.96
   1   4  18  100.35   19.28
  -1   4  18  138.99   21.41
   1   4  19  130.65   23.11
  -1  -4  19  118.81   19.36
   1  -4  19  104.83   17.64
  -1  -4  19  125.11   19.96
  -1   4  19  108.71   19.53
   1   4  19  108.00   19.37
   1  -4  19   69.43   16.13
  -1  -4  20   -0.56    8.13
  -1   4  20    8.01    6.79
   1  -4  20   -3.15    7.67
   1   4  20    1.62    2.93
  -1   4  20    0.88    3.15
   1   4  20   -0.28    4.71
   1  -4  20   -1.10    2.14
  -1  -4  20   -5.34    5.28
  -1  -4  21   62.10   15.78
   1   4  21   39.36   12.12
   1   4  21   67.05   15.69
  -1  -4  21   57.93   13.72
   1  -4  21   41.32   10.59
  -1   4  21   52.75   15.73
   1  -4  21   48.23   12.58
  -1   4  21   54.98   15.03
   1  -4  22   21.16    9.57
   1  -4  22   24.28    8.93
  -1  -4  22   42.85   12.90
  -1  -4  22   40.39   11.52
  -1   4  22   48.05   13.82
   1   4  22   29.96    8.30
   1   4  22   22.95    9.92
  -1   4  22   24.81    9.38
  -1   4  23  198.46   28.23
  -1   4  23  225.50   31.04
   1  -4  23  154.61   25.18
   1  -4  23  193.54   27.50
   1   4  23  181.65   27.00
   1   4  23  225.23   29.86
  -1  -4  23  191.82   26.06
  -1  -4  23  209.53   28.82
  -1  -4  24    3.34    3.28
   1  -4  24   -1.12    5.59
   1   4  24    3.30    5.21
  -1   4  24    7.73    6.98
  -1  -4  24    2.41    4.92
   1  -4  24    1.65    5.28
  -1   4  24   -1.97    3.31
   1   4  24   -1.85    1.68
  -1  -4  25   -2.70    2.04
  -1   4  25    8.07    5.79
  -1  -4  25    0.47    3.66
   1   4  25   -7.48    9.66
   1  -4  25    9.03    6.49
   1   4  25    5.00    4.60
   1  -4  25    9.17    8.22
  -1   4  25   -0.42    6.82
  -1  -4  26   22.29    9.42
  -1   4  26   28.03   10.95
   1   4  26    7.16    8.26
  -1   4  26   25.20   11.15
   1  -4  26   16.73   10.52
   1  -4  26   16.50   10.15
  -1  -4  26   22.05   10.48
   1   4  26   21.84   10.27
  -1   4  27   13.86    8.77
   1  -4  27   18.70   10.25
  -1  -4  27   34.99   12.80
   1   4  27   40.75   13.45
   1   4  27   38.67   13.01
  -1   4  27   24.46   12.55
  -1  -4  27   13.42    6.59
   1  -4  27   25.60   10.49
  -1   4  28    1.69    5.85
   1   4  28    1.80    4.86
   1  -4  28   -1.35    4.47
  -1  -4  28   -0.42    2.59
   1   4  28    2.23    1.38
  -1  -4  28   -1.66    4.43
  -1   4  28   -0.06    5.70
   1  -4  28   -0.69    5.15
  -1  -4  29    1.99    5.01
   1   4  29    0.49    8.43
  -1   4  29   18.29   13.03
  -1  -4  29    1.77    3.51
  -1   4  29   -2.61    3.59
   1  -4  29   -1.95    3.35
   1   4  29    5.69    5.42
   1  -4  29   -4.16    5.70
  -1  -4  30   31.69   13.45
   1   4  30   12.97    6.81
  -1  -4  30    9.98    7.03
   1  -4  30    8.38    3.05
  -1   4  30   14.24    9.66
   1  -4  30   19.85    9.32
   1   4  30   30.53   14.68
  -1   4  30   29.52   12.51
   1  -4  31    7.26    0.94
   1   4  31   21.13   12.11
  -1   4  31   11.91   10.31
   1  -4  31    3.88    4.99
   1   4  31    9.44    5.76
  -1  -4  31   15.05    8.19
  -1   4  31    3.59    4.54
  -1   5   0    0.94    1.47
  -1   5   0    0.25    2.92
   1   5   0    1.68    3.62
   1   5   0   -0.13    2.02
   1  -5   1  797.93   35.00
  -1   5  -1  562.66   30.07
   1   5  -1  564.51   31.34
  -1   5   1  558.07   29.95
  -1   5   1  852.86   38.07
   1   5   1  783.81   31.97
  -1   5  -1  452.04   26.74
   1   5   1  689.92   35.64
   1   5  -1  675.41   30.16
   1   5   2    5.31    2.50
   1   5   2    9.70    5.90
  -1  -5   2    3.31    1.57
   1   5  -2    7.62    3.40
  -1   5  -2    4.83    4.20
  -1   5   2    6.83    4.62
   1  -5   2    3.64    1.74
  -1   5   2    3.88    3.07
  -1   5  -2   11.00    5.34
   1   5   3   27.60    8.16
   1  -5   3   34.59    6.80
  -1  -5   3   35.99    5.06
  -1   5  -3   31.72    6.98
   1   5   3   35.42    7.19
  -1  -5   3   36.42    7.29
   1   5  -3   41.13    8.73
  -1   5   3   17.68    6.00
  -1   5   3   26.21    6.46
   1  -5   4   86.38   11.41
   1   5   4   68.07    9.82
  -1  -5   4   74.28   10.45
   1   5   4   72.09   11.75
  -1   5  -4   82.83   11.67
  -1   5   4   89.84   12.29
  -1  -5   4   69.88    7.29
  -1   5   4   61.16   10.24
   1   5  -4   79.27   11.62
  -1  -5   5  103.89   13.41
  -1  -5   5  111.24    9.52
   1   5  -5   88.21   12.62
   1   5   5   78.97   10.22
  -1   5   5   87.26   12.61
   1  -5   5  100.06   12.25
   1   5   5   65.00   11.40
   1  -5   5   74.23   11.54
  -1   5   5   97.39   13.17
   1   5   5   78.71   10.70
   1   5   6   69.21    9.91
  -1  -5   6   51.16    7.12
   1  -5   6   52.08    8.89
  -1  -5   6   43.96    9.00
   1   5   6   77.27   13.05
  -1   5   6   61.64   11.69
   1   5  -6   89.37   13.16
  -1   5   6   44.71    8.76
   1   5   6   76.56   10.57
  -1   5  -6   94.45   13.30
  -1   5   7    0.72    1.58
  -1   5   7   -2.14    1.38
   1   5   7   -0.79    2.89
   1  -5   7    0.40    2.59
  -1  -5   7   -0.80    2.19
   1   5   7   -1.87    2.58
  -1   5  -7    4.45    3.46
   1  -5   7   -0.04    0.27
  -1  -5   7   -0.67    1.76
   1   5   7    0.41    2.25
   1   5  -7   -0.30    1.69
  -1  -5   8  625.47   29.54
  -1   5   8  606.31   35.90
   1  -5   8  830.32   42.07
  -1  -5   8  798.24   39.60
  -1   5  -8  439.76   30.49
   1   5   8  637.86   37.34
   1   5  -8  652.71   37.19
  -1   5   8  771.15   40.09
   1   5   8  717.69   35.54
   1  -5   8  636.17   33.30
   1   5   8  729.67   36.12
   1   5   9 1150.12   51.21
  -1  -5   9 1087.78   48.94
  -1   5  -9  808.96   43.72
   1   5   9 1057.02   45.43
   1   5   9 1208.57   48.25
  -1   5   9  983.53   46.20
   1  -5   9 1030.06   42.83
   1  -5   9 1030.11   47.38
  -1   5   9  891.96   43.59
  -1  -5   9  799.34   35.36
   1   5  -9 1088.38   48.31
  -1   5  10   -1.24    1.25
  -1  -5  10    0.51    2.86
  -1  -5  10    1.96    3.28
   1   5  10    1.02    0.41
   1  -5  10   -1.18    2.88
   1   5 -10   -0.64    2.00
   1  -5  10   -0.38    2.71
  -1   5  10    4.06    4.01
   1   5  10    2.92    4.18
   1   5  10   -1.93    3.03
  -1   5 -10   -1.09    1.27
   1  -5  11   87.13   13.95
  -1  -5  11  152.63   17.22
   1   5 -11   92.67   15.79
  -1   5  11  113.61   16.94
   1   5  11  131.21   17.28
   1   5  11  125.38   16.38
  -1   5 -11  127.38   17.38
  -1   5  11  121.22   16.29
  -1  -5  11  123.18   17.47
   1   5  11  134.26   18.52
   1  -5  11  119.37   17.22
   1   5  12    4.69    3.44
  -1   5 -12   -0.94    3.79
   1   5  12    4.06    3.37
  -1  -5  12    1.60    3.59
  -1  -5  12    8.00    2.83
  -1   5  12    1.82    3.22
   1  -5  12    1.65    1.48
   1   5  12    4.03    4.33
   1  -5  12    0.31    2.35
   1   5 -12    4.55    5.46
  -1   5  12    3.49    2.32
  -1   5  13   35.42    9.95
   1  -5  13   50.79   10.63
  -1   5 -13   31.40    9.29
   1  -5  13   29.34    8.07
   1   5  13   41.60   10.71
   1   5 -13   32.85    9.80
  -1  -5  13   35.01    9.59
  -1   5  13   39.03    9.62
   1   5  13   37.27   10.04
  -1   5  13   43.12   10.91
  -1  -5  13   37.22    9.96
   1   5  13   34.90    9.04
   1   5  14  228.69   25.98
   1   5 -14  228.28   25.97
  -1  -5  14  155.49   20.41
  -1   5 -14  266.57   26.17
  -1   5  14  145.05   20.68
  -1  -5  14  158.41   19.28
   1  -5  14  215.73   23.97
  -1   5  14  254.03   26.94
  -1   5  14  143.79   20.75
   1  -5  14  203.28   24.35
   1   5  14  149.24   21.08
   1   5  15   92.94   16.59
  -1   5  15   60.86   14.67
   1  -5  15   99.32   18.25
  -1  -5  15   60.24   12.52
   1   5 -15  105.32   16.84
  -1   5  15  108.83   19.38
   1   5  15   81.06   15.86
   1  -5  15   75.64   14.10
   1   5  15   51.56   12.81
  -1  -5  15   78.39   14.54
  -1   5  15   79.76   15.92
  -1   5  16   83.05   15.56
   1   5  16  104.10   18.40
   1  -5  16   76.79   15.66
  -1   5  16   57.48   13.23
  -1  -5  16   71.35   14.05
   1   5 -16   82.19   15.69
  -1   5  16   71.61   14.66
   1  -5  16   71.25   14.45
   1   5  16   73.46   16.25
  -1  -5  16   69.48   12.83
   1   5  16   84.31   16.28
  -1  -5  17   35.70   11.22
   1  -5  17   56.36   13.93
  -1   5  17   52.91   13.24
   1   5  17   54.74   13.89
  -1  -5  17   23.76    8.77
   1   5  17   40.50   11.19
   1  -5  17   38.92   12.15
   1   5 -17   69.65   14.13
  -1   5  17   23.93    9.67
   1   5  18    4.50    3.85
  -1   5  18    2.35    4.46
   1  -5  18   -3.39    1.62
  -1  -5  18    4.65    4.25
   1  -5  18    4.94    6.29
  -1  -5  18    0.95    5.18
  -1   5  18   -2.35    3.40
   1   5 -18   14.54    8.87
   1   5  18   -0.95    1.68
   1   5  19   34.27   12.97
  -1   5  19   33.93   11.13
   1   5  19   45.90   13.09
  -1  -5  19   57.83   13.26
   1  -5  19   30.44   10.87
   1  -5  19   55.85   13.27
  -1  -5  19   28.96    8.54
  -1   5  19   38.24   11.31
  -1  -5  20   52.31   13.61
   1   5  20   71.84   16.57
  -1   5  20   67.99   15.36
   1   5  20   65.22   16.37
  -1  -5  20   62.06   15.26
   1  -5  20   52.19   13.50
  -1   5  20   57.78   14.96
   1  -5  20   63.49   14.71
  -1  -5  21   54.67   13.63
   1   5  21   50.13   14.34
   1  -5  21   58.47   13.95
  -1   5  21   27.80    8.94
   1  -5  21   45.65   12.85
   1   5  21   55.91   14.59
  -1   5  21   37.58   11.81
  -1  -5  21   63.13   14.93
   1  -5  22   18.05    8.62
   1   5  22    6.78    8.11
   1   5  22   13.90    7.39
  -1   5  22   16.64    7.28
  -1  -5  22   22.34    8.49
  -1   5  22   34.37   13.16
  -1  -5  22   14.84    5.88
   1  -5  22    0.36    4.26
   1  -5  23   16.37    7.39
  -1  -5  23   18.74    9.94
  -1  -5  23    7.05    3.31
   1  -5  23   10.74    4.68
  -1   5  23   25.80   12.08
   1   5  23   19.17    6.20
   1   5  23   21.66   11.60
  -1   5  23   12.28    6.92
  -1  -5  24   -2.54    3.90
  -1   5  24    3.03    3.64
   1   5  24   -4.39    4.56
   1  -5  24    5.40    8.92
   1   5  24    2.01    5.61
   1  -5  24   -0.86    3.59
  -1   5  24    6.94    8.28
  -1  -5  24    3.84    8.47
   1  -5  25   -4.76    5.75
  -1   5  25    1.29    5.49
   1   5  25    0.70    1.89
  -1  -5  25    1.59    1.94
   1   5  25    8.91    8.87
  -1   5  25    1.95    8.98
   1  -5  25    5.26    7.21
  -1  -5  25   -1.06    4.13
  -1   5  26   11.23    7.04
  -1  -5  26   28.68   12.65
   1  -5  26   10.33    8.70
  -1   5  26   21.25    7.75
   1  -5  26   32.43   11.45
  -1  -5  26    7.00    4.08
   1   5  26   11.20    7.64
   1   5  26   11.18    7.19
  -1  -5  27    0.72    2.88
   1  -5  27    4.49    5.02
   1   5  27    6.99    6.95
   1   5  27   -4.83    8.78
  -1   5  27    7.95    7.30
  -1  -5  27    9.86    7.74
   1  -5  27   17.08    9.06
  -1   5  27   -3.01    4.25
   1  -5  28    0.43    4.23
  -1   5  28    4.30    8.18
  -1  -5  28    5.48    6.86
   1   5  28   19.38   10.51
  -1   5  28    1.21    6.45
   1  -5  28   -6.58    5.92
   1   5  28    1.26    8.56
  -1  -5  28   -1.06    5.60
   1  -5  29   18.88    9.89
  -1  -5  29    4.35    5.30
   1   5  29   17.26    7.02
  -1  -5  29    8.39    5.50
  -1   5  29   15.35    6.49
   1  -5  29    6.33    4.92
  -1   5  29   10.17    9.03
   1   5  29   16.00    6.23
  -1  -5  30    7.17    7.14
  -1  -5  30    4.18    7.19
   1   5  30   -0.81    9.80
   1   5  30    9.81    7.56
  -1   5  30    8.26    6.71
   1   5 -30    1.86    2.83
   1  -5  30   11.93    7.81
   1  -5  30   -4.92   10.26
  -1   5  30   14.46   12.07
   1   5  31    0.90    3.70
   1   5 -31   13.70    8.39
  -1  -5  31   28.75   12.28
  -1  -5  31   15.82   11.20
   1   5  31   28.80    8.81
   1  -5  31   11.86    6.30
  -1   5  31    8.31    6.34
  -1   5  31   17.99    8.50
   1  -5  31   12.82    8.45
   1   6   0   -4.98    3.31
   1   6   0   -0.75    3.11
  -1   6   0    1.80    1.34
  -1   6   0    3.83    3.56
   1   6  -1 2070.06   66.52
  -1   6  -1 2325.57   65.90
   1   6   1 1514.79   57.88
  -1   6   1 2209.23   67.37
   1   6  -1 1604.67   51.65
  -1   6  -1 1768.94   58.00
   1   6   1 2205.08   59.78
  -1   6   1 1807.92   58.93
   1  -6   1 1931.36   54.15
   1   6  -2   20.36    6.26
   1   6   2   22.35    6.61
  -1   6  -2   22.83    7.80
   1   6   2   22.80    7.58
  -1   6   2   20.43    6.97
  -1   6   2   12.76    5.64
   1   6  -2   26.35    7.58
  -1   6  -2   31.52    8.58
   1  -6   2   15.12    5.33
   1  -6   3  479.62   28.33
   1   6   3  518.39   34.41
   1   6  -3  387.45   27.60
  -1   6  -3  432.66   29.37
  -1   6   3  525.04   33.85
  -1  -6   3  452.74   19.22
  -1   6   3  477.23   29.72
   1   6   3  464.91   27.08
   1   6   4   25.48    6.79
   1   6   4   26.33    7.98
   1  -6   4   35.65    8.21
  -1  -6   4   14.14    4.42
   1   6  -4   35.78    8.96
  -1   6  -4   27.94    7.30
  -1   6   4   30.10    8.22
  -1  -6   4   30.99    5.38
  -1   6   4   40.61    8.35
   1   6   5 1758.92   64.21
  -1  -6   5 1131.88   33.66
  -1   6   5 1272.61   50.86
   1  -6   5 1490.88   51.55
  -1   6   5 1315.40   53.59
  -1  -6   5 1547.62   53.28
  -1   6  -5 1243.66   50.98
   1   6   5 1315.63   47.36
   1   6  -5 1343.86   53.27
  -1  -6   6   28.63    5.47
  -1   6  -6   28.53    8.30
  -1  -6   6   51.62   10.47
   1   6  -6   30.04    8.14
   1   6   6   37.48   10.34
  -1   6   6   30.21    8.00
   1   6   6   50.49    8.91
  -1   6   6   35.47    8.56
   1   6   6   43.51    8.79
   1  -6   6   34.23    7.63
   1  -6   6   16.67    7.85
   1  -6   7  185.19   18.65
   1   6   7  273.58   21.33
   1   6   7  240.18   24.24
  -1   6  -7  242.45   23.20
   1   6   7  253.50   22.00
  -1  -6   7  297.19   18.86
   1  -6   7  159.78   18.54
  -1  -6   7  223.28   21.85
   1   6  -7  246.83   24.43
  -1   6   7  288.43   24.46
  -1   6   7  231.39   22.90
   1  -6   8  158.01   18.78
  -1   6  -8  173.74   20.13
  -1  -6   8  112.36   15.93
   1   6   8  116.55   16.62
   1   6   8  131.19   15.60
   1  -6   8  110.78   14.21
  -1   6   8  118.18   16.97
  -1  -6   8   90.69   10.80
   1   6   8  152.85   17.50
   1   6  -8  133.89   18.27
  -1   6   8  145.01   18.23
   1   6  -9  582.70   37.60
  -1  -6   9  707.07   32.86
   1   6   9  691.53   37.52
   1   6   9  668.26   37.90
   1  -6   9  581.85   37.62
  -1   6   9  672.90   40.57
  -1   6   9  686.60   41.13
  -1  -6   9  585.55   36.99
   1  -6   9  520.61   31.21
   1   6   9  578.03   37.98
  -1   6  -9  512.64   35.34
   1  -6  10  133.58   18.18
  -1   6 -10  144.95   19.26
   1   6 -10  138.00   19.15
   1  -6  10  143.32   16.66
   1   6  10  136.69   18.75
   1   6  10  141.34   17.45
  -1  -6  10  172.31   17.35
   1   6  10  133.51   17.63
  -1  -6  10  157.61   19.33
  -1   6  10  117.14   17.20
  -1   6  10  116.99   17.50
   1  -6  11  365.29   27.96
  -1   6  11  420.06   32.33
   1  -6  11  262.36   25.92
  -1   6  11  381.98   30.93
   1   6  11  342.74   28.22
  -1   6 -11  363.15   31.50
  -1  -6  11  410.20   31.84
   1   6  11  413.35   31.27
   1   6 -11  323.81   29.12
   1   6  11  366.94   31.04
  -1  -6  11  466.35   30.00
   1   6  12  334.70   29.12
  -1   6  12  394.32   33.20
  -1   6  12  289.17   28.39
  -1  -6  12  434.59   34.09
   1   6  12  413.16   34.46
   1  -6  12  348.48   28.51
   1   6 -12  369.51   31.70
   1   6  12  269.10   26.19
  -1   6 -12  304.61   30.18
   1  -6  12  272.71   27.19
  -1  -6  12  361.19   28.05
   1   6  13  203.37   23.77
  -1  -6  13  180.99   20.65
   1  -6  13  175.29   20.96
  -1  -6  13  150.23   20.13
  -1   6 -13  165.51   23.13
   1  -6  13  234.26   25.45
   1   6 -13  243.81   26.61
   1   6  13  186.81   23.61
  -1   6  13  217.24   24.97
  -1   6  13  106.84   17.40
   1   6  13  167.53   20.59
   1   6  14   32.26    9.18
  -1   6  14   40.88   11.17
  -1   6  14   34.51    9.80
   1   6  14   21.88    8.05
  -1   6 -14   32.65   10.40
   1   6  14   35.56    9.71
   1   6 -14   31.80    9.94
   1  -6  14   26.36    8.28
   1  -6  14   25.05    8.19
  -1   6  14   30.45    9.05
  -1  -6  14    6.82    2.89
  -1  -6  14   40.92   10.21
  -1  -6  15  179.80   24.14
  -1   6  15  195.38   25.24
   1   6  15  172.93   23.17
   1  -6  15  170.62   22.66
  -1   6  15  159.36   22.65
  -1   6 -15  261.55   29.75
   1   6  15  181.66   23.37
  -1  -6  15  192.33   22.58
  -1   6  15  153.27   22.40
   1   6 -15  165.45   22.93
   1  -6  15  188.45   23.30
   1   6  15  210.36   26.61
  -1   6  16    3.27    5.92
   1   6  16   -0.56    1.30
  -1  -6  16    6.32    5.29
  -1  -6  16    3.96    4.62
   1   6 -16   14.28    8.34
   1  -6  16    9.18    6.96
  -1   6  16    0.40    2.09
  -1   6  16    5.30    3.18
   1  -6  16   11.33    7.75
   1   6  16    1.96    2.37
  -1   6 -16    5.00    5.34
   1   6  16    0.51    2.47
   1  -6  17   -2.86    4.00
   1   6 -17   -2.65    1.70
  -1   6  17   -0.58    3.11
   1   6  17    1.67    1.90
  -1   6 -17    1.31    4.12
  -1   6  17   -4.32    1.55
  -1  -6  17   -1.53    1.51
   1  -6  17    5.45    6.25
  -1  -6  17    1.28    3.69
   1   6  17   -0.53    2.20
  -1   6  17   -0.33    2.14
   1   6  17   -2.34    4.18
   1  -6  18   14.34    6.58
  -1  -6  18   15.57    8.34
   1   6  18   17.78    6.71
   1  -6  18   39.87   10.69
   1   6  18   41.38   11.61
   1   6 -18   27.42   10.48
  -1   6 -18   12.19    6.21
  -1   6  18   23.19    9.56
  -1   6  18   20.01    9.30
  -1  -6  18   24.93   10.45
  -1   6  18   23.90   10.56
   1   6  18   33.19   10.43
   1   6  19    2.93    2.45
  -1   6  19    1.18    3.70
   1   6  19   -0.61    2.83
   1  -6  19    6.94    3.35
   1   6 -19    1.76    1.91
  -1   6  19    5.73    5.43
  -1   6 -19    0.72    1.87
  -1  -6  19    3.70    5.39
  -1  -6  19    0.95    3.31
   1  -6  19    3.66    4.74
   1  -6  20  133.87   22.10
  -1   6 -20  154.17   24.09
   1   6  20  182.72   26.93
  -1  -6  20  127.29   21.40
   1  -6  20  160.56   24.17
  -1  -6  20  167.30   24.38
   1   6 -20   99.98   19.93
  -1   6  20  138.23   23.33
  -1   6  20   80.93   17.17
   1   6  20  170.23   24.96
   1  -6  21    2.44    3.88
  -1   6  21   -2.77    4.04
  -1   6 -21   10.54    8.77
   1   6  21    3.45    7.05
  -1   6  21    1.93    6.37
  -1  -6  21   -1.23    6.50
   1  -6  21    4.05    3.63
  -1  -6  21   -4.01    7.11
   1   6 -21    0.78    1.37
   1   6  21    4.11    5.52
   1   6  22   59.34   15.67
   1  -6  22   84.34   17.24
  -1  -6  22  116.99   21.24
  -1  -6  22   99.49   18.78
   1   6  22   88.40   19.37
  -1   6 -22  105.46   19.84
  -1   6  22  107.25   20.64
  -1   6  22   83.85   17.93
   1   6 -22  110.79   21.29
   1  -6  22  105.94   20.44
  -1   6  23   26.39   10.17
   1   6  23   20.09    8.94
   1   6  23   18.28    7.13
   1  -6  23   24.67   10.58
  -1  -6  23   19.57    9.39
  -1   6 -23   21.57    7.38
  -1  -6  23   35.07   11.05
  -1   6  23   22.63    9.92
   1  -6  23   10.61    4.38
   1   6 -23    3.44    4.97
   1   6  24   39.76   14.56
  -1   6  24   20.92    8.63
  -1   6  24   27.24    9.64
  -1   6 -24   19.39    8.62
  -1  -6  24   13.16    2.47
  -1  -6  24   31.70   10.88
   1  -6  24   25.99    9.48
   1   6 -24   19.69    8.35
   1   6  24   14.81    6.08
   1  -6  24   30.37   11.37
  -1  -6  25    3.66    3.25
   1  -6  25    7.82    7.80
   1  -6  25   -1.95    2.91
   1   6 -25   -0.97    1.20
  -1   6  25    5.43    1.24
  -1   6  25   21.07   12.27
  -1   6 -25   15.63    8.63
   1   6  25   11.04    7.49
  -1  -6  25    3.90    1.69
   1   6  25    7.50    4.63
  -1   6 -26   10.63    5.15
   1   6  26   -0.27    3.38
   1   6  26   10.06    8.82
   1  -6  26    2.77    2.41
  -1  -6  26    5.81    1.99
  -1   6  26   12.71    7.82
   1   6 -26    4.74    4.97
  -1   6  26   12.73    8.69
  -1  -6  26    7.21    4.75
   1  -6  26   13.22    7.96
  -1   6  27   17.65   11.53
   1   6  27    2.54    6.88
   1   6  27   11.79    8.53
  -1  -6  27    7.96    8.02
   1   6 -27    3.30    5.20
   1  -6  27    9.23    6.90
   1  -6  27    7.76    6.39
  -1   6 -27   13.62    7.60
  -1  -6  27    6.89    5.92
  -1   6  27  -12.72   11.84
   1  -6  28   51.47   16.01
   1   6  28   40.55   14.04
  -1  -6  28   48.39   15.60
  -1   6  28   37.94   13.83
   1  -6  28   71.18   17.24
  -1  -6  28   43.59   14.43
   1   6 -28   30.68   12.78
  -1   6  28   75.99   19.19
  -1   6 -28   59.55   15.26
   1   6  28   69.52   18.71
  -1  -6  29    0.03    6.18
   1   6  29   -2.91    2.54
  -1   6 -29    2.48    7.84
   1  -6  29    6.54    6.98
   1   6 -29    8.40    7.94
  -1   6  29    0.58    5.70
  -1   6  29    0.16    1.31
  -1  -6  29    7.25    9.26
   1  -6  29    2.26    7.36
   1   6  29    3.51    6.46
  -1   6  30   13.20    7.66
   1  -6  30   17.22    7.91
  -1   6  30   21.71   10.63
   1   6  30   20.52   11.31
  -1   6 -30   34.40   14.28
  -1  -6  30   21.44   12.06
   1   6  30   11.37    9.07
  -1  -6  30   -2.26   11.36
   1  -6  30   12.85    8.52
   1   6 -30    3.33    5.02
  -1   7   0    0.18    2.86
  -1   7   0   -2.17    1.66
   1   7   0    2.13    3.12
   1   7   0    0.36    3.81
   1   7  -1  212.64   22.82
   1   7   1  159.65   19.84
  -1   7  -1  187.67   20.42
  -1   7  -1  166.68   19.42
  -1   7   1  138.98   17.52
   1   7  -1  228.57   21.23
  -1   7   1  193.23   21.83
   1   7   1  134.88   16.45
   1   7  -2   20.72    6.31
  -1   7  -2   11.04    5.85
  -1   7   2   15.89    4.92
   1   7   2   15.82    7.54
  -1   7  -2   18.07    5.46
  -1   7   2   25.05    8.75
   1  -7   2   11.61    5.29
   1   7   2   12.70    5.79
   1   7  -2   19.07    6.57
  -1   7   3   12.47    6.68
   1   7   3   24.53    8.04
   1   7  -3   16.35    7.03
  -1   7  -3   28.67    6.49
  -1   7   3   14.77    7.13
   1  -7   3   18.76    6.99
   1   7  -3    8.90    1.96
  -1   7  -3   23.42    7.55
   1   7   3    6.95    3.49
  -1  -7   4  171.37   14.67
   1   7   4  161.74   20.51
  -1   7  -4  197.18   21.35
  -1   7  -4  160.12   18.97
  -1   7   4  210.41   23.13
  -1   7   4  171.44   19.20
   1  -7   4  188.58   18.59
   1   7   4  160.72   17.49
   1   7  -4  134.45   17.65
   1   7   5  460.18   30.57
  -1   7   5  517.04   36.18
   1  -7   5  566.56   33.77
  -1  -7   5  576.31   27.70
   1   7  -5  571.94   37.18
  -1   7   5  532.47   34.85
  -1  -7   5  607.04   34.94
  -1   7  -5  390.50   30.29
   1   7   5  492.59   36.00
   1   7  -6  151.50   19.28
  -1   7   6  168.34   21.20
  -1   7  -6  193.35   21.47
   1   7   6  155.95   20.59
   1   7   6  164.96   16.81
  -1  -7   6  137.41   18.06
   1   7   6  190.20   19.62
   1  -7   6  168.55   19.15
  -1  -7   6  169.03   14.78
  -1   7   6  164.91   19.49
  -1  -7   7    0.45    3.47
   1  -7   7    8.26    4.57
   1   7   7    4.85    4.03
   1   7   7   -4.08    3.26
   1   7   7    5.83    5.73
  -1   7   7    0.21    2.60
   1  -7   7   -0.27    3.14
   1   7  -7    0.85    3.71
  -1  -7   7   -0.09    2.12
  -1   7   7    1.25    2.62
  -1   7  -7    3.12    2.55
   1   7  -8  152.78   20.54
  -1   7  -8   89.04   15.55
  -1   7   8  151.00   19.64
   1  -7   8  141.68   18.45
   1   7   8  129.13   17.15
  -1  -7   8  132.94   18.02
  -1   7   8  143.01   18.40
   1   7   8  132.99   16.30
   1  -7   8  145.93   17.61
  -1  -7   8  152.98   15.19
   1   7   8  106.01   17.25
  -1   7   9   47.38   10.50
   1   7   9   41.01   10.38
  -1   7   9   45.32   11.26
  -1   7  -9   66.41   14.39
   1  -7   9   40.63    9.99
  -1  -7   9   36.65    7.67
   1   7   9   51.83   11.06
   1  -7   9   56.18   12.58
   1   7   9   35.43    9.52
  -1  -7   9   33.94    9.46
   1   7  -9   52.45   12.62
   1  -7  10   75.85   12.52
   1   7 -10   87.10   15.28
   1   7  10  103.17   16.13
   1   7  10   54.52   11.86
  -1   7 -10   65.65   13.43
  -1   7  10   77.29   14.73
  -1  -7  10   88.52   12.29
   1   7  10   91.14   15.70
  -1  -7  10   70.71   13.67
  -1   7  10   69.74   14.35
   1  -7  10   72.97   14.15
   1  -7  11   -0.94    2.92
   1   7  11   -0.27    0.84
  -1   7  11    6.59    3.30
   1   7 -11    9.48    6.38
   1   7  11   11.28    6.02
   1  -7  11    2.43    4.99
  -1  -7  11    7.01    2.25
  -1   7 -11    9.78    5.11
  -1   7  11   14.13    8.04
   1   7  11    1.90    3.03
  -1  -7  11   12.83    9.13
  -1   7  12    6.49    5.19
  -1   7  12   -2.85    5.39
   1   7  12   13.50    6.37
  -1  -7  12    4.43    2.17
   1   7  12   11.88    6.84
   1   7 -12    9.68    5.35
   1  -7  12    6.61    5.78
  -1  -7  12    8.02    3.42
  -1   7 -12    7.35    5.11
   1   7  12    7.63    4.75
   1  -7  12    4.16    4.67
   1   7  13  275.86   28.81
  -1  -7  13  301.00   29.65
  -1   7  13  304.03   29.70
   1   7 -13  232.70   26.88
  -1   7 -13  332.87   31.17
  -1  -7  13  360.96   30.49
   1   7  13  266.26   27.18
   1  -7  13  325.72   29.04
  -1   7  13  287.84   29.01
   1   7  13  364.97   31.38
   1  -7  13  329.72   31.52
   1   7  14  443.67   36.47
  -1   7  14  394.60   36.61
  -1   7 -14  522.98   39.80
  -1  -7  14  389.24   31.45
  -1   7  14  460.59   39.59
   1   7 -14  466.88   38.03
   1  -7  14  387.06   35.08
  -1  -7  14  337.94   31.85
  -1   7  14  493.82   38.87
   1  -7  14  449.25   33.82
   1   7  14  361.93   34.91
   1   7  14  439.71   35.82
   1   7  15    0.28    1.31
  -1   7  15    8.85    6.61
  -1   7  15   -1.84    4.53
   1   7 -15    7.06    4.64
  -1   7 -15    1.78    4.72
  -1  -7  15    9.31    6.59
   1  -7  15    6.01    5.57
  -1   7  15    5.41    6.19
   1  -7  15    5.93    5.48
   1   7  15    1.27    1.62
   1   7  15    1.75    5.05
  -1  -7  15    5.12    2.18
  -1   7  16    1.49    1.16
   1   7  16   -0.05    4.80
  -1  -7  16   -0.42    2.82
   1  -7  16    1.28    4.97
  -1   7 -16   -1.55    5.82
   1   7 -16    1.56    2.94
   1   7  16    6.62    4.95
   1  -7  16    9.31    6.54
   1   7  16    2.66    1.12
  -1   7  16   -3.41    6.13
  -1  -7  16   -3.35    4.90
  -1   7  16   -0.30    4.85
  -1  -7  17  216.44   26.36
   1   7  17  154.57   24.15
   1   7 -17  193.55   25.65
   1  -7  17  151.17   22.60
   1  -7  17  189.99   24.11
  -1   7 -17  176.30   25.35
  -1   7  17  147.87   22.72
  -1   7  17  203.62   26.90
  -1  -7  17  208.79   26.20
  -1   7  17  214.29   27.60
   1   7  17  103.27   18.75
  -1   7  18   62.94   15.75
  -1   7  18   80.66   17.03
   1   7  18   50.13   13.79
   1   7  18   39.70   13.31
  -1  -7  18   62.28   14.13
  -1   7  18   83.18   17.22
   1   7 -18   44.97   11.95
   1  -7  18   76.31   16.83
   1  -7  18   56.17   13.84
  -1   7 -18   44.76   14.69
   1   7  18   77.95   17.09
  -1  -7  18   51.00   12.73
   1   7  19  128.73   21.76
  -1   7  19   80.04   17.90
  -1   7  19   98.85   19.87
   1  -7  19   97.43   18.77
   1  -7  19   90.81   18.59
   1   7 -19   78.65   17.79
  -1  -7  19   75.48   16.29
  -1  -7  19  128.77   20.84
  -1   7 -19  127.70   21.72
   1   7  19   80.25   17.13
  -1   7  19  111.44   20.90
   1   7  19  104.28   20.47
   1  -7  20    9.61    6.48
  -1   7  20    3.64    4.72
  -1  -7  20    3.79    7.25
  -1   7 -20    2.50    3.27
  -1  -7  20    4.93    0.96
   1   7  20    4.17    5.20
   1   7  20    1.38    7.40
   1   7  20    0.13    2.57
   1   7 -20   -0.16    3.00
   1  -7  20   -1.35    5.69
  -1   7  20    2.76    3.15
  -1  -7  21    5.35    5.12
  -1  -7  21    5.52    6.09
   1   7 -21    7.12    7.01
  -1   7 -21    7.30    7.56
   1  -7  21    8.21    7.97
  -1   7  21    8.21    6.91
   1  -7  21   15.21    9.23
   1   7  21    8.66    8.32
  -1   7  21    3.85    5.45
   1   7  21    6.78    4.25
  -1  -7  22   -3.35    5.31
  -1   7  22    6.27    8.58
   1   7  22   -0.17    3.33
   1  -7  22   -0.97    5.41
  -1   7 -22   -0.72    3.54
   1   7 -22   -2.59    1.17
  -1   7  22    5.37    5.20
  -1  -7  22    1.07    5.69
   1  -7  22    2.31    2.42
   1   7  22    0.75    5.39
  -1  -7  23   50.73   13.32
  -1   7  23   57.17   14.59
  -1   7  23   59.86   17.15
   1  -7  23   31.04    7.40
  -1  -7  23   34.95   13.67
   1  -7  23   53.90   14.66
   1   7  23   40.31   10.63
  -1   7 -23   51.48   14.68
   1   7  23   54.82   13.74
   1   7 -23   71.12   18.87
  -1  -7  24    5.27    0.89
  -1   7  24    2.96    7.63
  -1   7 -24   -1.28    2.05
   1   7 -24    4.56    2.08
   1  -7  24    2.06    6.50
   1  -7  24   -2.12    8.20
   1   7  24    2.78    4.57
   1   7  24    4.10    8.96
  -1  -7  24    3.45    2.35
  -1   7  24   -7.06    7.95
  -1   7  25    5.92    7.77
   1   7  25    1.82    3.37
   1   7 -25   -1.49    3.63
  -1   7 -25   -1.61    6.80
   1  -7  25   -0.05    2.19
  -1   7  25    0.25    2.34
  -1  -7  25    4.83    7.43
   1  -7  25    0.76    3.75
  -1  -7  25   -4.05    5.06
   1   7  25   -7.28    6.69
  -1   7 -26   13.63    9.56
   1   7  26   10.04   10.46
  -1   7  26    2.97    7.48
   1   7  26    0.53    5.05
  -1  -7  26   -5.22    6.77
   1  -7  26   -2.64    4.39
  -1   7  26    1.35    5.87
  -1  -7  26   -1.82    5.17
   1   7 -26    0.20    3.33
   1  -7  26   -2.49    7.32
   1   7  27   19.22   11.45
  -1  -7  27   22.79    9.62
  -1   7 -27   47.73   14.50
  -1   7  27   47.05   16.77
  -1  -7  27   46.22   15.55
   1  -7  27   27.26    9.90
  -1   7  27   25.78   12.46
   1  -7  27   19.15    9.52
   1   7 -27   39.06   14.82
   1   7  27   36.36   12.61
   1  -7  28   12.27    5.83
   1   7 -28   27.35   13.68
  -1   7 -28   13.67    4.69
  -1   7  28   46.49   17.91
  -1  -7  28   -1.41    5.98
   1   7  28   32.49   13.45
   1   7  28   25.96   10.87
  -1  -7  28   11.04    7.90
   1  -7  28   12.42    8.66
  -1   7  28    9.55    5.61
   1   7  29   15.44   10.94
  -1   7  29   -1.56    5.48
  -1  -7  29   16.71   11.07
  -1   7 -29   10.48   10.15
   1  -7  29    9.11    7.51
   1   7  29    4.22    5.76
  -1  -7  29    6.50    6.13
   1  -7  29    0.82    3.22
  -1   7  29    8.59    7.79
   1   7 -29   12.25    9.51
  -1   8   0    0.16    4.73
  -1   8   0   -0.89    2.01
   1   8   0    2.93    3.33
   1   8   0   -0.76    3.53
   1   8  -1 1112.14   56.26
   1   8  -1  950.07   46.34
  -1   8  -1 1073.56   53.88
  -1   8  -1  910.94   47.86
   1   8   1  811.91   43.38
   1   8   1  803.98   48.37
  -1   8   1  750.76   43.07
  -1   8   2  132.71   19.34
   1   8   2  145.10   20.25
  -1   8  -2  170.05   20.83
  -1   8  -2  165.85   20.04
   1   8  -2  166.55   19.21
  -1   8   2  120.01   16.37
   1   8   2  132.51   17.09
  -1   8   3   29.40    7.69
  -1   8   3   31.52   10.66
   1   8   3   14.95    6.70
  -1   8  -3   21.87    6.97
  -1   8  -3   22.93    6.42
   1   8   3   21.79    7.70
   1  -8   3   20.29    7.29
   1   8  -3   23.12    8.51
   1   8  -3    6.27    2.47
  -1   8   4    7.55    5.38
   1   8   4   12.46    6.25
   1   8  -4   15.86    7.69
   1   8  -4    9.70    5.06
  -1   8  -4   20.77    6.77
  -1   8   4    4.06    1.48
   1  -8   4    4.53    2.70
   1   8   4   20.91    6.83
  -1   8  -4   29.93    9.29
  -1   8   5  810.27   45.44
  -1   8   5  857.91   48.61
  -1   8  -5  779.88   44.57
  -1   8  -5  864.50   46.96
   1   8   5  925.38   51.49
   1   8  -5  807.77   45.99
   1   8   5  875.46   45.22
  -1  -8   5  911.55   36.16
   1   8   6   66.80   13.22
  -1   8   6   41.28   10.77
  -1   8  -6   66.71   13.09
   1   8  -6   61.79   13.65
  -1   8   6   36.46    8.86
   1  -8   6   60.41   12.34
  -1  -8   6   68.52    9.81
   1   8   6   35.70    8.26
   1   8   6   60.27   13.27
  -1   8   7  245.01   27.24
   1   8   7  167.19   19.18
   1   8  -7  247.59   26.18
  -1   8  -7  192.82   22.19
   1   8   7  204.48   22.07
  -1  -8   7  213.15   18.61
  -1  -8   7  237.48   23.98
  -1   8   7  245.93   25.57
   1  -8   7  254.04   24.90
   1   8   7  266.07   28.66
   1   8   8   12.09    7.87
   1  -8   8   14.63    6.08
   1   8   8   15.27    5.82
  -1  -8   8   14.48    5.24
   1   8   8    9.12    3.07
  -1   8   8   10.29    5.74
   1   8  -8    4.25    2.21
  -1  -8   8   17.39    7.37
  -1   8  -8   11.38    5.89
  -1   8   8   18.59    7.50
  -1   8   9 1349.91   64.27
  -1  -8   9 1348.07   59.69
   1   8   9 1554.41   69.76
  -1   8  -9 1411.65   64.83
   1  -8   9 1385.18   61.13
   1   8  -9 1649.30   69.50
   1   8   9 1681.75   65.51
   1   8   9 1690.73   67.12
  -1  -8   9 1467.17   52.11
   1  -8   9 1462.28   59.82
  -1   8   9 1610.17   67.73
  -1   8  10   46.40   11.77
   1  -8  10   19.06    7.39
   1   8 -10   40.43   13.15
   1  -8  10   23.82    7.74
  -1  -8  10   48.30   11.37
   1   8  10   53.84   12.45
  -1   8 -10   69.02   14.42
  -1  -8  10   52.69    9.88
   1   8  10   49.50   11.27
   1   8  10   23.56    7.65
  -1   8  10   33.42    9.37
  -1   8  11   21.24    8.12
   1   8  11   13.47    7.33
  -1  -8  11   25.83    8.24
   1   8  11   28.70    8.96
  -1   8  11   45.43   11.90
   1   8 -11   34.53   10.88
   1  -8  11   12.57    7.42
  -1   8 -11   34.47   10.47
   1  -8  11   19.10    5.86
  -1  -8  11   16.01    7.09
   1   8  11   42.10   10.51
   1  -8  12  274.64   27.85
  -1   8 -12  266.41   29.29
   1   8 -12  218.96   28.03
   1   8  12  267.32   27.10
   1  -8  12  271.76   27.94
  -1   8  12  214.44   25.26
   1   8  12  184.80   23.75
  -1   8  12  224.78   26.96
  -1  -8  12  145.17   18.38
  -1  -8  12  335.93   32.29
   1   8  12  248.39   26.74
  -1   8 -13   99.47   17.06
   1  -8  13  102.87   16.50
   1  -8  13   87.48   15.49
  -1   8  13   84.78   16.14
  -1  -8  13   95.19   14.83
   1   8 -13   59.97   15.60
  -1  -8  13   77.26   16.48
   1   8  13   41.88   10.88
  -1   8  13   64.82   14.44
   1   8  13  120.01   18.83
   1   8  13   95.89   19.04
   1   8  14    8.55    5.61
  -1   8 -14    8.19    7.61
  -1   8  14    5.51    4.20
  -1  -8  14    1.01    1.73
  -1   8  14    6.80    2.38
   1   8  14   11.43    7.15
   1  -8  14    2.64    6.92
   1   8  14   -2.00    4.46
  -1  -8  14    6.40    6.52
   1   8 -14    7.60    5.70
  -1   8  14   10.63    6.69
   1  -8  14   -0.53    3.91
   1   8  15   67.55   13.62
  -1  -8  15   63.82   13.77
  -1   8 -15   50.52   12.63
  -1   8  15   67.37   14.14
   1  -8  15   90.65   19.05
  -1   8  15   73.52   15.60
   1   8  15   76.63   17.53
   1   8  15   68.52   15.24
   1   8 -15   59.92   14.97
  -1   8  15   65.33   15.00
   1  -8  15   64.74   14.45
  -1  -8  15   77.97   16.31
   1   8  16    2.86    5.47
  -1   8  16    3.32    4.76
   1   8 -16    3.63    4.17
   1   8  16    6.57    3.37
   1  -8  16    3.71    3.83
  -1   8  16    7.21    7.28
  -1  -8  16    8.24    7.68
   1  -8  16    3.90    2.33
  -1  -8  16    2.84    4.80
  -1   8  16    2.69    5.75
  -1   8 -16    2.99    5.39
   1   8  16    2.90    5.22
  -1   8  17  148.49   23.99
   1  -8  17  112.76   19.02
   1   8  17   77.12   15.00
  -1   8  17  129.90   23.44
   1   8  17  134.33   22.86
  -1  -8  17  159.28   23.89
   1   8 -17  138.02   22.17
  -1   8 -17  142.48   21.56
  -1  -8  17  134.07   20.24
   1  -8  17  132.83   22.46
   1   8  17  138.06   23.05
  -1   8  17  172.89   26.14
  -1   8 -18    0.17    4.25
  -1   8  18   15.80   11.06
  -1  -8  18    2.90    2.15
   1  -8  18   10.02    5.35
   1  -8  18    2.27    1.99
  -1  -8  18    0.72    5.10
  -1   8  18    6.09    7.23
   1   8  18    4.51    2.54
   1   8  18    9.95    3.51
   1   8 -18    6.69    6.37
  -1   8  18    4.58    5.15
   1   8  18    5.51    4.75
   1  -8  19  193.61   25.87
  -1   8 -19  242.57   30.32
   1  -8  19  219.59   28.64
   1   8 -19  172.59   25.53
  -1   8  19  215.55   29.43
   1   8  19  193.68   27.89
  -1  -8  19  195.96   25.83
   1   8  19  245.60   32.51
  -1   8  19  185.74   27.01
  -1   8  19  201.73   29.74
  -1  -8  19  225.66   28.76
   1   8  20   -1.67    4.35
  -1   8 -20   -4.24    6.16
  -1   8  20   -0.43    3.01
  -1   8  20    1.13    1.98
  -1  -8  20    3.99    5.74
   1  -8  20   -0.19    2.65
   1   8  20   -5.98    6.70
   1   8  20    3.47    2.54
   1   8 -20    5.60    4.94
  -1  -8  20    1.94    5.77
   1  -8  20    2.60    4.51
  -1   8  20    2.06    7.64
   1  -8  21   70.32   17.20
  -1   8 -21   65.75   16.06
   1   8 -21   56.49   14.53
   1   8  21   53.96   16.27
   1  -8  21   91.78   18.64
  -1   8  21   35.10   11.37
  -1  -8  21   74.40   17.01
  -1  -8  21   75.36   16.67
   1   8  21   30.49   11.45
  -1   8  21   51.87   14.53
  -1   8  21   68.25   17.98
   1   8  21   70.59   19.08
   1  -8  22   -1.03    5.01
  -1   8  22    4.75    5.91
  -1  -8  22    1.10    1.24
  -1  -8  22    1.10    4.27
   1   8 -22   -0.42    3.02
   1   8  22    1.79    5.44
  -1   8  22   15.38    9.09
   1   8  22    7.87    8.75
  -1   8 -22    5.06    4.88
   1  -8  22    5.09    2.11
  -1   8 -23   77.06   17.80
  -1   8  23   93.88   21.09
   1   8  23   74.73   18.68
   1  -8  23   77.07   16.93
  -1  -8  23   94.14   21.65
   1  -8  23    7.86   10.26
   1   8  23   73.37   17.09
   1   8 -23   91.54   19.46
  -1  -8  23   90.44   19.72
  -1   8  23   46.15   14.50
   1  -8  24    5.70    5.51
  -1   8 -24    5.79    2.15
  -1  -8  24   -4.26    6.72
   1  -8  24    1.62    5.44
   1   8  24   -5.49    7.05
  -1   8  24    7.20    8.27
  -1  -8  24   -0.44    4.18
   1   8  24    0.62    2.05
  -1   8  24    5.51    4.31
   1   8 -24    2.75    6.39
  -1   8  25   14.95    7.74
   1   8  25    7.44    0.87
   1  -8  25   16.27    9.04
   1   8 -25   10.35    6.31
   1  -8  25    8.65    8.92
   1   8  25   15.22   11.01
  -1   8 -25   24.48   12.16
  -1   8  25   15.04    4.48
  -1  -8  25    6.12    4.91
  -1   8  26   10.04    8.66
   1   8 -26   -8.04    5.56
   1  -8  26   -1.99    3.97
  -1   8 -26   -2.82    5.40
  -1  -8  26    3.07    6.05
   1  -8  26   -3.78    8.11
   1   8  26   -0.17    5.06
   1   8  26   -4.88    7.65
  -1   8  26    3.40    5.58
   1  -8  27   71.61   16.05
   1  -8  27   49.48   16.69
   1   8 -27   66.27   18.36
  -1   8 -27   27.30   11.51
  -1   8  27   56.87   16.01
  -1  -8  27   82.12   19.89
   1   8  27   90.18   21.04
   1   8  27   98.43   20.38
  -1   8  27   83.91   23.28
  -1  -8  28    5.19    3.85
  -1   8  28    4.13    2.52
   1   8  28    9.51    8.04
  -1   8  28   -6.68    8.38
   1   8 -28   14.78    8.74
  -1   8 -28   -0.59    4.30
   1   8  28    6.16    9.85
   1  -8  28   -8.26    5.84
   1  -8  28   -1.79    4.97
  -1   9   0   -2.08    1.06
   1   9   0    0.60    2.48
  -1   9   0    2.42    2.68
   1   9   0    0.89    5.71
  -1   9  -1   31.96   10.32
   1   9  -1   20.36    7.93
  -1   9  -1   31.68   10.31
   1   9   1   56.63   11.36
  -1   9   1   34.69    9.19
   1   9  -1   34.64    9.41
  -1   9   1   41.79   10.79
   1   9   1   37.62    9.81
   1   9  -2  106.66   17.63
   1   9   2   77.72   16.42
  -1   9  -2  119.64   19.54
  -1   9   2   73.21   14.28
  -1   9   2  139.35   20.76
   1   9   2  127.62   18.38
  -1   9  -2   83.18   15.73
   1   9  -2  153.78   19.33
  -1   9   3  224.89   26.83
   1   9  -3  141.23   19.85
   1   9   3  151.52   21.47
  -1   9  -3  155.09   21.24
  -1   9  -3  155.94   21.38
  -1   9   3  152.57   19.26
   1   9  -3  186.37   23.86
   1   9   3  133.30   17.80
   1   9  -4   29.72    8.93
  -1   9   4   72.64   16.48
   1   9   4   51.44   11.44
   1   9  -4   56.87   12.93
   1  -9   4   40.96    9.44
   1   9   4   43.81   12.24
  -1   9  -4   55.51   11.39
  -1   9   4   70.76   14.66
  -1   9  -4   36.16    9.61
  -1   9  -5   15.26    8.15
  -1   9   5   29.41    8.80
   1   9  -5   11.38    6.72
   1   9  -5   17.58    8.08
  -1   9   5   10.37    1.54
  -1   9  -5   20.45    8.09
   1   9   5   17.50    6.28
   1   9   5    7.12    3.59
   1  -9   5   19.30    7.35
   1   9   6   97.79   15.48
  -1  -9   6   70.51   10.48
   1   9   6   89.97   13.46
  -1   9  -6   90.19   16.66
   1  -9   6   82.17   14.95
   1   9   6   86.69   16.77
  -1   9   6  104.13   17.26
  -1   9  -6   73.20   14.28
   1   9  -6   92.85   16.27
  -1   9   6   76.47   16.26
   1   9   7   -1.44    2.04
  -1   9   7    0.02    3.20
   1  -9   7    5.97    5.47
   1   9   7   -0.85    2.65
  -1   9  -7   -1.93    5.25
  -1   9   7   -0.88    3.98
   1   9   7   -1.92    4.26
  -1  -9   7   -1.24    0.81
  -1   9  -7    1.44    1.01
   1   9  -7    3.44    5.25
   1   9  -8   17.62    9.22
   1   9   8    8.30    5.78
  -1   9   8   12.38    5.48
  -1   9   8   14.62    6.60
  -1   9  -8    0.40    5.76
   1   9   8    9.84    3.78
   1   9   8   12.04    6.33
   1  -9   8   12.04    5.87
  -1  -9   8   12.71    4.96
   1   9   9 1147.42   63.00
   1   9  -9 1407.32   66.59
   1   9   9 1366.79   64.20
  -1  -9   9 1567.18   65.78
   1   9   9 1526.60   61.79
  -1   9  -9 1591.51   68.26
  -1   9   9 1227.78   64.86
  -1  -9   9 1305.93   52.43
  -1   9   9 1113.42   59.76
  -1  -9  10   50.77   12.22
  -1  -9  10   57.89   10.99
   1   9  10   51.30   13.05
  -1   9  10   30.46   10.10
   1  -9  10   29.85    9.05
   1   9  10   49.51   12.17
   1   9 -10   29.16    9.21
  -1   9 -10   61.03   13.40
  -1   9  10   40.02   11.95
   1   9  10   56.92   12.92
   1   9 -11   39.67   10.50
  -1   9 -11   48.63   12.38
   1  -9  11   40.34   10.35
   1   9  11   23.27   10.18
   1   9  11   36.31   10.21
  -1   9  11   22.30   10.25
   1  -9  11   39.40   10.48
  -1  -9  11   33.14   10.93
  -1   9  11   25.89    9.78
   1   9  11   22.80    8.85
  -1  -9  11   38.87    9.46
  -1  -9  12    9.75    5.18
   1   9  12    2.13    2.75
  -1   9 -12    3.27    1.58
  -1  -9  12    9.22    5.12
   1   9  12   11.32    7.09
  -1   9  12   18.71    7.94
   1   9 -12   -0.60    3.74
   1  -9  12    3.12    4.47
  -1   9  12   13.59    7.98
   1   9  12   14.44    8.80
   1  -9  12    5.29    0.56
   1   9  13    3.99    4.47
  -1  -9  13    6.41    5.12
  -1   9  13    3.28    1.78
   1   9 -13    0.09    7.63
  -1   9  13    1.17    5.17
   1   9  13    0.62    4.51
  -1   9 -13    4.75    5.58
   1  -9  13    3.88    6.23
   1  -9  13    9.57    8.56
   1   9  13    3.98    2.96
   1   9  14   10.65    5.00
   1   9  14    4.80    3.79
  -1   9  14   15.62    8.38
  -1   9  14   10.52    7.95
   1   9  14    4.47    2.42
  -1   9  14   18.03    8.39
  -1   9 -14    6.07    7.49
   1   9 -14    1.02    1.51
  -1  -9  14   15.54    8.95
   1  -9  14   12.21    6.34
   1  -9  14   10.97    8.18
  -1   9 -15   54.53   13.63
  -1   9  15   48.79   13.93
   1   9  15   66.55   14.95
   1   9  15   28.16   10.78
  -1   9  15   56.23   14.03
  -1   9  15   28.11   11.74
   1  -9  15   33.24   11.09
  -1  -9  15   26.29    9.97
   1   9  15   25.98    9.78
   1  -9  15   54.55   13.95
   1   9 -15   60.94   15.64
  -1   9  16   63.49   14.74
  -1   9  16  102.80   19.47
  -1  -9  16   83.18   16.96
   1  -9  16   95.78   19.10
  -1   9 -16   48.49   13.45
   1   9  16   68.71   15.71
   1   9  16   76.23   16.91
   1   9  16  100.05   19.97
  -1   9  16   71.04   17.20
   1  -9  16   87.32   16.86
   1   9 -16   45.55   14.04
  -1   9  17    0.92    5.10
   1  -9  17    2.38    4.21
   1   9  17    6.50    2.61
  -1   9  17    9.62    6.10
   1   9 -17    8.64    4.71
  -1  -9  17   24.69    8.21
   1   9  17    9.98    7.31
  -1   9 -17   12.20    7.04
   1  -9  17   10.99    6.31
   1   9  17   -5.30    7.15
  -1   9  17   -3.16    3.38
  -1   9  18   32.35   11.74
   1   9 -18   24.50    8.91
   1   9  18   52.34   14.02
   1   9  18   34.84   15.61
   1  -9  18   43.02   12.61
  -1   9 -18   42.43   13.70
  -1   9  18   34.12   12.58
   1  -9  18   34.52   12.26
   1   9  18   59.44   14.97
  -1  -9  18   38.71   11.46
  -1   9  18   47.80   14.11
   1   9  19   33.00   12.94
  -1   9 -19   35.60   10.27
  -1   9  19   46.89   14.12
   1   9  19   28.19   11.22
  -1   9  19   17.31    8.24
   1   9  19   25.18   10.79
   1  -9  19   24.78   10.80
   1   9 -19   34.56   11.94
  -1   9  19   39.43   14.90
   1  -9  19   42.51   12.75
  -1  -9  19   48.55   13.22
  -1   9  20   23.75   10.20
   1   9  20   25.18   12.73
  -1   9 -20    5.32    6.99
   1   9  20   16.66    5.86
  -1   9  20   40.68   13.09
   1  -9  20   23.21   11.21
  -1   9  20   47.60   15.91
   1   9  20   15.16    8.07
  -1  -9  20   27.98   11.88
   1   9 -20   19.00    7.71
   1  -9  20   20.73    6.73
   1   9  21   54.47   17.72
   1   9 -21   34.22   12.65
   1  -9  21   31.53   12.50
  -1   9  21   29.64   10.68
   1  -9  21   62.52   16.59
   1   9  21   33.74   10.14
  -1   9 -21   46.70   14.28
  -1  -9  21   26.80   10.86
   1   9  21   48.33   13.11
  -1   9  21   52.81   14.71
  -1   9  21   50.58   15.43
   1  -9  22   12.46    6.89
   1   9 -22   16.20    9.23
   1   9  22   26.20   13.39
   1   9  22   18.68    9.81
  -1   9 -22   15.87   10.01
  -1   9  22    0.15    5.11
   1   9  22    8.18    8.60
  -1   9  22   16.66   10.62
  -1   9  22   18.74    6.01
   1  -9  22    6.68    6.68
  -1  -9  22   -6.00    8.30
   1   9  23   11.94   10.21
  -1  -9  23    5.78    5.95
   1   9 -23   -1.14    4.87
  -1   9 -23   -2.65    7.92
   1   9  23    1.60    6.97
   1  -9  23    9.75    9.26
  -1   9  23   -2.19    3.82
   1  -9  23   -5.07    7.47
  -1   9  23    5.36    6.27
   1   9  24   20.57   12.40
  -1   9  24    1.52    1.87
  -1   9  24   13.21    8.66
   1   9 -24   -2.64    3.63
   1   9  24    4.82    3.37
  -1   9 -24    6.60    7.46
  -1  -9  24   17.07   10.26
   1  -9  24    7.87    5.22
   1  -9  24    8.26    8.39
  -1   9  25   -1.25    6.92
   1  -9  25   -9.16    8.58
   1  -9  25   -7.19    6.07
   1   9  25   11.55   11.11
   1   9 -25   -1.12    2.78
  -1   9 -25    4.24    6.83
  -1   9  25    9.06    8.54
   1   9  25    6.45    8.56
  -1  -9  25    0.48    5.63
   1  -9  26    5.03    4.12
   1   9  26   -8.13    6.96
   1   9 -26   -0.09    4.83
  -1   9 -26    3.33    4.60
  -1   9  26   -1.87    5.81
   1  -9  26   -8.56    8.28
   1   9  26    1.15    3.81
  -1   9  26   -6.69    7.34
  -1  -9  26   10.97    9.44
   1  -9  27   16.10    7.23
  -1  -9  27   28.74   11.80
  -1   9 -27   32.87   11.20
  -1   9  27   32.66   11.65
  -1   9  27   27.39   13.31
   1   9 -27   33.45   12.34
   1   9  27   38.08   14.90
   1  -9  27   27.04   10.84
   1   9  27   18.75   10.34
   1  10   0   -0.84    3.19
  -1  10   0   -1.42    4.53
  -1  10   0    0.20    2.10
   1  10   0    0.22    2.23
  -1  10  -1   85.98   16.14
  -1  10  -1  105.30   19.02
  -1  10   1  128.87   21.40
   1  10   1   80.36   15.09
   1  10   1  135.73   22.00
   1  10  -1   69.61   14.24
  -1  10   1   71.12   14.13
   1  10  -1   89.90   16.81
  -1  10  -2   54.15   13.47
   1  10   2   83.82   16.56
   1  10  -2   73.31   16.29
  -1  10  -2   60.02   13.80
  -1  10   2   43.28   12.16
   1  10  -2   78.13   15.24
   1  10   2   53.27   12.00
  -1  10   2   63.50   12.94
   1  10   3  205.87   27.35
   1  10  -3  269.05   30.23
  -1  10  -3  173.15   23.30
   1  10   3  231.52   24.54
  -1  10   3  225.13   26.12
  -1  10   3  199.77   26.45
   1  10  -3  216.91   25.43
  -1  10  -3  230.77   26.20
  -1  10  -4   24.38    9.23
  -1  10   4    7.29    4.39
   1  10  -4    2.67    4.03
   1  10   4   10.89    6.22
   1  10   4    7.73    6.63
  -1  10   4   14.03    6.24
  -1  10  -4   13.85    9.96
   1  10  -4   17.65    6.77
  -1  10   5  199.05   25.47
   1  10  -5  240.58   27.78
  -1  10  -5  157.39   21.55
  -1  10   5  208.87   25.22
   1 -10   5  185.19   21.95
   1  10  -5  213.30   25.98
   1  10   5  179.23   22.93
   1  10   5  192.73   26.05
  -1  10  -5  164.33   22.62
  -1  10  -6  125.51   20.55
  -1  10  -6  166.89   22.56
   1  10  -6  193.32   24.64
   1  10   6  167.70   21.82
   1  10  -6  231.14   26.22
   1 -10   6  110.77   17.79
   1  10   6  161.61   25.06
  -1  10   6  168.51   24.34
  -1  10   6  118.28   19.30
  -1  10   7  141.07   21.14
   1  10   7  107.64   20.95
  -1  10  -7  109.50   18.74
   1 -10   7   93.00   16.89
   1  10   7  108.60   18.05
   1  10  -7  135.65   19.85
  -1  10   7  105.05   19.33
   1  10  -7  129.35   19.99
  -1  10  -7  120.90   18.67
  -1  10   8   69.27   14.93
   1  10  -8   89.76   17.45
  -1  10  -8  104.27   18.78
   1  10   8  104.07   18.31
  -1  10  -8   99.14   18.37
   1  10   8   87.32   16.76
  -1  10   8   86.01   16.34
   1 -10   8   97.38   16.43
   1 -10   9   80.25   15.36
  -1  10   9   68.84   16.33
   1  10  -9   33.89   11.74
   1  10   9   46.98   11.23
   1  10   9   57.97   14.57
  -1  10  -9   48.18   13.20
  -1  10   9   97.84   17.90
   1  10  10  261.93   30.58
  -1  10  10  359.53   35.71
   1  10 -10  448.24   39.36
   1  10  10  297.83   31.61
  -1  10 -10  399.66   37.74
   1 -10  10  354.22   33.01
  -1  10  10  438.31   39.59
   1  10  11   33.12   10.16
  -1  10  11   15.32    8.66
  -1  10 -11   14.23    5.67
   1  10  11   16.79    7.61
  -1  10  11    8.36    3.01
   1 -10  11   14.77    8.01
  -1 -10  11   23.45    8.82
   1  10 -11   35.71   10.27
  -1  10  12   51.87   14.27
  -1  10 -12   97.53   18.85
   1  10 -12   67.44   15.44
   1  10  12   63.02   16.27
   1 -10  12   83.35   17.39
  -1 -10  12   50.19   13.72
  -1  10  12   90.94   18.21
   1  10  12   79.00   17.26
   1  10  13   23.85    8.47
  -1  10  13   77.74   16.62
  -1  10 -13   23.58   11.97
   1 -10  13   61.45   13.80
   1  10  13   -5.45    4.52
   1 -10  13   73.92   16.92
  -1  10  13   54.02   14.53
  -1 -10  13   60.35   14.54
   1  10  13   71.40   15.89
   1  10 -13   60.88   13.88
   1 -10  14    2.23    4.90
  -1  10  14    6.16    2.54
   1  10  14    3.95    3.56
   1  10  14   10.99    5.90
  -1  10  14    6.27    6.78
  -1  10 -14    8.94    6.76
  -1  10  14    5.62    4.92
   1 -10  14    5.76    3.40
   1  10  14   19.50   12.24
  -1 -10  14   11.71    8.41
   1  10 -14   -0.31    6.06
   1  10  15    3.02    3.27
  -1  10  15   -0.05    3.59
   1  10 -15    0.95    3.59
  -1  10  15    7.18    5.98
  -1  10  15    0.81    1.29
  -1  10 -15    5.30    3.44
  -1 -10  15   -1.77    6.96
   1 -10  15    0.89    3.87
   1  10  15    7.55    8.25
   1 -10  15   -7.56    7.09
   1  10  15   -5.21    5.73
  -1  10  16   93.74   19.43
   1  10 -16   89.83   17.82
  -1  10 -16  140.92   24.88
  -1  10  16   76.26   17.39
   1 -10  16   81.00   17.42
  -1 -10  16   83.81   17.28
   1 -10  16   95.96   18.85
   1  10  16  102.05   22.18
   1  10  16  102.73   22.17
   1  10  16   97.55   19.51
  -1  10  16  115.99   22.99
   1  10 -17    5.09    2.09
  -1  10  17   12.12    5.86
  -1 -10  17   20.90    7.56
   1  10  17   15.20    5.30
   1  10  17    4.51    5.61
  -1  10  17   12.55    5.80
  -1  10 -17    7.30    2.23
   1 -10  17   17.95    8.07
   1  10  17   20.90    8.66
  -1  10  17   24.43    9.85
   1 -10  17   12.88    8.01
   1 -10  18   22.31    9.59
  -1  10  18   13.45    6.24
   1 -10  18    8.02    7.66
   1  10  18    3.00    7.42
   1  10 -18   14.60    8.70
  -1  10 -18   14.92    6.02
  -1 -10  18    5.37    2.46
   1  10  18   17.00   10.38
  -1  10  18   19.09    8.24
  -1  10  18   36.06   13.47
   1  10  18   10.07    5.25
   1 -10  19    9.90    6.57
  -1  10  19    2.54    5.02
  -1  10  19    2.40    3.08
   1  10 -19    8.46    6.26
   1 -10  19    2.80    6.64
  -1  10  19    6.91    5.90
  -1  10 -19    6.91    4.52
   1  10  19    2.09    3.17
   1  10  19    8.82    7.13
  -1 -10  19    1.88    5.04
   1  10  19    1.77    4.53
   1  10  20  108.34   22.66
  -1  10  20  160.69   26.56
   1  10 -20  175.47   27.41
  -1  10 -20  125.72   22.97
   1  10  20   69.58   18.67
  -1 -10  20  149.64   25.30
  -1  10  20  165.60   26.78
  -1  10  20   95.60   21.30
   1  10  20  116.75   24.50
   1 -10  20  101.96   18.54
   1  10  21    1.09    7.02
   1 -10  21    1.19    3.66
   1  10  21   -4.02    6.58
  -1  10  21   -2.39    2.42
  -1 -10  21    8.98    9.09
   1  10  21    7.80    9.09
  -1  10  21    1.90    2.95
  -1  10  21    5.01    8.53
  -1  10 -21   -0.22    3.67
   1  10 -21    0.73    3.86
  -1 -10  22    5.18    2.64
   1  10  22    6.15    6.88
   1  10  22   18.50    8.46
  -1  10  22    6.68    5.95
   1  10 -22   10.99    7.47
  -1  10  22    5.69    8.05
  -1  10 -22   20.73    9.72
   1  10  22   17.74    5.58
   1 -10  22    4.61    1.69
  -1  10  22   13.18    8.09
   1 -10  23   -0.50    5.69
  -1  10 -23    0.73    3.39
  -1  10  23    6.45    8.62
   1  10  23    5.01    6.44
   1  10 -23    3.96    5.69
  -1 -10  23    2.04    5.56
   1  10  23    0.03    3.92
  -1  10  23    2.13    5.57
   1  10  23    1.87    7.20
   1  10  24   16.87    9.77
  -1  10 -24   21.73    9.58
  -1 -10  24   28.39   10.47
   1  10  24   31.04   13.42
   1  10 -24   34.74   12.67
  -1  10  24   17.93    9.30
  -1  10  24   32.65   15.06
   1 -10  24   42.25   14.59
  -1 -10  25    1.60    3.06
   1 -10  25    6.02    3.39
  -1  10  25   -6.10    6.78
   1  10 -25   -5.72    8.72
  -1  10  25   -1.53    1.50
   1  10  25    1.20    4.73
  -1  10 -25    4.94    3.79
   1  10  26   -1.05    8.48
   1 -10  26    8.17    6.60
  -1  10  26   13.24    6.04
   1  10 -26   11.30    7.15
  -1  10 -26   -1.72    4.03
  -1  10  26   -0.28    4.85
  -1 -10  26   14.80    9.93
  -1  11   0    0.94    3.49
  -1  11   0    3.71    8.70
   1  11   0    0.10    2.82
   1  11   0    0.75    3.45
   1  11   1    5.64    5.21
   1  11  -1    2.34    4.54
   1  11  -1    0.40    0.71
  -1  11   1   -0.37    3.42
  -1  11  -1   -1.75    1.66
  -1  11  -1   -1.64    2.64
   1  11   1    5.01    2.18
  -1  11  -2   -1.49    2.23
  -1  11  -2    7.37    5.28
   1  11  -2    1.75    6.64
   1  11   2    5.17    2.44
  -1  11   2    6.45    5.59
  -1  11   2    2.88    6.73
   1  11  -2    3.75    4.84
   1  11   2    2.03    6.71
   1  11   3   39.72   11.62
  -1  11   3   63.69   14.32
   1  11  -3   34.57    9.14
   1  11   3   26.54   11.47
  -1  11  -3   50.25   12.13
  -1  11   3   18.86    7.16
   1  11  -3   44.03   14.10
  -1  11  -3   29.19   10.33
  -1  11   4   45.64   12.75
   1  11  -4   30.94    9.61
  -1  11  -4   39.20   12.73
  -1  11   4   22.43    7.48
   1  11   4   33.85    9.42
   1  11  -4   29.32   11.08
   1  11   4   52.06   15.17
  -1  11  -4   41.52   11.13
   1  11  -5    4.45    4.11
   1  11   5    2.08    5.38
  -1  11   5   -0.72    5.11
   1  11  -5   -0.27    3.68
  -1  11   5    0.94    3.77
   1  11   5    0.52    4.01
  -1  11  -5    2.09    4.53
  -1  11  -5    1.64    4.28
   1  11   6    9.22    5.12
  -1  11   6    6.53    7.13
   1  11   6    6.74    6.52
  -1  11  -6    2.50    4.35
  -1  11  -6   -0.50    3.21
   1  11  -6    3.37    0.49
  -1  11   6    6.47    5.61
   1  11  -6    2.00    0.65
   1  11  -7   13.05    7.01
   1  11   7   27.74   10.10
  -1  11   7   36.41   12.84
  -1  11  -7   33.18   10.79
   1  11   7   18.58    7.23
  -1  11  -7    6.54    1.09
   1  11  -7   41.53   12.84
  -1  11   7   28.22    9.83
  -1  11   8   86.24   18.29
   1  11   8  174.36   25.69
   1  11  -8  130.22   21.48
  -1  11  -8  128.10   21.13
  -1  11   8  132.24   23.65
  -1  11  -8  136.39   21.37
   1  11  -8  117.69   20.02
   1  11   8  144.03   21.84
   1  11   9    9.80    8.70
   1  11   9   13.18    6.32
  -1  11  -9    1.37    3.83
  -1  11   9    6.90    5.28
   1  11  -9   16.16    7.14
  -1  11   9   10.55    5.39
   1  11  -9    2.57    4.41
  -1  11  -9    2.49    6.49
  -1  11  10  155.25   24.46
   1  11  10  129.05   23.27
   1  11 -10  144.27   23.54
  -1  11 -10  147.15   22.34
  -1  11  10  159.58   24.03
   1  11  10  173.11   25.42
  -1  11 -10  196.11   25.80
   1  11  11    4.50    3.54
  -1  11  11   27.28    9.29
  -1  11  11   17.97    6.36
   1  11 -11    6.01    5.91
  -1  11 -11   15.47    7.20
   1  11  11   10.53    7.50
  -1  11  12   46.89   13.35
  -1  11  12   38.69   13.34
   1  11  12   41.53   11.86
   1  11  12   26.05    8.87
  -1  11 -12   64.68   15.46
   1  11 -12   19.21    8.76
   1  11  13    3.24    3.91
   1  11  13   11.53    8.46
  -1  11  13    6.78    8.24
   1  11 -13    5.38    4.84
  -1  11  13   -0.64    4.60
  -1 -11  13    7.25    4.35
  -1  11 -13   -1.73    2.78
   1  11  14    1.40    5.75
  -1 -11  14    3.66    1.42
   1  11  14    4.97    7.78
   1  11 -14    4.06    4.02
  -1  11  14    0.46    5.80
  -1  11 -14    3.35    7.01
  -1  11  14   -1.49    2.12
  -1  11  14    4.46    5.88
  -1  11 -15   -2.09    5.17
  -1  11  15    2.41    3.86
   1  11  15    0.37    1.87
   1  11 -15    0.53    5.03
   1  11  15    8.82    8.54
  -1  11  15    2.04    6.62
  -1 -11  15    4.09    5.20
  -1  11  15   -2.42    4.52
  -1  11  16    9.08    9.26
   1  11  16    8.03    5.78
  -1  11 -16   12.54    9.99
   1  11  16    5.84    5.84
   1  11 -16    3.79    1.14
   1 -11  16    2.80    5.16
  -1  11  16   10.32    8.95
  -1  11  16    1.00    4.27
  -1 -11  16    1.82    4.55
  -1  11  17   20.72   10.09
   1  11  17   26.47   13.35
  -1  11  17    2.22    4.41
   1  11 -17    7.03    6.95
   1 -11  17   11.95    8.29
  -1  11  17    9.26    7.06
  -1  11 -17   13.43   10.01
   1  11  17    8.76    5.81
  -1 -11  17    7.18    4.83
   1  11 -18    0.60    1.54
  -1  11  18   -2.72    6.82
  -1  11  18    2.44    2.87
  -1  11  18    2.09    3.21
   1 -11  18    5.15    5.81
  -1 -11  18    0.88    3.24
  -1  11 -18    3.87    7.09
   1  11  18   -1.35    3.05
  -1  11  19   10.11    5.95
  -1  11  19   21.46   12.61
  -1 -11  19   19.88    8.79
   1  11  19   14.30    7.65
   1 -11  19   13.63    6.17
   1  11 -19   12.32    5.44
   1  11  19   29.05   13.48
  -1  11 -19   13.73    7.75
  -1  11  19   10.25    6.63
  -1  11  20   13.77    8.80
   1 -11  20    4.86    2.95
   1  11 -20   11.57    7.68
  -1  11 -20   -2.86    2.51
  -1 -11  20   22.85   10.18
  -1  11  20   15.65    9.37
  -1  11  20   13.43    8.31
   1  11  20    9.43    5.99
   1  11  20   23.45    9.91
  -1  11  21   16.74   10.32
  -1  11  21   -1.47    5.88
   1 -11  21    9.07    2.79
  -1  11  21   -9.47   10.10
   1  11 -21    7.64    6.62
   1  11  21   17.53    9.26
  -1  11 -21   14.85    7.73
  -1 -11  21   20.20   10.99
   1  11  21   11.48   10.13
   1  11  22   23.89   15.13
  -1  11  22    1.50    3.73
   1 -11  22   -8.39    7.77
   1  11 -22   -5.64    5.11
  -1  11 -22    1.76    2.87
   1  11  22   -6.94    7.90
  -1  11  22    3.96    7.57
  -1 -11  22   -1.62    5.94
  -1  11  22   10.84   10.96
   1  11 -23    5.54    1.08
   1  11  23   -2.03    2.07
   1 -11  23   13.12    8.82
  -1  11  23   -7.92    6.94
  -1 -11  23    0.26    4.65
  -1  11 -23    5.10    6.15
  -1  11  23    3.19    6.82
  -1  11  23    5.70    7.06
  -1 -11  24    1.88    3.65
  -1  11 -24   -6.12    7.55
   1 -11  24    8.07    8.16
  -1  11  24    7.24    6.90
  -1  11  24   -0.18    6.06
   1  11  24   -4.50    5.75
   1  11 -24    7.27    7.23
   1  12   0    0.79    8.05
  -1  12   0   11.23    6.61
  -1  12   0   -0.97    2.35
   1  12   0    2.84    5.30
  -1  12  -1    3.66    2.78
  -1  12  -1   -4.20    4.49
   1  12  -1    4.37    3.17
   1  12  -1    4.47    2.68
  -1  12   1    0.76   12.35
   1  12   1    4.04    6.32
   1  12   1   -1.69    2.70
  -1  12   1   -6.13    6.13
  -1  12  -2   37.90   11.21
   1  12   2   67.27   16.74
  -1  12   2   37.06   13.61
   1  12  -2   68.03   17.19
  -1  12  -2   64.72   16.18
   1  12   2   55.68   13.51
  -1  12   2   38.10   12.11
   1  12  -2   55.67   13.57
  -1  12   3    9.62    6.64
  -1  12  -3    6.89    5.94
   1  12  -3   21.77    8.89
  -1  12   3    9.53    3.56
  -1  12  -3   16.24    8.41
   1  12  -3    5.06    7.99
   1  12   3   11.47    6.46
   1  12   3    8.36    2.51
   1  12  -4    2.19    6.09
  -1  12   4   -1.93    2.48
   1  12   4    1.17    6.54
  -1  12  -4   -0.95    1.98
   1  12  -4    8.85    6.60
   1  12   4   -1.83    5.02
  -1  12  -4   -1.96    5.31
  -1  12   4   -2.67    4.37
  -1  12   5    2.42    3.65
   1  12   5   -1.01    1.84
   1  12   5   15.65    8.46
  -1  12   5    5.59    3.80
   1  12  -5    6.42    2.79
  -1  12  -5    8.54    3.18
   1  12  -5    2.30    3.53
  -1  12  -5   -0.54    5.77
  -1  12   6   15.48    8.79
   1  12   6   13.14    6.05
   1  12   6   13.53    7.16
  -1  12  -6   15.54    8.93
   1  12  -6    8.54    7.89
   1  12  -6   11.85    8.41
  -1  12  -6   14.90    7.68
  -1  12   6    0.79    4.77
  -1  12  -7   12.17    8.15
  -1  12  -7   33.15    9.96
  -1  12   7   20.22    8.22
   1  12  -7   12.20    5.59
   1  12   7   19.99   10.30
  -1  12   7   14.69    8.55
   1  12   7    7.35    5.84
   1  12  -7   18.38    8.21
  -1  12   8   31.09   10.93
   1  12   8   16.44    6.17
   1  12   8   22.52   11.71
   1  12  -8   30.91   12.60
  -1  12  -8   22.03    8.30
  -1  12  -8   18.31    4.12
   1  12  -8   43.02   12.89
  -1  12   8   32.19   10.23
   1  12   9   66.25   17.55
  -1  12   9   82.00   16.34
   1  12  -9  108.18   19.65
   1  12   9   71.43   16.50
  -1  12   9   69.26   17.19
  -1  12  -9   84.24   17.73
  -1  12  -9   97.27   19.45
   1  12  -9   63.48   15.61
   1  12  10    8.16    7.16
  -1  12  10    6.42    4.66
   1  12  10    8.51    4.97
  -1  12 -10    2.84    4.11
   1  12 -10   13.02    7.46
   1  12 -10    7.30    1.21
  -1  12 -10    7.54    2.19
  -1  12  10    9.34    7.12
  -1  12 -11    3.11    3.94
  -1  12  11    4.12    5.45
  -1  12 -11    1.50    5.16
   1  12  11   -2.05    2.82
   1  12  11   -1.51    4.78
   1  12 -11    5.49    7.29
   1  12 -11   -2.69    1.40
  -1  12  11    9.88    9.36
  -1  12  12    4.06    6.65
  -1  12  12    3.33    0.77
   1  12  12    4.49    3.02
  -1  12 -12    9.34    6.08
  -1  12 -12    7.01    4.50
   1  12 -12   10.55    9.59
   1  12  12    2.25    5.04
  -1  12  13  110.29   21.78
  -1  12 -13  110.11   19.58
  -1  12  13   65.87   17.25
   1  12 -13  103.01   20.67
  -1  12 -13   87.33   19.53
   1  12  13  107.73   21.10
   1  12  13   58.52   17.00
   1  12  14    3.69    2.80
  -1  12  14   -0.30    3.45
  -1  12 -14   -3.24    4.42
   1  12  14    5.34    8.44
   1  12 -14    4.71    6.97
  -1  12  14    7.40    2.56
  -1  12 -15    0.16    1.98
  -1  12  15   -2.04    3.99
   1  12  15    2.29    6.05
   1  12 -15   -2.32    4.04
   1  12  15    5.62    7.17
  -1  12  15   -0.03    3.49
   1  12  16   44.07   14.68
  -1  12 -16   47.75   12.99
   1  12 -16   31.56    9.92
  -1  12  16   43.11   13.80
   1  12  16   41.70   14.36
  -1  12  16   43.72   14.39
  -1 -12  16   21.90   10.21
  -1  12  17    8.38    7.24
  -1  12  17   12.20    7.30
  -1  12 -17   -0.27    6.39
   1  12  17   14.96    8.42
  -1 -12  17    7.80    5.77
   1  12 -17    5.00    3.99
   1  12  17   14.40   10.13
  -1  12  18    8.32    4.51
   1  12  18   -7.97    4.05
  -1  12 -18    0.38    4.86
   1  12 -18   10.93    9.57
   1  12  18   18.81   10.65
  -1 -12  18    7.62    6.55
  -1  12  18    8.56    8.89
  -1  12  19   28.95   14.43
  -1  12 -19   46.09   15.09
   1  12  19   10.48   10.67
  -1  12  19   35.40   13.93
   1  12 -19   18.61    8.16
   1  12  19   74.99   18.69
  -1 -12  19   35.81   13.00
   1 -12  19   47.17   15.32
   1  12  20   -4.51    7.05
  -1  12  20   -4.43    5.09
  -1  12  20   -1.55    3.43
  -1  12 -20    5.05    8.96
   1  12 -20   -0.31    3.80
   1 -12  20   -2.86    4.54
  -1 -12  20   11.11    9.46
  -1  12  21    2.62    5.74
   1  12  21    1.00    1.75
  -1  12  21    1.81    4.60
  -1  12 -21    0.06    5.27
   1  12 -21   -3.35    3.36
   1 -12  21    0.89    7.23
  -1 -12  21    0.65    0.96
   1  12  22   14.82   10.89
  -1  12  22    0.07    0.98
  -1  12  22    3.46    4.72
  -1  12 -22    0.49    4.84
   1 -12  22    8.56    5.60
  -1 -12  22    1.23    4.67
   1  12 -22    4.99    6.07
   1  13   0    9.14    7.99
   1  13   0   12.71    9.78
  -1  13   0   -0.90    5.53
  -1  13   0   12.62   10.64
   1  13   1   34.67   12.99
   1  13   1   16.39    9.24
   1  13  -1   12.03    2.63
  -1  13   1   26.48    8.63
  -1  13   1   26.42   11.57
   1  13  -1   42.49   15.06
  -1  13  -1   45.84   12.77
  -1  13  -1   29.54   12.50
  -1  13   2   16.00    8.72
  -1  13   2   16.07    8.04
   1  13   2   12.01    7.17
   1  13  -2    1.32    4.71
  -1  13  -2   16.10    8.29
   1  13   2   12.48    5.88
  -1  13  -2   11.14    5.56
   1  13  -2   15.85    8.20
  -1  13  -3   17.33    9.42
  -1  13   3   16.01    8.10
  -1  13  -3   14.18    8.53
   1  13   3    9.98    6.54
   1  13   3   14.76    8.81
   1  13  -3   11.10    4.76
  -1  13   3   32.58   12.02
   1  13  -3   22.48    7.88
  -1  13   4   33.70   12.73
  -1  13   4   26.46   11.96
   1  13  -4   25.44    8.91
  -1  13  -4   19.77    8.90
   1  13   4   26.60   10.30
   1  13  -4   27.16   12.26
   1  13   4   21.19   10.17
  -1  13  -4   34.23    9.74
  -1  13  -5   -1.18    3.14
   1  13   5   -0.09    3.34
  -1  13  -5   -1.05    5.88
   1  13  -5   -4.00    6.37
   1  13  -5   -2.23    2.44
   1  13   5   -0.94    2.69
  -1  13   5    0.38    0.53
  -1  13   5   -6.37    6.42
  -1  13   6    3.71    7.70
   1  13  -6    0.48    2.75
   1  13  -6   -1.32    2.26
  -1  13  -6    2.37    0.75
   1  13   6   -4.97    7.32
   1  13   6   -4.83    5.07
  -1  13   6    0.66    3.62
  -1  13  -6   -7.19    7.44
   1  13  -7    2.16    6.41
  -1  13  -7   -0.71    0.81
   1  13   7    5.37    5.74
  -1  13   7    1.57    2.34
   1  13  -7    8.22    7.53
  -1  13  -7    8.27    9.69
   1  13   7   18.70   12.49
  -1  13   7    7.85    8.26
  -1  13  -8   -1.53    4.38
  -1  13   8    3.12    5.46
   1  13  -8    2.25    3.85
   1  13  -8   19.55   11.22
  -1  13  -8    8.69    6.34
   1  13   8   -0.42    5.98
  -1  13   8   -0.50    3.98
   1  13   8    6.66    4.66
  -1  13  -9   40.64   12.45
   1  13   9   37.16   13.66
  -1  13  -9   37.91   13.30
   1  13  -9   41.81   14.26
  -1  13   9   51.94   15.68
   1  13  -9   58.17   14.79
   1  13   9   38.21   12.33
  -1  13   9   61.55   16.98
   1  13  10    2.57    2.18
  -1  13  10    8.26    6.30
  -1  13 -10   -1.99    5.70
   1  13 -10    6.61    6.19
   1  13  10   -3.03    3.91
   1  13 -10   10.83    7.33
  -1  13  10   -3.70    5.02
  -1  13 -10    7.77    4.00
   1  13  11   -0.27    1.59
  -1  13  11   -1.15   12.51
  -1  13 -11   -2.27    4.71
   1  13 -11    2.79    5.29
  -1  13  11    1.63    6.30
   1  13  11    1.10    1.84
   1  13 -11    0.69    3.30
  -1  13 -11    5.66    7.67
  -1  13  12    4.74    0.94
   1  13  12   18.82    7.92
  -1  13 -12    3.95    6.69
   1  13 -12    1.85    2.98
   1  13 -12   11.63    8.65
  -1  13 -12    5.83    5.25
   1  13  12    7.21    3.76
  -1  13  13    2.82    7.47
  -1  13 -13    0.68    5.28
   1  13 -13   -1.93    7.67
  -1  13  13    8.10    5.52
   1  13 -13   -3.69    2.26
   1  13  13   -1.35    3.61
  -1  13 -13    3.61    6.51
   1  13  13   -0.03    4.54
  -1  13  14   15.39    6.73
  -1  13 -14   18.64   11.14
  -1  13  14    5.38    2.11
  -1  13 -14    9.10    8.82
   1  13 -14    6.26    4.59
   1  13  14   19.58   10.63
   1  13  14   12.93    8.35
   1  13  15   44.41   12.87
   1  13  15   75.31   20.94
  -1  13  15   37.23   14.63
  -1  13 -15   61.46   16.19
  -1  13  15   31.37   10.64
  -1  13 -15   19.25   10.93
   1  13 -15   54.44   15.40
   1  13  16   13.76    9.77
  -1  13  16   -9.19   11.41
  -1  13  16    7.67    4.28
  -1  13 -16    5.83    7.04
   1  13 -16    0.09    5.37
  -1  13 -16    6.03    5.35
   1  13  17   11.42    7.48
  -1  13  17    5.13    9.53
  -1  13 -17   -2.20    1.84
   1  13 -17    2.29    3.80
  -1  13  17   17.64   12.12
  -1  13 -18    8.44    5.04
   1  13 -18   19.95   10.38
   1  13  18   11.54   10.34
  -1  13  18   15.65   10.87
  -1  13  18    2.87    5.88
  -1  13  19    9.13    9.31
  -1  13  19    2.76    2.10
   1  13  19    6.22    6.87
  -1  13 -19    3.47    5.70
   1  13 -19   -6.91    6.94
   1  13  20    0.17    6.27
   1  13 -20   -1.33    7.70
  -1 -13  20   -5.16    7.98
  -1  13 -20    0.12    4.79
  -1  13  20    1.76    0.98
  -1  13  20    5.03    1.93
   1  14   0   -4.79    3.70
   1  14   0    0.37    7.96
  -1  14   0    5.01    7.83
  -1  14   0   -1.62    2.82
   1  14   1   14.24    9.18
  -1  14   1   10.67    6.45
  -1  14   1    1.79    5.80
  -1  14  -1    9.66    5.60
   1  14  -1   12.92    9.22
   1  14  -1   14.21    6.95
  -1  14  -1    9.20    4.07
   1  14   1    5.80    6.91
  -1  14   2   18.45    8.77
  -1  14  -2   14.72    5.87
   1  14   2   24.96   10.22
  -1  14   2   14.67    6.75
   1  14  -2   22.93   10.55
   1  14   2   22.21    9.33
   1  14  -2   18.17   11.45
  -1  14  -2   25.80   11.61
   1  14  -3   13.76    6.87
  -1  14  -3   11.58    5.53
  -1  14   3   20.17    7.72
   1  14  -3    9.88    9.05
  -1  14  -3   20.41    8.29
  -1  14   3   15.15    7.71
   1  14   3   11.54    8.17
   1  14   3   20.05   10.71
   1  14  -4    1.26    4.58
  -1  14  -4   -2.78    6.38
   1  14   4    0.35    3.66
  -1  14   4   -1.03    3.88
  -1  14   4   -2.76    2.70
   1  14  -4   -2.37    1.17
  -1  14  -4   -5.07    6.91
   1  14   4    8.35    2.27
   1  14   5   21.44   11.75
  -1  14   5   24.07    8.59
  -1  14  -5   30.61   11.42
  -1  14  -5   31.53   12.54
  -1  14   5   28.82    9.24
   1  14  -5   28.84   11.03
   1  14   5   37.57   12.72
  -1  14   6   78.66   18.23
   1  14   6   55.60   17.77
   1  14  -6   46.49   12.87
   1  14  -6   71.26   18.43
  -1  14  -6   75.39   19.34
  -1  14  -6   16.92    9.99
   1  14   6   64.83   17.31
  -1  14   6   69.57   15.89
  -1  14   7    5.27    3.83
   1  14   7   12.09   10.95
  -1  14  -7   -0.46    5.39
  -1  14   7    6.03    6.04
  -1  14  -7   -3.12    7.78
   1  14   7    1.15    4.71
   1  14  -7   -2.06    4.47
   1  14  -7    1.03    5.52
   1  14   8   13.92    6.86
  -1  14  -8    1.61    8.45
  -1  14  -8    1.07    5.45
   1  14  -8    9.98    9.09
  -1  14   8    4.35    6.73
   1  14  -8    0.41    4.69
  -1  14   8   -0.23    3.21
   1  14   8   -3.05    5.24
   1  14  -9    5.17    4.56
   1  14   9   25.31   12.39
  -1  14   9   19.61    7.99
   1  14  -9   -6.93    8.69
  -1  14   9   13.90    9.60
  -1  14  -9    3.28    5.38
  -1  14  -9   17.29    9.63
   1  14   9   14.34    8.44
  -1  14 -10   33.86   12.51
   1  14  10   47.95   14.24
  -1  14  10   18.76   10.91
   1  14 -10   28.26   12.40
   1  14 -10   28.16   10.87
  -1  14  10   36.14   11.84
  -1  14 -10   39.82   13.19
   1  14  10   43.49   16.02
   1  14 -11   -5.62    6.84
   1  14  11    7.32    8.81
  -1  14  11    3.11    3.82
   1  14 -11    1.95    6.12
  -1  14 -11    8.57    6.03
  -1  14  11    1.19    3.95
  -1  14 -11    6.28    6.39
  -1  14  12   11.59    5.76
  -1  14  12    8.64    6.98
   1  14 -12   15.77    6.30
  -1  14 -12   -1.68    5.60
   1  14  12   10.63    8.08
  -1  14 -12    5.07    4.42
   1  14 -12   12.37    5.29
   1  14 -13   16.23    9.40
  -1  14  13    8.88    7.54
   1  14  13   14.39    8.39
  -1  14  13   15.77    7.60
  -1  14 -13    8.51    9.59
   1  14 -13   15.11    8.02
  -1  14 -13   13.69    5.88
   1  14  14    6.02    9.72
  -1  14 -14    6.59    2.10
  -1  14  14    0.43    4.49
   1  14 -14    6.17    4.38
   1  14 -14   13.55    8.85
  -1  14  14    9.02    5.89
  -1  14 -14    2.67    4.99
  -1  14  15   46.65   15.16
  -1  14  15   33.28   13.03
  -1  14 -15   29.11   12.05
   1  14 -15   16.02    7.89
  -1  14 -15   29.59   11.07
   1  14  15   47.11   13.25
   1  14 -15   26.30    8.16
  -1  14  16   10.52    5.32
  -1  14 -16   32.89   12.47
  -1  14  16   15.51    6.91
   1  14  16   35.27    6.83
   1  14 -16   32.01   13.74
   1  14 -16    8.76    4.11
  -1  14 -16   19.86   10.23
  -1  14 -17   13.38    8.93
   1  14  17   12.99    4.65
  -1  14  17   10.15    5.03
   1  14 -17   24.52   10.10
  -1  14 -17    5.91    3.23
  -1  14  17   21.49    8.70
   1  14 -17   11.32    7.52
   1  15   0   -4.59    8.99
  -1  15   0    9.16    7.07
  -1  15   0    4.53    7.30
   1  15   0    2.25    5.71
  -1  15  -1    8.66    5.60
   1  15   1    0.83    3.64
   1  15   1    6.77   10.08
  -1  15   1   -1.49    7.09
   1  15  -1   -1.61    2.47
  -1  15  -1    2.43    1.25
  -1  15   1    8.80    9.43
   1  15  -1   15.10   10.77
   1  15   2    9.96    6.20
   1  15   2   19.95    8.59
  -1  15   2    2.87    3.18
   1  15  -2   39.22   13.17
  -1  15  -2   30.12   12.47
   1  15  -2   35.54   12.07
  -1  15   2   26.74   11.13
  -1  15  -2   25.17   11.13
   1  15  -3   20.27    9.86
  -1  15   3    9.61    5.25
   1  15  -3   15.08   11.00
  -1  15  -3    5.10    6.13
  -1  15   3   17.02    8.97
  -1  15  -3   22.12   11.06
   1  15   3   10.06    6.50
   1  15   3    9.04    8.00
  -1  15   4    3.42    6.42
  -1  15   4   -2.89    5.15
  -1  15  -4    5.13    7.17
   1  15  -4    1.76    4.37
  -1  15  -4    9.23    8.54
   1  15  -4    9.96    6.89
   1  15   4    2.58    1.94
   1  15   4    3.31    3.19
   1  15  -5    3.09    4.72
   1  15  -5   -4.36    7.08
   1  15   5    7.56    9.42
  -1  15   5    2.53    6.61
  -1  15   5    2.55    7.72
  -1  15  -5   -0.06    2.77
  -1  15  -5    5.61    6.55
   1  15   5    1.85    5.67
  -1  15  -6    9.26    7.28
   1  15   6   44.57   18.92
   1  15  -6   32.24   12.51
   1  15  -6   10.94    7.03
  -1  15   6   11.94    7.37
  -1  15  -6   19.47    9.56
   1  15   6    9.14    7.81
  -1  15   6   14.92    8.61
  -1  15   7   21.74   11.33
  -1  15   7   13.08    7.63
  -1  15  -7   10.33    3.86
  -1  15  -7   22.15   11.22
   1  15  -7   11.15    8.01
   1  15   7   15.32    8.53
   1  15   7  -11.98    7.28
   1  15  -7    6.30    9.46
   1  15   8   18.37    6.86
  -1  15   8   26.42    4.86
   1  15  -8   16.46    9.02
  -1  15  -8   23.40   13.65
  -1  15  -8    9.17    6.15
  -1  15   8   34.38   12.05
   1  15  -8   20.60    9.83
  -1  15   9   10.00    3.73
  -1  15  -9   13.33    7.28
   1  15  -9    3.61    9.18
  -1  15  -9    3.57    6.90
   1  15  -9    4.98    1.47
  -1  15   9    1.00    5.99
   1  15   9   11.91    8.38
  -1  15 -10   25.80   11.84
   1  15  10   25.60    9.44
  -1  15  10   41.44   14.61
   1  15 -10   42.20   15.25
  -1  15 -10   27.99   14.35
  -1  15  10   24.66   10.39
   1  15 -10   15.07    7.85
   1  15  11   12.42   13.29
   1  15 -11    6.11    8.11
  -1  15 -11   -2.71    6.00
  -1  15  11   -7.49    9.55
   1  15 -11   -6.60    8.22
  -1  15  11    2.48    4.74
  -1  15 -11    1.35    3.54
  -1  15 -12    8.92    7.29
   1  15 -12   13.04    5.24
   1  15 -12    7.54    6.52
  -1  15 -12   -5.09    6.07
  -1  15  12   11.20    9.61
   1  15  12   11.44    4.23
  -1  15  12    4.70    4.09
  -1  15  13    4.79    6.08
  -1  15 -13    0.03    2.15
  -1  15  13   11.65    7.37
   1  15 -13    0.31    4.11
  -1  15 -13    3.70    7.99
   1  15 -13    7.26    0.74
   1  15  13    8.92    6.07
  -1  15  14    2.56    4.36
   1  15  14   -2.71    4.45
  -1  15 -14   -1.92    4.94
  -1  15  14   16.19   11.49
  -1  15 -14    6.45    7.56
   1  15 -14   -1.73    8.30
   1  15 -14    7.26   10.42
  -1  16   0  -10.51   10.63
  -1  16   0    1.16    2.67
   1  16   0    3.12    8.67
   1  16   0    3.23    9.01
  -1  16   1    5.23    3.58
  -1  16  -1    2.49    4.50
   1  16  -1    5.76    6.13
   1  16  -1    6.77    6.37
  -1  16  -1   -2.86    2.40
   1  16   1   -4.57    7.20
   1  16   1    1.76    6.78
  -1  16   1    1.54    4.72
  -1  16   2   93.85   20.77
  -1  16   2   44.45   14.80
   1  16  -2   84.65   20.04
  -1  16  -2   59.53   18.21
   1  16   2   42.56   12.35
   1  16  -2   44.06   12.39
  -1  16  -2   84.42   19.25
   1  16  -3    0.12    9.76
  -1  16   3   -5.04    3.94
  -1  16  -3   11.39    4.28
  -1  16   3    4.60    3.92
   1  16   3   13.85   12.25
   1  16  -3    3.64    6.58
  -1  16  -3   -1.33    4.65
   1  16  -4    1.27    5.89
   1  16   4    0.93    1.89
  -1  16   4   -2.47    4.69
   1  16  -4   -4.18    3.23
  -1  16  -4   -1.81    5.58
  -1  16   4   -3.27    6.43
  -1  16  -4   -1.06    6.33
  -1  16  -5   19.42   10.23
   1  16   5   11.36    7.85
   1  16  -5   -3.76    6.61
  -1  16  -5   19.88   12.44
  -1  16   5   10.34    6.21
  -1  16   5   31.09    9.98
   1  16  -5    2.40    3.12
  -1  16  -6    2.74    7.27
   1  16  -6    6.96    4.79
   1  16   6   -0.68    6.84
  -1  16   6   13.69   12.17
  -1  16   6   -0.22    5.13
   1  16  -6    5.39    4.57
  -1  16  -6   -0.07    5.42
   1  16  -7    5.84    8.13
  -1  16  -7    0.31    2.11
   1  16  -7   -2.71    3.69
  -1  16  -7    4.86    9.52
  -1  16   7   14.50    9.28
  -1  16   7    6.67    5.75
   1  16   7    5.39    6.91
   1  16  -8   19.29   12.10
   1  16   8    3.04    6.30
  -1  16   8   17.66   10.85
  -1  16   8   19.97   12.06
  -1  16  -8   19.43    9.81
   1  16  -8    3.00    8.45
  -1  16  -8    4.67    8.09
  -1  16  -9    3.40    6.21
   1  16   9    6.98    8.22
  -1  16   9   24.47   13.05
  -1  16  -9   -1.01    6.09
   1  16  -9    0.56    9.16
  -1  16   9    2.21    5.87
   1  16  -9   -5.64    8.72
  -2   0   0  762.29   16.86
   2   0   0 1032.69   28.70
   2   0   1    0.43    2.30
  -2   0  -1    0.36    0.57
  -2   0   1    0.55    0.74
   2   0  -1    0.09    1.22
   2   0   2 5421.00   68.41
  -2   0   2 5927.16   59.80
  -2   0   3    0.51    0.61
   2   0   3   -0.32    2.25
   2   0   3    0.04    0.52
   2   0   4 3324.46   45.48
   2   0   4 3658.85   61.60
  -2   0   5   -0.78    1.71
   2   0   5   -1.05    1.92
   2   0   5    1.12    1.10
   2   0   6  540.75   22.61
  -2   0   6  526.09   25.02
   2   0   7    2.01    1.12
   2   0   7    0.44    1.14
  -2   0   7    0.62    2.18
   2   0   8 1811.72   55.58
   2   0   8 2380.92   56.12
   2   0   9    4.24    2.41
   2   0   9    0.64    1.83
  -2   0   9    1.57    3.39
  -2   0  10 5389.44  103.18
   2   0  10 5184.75   92.59
   2   0  11   -0.18    2.01
  -2   0  11    2.97    4.11
   2   0  11   -0.92    1.88
  -2   0  11    0.40    3.28
  -2   0  12 1117.16   52.59
   2   0  12 1035.59   46.25
  -2   0  12 1101.00   49.72
   2   0  12  980.02   44.73
   2   0  13    2.50    4.75
  -2   0  13    3.09    3.17
  -2   0  13    2.16    2.50
   2   0  13    1.39    1.29
   2   0  14 1350.29   57.40
  -2   0  14 1332.30   59.94
  -2   0  14 1423.38   58.40
   2   0  14 1344.54   56.44
   2   0  15   -0.57    2.53
   2   0  15   -2.03    4.89
  -2   0  15   -2.63    1.47
  -2   0  15    3.75    4.96
   2   0  16   86.87   15.57
   2   0  16   60.99   12.42
  -2   0  16   88.79   15.05
   2   0  17   -3.57    4.00
   2   0  17    4.92    5.26
  -2   0  17   -2.92    4.30
  -2   0  17    0.27    3.51
   2   0  18  151.05   21.40
   2   0  18  180.11   23.33
  -2   0  18  120.45   19.34
  -2   0  19   -1.96    2.49
  -2   0  19   -3.24    2.21
   2   0  19   -0.66    1.47
   2   0  19   -3.99    6.21
  -2   0  20   45.00   13.42
  -2   0  20   30.52   13.20
   2   0  20   53.89   12.54
   2   0  20   27.20    8.55
  -2   0  21    0.41    3.38
   2   0  21    2.84    8.39
   2   0  21   -0.48    3.13
  -2   0  21   -2.61    4.48
   2   0  22   -0.84    5.11
  -2   0  22    0.85    7.91
  -2   0  22    4.57    2.15
   2   0  22    2.56    3.58
   2   0  23   -0.55    7.07
  -2   0  23   -0.63    3.58
  -2   0  23   -2.30    5.26
   2   0  23    0.21    5.10
   2   0  24   24.46   10.87
  -2   0  24    9.98    8.38
   2   0  24   10.26   10.24
  -2   0  24    7.23    4.84
   2   0  25   -5.10    8.29
  -2   0  25    6.95    3.50
  -2   0  25    3.89    2.78
   2   0  25   -1.86    5.88
  -2   0  26   48.45   13.80
   2   0  26   44.22   13.66
   2   0  26   45.70   15.11
  -2   0  26   31.00   12.87
   2   0  27    4.65    7.07
  -2   0  27   -3.57    4.93
   2   0  27    5.19    6.94
  -2   0  27   -0.15    1.82
   2   0  28    2.85    3.48
   2   0  28   -4.40    5.31
  -2   0  28   -1.40    5.87
  -2   0  28    0.62    5.61
   2   0  29    2.57    1.96
   2   0  29   -0.66    3.64
  -2   0  29   -4.43    7.21
  -2   0  29   -6.99    8.04
   2   0  30    3.70    3.91
  -2   0  30   -1.88    6.56
   2   0  30   -1.51    3.67
  -2   0  30    5.86    4.00
   2   0  31   -0.53    4.49
  -2   0  31    4.59    3.72
   2   0  31    2.28    7.26
  -2   0  31    1.12    4.62
   2   0  32   47.94   14.58
  -2   0  32   39.24   14.45
   2   0  32   43.75   15.25
  -2   0  32   43.15   13.49
  -2   1   0 8443.96   74.72
   2  -1   0 8454.34   94.83
   2  -1   1 5480.63   76.59
   2  -1  -1 6576.97   78.65
  -2   1   1 6289.33   65.72
  -2   1  -1 5978.78   64.37
   2   1   1 5952.19   62.85
   2   1   2   59.00    6.21
   2  -1   2   58.44    7.46
   2   1   2   67.32    6.49
  -2   1   2   53.84    3.88
  -2   1   2   49.54    6.28
   2   1   3 3037.52   51.44
   2   1  -3 3707.17   45.44
   2  -1   3 3214.83   56.03
  -2   1   3 3255.12   54.69
  -2   1   3 3220.53   37.83
   2  -1   3 2371.54   42.00
   2   1   3 3862.31   54.30
   2   1   3 2940.57   32.61
  -2  -1   3 2958.88   48.42
  -2  -1   4 2277.92   46.68
   2   1  -4 2754.65   43.53
   2  -1   4 3299.89   59.96
  -2   1   4 2891.84   54.51
   2   1   4 2864.59   53.81
   2   1   4 2966.12   39.88
   2   1   4 3701.26   60.05
   2  -1   4 2821.63   49.46
  -2   1   4 2442.88   39.53
   2   1   5   25.57    5.66
  -2   1   5    7.92    3.10
   2  -1   5   14.53    4.12
   2   1   5   12.75    4.16
   2  -1   5   18.43    4.31
   2   1   5   10.58    3.45
  -2  -1   5   15.76    4.11
   2  -1   6    9.10    2.65
   2  -1   6   18.20    5.12
   2   1   6    9.15    2.84
  -2   1   6    8.04    3.54
  -2  -1   6   15.15    4.26
   2   1   6    9.88    3.47
   2   1   7  140.70   12.33
  -2   1   7  107.68   13.24
  -2  -1   7  134.86   13.69
   2  -1   7  123.84   12.43
   2  -1   7  115.51   13.23
  -2   1   8 1300.71   45.66
   2   1   8 1134.83   38.36
   2  -1   8 1333.54   43.74
   2  -1   8 1264.59   45.35
   2   1   8 1454.33   47.37
  -2  -1   9    0.82    1.99
   2   1   9   10.25    3.59
   2  -1   9    7.02    4.05
  -2  -1   9    3.89    3.36
  -2   1   9    3.09    2.37
   2   1   9    5.77    3.14
   2  -1  10  673.27   33.63
   2   1  10  612.93   31.59
  -2  -1  10  599.94   33.60
  -2   1  10  599.44   33.73
   2   1  10  608.76   34.11
   2  -1  10  705.69   37.45
  -2  -1  10  747.01   36.57
   2  -1  11   -1.54    2.49
  -2  -1  11    1.91    1.37
   2   1  11    2.31    4.00
   2   1  11   -1.30    3.45
  -2  -1  11   -0.64    1.89
   2  -1  11   -1.72    3.60
  -2   1  11    3.57    4.47
   2  -1  12 1832.11   60.71
  -2   1  12 1743.07   64.04
   2  -1  12 1535.04   59.74
   2   1  12 1496.51   58.53
   2   1  12 1733.99   59.31
  -2  -1  12 1778.60   63.31
  -2   1  12 1998.03   66.85
  -2  -1  12 1718.61   59.61
  -2   1  13    1.01    0.76
   2   1  13    2.07    2.91
  -2  -1  13    1.42    2.12
  -2  -1  13    2.90    2.61
   2  -1  13   -1.58    2.46
   2   1  13    4.48    5.14
   2  -1  13    1.47    2.02
  -2   1  13    0.76    1.60
  -2   1  14  956.84   50.21
   2   1  14  935.06   47.09
   2  -1  14  759.97   44.92
   2   1  14  831.18   47.23
  -2  -1  14 1058.75   53.63
  -2  -1  14 1024.21   48.54
   2  -1  14  841.24   44.95
  -2   1  14 1069.92   53.98
  -2   1  15  430.70   33.18
   2   1  15  406.40   32.40
  -2   1  15  425.88   34.86
   2  -1  15  456.07   35.11
   2   1  15  316.29   30.00
   2  -1  15  403.60   31.89
  -2  -1  15  457.88   36.23
  -2   1  16   95.87   18.39
   2   1  16   80.39   15.04
  -2  -1  16   95.33   16.86
   2   1  16   99.14   18.26
   2  -1  16   77.17   14.17
   2  -1  16   89.77   15.91
  -2  -1  16   73.53   14.37
  -2   1  16   72.93   13.84
   2   1  17   56.65   12.52
  -2  -1  17   41.31   13.20
  -2   1  17   49.40   12.66
   2  -1  17   54.59   12.39
   2  -1  17   52.87   12.71
  -2   1  17   58.44   13.50
  -2  -1  17   57.85   13.34
   2   1  17   45.76   12.71
   2   1  18 1166.82   60.18
   2  -1  18 1187.48   59.62
  -2  -1  18 1065.59   58.53
  -2   1  18 1025.58   58.75
  -2  -1  18  921.09   53.34
   2   1  18 1100.03   59.06
   2  -1  18 1212.24   61.55
  -2   1  18  880.44   52.15
   2  -1  19    2.80    3.99
   2   1  19    3.17    2.54
  -2  -1  19    6.54    5.70
   2   1  19    6.47    5.72
  -2   1  19    8.76    7.66
  -2   1  19    7.44    7.21
   2  -1  19   -2.51    5.27
  -2  -1  19   -7.15    5.46
  -2  -1  20   78.42   17.07
  -2   1  20   78.46   15.68
  -2  -1  20   53.74   13.44
   2   1  20   67.52   15.09
   2   1  20   72.33   16.99
   2  -1  20   81.82   16.35
   2  -1  20   91.39   17.34
  -2   1  20   91.35   18.43
   2  -1  21   50.75   13.44
   2   1  21   57.19   14.68
  -2  -1  21   59.75   15.13
  -2   1  21   46.76   13.31
  -2   1  21   42.94   11.62
   2  -1  21   86.54   18.15
   2   1  21   44.35   12.78
  -2  -1  21   30.83   10.65
  -2  -1  22  161.48   24.42
   2   1  22  238.53   30.24
  -2  -1  22  216.14   27.50
   2  -1  22  177.53   27.31
  -2   1  22  180.67   25.60
   2   1  22  188.41   26.29
  -2   1  22  211.95   27.76
   2  -1  22  166.87   24.11
   2  -1  23   42.19   12.67
   2   1  23   17.99    8.08
  -2   1  23   59.31   16.84
  -2  -1  23   47.01   13.04
  -2  -1  23   31.66   11.92
   2  -1  23   22.88    9.85
  -2   1  23   10.91    3.83
   2   1  23   41.45   12.91
   2   1  24    6.56    3.71
  -2  -1  24   25.28   10.36
  -2  -1  24   26.79   11.25
   2   1  24   18.31    7.18
  -2   1  24   10.54    6.59
   2  -1  24   14.08    9.50
   2  -1  24   20.84   11.39
  -2   1  24   14.41    8.49
  -2   1  25  146.70   25.25
   2   1  25   91.32   19.26
   2  -1  25   88.57   19.50
  -2   1  25   72.06   17.26
  -2  -1  25   99.44   20.65
  -2  -1  25  117.87   21.50
   2  -1  25  111.83   22.50
   2   1  25   79.36   18.60
   2  -1  26  195.95   28.72
  -2   1  26  243.04   31.85
  -2   1  26  216.22   30.63
   2  -1  26  170.84   28.10
   2   1  26  194.85   27.26
  -2  -1  26  284.81   34.57
  -2  -1  26  220.86   29.93
   2   1  26  216.01   30.96
  -2  -1  27   20.03    9.69
   2   1  27   17.04    8.22
  -2   1  27   14.39    7.22
  -2   1  27   30.56   10.52
   2  -1  27   18.43    9.22
   2   1  27   34.66   13.81
   2  -1  27   22.66   10.31
  -2  -1  27   25.88    9.73
  -2  -1  28  206.74   30.36
  -2   1  28  185.47   30.29
   2   1  28  184.18   28.25
  -2   1  28  195.80   29.87
  -2  -1  28  177.62   28.37
   2   1  28  200.68   31.23
   2  -1  28  193.20   30.58
   2  -1  28  153.24   25.73
  -2  -1  29   97.07   20.83
  -2   1  29  100.81   22.22
   2  -1  29  120.16   22.12
   2   1  29   96.08   21.67
  -2  -1  29   88.81   20.70
   2  -1  29  109.30   22.38
  -2   1  29  104.62   23.19
   2   1  29  106.66   23.36
  -2   1  30    7.14    7.38
   2  -1  30   -0.59    2.65
  -2   1  30    1.45    1.74
  -2  -1  30    4.68    5.37
   2   1  30    1.00    2.84
   2   1  30   13.09    9.42
  -2  -1  30   10.84    6.79
   2  -1  30    2.66    4.59
   2  -1  31    6.38    1.28
   2   1  31    3.05    6.88
  -2  -1  31   -1.20    6.82
  -2   1  31   -0.52    5.33
   2  -1  31    6.53    5.41
  -2   1  31    5.90    5.97
   2   1  31    2.90   10.11
  -2  -1  31    2.33    5.82
   2   1  32   23.02    8.64
  -2   1  32   53.39   16.95
  -2  -1  32   48.14   14.16
   2  -1  32   60.68   17.82
   2   1  32   56.75   16.80
  -2  -1  32   70.90   17.71
   2  -1  32   65.45   18.46
  -2   1  32   23.99    7.72
   2   2   0 1737.74   38.32
  -2   2   0 1804.15   40.98
  -2  -2   0 1733.55   22.27
   2   2   1  219.75   10.07
   2   2   1  200.98   13.05
  -2   2   1  255.16   15.68
  -2   2   1  135.77    9.09
  -2  -2   1  239.13   10.23
  -2   2  -1  106.73    8.69
   2  -2  -1  396.10   21.35
   2  -2   1  399.35   21.61
   2   2  -1  209.35   12.73
  -2   2  -1  218.46   14.12
  -2  -2   2   -1.24    1.06
   2  -2   2   -0.58    1.34
   2   2   2    1.15    2.64
   2   2   2   -0.47    1.38
   2   2  -2   -0.19    0.52
  -2   2   2   -0.53    1.55
  -2   2  -2   -0.77    1.70
  -2   2  -2   -0.13    1.26
  -2   2   2   -1.34    2.23
   2   2   3 3206.66   34.10
   2   2   3 3898.39   63.34
   2   2  -3 3635.75   56.64
   2  -2   3 3941.08   61.63
  -2   2  -3 4424.58   62.87
  -2   2   3 3880.70   64.57
  -2  -2   3 3791.00   56.79
   2   2   3 4197.57   57.01
   2  -2   3 4841.95   77.44
  -2   2   3 3471.92   50.59
   2  -2   4 2493.07   54.12
   2   2  -4 1973.23   42.95
  -2  -2   4 2724.37   51.28
  -2   2   4 2294.30   52.63
  -2   2   4 2977.11   48.13
   2   2   4 2423.02   35.87
   2  -2   4 2597.17   53.23
   2   2   4 3017.23   56.90
   2  -2   5 1847.89   47.07
   2   2   5 1797.22   47.19
   2  -2   5 1529.92   45.88
   2   2   5 1841.25   43.92
  -2   2   5 1797.05   48.77
   2   2   5 1719.04   34.42
   2   2  -5 1528.64   42.20
  -2  -2   5 2009.26   48.01
  -2   2   5 1833.92   40.94
  -2  -2   6  477.77   25.11
   2  -2   6  529.97   26.29
   2   2  -6  544.29   25.37
   2   2   6  552.36   22.50
   2  -2   6  339.56   21.88
  -2   2   6  478.15   26.39
   2   2   6  281.06   19.01
  -2   2   6  390.44   20.99
  -2  -2   6  424.93   21.05
   2   2   6  494.11   26.07
  -2  -2   7  513.88   27.86
  -2   2   7  605.53   30.41
   2  -2   7  638.38   31.74
   2  -2   7  756.03   33.06
  -2  -2   7  668.24   28.29
   2   2   7  696.12   28.28
  -2   2   7  594.85   27.92
   2   2   7  735.10   34.76
   2   2   8   -1.51    0.62
   2  -2   8    0.29    0.51
  -2   2   8   -1.93    1.52
  -2  -2   8   -2.44    3.02
   2  -2   8   -1.11    2.23
  -2   2   8   -1.21    1.84
   2   2   8    2.24    2.68
   2   2   8   -1.35    2.20
  -2  -2   8   -1.45    0.23
   2   2   9   40.24    8.08
  -2  -2   9   37.28    8.97
  -2   2   9   37.77    8.36
   2  -2   9   43.38    8.63
   2   2   9   39.35    7.83
   2   2   9   51.05    9.65
   2  -2   9   32.41    8.20
  -2  -2   9   36.60    7.75
   2  -2  10    6.09    3.60
  -2   2  10   13.52    4.50
  -2  -2  10   11.40    4.59
   2   2  10   12.74    4.97
  -2  -2  10   18.33    4.49
   2   2  10   21.22    7.27
   2  -2  10   18.49    7.00
  -2  -2  11  572.57   35.55
   2   2  11  542.71   30.82
  -2   2  11  533.40   33.32
   2   2  11  588.58   35.55
   2  -2  11  485.10   31.04
   2  -2  12    9.30    5.43
  -2  -2  12   14.66    5.95
  -2  -2  12    4.16    4.26
   2   2  12    3.08    4.08
   2  -2  12    5.85    3.70
   2   2  12   12.54    4.41
  -2   2  12    5.30    4.32
  -2  -2  13 1596.56   62.46
   2   2  13 1753.78   60.96
  -2   2  13 1916.32   67.44
  -2  -2  13 1566.62   59.36
   2  -2  13 1768.90   64.73
   2  -2  13 1663.64   63.68
   2   2  14    7.03    4.60
   2  -2  14    4.55    4.93
  -2  -2  14    8.40    5.52
  -2   2  14   11.52    6.53
   2  -2  14   18.03    6.76
   2   2  14    8.36    6.05
  -2  -2  14   14.30    6.69
  -2   2  14   13.21    7.55
  -2  -2  15   37.57   10.19
   2   2  15   50.49   11.24
  -2   2  15   34.82    9.69
   2  -2  15   36.81    8.96
   2   2  15   16.53    7.92
  -2   2  15   30.74   10.68
   2  -2  15   42.10    8.71
  -2  -2  15   36.17    8.98
  -2  -2  16   75.89   14.35
   2   2  16  109.93   17.41
   2   2  16   84.38   16.25
  -2  -2  16   79.35   15.50
   2  -2  16   88.52   16.46
   2  -2  16   84.82   15.39
  -2   2  16   94.40   16.20
  -2   2  16   61.97   12.34
   2  -2  17    5.24    4.14
   2   2  17   -1.47    1.90
  -2   2  17    0.93    4.65
   2   2  17   -0.24    4.43
  -2   2  17   -2.76    4.04
  -2  -2  17   -1.51    3.33
   2  -2  17    0.36    1.31
  -2  -2  17    4.02    4.32
   2   2  18   37.04   10.64
   2  -2  18   45.12   11.81
  -2  -2  18   39.65   11.63
  -2  -2  18   40.77   11.81
   2  -2  18   40.38    9.43
  -2   2  18   45.29   12.36
   2   2  18   59.07   15.30
  -2   2  18   19.11    8.05
   2   2  19   66.68   15.32
   2   2  19   55.71   13.40
   2  -2  19   55.96   13.32
  -2   2  19   75.84   16.18
  -2  -2  19   58.44   13.67
   2  -2  19   53.44   13.46
  -2  -2  19   44.78   11.74
  -2   2  19   56.94   14.95
   2  -2  20   -2.96    5.74
  -2  -2  20    0.11    2.42
   2   2  20   -2.99    6.07
  -2   2  20   -1.37    3.28
   2   2  20    0.78    4.52
   2  -2  20    2.40    3.57
  -2  -2  20    1.14    7.59
  -2   2  20    6.59    5.59
  -2   2  21  108.10   20.23
  -2   2  21  103.33   20.36
   2  -2  21   76.86   16.64
  -2  -2  21   78.77   16.81
   2   2  21  118.28   20.23
   2   2  21  117.43   21.47
   2  -2  21   73.84   15.18
  -2  -2  21   94.68   19.22
   2  -2  22   51.60   14.64
  -2  -2  22   57.70   14.01
   2   2  22   47.96   14.10
   2   2  22   46.18   13.15
  -2   2  22   45.98   13.14
  -2  -2  22   51.67   14.57
  -2   2  22   27.21   10.47
   2  -2  22   36.40   10.96
  -2  -2  23    6.60    7.85
   2  -2  23    2.82    5.04
   2   2  23    0.58    2.87
   2   2  23    5.66    8.87
   2  -2  23    0.95    5.50
  -2   2  23    2.00    1.25
  -2   2  23    3.41    5.13
  -2  -2  23   13.09    7.29
   2  -2  24    1.31    5.03
  -2   2  24   -2.78    6.84
   2  -2  24   12.09    6.32
   2   2  24   -3.51    2.64
  -2   2  24    3.24    6.26
  -2  -2  24    7.75    7.81
   2   2  24   -3.39    1.57
   2  -2  25    4.33    8.04
  -2  -2  25   -1.66    4.47
   2  -2  25    2.61    6.39
   2   2  25   -4.41    3.36
   2   2  25   -1.69    2.59
  -2   2  25    2.42    3.87
  -2  -2  25   -1.71    5.45
  -2   2  25   15.14   11.04
   2   2  26    1.39    1.32
  -2   2  26    8.04    2.50
   2  -2  26    3.87    4.08
  -2  -2  26   15.02    7.56
   2   2  26   13.55    9.39
  -2   2  26    0.53    5.21
   2  -2  26   -1.15    3.96
  -2  -2  26   11.04    7.09
  -2  -2  27   15.95    4.94
   2   2  27   25.01   12.38
  -2   2  27   23.01   10.62
   2  -2  27   28.99    9.19
   2   2  27   30.95   11.96
  -2  -2  27   27.98   11.87
   2  -2  27   13.55    8.96
  -2   2  27   11.73    5.05
  -2  -2  28   10.43    8.34
   2   2  28   10.29    4.85
  -2   2  28   15.66    9.68
   2  -2  28    6.10    7.44
   2  -2  28    4.23    7.22
   2   2  28    4.11    1.75
  -2   2  28   11.55    9.95
  -2  -2  28   -5.36    7.61
   2  -2  29   36.45   13.53
  -2   2  29   26.62   13.24
  -2  -2  29   54.71   14.65
  -2  -2  29    9.64    3.47
   2  -2  29   38.05   14.04
   2   2  29   29.44   12.75
  -2   2  29   18.59    8.85
   2   2  29   23.86    7.75
   2  -2  30    6.64    5.87
  -2   2  30    0.07    1.81
   2  -2  30   10.10    7.22
   2   2  30    3.59    3.87
  -2  -2  30    3.32    7.42
  -2  -2  30   -1.21    6.09
   2   2  30    7.06    8.05
  -2   2  30   10.97    8.51
  -2  -2  31   10.29    8.02
   2  -2  31   20.93   10.40
  -2   2  31    1.10    3.44
   2  -2  31    6.92    5.24
  -2  -2  31   24.22    5.82
   2   2  31    7.15    6.77
  -2   2  31    1.01    5.00
   2   2  31   24.09   11.86
   2   2  32   -2.31    6.61
   2   2  32   -5.06    7.60
  -2  -2  32   -0.03    2.69
  -2  -2  32   -5.57    7.18
   2  -2  32    3.02    2.90
   2  -2  32    1.48    3.55
  -2   2  32   21.93   11.75
  -2   2  32    3.61    7.89
   2   3   0 1090.31   36.25
  -2   3   0 1325.14   34.18
   2  -3   0  970.13   40.53
  -2   3   0 1212.47   38.74
  -2   3   1  293.33   17.08
   2   3  -1  618.87   26.29
   2   3   1  540.47   16.64
   2  -3   1  429.48   25.34
  -2   3  -1  587.22   23.28
   2   3   1  460.15   24.07
  -2   3   1  442.36   23.72
   2   3   1  490.85   13.36
  -2  -3   1  538.93   18.50
  -2   3  -1  526.40   25.51
  -2   3  -2   21.75    4.98
  -2   3   2   19.00    5.21
  -2   3   2   30.05    6.17
   2   3   2   23.18    5.21
   2   3   2   16.26    2.87
  -2   3  -2   19.58    4.46
   2  -3   2   19.19    5.38
   2   3   2   17.19    3.23
  -2  -3   2   28.39    4.86
   2   3  -2   18.64    4.26
   2   3   3  108.64   12.01
  -2   3   3  141.46   11.76
  -2   3   3   96.90   11.17
   2   3  -3  121.72   11.77
  -2   3  -3  133.40   12.27
   2  -3   3  177.57   15.55
   2   3   3   89.11    8.00
   2   3   3  108.58    8.02
  -2  -3   3  111.77   10.37
  -2  -3   3  131.75    7.21
   2  -3   4   29.78    6.68
  -2   3   4   32.69    7.22
   2   3   4   17.98    5.39
  -2   3   4   21.27    4.49
   2   3  -4   28.91    6.11
   2   3   4   26.44    5.15
  -2   3  -4   26.15    6.18
   2   3   4   33.98    4.99
  -2  -3   4   16.27    3.45
  -2  -3   4   29.35    5.68
   2  -3   4   33.87    6.77
  -2   3   5  201.23   15.37
   2  -3   5  187.74   16.15
   2   3   5  162.32   11.38
   2   3   5  201.37   14.79
   2   3  -5  182.05   15.31
  -2  -3   5  180.50   15.27
   2  -3   5  154.61   14.71
  -2   3   5  171.72   16.39
   2   3   5  172.09   15.76
   2  -3   6  245.43   19.64
   2  -3   6  270.42   20.74
  -2  -3   6  235.24   14.45
   2   3  -6  364.13   22.23
   2   3   6  377.44   19.24
  -2   3   6  298.43   21.84
   2   3   6  312.21   19.89
  -2   3   6  276.00   18.79
  -2  -3   6  268.73   19.38
   2   3   6  348.26   22.72
   2  -3   7   25.60    6.32
   2   3   7   30.90    7.35
  -2   3   7   23.00    6.64
  -2  -3   7   29.22    7.02
   2   3  -7   42.56    7.96
  -2  -3   7    8.13    5.64
   2   3   7   29.64    6.76
   2   3   7   10.48    4.64
   2  -3   7   31.14    6.81
  -2   3   7   31.71    7.01
  -2   3   8  660.41   34.91
   2   3   8  663.13   29.13
   2  -3   8  666.10   34.21
  -2  -3   8  699.34   34.78
   2  -3   8  654.06   33.28
   2   3   8  681.85   33.03
  -2   3   8  630.89   31.18
   2   3   9  340.43   26.22
   2   3   9  346.49   22.21
  -2  -3   9  397.15   27.66
  -2   3   9  356.74   26.44
   2  -3   9  385.89   27.34
   2   3   9  398.61   27.19
  -2  -3   9  359.15   23.19
   2  -3   9  356.57   25.96
  -2   3   9  343.46   24.70
   2   3  -9  343.28   24.56
   2   3  10  133.66   15.22
  -2  -3  10  125.05   15.86
   2  -3  10  144.96   18.23
  -2  -3  10  126.66   14.45
  -2   3  10  133.27   15.72
   2  -3  10  126.00   16.05
   2   3  10   83.75   13.52
  -2   3  10  119.84   16.04
   2   3  10  142.17   17.65
  -2  -3  11  416.15   27.28
   2   3  11  425.14   28.51
  -2   3  11  460.47   31.58
   2  -3  11  508.37   34.13
   2   3  11  398.78   29.67
   2  -3  11  463.87   31.82
  -2  -3  11  344.09   27.58
   2   3  11  470.07   33.21
   2   3  12    1.94    2.26
   2  -3  12    7.15    3.36
  -2  -3  12    3.47    5.47
   2  -3  12    2.25    2.54
   2   3  12    1.93    2.33
  -2   3  12   -0.58    1.45
  -2  -3  12    2.21    1.71
   2   3  12    1.04    3.02
   2   3  13  107.16   16.49
   2  -3  13  111.38   15.81
   2  -3  13   83.82   15.04
  -2  -3  13   95.07   15.60
  -2  -3  13   92.53   13.55
   2  -3  14    7.91    6.91
   2  -3  14    7.32    5.89
   2   3  14    3.58    3.81
  -2  -3  14    2.19    2.41
   2   3  14    1.15    4.24
  -2  -3  14    1.95    1.37
  -2   3  14    5.29    5.49
   2   3  15   67.00   13.44
  -2   3  15   89.51   16.73
  -2  -3  15   82.42   14.06
   2  -3  15  109.83   17.74
   2  -3  15   76.91   14.76
  -2   3  15  100.60   16.67
   2   3  15   52.56   12.01
  -2  -3  15  127.23   19.54
  -2  -3  16    3.87    5.22
   2  -3  16    1.03    1.18
   2   3  16   -1.28    2.17
  -2   3  16    1.39    5.74
   2   3  16    6.54    5.80
   2  -3  16    2.22    0.77
  -2   3  16    3.56    5.61
  -2  -3  16    3.75    3.41
   2  -3  17  256.33   28.22
   2  -3  17  278.47   29.19
   2   3  17  326.92   31.99
  -2  -3  17  216.57   24.11
  -2   3  17  299.92   30.73
   2   3  17  334.17   31.26
  -2  -3  17  290.84   29.81
  -2   3  18   64.27   14.87
   2   3  18   90.62   16.61
  -2   3  18  105.71   18.59
   2   3  18  145.99   21.55
  -2  -3  18  105.96   17.88
  -2  -3  18  103.44   18.17
   2  -3  18   84.71   16.97
   2  -3  18  118.00   18.97
   2   3  19  236.91   27.76
  -2  -3  19  205.25   25.59
   2   3  19  221.74   27.55
   2  -3  19  171.64   24.74
  -2   3  19  164.23   24.52
   2  -3  19  137.62   24.23
  -2   3  19  202.51   26.76
  -2  -3  19  213.09   26.96
   2  -3  20   37.91   10.55
   2   3  20   59.18   14.39
  -2   3  20   56.14   14.33
  -2  -3  20   29.10   10.35
  -2  -3  20   46.49   13.37
  -2   3  20   44.53   12.99
   2  -3  20   59.81   15.54
   2   3  20   43.33   13.04
   2  -3  21   11.28    8.15
   2  -3  21    1.54    1.68
   2   3  21   15.36    8.46
  -2  -3  21    7.80    7.53
   2   3  21    8.97    7.74
  -2  -3  21    4.66    5.95
  -2   3  21   -2.20    4.71
  -2   3  21    3.37    3.43
   2  -3  22   53.46   13.55
  -2  -3  22   54.57   15.85
   2   3  22   55.07   14.48
   2  -3  22   38.88   10.59
   2   3  22   43.93   13.63
  -2   3  22   59.20   16.36
  -2  -3  22   71.26   15.98
  -2   3  22   35.29   13.01
  -2   3  23    2.78    9.53
  -2  -3  23    9.26    8.16
  -2  -3  23   -0.03    3.54
  -2   3  23    1.39    7.67
   2   3  23   -1.02    6.01
   2  -3  23    0.48    6.82
   2  -3  23    3.03    6.81
   2   3  23   -0.08    4.11
   2  -3  24   17.04    7.31
   2  -3  24   24.86   11.54
  -2  -3  24   10.06    5.54
   2   3  24   20.76    6.76
  -2   3  24   17.25   10.11
  -2   3  24    0.65    3.70
  -2  -3  24   -1.67    1.97
   2   3  24    9.69    1.06
   2   3  25  142.14   25.71
   2   3  25  130.77   24.16
   2  -3  25  118.28   21.81
  -2   3  25  118.00   22.73
   2  -3  25  144.32   25.37
  -2   3  25  101.64   21.31
  -2  -3  25  102.26   21.96
  -2  -3  25  160.85   25.76
   2  -3  26   -0.14    5.07
  -2  -3  26    2.85    5.43
   2   3  26    4.40    5.46
  -2  -3  26    2.46    5.17
   2  -3  26   -2.48    4.22
  -2   3  26    0.48    5.71
   2   3  26   -2.60    4.30
  -2   3  26    4.51    7.01
  -2   3  27    3.71    1.40
   2   3  27   13.77    8.00
  -2  -3  27    2.17    6.12
  -2   3  27    3.57    1.96
   2  -3  27    4.98    3.97
  -2  -3  27    5.09    8.39
   2  -3  27   -2.81    3.91
   2   3  27    9.28    5.84
  -2   3  28   16.41    9.11
   2  -3  28   34.07   11.95
  -2  -3  28   31.95   12.68
   2   3  28   41.70   13.61
  -2   3  28   35.31   11.76
   2   3  28   17.70    9.73
   2  -3  28   26.92   12.40
  -2  -3  28   10.99    7.76
  -2  -3  29  127.44   24.49
   2   3  29   68.24   17.58
   2   3  29   58.22   16.41
   2  -3  29   65.34   18.30
  -2   3  29  104.74   21.09
  -2  -3  29  119.94   24.49
   2  -3  29  112.38   21.69
  -2   3  29   89.80   20.05
   2  -3  30   11.32    5.12
   2  -3  30    3.53    6.27
  -2  -3  30   18.47    8.29
  -2   3  30   12.79   11.29
   2   3  30   12.48    7.31
   2   3  30   22.82   11.09
  -2  -3  30    2.94    4.63
  -2   3  30    8.24    7.87
  -2  -3  31   29.85   13.01
   2  -3  31   55.82   16.19
  -2   3  31   83.05   21.09
   2   3  31   30.19   14.35
   2  -3  31   55.05   16.93
  -2   3  31   49.84   15.34
   2   3  31   63.17   17.23
  -2  -3  31   43.45   14.12
   2   4   0    1.42    1.23
   2   4   0    4.97    3.22
  -2   4   0    4.35    2.85
   2  -4   0   -2.31    3.84
  -2   4   0    1.92    2.67
   2   4   1    2.47    1.03
   2   4  -1    8.98    4.43
   2  -4   1    7.21    1.73
  -2   4   1    4.36    3.84
  -2   4  -1    1.67    3.66
  -2   4   1    5.03    3.56
  -2   4  -1    6.62    3.14
   2   4   1    1.93    1.90
   2   4   2   95.57   12.58
  -2   4  -2   69.20   10.42
   2   4  -2   92.41   11.45
  -2   4  -2   91.74   10.78
   2  -4   2   90.93   12.29
   2   4   2   88.47    8.68
  -2   4   2  104.37   12.72
  -2  -4   2   84.16    9.31
   2   4   2   93.96    6.93
  -2   4   2   89.93   11.26
   2  -4   3  137.17   15.20
  -2  -4   3  115.14   11.47
   2   4   3  155.88   11.04
   2   4  -3  138.32   14.05
  -2   4   3  121.13   13.57
   2   4   3   96.78    9.02
  -2   4  -3  145.79   14.96
  -2   4  -3  129.39   14.61
  -2   4   3   97.11   11.71
   2   4   3  126.48   14.37
  -2   4   4  378.32   23.74
   2  -4   4  376.14   24.44
  -2  -4   4  350.50   21.24
  -2   4  -4  423.62   25.12
   2   4   4  340.82   17.88
  -2   4   4  417.04   25.51
  -2  -4   4  385.15   13.28
   2   4  -4  286.80   20.45
   2   4   4  309.98   22.79
   2   4   5   33.33    6.06
   2  -4   5   47.04    8.76
  -2  -4   5   30.13    6.67
   2   4  -5   46.38    8.72
  -2   4  -5   52.13    9.04
  -2   4   5   38.71    7.55
   2  -4   5   39.09    8.07
   2   4   5   32.15    6.11
  -2   4   5   36.04    8.43
   2   4   5   54.04   10.22
   2   4  -6  527.87   30.11
   2  -4   6  617.53   32.27
  -2   4  -6  765.21   37.40
   2   4   6  617.39   33.67
   2   4   6  457.41   24.39
   2   4   6  597.17   26.47
  -2  -4   6  669.08   24.33
   2  -4   6  672.32   33.30
  -2  -4   6  561.66   28.94
  -2   4   6  559.75   32.50
  -2   4   6  611.09   31.19
   2  -4   7  299.88   22.30
   2   4   7  288.70   19.38
  -2   4  -7  267.71   22.49
  -2  -4   7  257.91   16.62
   2   4   7  293.17   23.77
  -2   4   7  307.78   22.44
   2  -4   7  379.01   26.50
   2   4   7  345.01   23.15
  -2  -4   7  292.01   22.36
  -2   4   7  353.48   25.88
  -2  -4   8  938.41   34.46
  -2   4   8  841.93   38.29
   2   4  -8  875.51   40.03
   2  -4   8  917.05   41.49
   2   4   8  926.74   36.21
   2   4   8  858.44   41.37
   2  -4   8  893.55   42.61
  -2  -4   8  876.62   40.69
  -2   4   9  214.29   20.44
   2   4   9  196.04   17.04
  -2  -4   9  143.31   16.90
   2   4   9  167.83   17.33
   2   4  -9  198.92   20.69
   2  -4   9  170.79   18.40
   2   4   9  175.58   19.43
   2  -4   9  173.48   19.38
  -2   4   9  169.19   18.53
   2   4  10  310.11   23.35
  -2  -4  10  355.44   23.94
   2  -4  10  299.92   25.55
  -2   4  10  437.96   29.45
   2  -4  10  358.26   27.14
   2   4 -10  489.88   34.12
  -2  -4  10  367.63   27.47
   2   4  10  275.50   23.55
  -2   4  10  296.40   25.65
   2   4  10  338.05   27.78
   2   4  11    0.96    1.96
   2  -4  11   -0.64    2.82
  -2   4  11    2.86    1.88
   2   4 -11   -3.01    3.02
   2  -4  11   -0.73    0.81
  -2   4  11    1.33    2.19
  -2  -4  11   -0.88    2.95
   2   4  11   -1.02    0.25
  -2  -4  11    3.47    2.77
   2   4  11    0.49    2.05
   2  -4  12   30.08    8.85
   2   4  12   27.93    9.78
  -2  -4  12   18.97    7.21
  -2   4  12   31.39    9.60
   2   4  12   18.30    7.83
  -2   4  12   21.30    6.02
   2  -4  12   20.57    7.78
  -2  -4  12   40.89    9.43
   2   4  12   23.73    6.74
   2   4 -12    7.88    2.14
   2  -4  13   12.94    5.20
  -2   4  13    6.80    4.67
  -2  -4  13    7.61    5.75
   2   4  13    4.35    2.95
  -2   4  13   11.99    6.13
   2   4 -13    6.46    5.38
   2   4  13   10.00    5.10
   2   4  13    1.55    2.50
  -2  -4  13   11.86    5.54
   2  -4  13    4.63    2.56
   2  -4  14   88.92   15.94
   2   4  14   69.99   13.65
   2   4 -14  113.45   16.72
   2   4  14  113.49   18.92
  -2  -4  14   89.41   14.36
   2   4  14   77.34   14.00
   2  -4  14   81.56   15.85
  -2  -4  14  104.15   16.33
  -2   4  14   90.81   16.03
   2   4  15  266.02   27.28
   2  -4  15  245.64   26.75
  -2   4  15  226.66   26.61
  -2  -4  15  262.17   25.82
   2   4  15  195.60   23.54
   2  -4  15  230.84   26.47
  -2  -4  15  242.60   26.95
  -2  -4  16   50.33   13.10
   2   4  16   65.61   14.73
  -2  -4  16   57.85   12.77
  -2   4  16  116.05   19.15
   2  -4  16   54.44   13.51
  -2   4  16   90.22   17.06
   2  -4  16   70.51   14.10
   2   4  16   68.14   13.83
  -2   4  17    2.24    5.35
   2  -4  17   -0.84    4.05
  -2  -4  17    3.79    1.16
   2  -4  17    1.92    1.66
   2   4  17    1.57    3.61
  -2  -4  17    0.06    3.97
   2   4  17   -0.77    3.41
  -2   4  17    0.04    5.28
   2  -4  18   12.43    5.10
   2   4  18   10.42    7.97
  -2  -4  18    9.46    6.15
  -2  -4  18   17.64    8.42
   2  -4  18    8.36    6.71
  -2   4  18   15.19    7.75
   2   4  18    2.81    3.04
  -2   4  18    8.22    8.97
   2  -4  19    3.80    6.26
  -2   4  19    4.04    3.51
  -2  -4  19    1.22    1.96
  -2   4  19   -6.17    7.46
   2   4  19   -1.15    3.28
   2  -4  19    3.30    1.21
  -2  -4  19    1.82    6.56
   2   4  19    0.55    2.34
   2  -4  20  102.18   19.19
  -2   4  20  149.22   23.43
   2   4  20  141.65   22.59
   2   4  20  101.05   18.45
  -2  -4  20  116.99   19.86
   2  -4  20   87.98   18.40
  -2   4  20   90.04   18.37
  -2  -4  20   96.74   19.56
  -2  -4  21    0.94    2.65
   2  -4  21    1.54    1.44
  -2  -4  21    0.35    5.86
   2  -4  21    9.16    7.64
   2   4  21    3.72    6.38
  -2   4  21    5.66    7.46
   2   4  21   -1.72    1.78
  -2   4  21    7.60    5.77
  -2  -4  22   63.39   15.68
  -2   4  22   36.69   14.29
   2   4  22   51.84   14.94
   2  -4  22   73.35   16.92
  -2  -4  22   31.65    9.84
   2  -4  22   34.66   11.25
  -2   4  22   37.88   10.56
   2   4  22   45.22   13.70
   2  -4  23    8.36    5.92
   2   4  23   10.38    9.07
  -2  -4  23    2.99    4.58
  -2   4  23   13.32    6.89
   2  -4  23    1.53    5.75
  -2  -4  23   15.93    8.85
   2   4  23   17.23    7.61
  -2   4  23   11.59    3.73
  -2  -4  24   15.77    8.94
   2  -4  24   12.17    8.42
   2   4  24   11.95    9.04
   2  -4  24   33.81   12.97
  -2  -4  24   32.42   13.75
  -2   4  24   14.20    5.97
   2   4  24   13.26    6.20
  -2   4  24   26.46   12.55
   2  -4  25   20.90    7.81
  -2   4  25   63.16   17.66
  -2  -4  25   37.06   12.46
   2  -4  25   21.52    9.83
   2   4  25   26.20   11.52
  -2  -4  25   31.64   11.65
   2   4  25   26.58   10.64
  -2   4  25   29.97   12.51
   2  -4  26   -2.90    6.37
  -2  -4  26   -3.95    5.00
  -2   4  26    1.46    1.24
   2   4  26   -0.36    4.37
   2   4  26   -2.41    2.02
   2  -4  26   -7.84    8.51
  -2  -4  26   -3.82    6.68
  -2   4  26   -1.23    2.40
   2   4  27   14.21    5.27
  -2  -4  27   16.63    7.26
  -2   4  27   23.57   10.40
  -2   4  27   11.41    4.02
  -2  -4  27   14.00    7.94
   2   4  27   19.05   10.56
   2  -4  27    7.37    5.81
   2  -4  27   20.16    8.65
   2   4  28   30.68   12.81
  -2  -4  28   22.60    9.86
   2  -4  28   17.43    8.22
  -2   4  28    8.36    1.09
   2  -4  28   17.09    9.69
  -2   4  28   30.68   12.10
  -2  -4  28   23.28    8.57
   2   4  28   13.79    5.36
   2  -4  29    5.22    6.36
  -2  -4  29    1.08    9.00
   2  -4  29   -1.79    2.74
   2   4  29    1.01    3.64
  -2  -4  29    3.24    7.88
   2   4  29    3.58    1.59
  -2   4  29   -6.72    6.15
  -2   4  29    1.15    2.19
   2  -4  30    5.30    4.17
  -2  -4  30    6.10    3.61
  -2   4  30    1.91    4.13
   2   4  30   -1.49    6.30
   2   4  30    6.35    6.61
  -2  -4  30    0.51    3.65
  -2   4  30   -3.97    6.76
   2  -4  30   -0.03    2.78
   2  -4  31    1.12    5.19
   2   4  31    5.80    4.09
   2   4  31    3.07    7.67
   2  -4  31   -2.80    4.46
  -2   4  31   -9.73   11.37
  -2  -4  31    1.77    5.11
  -2  -4  31    8.59   10.40
  -2   4  31   12.26    8.05
  -2   5   0 3863.18   82.04
   2   5   0 3177.82   78.71
   2  -5   0 3285.63   75.42
   2   5   0 4179.67   69.27
  -2   5   1   37.60    8.18
   2   5   1   18.47    5.96
   2   5   1   20.59    4.89
   2   5  -1   27.83    6.74
  -2   5  -1   16.92    6.13
   2   5  -1    9.22    3.75
  -2   5  -1   20.05    5.55
   2  -5   1   12.73    4.98
  -2   5   1   11.91    4.01
   2   5   2  127.63   15.91
  -2   5  -2   86.79   11.76
  -2   5   2  126.90   15.68
   2   5   2  108.58    7.60
   2   5  -2  105.23   13.71
   2   5   2   89.13   10.36
  -2   5  -2   92.87   13.41
   2  -5   2  104.59   13.94
  -2   5   2   71.81   11.73
   2  -5   3   90.09   12.84
  -2   5  -3   65.86   11.16
   2   5  -3  104.51   13.48
   2   5   3   70.25    8.86
  -2   5  -3   75.01   10.83
  -2   5   3   76.95   12.07
  -2   5   3   94.50   12.91
  -2  -5   3  109.31   11.82
   2   5   3   99.11   13.52
   2   5   4   76.37   12.34
   2   5   4   67.94    8.80
  -2   5   4   62.39   10.87
   2   5  -4   49.70    9.52
  -2   5   4   85.05   12.44
   2  -5   4  106.33   14.32
  -2  -5   4   59.49    4.60
  -2  -5   4   78.84   11.12
  -2   5  -4   93.27   13.33
  -2   5   5  327.31   24.88
  -2   5  -5  390.26   26.73
   2   5   5  409.37   22.61
  -2  -5   5  294.59   21.58
  -2  -5   5  392.35   16.32
   2  -5   5  371.78   26.37
   2   5  -5  258.75   21.62
  -2   5   5  340.58   25.97
   2   5   5  324.50   25.82
  -2   5   6   53.92   10.99
   2  -5   6   60.24   11.32
  -2   5  -6   91.59   13.23
   2  -5   6   71.80   11.48
  -2   5   6   51.69    9.16
   2   5   6   65.37    9.28
  -2  -5   6   77.11   11.12
   2   5   6   60.87   11.57
  -2  -5   6   72.64    7.51
   2   5  -6   62.81   10.91
   2   5   6   66.70    9.48
  -2   5   7  482.03   32.02
   2   5  -7  318.64   26.43
  -2  -5   7  422.62   20.91
   2  -5   7  424.20   29.21
  -2   5  -7  565.09   33.86
   2  -5   7  603.34   35.49
   2   5   7  558.74   28.86
   2   5   7  399.70   24.05
  -2  -5   7  428.53   28.39
   2   5   7  459.19   31.98
  -2   5   7  403.34   27.68
  -2   5   8 1418.57   54.08
  -2  -5   8 1295.42   39.70
  -2   5   8 1341.92   54.71
   2   5  -8  814.18   41.31
   2   5   8 1242.49   44.61
  -2   5  -8  929.58   45.85
   2  -5   8 1278.38   50.03
   2   5   8 1224.21   46.05
   2  -5   8 1442.38   55.26
  -2  -5   8 1127.92   48.05
   2   5   8 1050.54   49.10
  -2  -5   9    5.72    4.45
   2   5   9    4.01    2.70
   2   5   9    1.78    0.81
  -2   5   9    2.86    1.44
   2   5  -9    7.42    3.63
  -2   5   9   -0.02    3.21
  -2  -5   9   -0.23    2.27
   2  -5   9    3.95    0.36
  -2   5  -9    2.37    2.59
   2   5   9   -1.42    1.60
   2  -5   9   -0.03    3.21
   2  -5  10  267.06   24.22
  -2   5  10  257.39   24.29
   2   5  10  255.04   22.52
   2   5 -10  294.53   25.81
  -2   5 -10  287.21   26.97
   2  -5  10  199.05   22.40
   2   5  10  182.38   19.25
  -2  -5  10  217.30   21.43
  -2  -5  10  202.69   17.62
   2   5  10  232.86   24.17
   2   5  11   62.53   12.35
   2  -5  11   72.51   13.12
   2   5 -11   81.28   14.33
  -2  -5  11   76.63   11.66
  -2   5 -11   66.09   12.07
   2   5  11   74.52   12.32
  -2   5  11   71.56   13.71
  -2  -5  11   71.32   12.30
   2  -5  11   67.14   12.62
  -2   5  11   60.07   12.06
   2   5  11   66.92   13.54
  -2   5  12   11.45    5.70
  -2  -5  12   15.91    6.19
  -2   5 -12   11.67    6.58
   2  -5  12   10.43    5.42
   2   5  12   16.67    6.84
   2   5  12   17.28    8.22
  -2   5  12    8.38    4.54
   2   5 -12   10.98    5.65
   2  -5  12    8.06    4.37
  -2  -5  12    9.23    4.26
   2   5  12   13.89    5.70
   2   5 -13   61.40   14.29
   2   5  13   66.51   13.62
   2   5  13   80.96   15.83
  -2  -5  13   54.39   10.85
  -2   5 -13   68.20   12.84
   2   5  13   69.63   12.94
   2  -5  13   69.48   13.89
  -2  -5  13   89.34   15.23
  -2   5  13   54.61   12.61
   2  -5  13   95.20   15.49
  -2   5  13   66.75   13.74
   2   5  14  502.99   35.43
   2  -5  14  556.06   37.87
  -2  -5  14  400.81   30.69
   2   5  14  678.10   43.38
   2   5  14  525.11   40.15
   2  -5  14  536.86   38.33
   2   5 -14  551.48   40.83
  -2  -5  14  526.62   39.10
  -2   5  14  510.17   38.12
  -2   5  14  474.15   37.08
   2   5  15  183.62   25.30
   2   5  15  154.22   20.20
   2   5  15  153.41   21.20
   2  -5  15  112.93   18.50
   2  -5  15  128.32   19.09
  -2  -5  15   90.26   15.18
   2   5 -15  105.13   18.85
  -2  -5  15  137.10   20.70
  -2   5  15  124.35   19.16
   2   5  16   32.36   12.81
  -2  -5  16   17.25    7.23
   2  -5  16   12.44    5.89
   2  -5  16   18.24    7.65
  -2  -5  16   22.65    7.37
   2   5 -16   42.84   11.56
  -2   5  16   24.21    9.07
   2   5  16   24.49    8.05
  -2   5  16   27.26   11.21
   2   5  16   25.06   10.08
   2  -5  17   14.61    3.29
  -2  -5  17    4.16    3.86
   2   5  17    3.42    2.08
   2   5 -17   13.87    4.02
   2  -5  17   13.56    7.82
  -2  -5  17   22.02    8.20
   2   5  17    8.48    5.52
  -2   5  17    8.18    8.61
  -2   5  17   15.28    7.89
   2  -5  18   67.38   15.30
  -2   5  18   82.91   17.29
  -2  -5  18  104.92   18.46
   2   5  18   87.19   15.83
   2  -5  18  101.30   18.74
  -2   5  18  107.95   20.03
   2   5  18   45.66   13.13
  -2  -5  18   77.35   16.52
   2   5 -18   39.35   11.23
  -2  -5  19   90.19   17.16
   2  -5  19   91.54   18.83
   2  -5  19  116.97   20.86
  -2   5  19   88.37   17.26
   2   5  19  114.03   20.32
   2   5 -19  107.87   19.14
   2   5  19  103.10   19.52
  -2   5  19   99.56   19.65
  -2  -5  19  107.84   19.43
  -2  -5  20   39.81   11.90
  -2  -5  20   50.09   12.34
  -2   5  20   35.45   12.02
   2   5 -20   75.09   16.71
   2  -5  20   30.64   10.29
   2  -5  20   39.02   11.72
   2   5  20   25.21    9.10
  -2   5  20   47.93   14.50
   2   5  20   46.63   13.08
   2  -5  21    8.06    0.51
   2   5 -21    7.68    3.55
  -2  -5  21    9.90    2.99
   2  -5  21    3.75    6.46
  -2   5  21   19.00    6.72
   2   5  21    7.19    5.98
  -2   5  21   13.85    6.31
  -2  -5  21    8.77    3.04
   2   5  21   13.21    4.98
   2   5 -22   72.35   16.92
   2   5  22  181.36   25.98
   2  -5  22  106.94   21.70
  -2   5  22  132.93   23.19
  -2  -5  22  114.56   21.86
  -2  -5  22   85.98   17.38
   2   5  22   93.15   20.44
   2  -5  22  121.62   22.13
  -2   5  22  149.24   23.78
  -2  -5  23    1.84    4.23
  -2   5  23    3.94    4.35
  -2   5  23    0.86    6.06
   2   5  23    1.99    5.98
   2   5 -23    4.33    6.87
   2  -5  23   13.04    8.57
   2  -5  23    7.20    6.34
  -2  -5  23    6.32    4.14
   2   5  23   -0.50    4.95
   2  -5  24   45.08   13.37
   2   5  24   47.08   14.05
  -2  -5  24   34.10   13.48
   2  -5  24   36.92   11.91
  -2   5  24   33.76   11.34
   2   5 -24   22.50    9.70
   2   5  24   39.64   14.22
  -2  -5  24   29.11   10.58
  -2   5  24   32.62   10.52
  -2  -5  25    6.89    7.75
   2  -5  25   -0.92    4.06
  -2   5  25    5.20    8.74
   2  -5  25    3.59    5.41
   2   5 -25    9.15    9.85
  -2  -5  25    5.34    7.66
   2   5  25    1.88    2.35
  -2   5  25    3.18    7.71
   2   5  25    1.35    4.30
   2  -5  26   38.01   12.39
  -2  -5  26   36.11   11.40
   2   5  26   48.23   13.61
  -2   5  26   34.46   12.67
   2   5 -26   47.18   15.21
   2  -5  26   34.51   13.20
   2   5  26   38.06   12.58
  -2  -5  26   35.38   12.68
  -2   5  26   43.81   14.89
   2  -5  27   -0.24    6.51
  -2  -5  27    5.54    4.89
   2   5 -27   12.41    8.82
  -2  -5  27   16.19    8.92
   2   5  27   -1.55    5.84
  -2   5  27    5.78    4.56
   2  -5  27   -0.09    1.23
   2   5  27   11.77    7.82
  -2   5  27   -2.36    7.14
  -2  -5  28   39.99   13.55
   2   5 -28   37.64   13.05
   2   5  28   23.60   11.02
  -2   5  28   28.77   10.99
  -2  -5  28   58.06   15.67
   2  -5  28   48.90   14.52
   2   5  28   29.34   12.30
   2  -5  28   23.70    9.68
  -2   5  28   20.76    7.61
   2  -5  29    5.11    8.30
  -2   5  29    4.22    6.83
  -2  -5  29  -10.44    5.60
   2   5  29   -4.48    4.09
   2   5 -29   10.39    9.17
   2   5  29   -0.35    7.59
   2  -5  29    4.62    4.17
  -2  -5  29    1.86    5.57
  -2   5  29    1.79    2.75
   2  -5  30    3.70    5.55
  -2  -5  30    5.25    9.45
   2   5 -30    8.66    7.77
   2  -5  30   18.10    7.85
   2   5  30   17.05    4.81
  -2   5  30   10.99    6.91
  -2  -5  30    7.00    4.27
   2   5  30   12.43    9.83
  -2   5  30   17.76   11.19
  -2   6   0  521.70   32.57
   2   6   0  586.39   36.34
   2   6   0  594.28   29.63
   2   6   1   50.44    8.85
  -2   6   1   76.61   12.59
   2   6   1   68.99   12.49
  -2   6  -1   40.34    9.49
   2  -6   1   53.79   10.10
  -2   6   1   47.83   10.34
   2   6  -1   60.53   11.95
  -2   6  -1   53.06   10.10
   2   6  -1   33.24    6.88
  -2   6  -2   26.57    7.37
   2  -6   2   22.25    6.70
   2   6   2   21.67    6.80
  -2   6   2   29.52    7.72
   2   6  -2   17.47    4.85
  -2   6  -2    8.32    2.62
  -2   6   2   28.93    7.94
   2   6   2   25.46    6.57
  -2   6   3   42.14    9.99
  -2   6  -3   46.45   11.10
  -2   6  -3   45.77    9.83
   2   6   3   25.93    6.40
   2   6   3   36.98    8.03
  -2   6   3   39.56    9.11
   2  -6   3   19.28    6.75
   2   6  -3   29.99    8.38
   2   6   4  224.79   22.82
  -2   6   4  168.73   18.97
   2   6   4  211.75   18.11
   2   6  -4  213.27   20.43
  -2   6   4  274.17   23.90
  -2   6  -4  118.94   15.70
  -2   6  -4  199.64   20.54
  -2  -6   4  203.60   18.57
   2  -6   4  238.88   22.78
   2   6   4  206.24   14.72
   2   6   5  135.00   18.26
   2  -6   5  186.64   20.03
  -2  -6   5  118.67    8.50
  -2   6   5  197.76   20.71
  -2   6  -5  141.34   17.99
   2   6   5  145.31   13.37
  -2  -6   5  139.89   15.97
  -2   6   5  201.66   21.28
   2   6   5  154.53   15.01
   2   6  -5  142.18   17.50
   2   6   6    7.30    3.14
  -2   6  -6    9.00    6.48
   2   6   6   13.40    4.89
  -2   6   6    9.57    4.61
   2  -6   6   13.85    5.42
   2   6  -6   19.75    7.91
   2   6   6    9.95    4.38
  -2  -6   6   12.30    3.14
  -2   6   6    8.31    5.00
  -2  -6   6   11.69    5.19
   2   6   7  209.87   22.37
  -2   6   7  181.88   20.05
   2   6   7  155.11   15.68
  -2   6  -7  250.16   23.62
   2  -6   7  200.14   20.32
  -2  -6   7  127.05   11.46
  -2  -6   7  147.04   17.44
   2  -6   7  182.27   19.85
   2   6   7  158.65   16.86
   2   6  -7  187.81   20.17
  -2   6   7  168.95   19.70
   2   6   8    2.43    1.80
  -2   6   8    2.11    3.19
   2  -6   8    5.20    3.29
   2   6   8    6.73    3.78
  -2  -6   8    6.41    2.89
   2   6  -8    5.10    2.09
  -2   6  -8    1.84    1.45
  -2  -6   8    1.12    3.73
   2  -6   8    9.30    6.26
   2   6   8   11.97    5.46
  -2   6   8    4.20    3.45
   2   6   9   16.37    7.46
  -2   6   9   11.23    4.37
   2   6   9   21.91    7.04
  -2   6  -9   10.32    3.42
   2   6  -9   10.17    5.96
  -2   6   9   15.45    5.81
   2  -6   9    1.09    2.93
  -2  -6   9   11.36    4.11
   2  -6   9   10.17    4.20
   2   6   9   14.57    5.50
  -2  -6   9   13.55    5.34
  -2  -6  10   40.27    8.33
   2   6  10   70.73   12.37
  -2  -6  10   50.02   11.57
   2   6 -10   56.49   11.48
   2   6  10   53.92   10.40
  -2   6 -10   47.84   10.83
   2   6  10   40.10   11.01
   2  -6  10   54.34   11.76
  -2   6  10   58.26   12.70
   2  -6  10   61.39   11.96
  -2   6  10   47.25   10.91
   2   6 -11  350.10   30.03
  -2   6 -11  775.94   46.56
   2  -6  11  430.14   31.65
  -2  -6  11  605.51   33.45
  -2   6  11  605.37   41.00
   2   6  11  527.11   34.96
   2  -6  11  500.20   36.43
  -2  -6  11  465.40   35.41
   2   6  11  439.67   31.05
   2   6  11  468.49   35.98
  -2   6  11  444.15   33.86
   2   6  12  105.99   15.90
   2   6 -12  106.29   16.57
  -2   6  12  120.00   18.32
  -2  -6  12  153.67   17.35
   2   6  12  100.46   15.44
   2  -6  12  132.16   19.03
   2  -6  12  112.99   16.62
  -2  -6  12  122.85   17.47
  -2   6  12  114.86   18.58
   2   6  12  122.33   19.03
  -2   6  13   87.56   15.32
  -2   6  13   92.06   16.41
  -2  -6  13   75.98   13.15
   2   6 -13  107.22   17.89
   2   6  13   93.37   15.43
   2   6  13   94.50   16.95
  -2   6 -13   80.67   14.98
   2  -6  13   84.89   15.97
  -2  -6  13  100.95   16.38
   2   6  13   60.62   11.83
   2  -6  13   91.35   15.31
   2   6 -14  214.78   24.71
  -2   6  14  224.67   26.78
   2   6  14  232.02   25.14
   2   6  14  254.64   28.00
  -2   6 -14  207.20   25.61
  -2  -6  14  278.38   25.80
   2  -6  14  262.34   28.05
  -2  -6  14  276.04   28.26
  -2   6  14  165.17   22.68
   2  -6  14  227.83   24.12
  -2   6  15   82.82   15.89
  -2   6  15   87.69   16.68
   2   6  15   61.58   15.46
   2   6 -15   93.97   17.14
  -2   6 -15   95.46   17.69
  -2  -6  15   94.81   16.32
   2  -6  15  100.08   16.91
   2  -6  15   98.28   17.37
   2   6  15   87.26   16.33
  -2  -6  15  105.56   17.29
   2   6  15  140.34   21.98
   2   6 -16  124.51   21.00
   2   6  16  119.16   20.59
   2   6  16   91.84   17.03
  -2   6 -16   68.56   15.06
  -2   6  16  101.76   19.03
   2  -6  16  125.58   19.86
  -2  -6  16  156.10   20.53
   2   6  16  148.26   21.66
  -2  -6  16  121.85   19.36
  -2   6  16  178.47   24.29
  -2  -6  17    1.70    2.15
   2   6  17   -0.45    1.24
   2   6  17    4.67    3.81
  -2   6  17   -2.26    4.70
  -2  -6  17    1.80    4.12
   2  -6  17   -5.77    6.00
  -2   6 -17   -2.95    4.20
   2  -6  17    1.94    1.95
   2   6  17   -0.41    3.99
  -2   6  17   -1.50    6.29
   2   6 -17    6.99    5.19
  -2   6  17    0.33    4.91
  -2   6  18   18.78   14.83
  -2   6 -18   72.60   16.24
   2   6 -18   56.51   14.36
  -2  -6  18   40.43   11.51
   2  -6  18   30.03    8.71
   2  -6  18   64.03   14.19
   2   6  18   95.15   18.33
   2   6  18   43.44   12.91
   2   6  18   69.51   16.42
  -2  -6  18   39.55   10.66
  -2   6  18   43.10   13.75
  -2  -6  19    6.23    2.48
  -2   6 -19   28.99   11.98
   2  -6  19    5.80    3.65
  -2  -6  19   10.14    4.33
  -2   6  19   22.36    9.84
   2   6 -19    7.47    5.43
   2   6  19   13.28    7.90
   2   6  19   16.49    8.43
  -2   6  19   18.50    9.77
   2  -6  19   12.26    8.12
  -2  -6  20    9.69    6.94
  -2   6  20    4.81    6.72
  -2   6  20    2.85    1.44
   2  -6  20    0.34    5.57
   2   6 -20   -0.90    5.50
  -2  -6  20    9.10    7.28
   2   6  20    4.05    7.82
  -2   6 -20    6.22    5.90
   2   6  20   -1.46    6.04
   2  -6  20   -4.00    6.15
  -2   6  21   13.57    6.36
  -2  -6  21   14.18    8.90
  -2  -6  21   -2.17    2.69
   2  -6  21   13.51    6.17
  -2   6 -21   17.09    6.88
   2  -6  21    2.16    3.43
   2   6 -21   13.39    9.61
  -2   6  21    6.76    4.70
   2   6  21   12.46    5.93
   2   6  21   10.45    6.51
   2   6  22   39.18   14.55
   2  -6  22   27.56   10.31
  -2   6  22   57.71   15.14
   2  -6  22   60.86   14.16
   2   6 -22   38.10   12.11
  -2  -6  22   40.06   11.96
  -2  -6  22   33.50   11.45
  -2   6  22   43.03   13.61
   2   6  22   54.69   14.39
  -2   6 -22   26.60   10.29
  -2  -6  23    4.10    1.79
   2  -6  23   10.69    6.65
   2   6  23   10.20    8.43
   2   6 -23    4.51    2.12
  -2  -6  23    4.09    7.39
  -2   6 -23   18.20   11.25
   2  -6  23    8.19    7.18
  -2   6  23   19.35    9.01
  -2   6  23   10.99    4.12
   2   6  23   10.23    3.35
  -2  -6  24   84.10   16.29
   2   6  24   88.96   19.35
   2   6 -24   56.79   15.77
   2   6  24   89.08   20.62
  -2   6 -24   77.11   18.95
   2  -6  24   71.97   16.70
  -2   6  24   86.97   19.32
  -2  -6  24   77.73   19.10
  -2   6  24   83.47   19.20
   2  -6  24   67.11   16.83
  -2  -6  25    6.10    5.88
   2   6  25   -0.44    8.07
  -2   6  25    1.39    4.66
   2   6 -25    5.63    6.66
  -2   6 -25    4.80    6.69
   2  -6  25   -2.12    2.30
   2   6  25    0.46    7.20
   2  -6  25   -0.27    3.34
  -2  -6  25    3.40    1.78
  -2   6  25    9.53    8.34
  -2  -6  26   25.24   10.00
   2   6  26   11.56    7.71
  -2   6  26   12.84    7.25
   2   6 -26   30.88   12.89
  -2   6 -26   27.14   12.73
   2  -6  26   11.30    1.84
   2  -6  26   20.36    9.26
  -2  -6  26   11.17    6.01
   2   6  26   23.33   10.23
  -2   6  26   13.64    8.26
   2  -6  27    1.55    5.86
  -2   6  27   -1.84    3.09
  -2  -6  27    5.00    7.10
  -2   6 -27   -4.66    5.76
  -2   6  27   15.40    9.97
   2   6 -27   -4.20    3.86
   2  -6  27    0.41    2.80
  -2  -6  27    2.77    6.16
   2   6  27    1.21    7.95
   2   6  27   -0.45    3.10
  -2  -6  28    9.85    7.55
  -2  -6  28    1.49    4.10
  -2   6  28   12.11    8.11
   2   6  28    9.73    4.68
  -2   6 -28    5.29    7.82
   2   6 -28   10.44    5.59
   2  -6  28    0.75    4.16
   2   6  28    4.72    2.55
  -2   6  28    6.55    1.75
   2  -6  28   -3.12    5.25
  -2  -6  29   15.25    9.25
  -2   6  29   18.58   10.30
  -2   6  29   27.77   12.42
  -2   6 -29   28.92   12.28
   2   6  29   11.23    4.62
   2   6  29   21.39   12.32
   2   6 -29   26.19   14.00
   2  -6  29    5.87    3.53
  -2  -6  29    4.18    3.73
   2  -6  29   29.74   10.61
  -2  -6  30    2.98    6.61
   2  -6  30    9.45   12.11
   2  -6  30   -1.62    5.87
   2   6 -30   13.35    5.56
  -2   6  30   33.00   13.38
  -2  -6  30   12.17    8.17
   2   6  30   10.14    3.95
  -2   6  30    9.36    5.12
  -2   6 -30   18.97    8.48
  -2   7   0   -0.71    3.97
  -2   7   0    0.69    3.56
   2   7   0    1.20    1.44
   2   7   0    5.39    4.92
   2   7   1  727.84   43.95
  -2   7  -1  696.75   39.80
   2   7   1  863.01   39.76
  -2   7   1  818.32   43.20
  -2   7  -1  745.03   42.01
   2   7   1  778.60   19.78
  -2   7   1  962.02   48.17
   2   7  -1  953.61   48.98
   2   7  -1  803.95   38.33
   2   7   2  218.39   24.17
  -2   7   2  231.92   23.51
   2   7  -2  207.89   20.04
   2   7  -2  146.36   18.96
   2  -7   2  214.23   22.19
  -2   7   2  235.19   23.91
   2   7   2  255.22   13.70
  -2   7  -2  211.89   21.65
   2   7   2  221.39   19.85
  -2   7  -2  293.47   26.41
  -2   7  -3  703.19   40.70
  -2   7   3  653.29   40.34
   2   7   3  662.01   41.91
   2   7  -3  829.50   44.04
   2   7   3  734.81   35.60
   2  -7   3  521.58   35.68
  -2   7   3  789.79   42.49
  -2   7  -3  747.32   41.26
  -2   7   4   90.22   15.07
  -2   7  -4  110.71   16.45
   2  -7   4  102.14   15.43
   2   7  -4   98.51   15.00
   2   7   4   99.31   13.62
  -2   7  -4   97.32   15.04
   2   7   4   87.34   15.22
  -2   7   4  100.28   15.49
   2   7   4   94.72   10.16
   2   7   5  183.23   22.53
   2   7   5  193.58   19.01
   2   7  -5  182.16   21.04
  -2   7   5  170.30   20.57
  -2   7  -5  209.87   21.55
  -2   7  -5  220.18   23.47
   2  -7   5  211.77   21.96
  -2  -7   5  192.01   11.23
  -2  -7   5  232.19   21.74
   2   7   5  160.50   14.38
  -2   7   5  169.34   20.25
   2   7   6  225.55   25.12
  -2  -7   6  188.27   19.86
  -2   7   6  214.03   22.81
   2  -7   6  298.49   27.92
   2   7  -6  269.14   25.93
  -2   7  -6  260.70   24.85
   2   7   6  227.46   19.10
  -2   7   6  224.95   23.81
  -2  -7   6  216.95   13.75
   2   7   6  204.92   20.12
  -2   7   7  810.66   44.50
  -2  -7   7  645.52   26.05
   2   7   7  646.50   42.69
   2   7  -7  778.09   44.45
  -2   7   7  840.33   47.20
  -2  -7   7  959.48   46.89
   2   7   7  672.07   37.57
   2   7   7  842.07   38.34
  -2   7  -7  779.40   45.79
   2  -7   7  749.88   43.17
   2   7   8  121.82   18.19
  -2  -7   8  116.64   16.61
   2  -7   8  106.39   15.98
   2   7  -8   92.91   14.79
  -2  -7   8   86.95    9.92
   2  -7   8  120.80   17.41
  -2   7   8  106.09   17.48
   2   7   8  110.90   14.67
   2   7   8   93.27   14.26
  -2   7   8  111.22   17.42
   2   7   9   68.85   13.69
  -2   7   9   84.56   15.10
  -2  -7   9   91.52   11.79
   2   7   9   92.81   14.04
   2   7  -9   81.72   14.34
  -2   7  -9  100.35   16.22
   2   7   9  101.57   15.45
   2  -7   9   79.32   14.27
  -2  -7   9   66.45   13.16
  -2   7   9   74.96   14.20
  -2  -7  10   45.51   10.46
   2   7  10   38.56   10.02
  -2   7  10   34.81    9.18
   2   7 -10   51.65   11.76
  -2  -7  10   49.16    8.93
   2  -7  10   48.75   11.18
  -2   7 -10   51.74   12.22
  -2   7  10   54.97   12.55
   2  -7  10   40.58    9.69
   2   7  10   53.86   11.01
   2   7  10   60.53   14.18
   2   7  11 2507.26   77.59
  -2  -7  11 1348.15   51.45
   2  -7  11 1838.90   71.06
   2   7 -11 1534.95   68.29
   2   7  11 1780.59   66.14
  -2   7 -11 1888.34   73.88
  -2  -7  11 1952.14   72.64
  -2   7  11 2047.46   77.09
  -2   7  11 1844.21   72.19
   2  -7  11 1711.04   68.97
   2   7  11 1647.65   70.12
   2   7  12  394.40   31.98
   2   7 -12  382.57   33.71
  -2   7 -12  242.11   26.60
   2   7  12  312.77   28.35
  -2   7  12  252.69   26.90
  -2  -7  12  263.27   26.96
   2  -7  12  335.19   30.38
  -2  -7  12  273.13   23.85
   2  -7  12  332.43   31.08
   2   7  12  290.29   30.85
  -2   7  12  389.26   33.08
  -2  -7  13  110.26   17.93
  -2   7  13  117.52   19.27
   2  -7  13   85.50   15.87
   2   7 -13  119.85   19.10
  -2   7 -13   92.43   16.02
   2   7  13  121.58   18.15
  -2  -7  13  113.52   15.90
   2  -7  13  109.72   17.00
  -2   7  13   97.60   17.92
   2   7  13  111.93   18.45
  -2  -7  14   92.51   17.03
   2   7  14   52.51   12.52
  -2   7  14   86.18   16.90
   2   7 -14   73.30   14.40
   2  -7  14   86.70   16.17
  -2  -7  14   42.72   11.20
  -2   7  14   57.09   15.44
  -2   7 -14   46.30   13.07
   2  -7  14   46.10   11.77
   2   7  14   94.15   16.83
   2   7  14   45.25   10.82
   2   7  15    3.33    8.67
  -2   7  15   -2.68    5.25
   2  -7  15   -1.04    5.34
   2   7  15    1.50    4.62
   2   7 -15    3.32    4.74
  -2   7 -15   -2.48    5.80
  -2  -7  15   -1.26    5.22
   2  -7  15    1.11    5.60
   2   7  15   -0.14    1.66
  -2   7  15    7.26    5.88
  -2  -7  15    0.20    2.06
   2   7  16  134.71   20.74
   2   7 -16  120.12   20.86
  -2   7 -16   57.83   14.45
  -2  -7  16  121.68   18.16
   2  -7  16  109.97   18.28
   2  -7  16  143.66   22.73
   2   7  16  116.50   20.04
  -2  -7  16  107.31   20.03
  -2   7  16  153.25   24.64
  -2   7  16   97.53   18.88
   2   7  16  159.22   23.32
   2   7  17  164.59   23.11
  -2   7 -17  147.39   24.42
   2   7 -17  146.88   22.25
  -2   7  17  163.08   24.40
   2  -7  17  124.56   20.58
  -2   7  17  193.99   27.58
   2   7  17  109.95   20.32
  -2   7  17  144.93   23.80
  -2  -7  17  160.40   23.81
   2   7  17  170.31   24.74
   2  -7  17  145.98   21.64
  -2  -7  17  175.45   23.25
  -2   7  18   69.68   16.11
   2   7  18   66.78   16.73
  -2  -7  18   42.53   12.51
   2   7  18   53.45   14.82
   2  -7  18   69.23   16.24
  -2   7 -18   63.18   14.98
   2  -7  18   49.37   12.63
   2   7 -18   44.05   14.23
  -2  -7  18   44.05   11.55
   2   7  18   40.00   11.84
  -2   7  18   50.01   14.61
  -2   7  18   29.35   10.84
   2   7  19   40.96   13.58
   2  -7  19   42.40   12.83
  -2   7  19   55.42   16.13
   2   7  19   54.22   14.67
   2  -7  19   60.25   14.42
  -2   7 -19   90.78   18.04
   2   7 -19   41.50   13.23
   2   7  19   46.63   10.95
  -2   7  19   44.48   14.51
  -2  -7  19   54.15   13.96
  -2   7  19   43.29   13.36
  -2  -7  19   40.90   11.42
  -2   7 -20   12.07    7.48
   2   7 -20   26.31   10.69
  -2   7  20    3.08    8.38
  -2  -7  20   12.42    9.94
   2   7  20    7.30    5.25
  -2  -7  20    8.51    5.83
   2  -7  20   14.52    8.24
   2   7  20    8.63    8.50
  -2   7  20    6.64    6.05
   2  -7  20    7.30    4.85
   2  -7  21   74.12   16.70
  -2   7  21   57.07   14.60
   2   7 -21   45.74   13.74
  -2   7  21   83.48   20.11
  -2  -7  21   76.27   16.64
  -2  -7  21   68.84   17.57
   2   7  21   88.10   18.12
   2  -7  21   90.32   17.92
   2   7  21   54.02   19.85
  -2   7 -21   90.78   20.87
  -2  -7  22   -4.73    5.84
   2  -7  22    3.26    2.44
   2   7  22    1.47    3.87
  -2   7  22    8.76    7.58
  -2   7 -22   -4.66    7.79
   2  -7  22    4.89    7.00
  -2  -7  22   19.93    9.04
   2   7  22   -5.67    6.23
   2   7 -22    1.14    4.77
  -2   7  22    3.50    5.54
  -2  -7  23    5.93    7.36
  -2  -7  23   -5.52    6.97
   2   7 -23    4.06    7.04
   2   7  23    0.06    4.28
   2  -7  23   -0.91    5.49
  -2   7  23   -6.56    5.62
  -2   7 -23    8.58    8.91
  -2   7  23  -10.33    9.76
   2  -7  23   -1.22    3.99
   2   7  23    8.21    7.00
  -2  -7  24   -4.78    6.29
   2  -7  24    4.88    4.54
   2   7  24    4.76    8.29
  -2  -7  24   -2.41    2.92
   2   7 -24    4.77    5.88
  -2   7 -24   10.61    8.07
  -2   7  24    8.18    6.03
   2   7  24   -1.14    1.78
  -2   7  24   -3.19    4.94
   2  -7  24   -2.87    4.30
  -2  -7  25   32.78   12.37
   2   7  25   42.75   14.03
   2   7  25   77.09   19.82
   2  -7  25   80.76   17.89
  -2   7 -25   66.79   19.02
  -2   7  25   95.37   21.63
  -2  -7  25   71.80   18.39
  -2   7  25   92.10   21.93
   2   7 -25   53.41   13.18
   2  -7  25   81.78   19.14
  -2   7  26   -2.79    5.75
   2   7  26   -2.01    4.89
  -2  -7  26   -3.60    3.69
   2  -7  26   -1.17    4.91
  -2   7 -26   -1.35    5.68
   2   7 -26   -3.39    4.65
   2   7  26   12.13    8.55
   2  -7  26    5.86    9.24
  -2  -7  26   -8.76    9.08
  -2   7  26   -0.55   11.96
  -2   7 -27    8.57    9.72
  -2  -7  27    3.89    7.76
   2   7  27    4.22    8.32
   2   7  27   10.27    8.75
  -2   7  27    6.27    7.88
   2   7 -27   -5.14    7.42
  -2   7  27    9.31    7.95
   2  -7  27   15.23   11.45
   2  -7  27   14.51    4.16
  -2  -7  28    3.90    6.93
  -2   7  28    0.77    6.97
   2   7  28  -10.29    7.36
   2   7 -28   -4.22    6.21
  -2   7 -28    6.83    7.50
   2  -7  28    3.96    6.46
   2   7  28   -1.64    2.56
  -2   7  28   -3.90    8.42
   2  -7  28   -0.84   11.14
  -2  -7  29   35.59   14.39
  -2   7  29   22.40   11.97
  -2   7  29   37.90   15.44
  -2   7 -29   17.39    7.46
   2   7 -29   37.22   13.35
   2   7  29   26.82   11.48
   2  -7  29    7.64    2.40
   2  -7  29   36.44   13.14
   2   8   0   12.46    5.14
  -2   8   0    7.13    5.25
   2   8   0   19.53    8.16
  -2   8   0   21.57    7.80
   2   8   1   16.58    5.33
   2   8   1    7.61    6.62
  -2   8   1   18.78    7.36
   2   8  -1   16.96    6.74
  -2   8  -1   14.62    7.24
  -2   8  -1   11.68    5.67
   2   8  -1   14.38    5.92
  -2   8   1   14.14    6.77
   2   8  -2   22.67    8.12
   2   8   2   35.46    8.84
  -2   8   2   30.39    9.93
  -2   8  -2   29.72    8.46
   2   8  -2   28.35    8.14
   2   8   2   31.74    7.65
  -2   8  -2   24.19    9.25
  -2   8   2   27.92    8.40
   2   8   3   86.77   15.99
  -2   8   3  169.55   20.66
   2   8  -3  102.39   16.58
   2   8  -3  112.66   16.01
  -2   8  -3  138.48   18.97
  -2   8   3  111.49   17.78
   2   8   3  122.77   15.71
   2  -8   3  114.47   16.95
  -2   8  -3  115.83   16.91
   2   8   4  228.42   25.79
   2  -8   4  259.16   26.15
   2   8  -4  251.63   25.46
   2   8   4  238.37   22.19
  -2   8   4  215.89   24.28
  -2   8  -4  247.08   25.41
   2   8  -4  204.19   22.17
   2   8   4  201.19   16.09
  -2   8   4  200.80   24.09
   2   8   5  197.04   24.98
  -2   8   5  172.79   21.99
  -2   8  -5  195.57   23.00
  -2   8   5  186.27   22.05
   2  -8   5  181.15   21.25
   2   8  -5  171.50   21.40
   2   8   5  195.25   20.49
  -2   8  -5  130.70   17.87
  -2   8  -6    6.37    4.16
  -2   8  -6    3.26    6.02
   2   8   6    6.98    4.25
  -2   8   6   -0.11    3.56
  -2  -8   6    1.60    1.47
   2  -8   6   -1.46    2.44
   2   8   6    4.23    6.02
  -2  -8   6    1.66    1.23
  -2   8   6    3.28    1.65
   2   8   6    3.70    3.92
   2   8  -6    4.43    2.23
  -2   8   7   66.55   13.27
   2   8   7   33.64    9.08
   2   8  -7   64.82   14.16
  -2   8  -7   69.91   13.38
   2  -8   7   69.43   13.89
   2   8   7   83.84   13.82
  -2  -8   7   66.09    8.14
  -2  -8   7   57.69   12.62
   2   8   7   68.38   11.05
  -2   8   7   72.14   14.33
   2   8   8   -0.02    3.91
  -2   8   8    3.73    6.64
  -2   8  -8    0.30    2.89
  -2  -8   8    0.62    1.34
   2  -8   8    3.79    3.11
   2   8   8    4.57    3.02
   2   8  -8    3.89    4.18
  -2   8   8   -0.13    4.14
  -2  -8   8    3.75    4.62
   2   8   8    3.75    3.38
  -2   8   9   70.19   15.08
   2  -8   9   74.12   14.40
   2   8  -9   70.93   14.08
  -2  -8   9   82.00   11.04
  -2   8  -9   59.02   13.91
   2   8   9   58.97   14.54
  -2  -8   9   82.52   14.66
   2   8   9   90.32   14.46
   2   8   9   92.40   15.36
  -2   8   9  102.89   16.92
  -2   8  10  100.38   18.52
   2   8 -10   83.16   14.36
  -2   8  10   63.43   14.09
   2  -8  10   77.46   15.06
   2   8  10   68.95   13.05
  -2  -8  10   59.68    9.78
   2  -8  10   41.69   10.54
  -2   8 -10   65.84   14.42
   2   8  10   69.02   12.99
  -2  -8  10   69.75   13.04
   2   8  10   78.47   15.66
   2   8 -11    9.36    7.34
   2   8  11    0.27    2.13
  -2   8  11    3.26    1.34
   2   8  11   -5.95    5.28
   2  -8  11   -3.92    6.46
  -2   8  11   -0.34    4.32
  -2   8 -11   -4.42    5.76
   2  -8  11    0.27    4.21
   2   8  11   -2.18    2.02
  -2  -8  11   -2.06    4.29
  -2  -8  11    1.47    1.77
   2   8  12   19.93    6.86
   2   8 -12   10.71    6.11
   2   8  12   19.28    8.33
  -2   8  12   25.83    8.10
  -2   8 -12   45.21   12.14
   2   8  12   34.59   10.70
  -2   8  12   19.92   10.44
   2  -8  12    9.48    7.38
  -2  -8  12   15.56    5.73
   2  -8  12   33.93   10.54
  -2  -8  12   27.54    8.68
   2   8  13    0.71    4.58
  -2   8  13    2.12    1.91
   2   8  13    1.08    1.88
  -2   8 -13   -2.90    4.98
  -2   8  13   12.39    9.30
   2  -8  13   -1.72    4.95
   2   8 -13    5.65    6.89
  -2  -8  13    3.27    3.23
   2  -8  13    1.70    3.99
  -2  -8  13    6.64    5.30
   2   8  13    0.88    4.87
  -2   8  14   37.98   12.03
   2   8  14   57.70   15.40
  -2   8 -14   43.02   12.12
  -2   8  14   30.10    9.06
   2   8 -14   42.37   13.03
  -2  -8  14   25.91    7.97
   2  -8  14   21.74    9.87
   2   8  14   29.14   10.37
   2   8  14   44.14   12.29
   2  -8  14   36.82   10.61
  -2  -8  14   40.45   12.12
  -2  -8  15  246.63   26.30
  -2   8  15  218.98   27.53
   2   8 -15  182.63   25.84
  -2   8 -15  177.63   25.27
   2   8  15  185.80   24.99
   2  -8  15  196.26   24.28
  -2  -8  15  227.65   27.43
   2  -8  15  210.59   26.35
   2   8  15  258.83   30.63
  -2   8  16   -5.02    8.14
   2   8  16   11.88    9.03
  -2  -8  16    5.87    3.14
   2   8 -16   -0.12    5.27
  -2  -8  16    1.99    0.52
  -2   8  16   -0.02    0.99
  -2   8 -16   -2.06    2.85
   2  -8  16    1.69    1.63
   2   8  16    2.55    7.11
   2  -8  16    4.33    3.18
   2   8  16   -1.63    2.58
   2   8  17   54.74   16.57
  -2   8 -17   36.14   12.33
   2   8  17   65.08   14.48
   2   8  17   26.29   16.75
   2   8 -17  101.86   19.53
  -2   8  17  131.07   21.43
   2  -8  17   61.06   15.01
  -2   8  17   63.55   15.71
  -2  -8  17   76.90   15.63
  -2   8  17  109.06   20.12
   2  -8  17   59.27   12.82
   2  -8  18   16.17    8.68
   2   8 -18   22.78   10.93
  -2   8 -18   24.33   10.71
  -2   8  18   24.92   10.40
   2   8  18   20.32    8.86
  -2   8  18   13.56    4.66
   2  -8  18   29.30   11.25
   2   8  18   19.38    8.13
   2   8  18   20.02    8.92
  -2   8  18   19.81   13.61
  -2  -8  18   18.06    8.32
  -2   8  19   93.75   19.67
   2   8  19   91.32   18.33
   2   8 -19   87.62   17.46
  -2   8  19   78.15   17.85
   2  -8  19   56.57   15.32
   2   8  19   43.37   10.69
  -2   8  19   65.45   16.39
   2  -8  19   62.64   15.60
  -2   8 -19   51.54   13.98
   2   8  19   97.35   20.01
  -2  -8  19   48.59   13.87
   2   8  20   -0.73    7.34
  -2   8  20   -0.82    2.56
  -2   8 -20   -1.55    4.17
   2   8  20    2.37    7.54
   2   8 -20   -2.15    5.51
   2   8  20   -2.82    2.70
   2  -8  20    4.04    6.13
  -2   8  20    4.25    2.84
   2  -8  20    1.17    5.42
  -2   8  20    3.75    4.56
  -2  -8  20   10.02    7.83
  -2  -8  21   86.82   19.28
   2   8  21  124.85   23.23
  -2   8  21  128.44   23.48
   2   8 -21  100.27   20.44
  -2   8 -21   79.84   18.57
  -2   8  21  103.65   22.27
   2  -8  21   62.92   15.99
   2   8  21   78.32   20.48
   2  -8  21  132.68   22.85
   2   8  21   96.42   22.29
  -2  -8  22   -1.18    2.11
   2  -8  22    8.32    8.04
   2   8 -22   -3.25    1.80
  -2   8 -22   10.40    7.04
   2  -8  22   -6.22    8.72
   2   8  22   -1.24    1.39
   2   8  22    0.24    6.04
  -2   8  22    4.31    6.56
  -2   8  22   -4.07    6.10
   2  -8  23   19.78    9.80
   2   8  23   -0.29    4.26
  -2   8 -23    4.60    3.45
  -2   8  23   20.54    8.49
   2   8 -23    8.92    8.30
   2   8  23    0.62    3.09
   2  -8  23   10.68    7.91
  -2   8  23    4.68    2.53
  -2  -8  23    6.84    3.09
  -2  -8  24    7.74    4.67
  -2   8  24    5.89    7.66
   2   8 -24   -0.37    0.48
  -2   8 -24    5.25    1.42
   2  -8  24   10.61    6.71
   2   8  24    2.62    4.56
   2   8  24   16.34   11.87
  -2   8  24   -3.80    7.81
   2  -8  24    2.46    2.54
   2   8 -25   51.89   14.70
  -2   8  25  108.94   22.29
  -2   8 -25  119.51   22.98
   2  -8  25   89.39   18.56
  -2   8  25  126.96   23.13
   2  -8  25  119.20   22.62
   2   8  25  108.50   23.76
  -2  -8  25  106.10   21.72
  -2  -8  26   31.18    8.05
   2  -8  26   15.29    8.64
  -2   8  26   11.84    7.10
   2   8 -26   24.84   10.75
  -2   8  26   24.40   10.13
  -2   8 -26   16.37    9.68
   2   8  26   28.56   14.21
   2  -8  26   30.38   11.24
  -2  -8  27    6.11    7.46
  -2   8  27    4.42    5.58
   2   8 -27    3.58    6.85
   2  -8  27    3.45    1.75
  -2   8  27   10.89    8.76
   2   8  27    2.54    4.59
  -2   8 -27    4.22    5.02
   2  -8  27    8.50    4.98
  -2   8  28   -0.98    3.13
  -2  -8  28   -2.74    3.98
   2  -8  28   -1.14    2.99
  -2   8 -28   -4.97    1.54
   2  -8  28    7.52    5.68
   2   8  28    1.10    7.75
   2   8 -28    3.38    3.81
  -2   8  28   -4.64    8.09
  -2   9   0   34.60    8.71
   2   9   0   62.41   15.88
  -2   9   0   33.96    9.74
   2   9   0   35.91    9.38
   2   9   1  155.71   22.55
  -2   9   1  159.90   21.63
  -2   9  -1  148.21   20.82
   2   9  -1  177.42   24.61
   2   9   1  135.77   18.37
   2   9  -1  171.26   20.95
  -2   9   1  202.72   24.19
  -2   9  -1  159.44   22.13
   2   9   2    7.28    5.07
  -2   9   2   33.64   11.06
  -2   9  -2   16.27    8.19
   2   9  -2   15.60    7.65
   2   9   2   19.99    6.15
  -2   9   2   42.39   11.00
  -2   9  -2   13.87    6.03
   2   9  -2   25.44    8.09
   2   9   3  423.72   37.26
  -2   9   3  331.49   32.43
  -2   9  -3  444.55   34.92
   2   9   3  334.89   28.78
  -2   9   3  397.63   33.53
   2   9  -3  392.57   31.68
  -2   9  -3  376.53   32.79
  -2   9   4  107.31   18.32
   2   9  -4  113.95   18.21
   2   9  -4  109.39   18.70
  -2   9   4  104.00   17.28
   2   9   4  115.49   19.17
   2  -9   4  102.18   16.57
  -2   9  -4  132.90   19.14
  -2   9  -4  108.52   17.10
   2   9   5   11.61    5.68
   2   9   5    7.00    2.96
  -2   9   5   28.71   10.42
   2   9  -5   15.49    6.68
  -2   9   5    8.82    5.71
   2  -9   5   11.17    6.00
   2   9  -5    1.92    6.10
  -2   9  -5   15.91    6.15
  -2   9  -5   13.78    8.30
   2   9  -6  202.29   24.85
   2   9   6  275.94   30.82
   2   9   6  164.59   21.08
  -2   9   6  234.28   25.78
  -2   9  -6  271.82   28.52
  -2   9  -6  242.86   27.20
   2  -9   6  270.91   28.40
  -2   9   6  191.52   24.85
  -2   9  -7  988.06   54.40
   2   9  -7 1018.23   54.43
  -2   9  -7  990.57   55.15
  -2   9   7  881.76   55.01
   2   9   7 1096.12   60.80
   2  -9   7 1030.71   54.49
   2   9   7  977.00   51.20
  -2   9   8  484.89   40.23
   2   9  -8  438.02   36.69
  -2   9   8  439.77   37.12
   2   9   8  482.92   37.08
  -2   9  -8  541.90   40.85
  -2   9  -8  479.98   39.23
   2  -9   8  470.56   38.26
  -2  -9   8  502.06   36.50
   2   9   8  598.17   45.24
   2   9  -9   32.83   10.59
   2   9   9   29.50   11.34
   2   9   9   40.50   11.39
  -2   9   9   49.92   13.84
  -2   9  -9   26.00    6.83
   2  -9   9   26.54    8.67
  -2   9   9   32.71   10.29
  -2  -9   9   18.43    5.03
   2   9  10  281.17   31.93
  -2   9  10  303.67   32.25
   2   9 -10  391.66   35.22
  -2   9  10  275.17   30.01
  -2   9 -10  358.13   33.55
   2  -9  10  277.69   30.37
  -2  -9  10  269.19   28.30
   2   9  10  367.09   32.75
   2   9  11   77.22   17.68
  -2   9  11   68.68   15.25
  -2   9 -11   53.69   12.27
   2   9 -11   54.94   13.63
   2   9  11   48.03   11.77
  -2   9  11   60.89   13.84
   2  -9  11   76.81   16.77
  -2  -9  11   49.94   12.17
  -2   9  12   -3.11    4.72
   2   9 -12   -1.29    4.05
   2   9  12    0.24    3.17
   2  -9  12    3.36    3.19
   2   9  12    0.90    5.45
  -2   9  12    1.39    4.61
  -2   9 -12   -2.18    5.61
   2  -9  12   -0.49    2.66
  -2  -9  12   -2.66    3.73
   2   9  12    6.44    6.45
  -2   9  13  110.12   18.95
   2  -9  13  104.71   17.80
   2  -9  13  144.03   21.11
   2   9  13  148.11   22.02
   2   9  13  121.61   21.18
  -2   9 -13   88.49   19.15
  -2  -9  13   98.16   16.51
   2   9 -13   87.82   17.91
  -2   9  13  150.19   22.91
   2   9  14   31.98   10.85
   2   9  14   31.98   10.52
  -2   9  14   26.88   10.60
  -2   9  14   13.36    7.08
   2   9  14   19.53   12.43
  -2   9 -14   19.36    5.34
   2  -9  14   34.83   10.35
   2  -9  14   24.85    9.75
  -2  -9  14   17.01   10.89
   2   9 -14   39.87   12.13
  -2   9  15   66.80   15.30
  -2   9  15  114.82   20.85
   2   9 -15   72.31   16.97
  -2   9 -15  130.50   21.79
   2  -9  15  116.62   20.23
   2   9  15   98.95   19.05
  -2  -9  15   99.18   18.46
   2  -9  15   77.59   16.06
   2   9  15   66.61   14.05
   2   9  15  114.32   20.75
   2   9  16   36.50   14.92
  -2   9  16   45.93   13.42
   2  -9  16   53.45   13.72
  -2   9  16   45.73   11.79
   2   9  16   39.50   11.96
  -2  -9  16   37.02   11.66
   2   9 -16   37.33   12.34
   2  -9  16   44.41   13.08
  -2   9 -16   82.01   17.18
   2   9  16   50.89   14.44
  -2   9  17  241.61   30.78
   2   9 -17  225.48   30.02
  -2   9 -17  166.16   24.08
   2   9  17  179.93   25.75
   2  -9  17  247.24   30.89
  -2  -9  17  171.57   25.51
  -2   9  17  165.87   25.23
   2  -9  17  181.85   25.12
   2   9  17  140.76   23.84
  -2   9  17  169.15   26.24
   2   9  17  246.71   31.72
   2   9  18   10.71    3.99
  -2   9  18   13.83    8.64
  -2   9 -18   13.52    7.85
  -2  -9  18   16.39    8.76
  -2   9  18   -0.74    4.09
   2  -9  18   10.04    6.02
   2   9  18    9.17    7.13
   2  -9  18   -5.60    7.13
   2   9  18    9.85    6.90
  -2   9  18    8.79    7.92
   2   9 -18   16.18   10.42
  -2   9  19   27.12   10.02
   2   9  19   14.78    5.88
   2   9 -19   11.34    8.68
  -2   9 -19   14.96    6.69
  -2   9  19   29.64   11.79
   2  -9  19   16.88    3.56
  -2   9  19   26.86   10.15
   2   9  19    8.32    7.59
   2   9  19   19.41    9.73
   2  -9  19    2.48    2.48
  -2  -9  19    1.64    5.55
   2   9  20    1.67    6.99
   2   9 -20    6.93    8.65
   2  -9  20    4.87    3.73
  -2   9 -20    8.85    9.73
   2   9  20    7.09    6.44
   2  -9  20   -4.15    5.13
  -2   9  20    4.45    6.77
   2   9  20   12.19   11.06
  -2   9  20   13.34   10.21
  -2   9  20    0.66    1.97
  -2  -9  20    0.39    4.49
   2   9 -21   26.84   11.65
   2  -9  21   24.23    9.99
  -2   9 -21   38.03   13.99
   2   9  21   29.57   14.21
   2   9  21   31.88   12.86
   2   9  21   40.86   12.49
  -2   9  21   35.43   13.69
  -2   9  21   50.46   15.89
  -2  -9  21    9.78   10.68
  -2   9  21   40.39   14.06
   2  -9  21   26.34    8.53
  -2   9 -22   38.78   13.96
   2   9 -22   50.61   13.30
   2  -9  22   43.85   13.75
  -2   9  22   61.87   15.93
   2  -9  22   42.93   13.37
  -2  -9  22   48.58   14.09
   2   9  22   13.50    5.73
   2   9  22   41.60   13.34
  -2   9  22    2.46    8.27
   2  -9  23    6.86    2.05
   2  -9  23    7.19    5.56
   2   9 -23   13.01    6.90
  -2   9 -23   11.80    7.61
   2   9  23   16.44    7.25
  -2   9  23    1.18    4.50
  -2   9  23   12.49    9.19
  -2  -9  23    4.54    3.55
  -2   9 -24   -2.17    5.69
   2   9 -24    2.61    5.30
   2  -9  24    6.03    8.22
   2  -9  24   -2.84    5.50
  -2   9  24    2.10    2.35
   2   9  24    1.67    2.37
  -2   9  24   -2.67    4.47
  -2  -9  24    2.25    1.31
   2  -9  25   17.72    9.31
  -2   9 -25   11.56    7.86
   2   9 -25   21.10    9.83
  -2   9  25   28.35   12.41
   2   9  25   10.74    7.37
   2  -9  25   30.17   13.82
  -2   9  25   24.22   10.71
  -2  -9  25   15.87    5.86
  -2  -9  26   -6.61    7.08
   2  -9  26   -2.04    1.32
  -2   9 -26   -3.70    7.72
  -2   9  26   15.63   11.68
   2   9 -26    2.22    3.41
   2  -9  26    6.54    2.86
  -2   9  26   -3.23    1.26
   2   9  26   10.78    7.55
  -2  -9  27    3.24    6.62
   2  -9  27    4.18    6.19
  -2   9  27    6.47    7.71
  -2   9 -27    0.81    1.36
  -2   9  27   -9.81   11.08
   2   9 -27   -2.77    3.50
   2   9  27   -1.17    4.95
   2  -9  27   -5.34    7.32
   2  10   0  104.53   19.55
  -2  10   0   77.63   15.86
  -2  10   0   63.02   15.57
   2  10   0   77.84   14.66
  -2  10  -1   12.43    6.17
   2  10   1    1.49    2.38
   2  10  -1   10.34    7.08
   2  10  -1   -1.66    2.98
  -2  10  -1   16.84    9.45
  -2  10   1    4.11    4.25
  -2  10   1   19.41    6.28
   2  10   1    5.40    4.15
   2  10   2    4.26    9.25
  -2  10   2   -4.17    4.06
   2  10   2    1.97    5.89
  -2  10  -2   -0.12    1.78
   2  10  -2    5.39    7.99
  -2  10  -2    2.78    5.94
  -2  10   2    1.80    4.34
   2  10  -2    1.92    4.10
   2  10  -3    5.18    4.92
   2  10   3    2.99    3.16
  -2  10   3    0.67    3.42
   2  10  -3    9.35    7.21
  -2  10  -3    0.89    3.74
   2  10   3    4.78    5.03
  -2  10   3    1.33    3.81
  -2  10  -3    8.54    5.40
   2  10   4   44.70   10.68
   2  10   4   56.70   13.42
  -2  10   4   50.67   11.67
  -2  10   4   77.97   14.75
   2  10  -4   64.43   15.47
  -2  10  -4   63.79   14.49
   2  10  -4   76.37   13.91
  -2  10  -4   65.32   14.87
   2  10   5   14.08    7.55
  -2  10  -5   12.08    5.72
   2  10  -5   19.92    6.65
  -2  10   5   14.55    8.29
  -2  10   5   26.49    8.53
   2  10  -5    9.33    7.23
  -2  10  -5   28.82   10.36
   2 -10   5   12.95    6.21
   2  10   5   43.82   14.40
   2  10   6  113.01   18.10
   2  10  -6   89.67   17.25
  -2  10   6   81.65   16.59
   2  10  -6   90.48   17.41
   2 -10   6   65.92   15.49
  -2  10  -6   80.86   15.78
  -2  10  -6   60.68   12.93
  -2  10   6   80.42   16.24
   2  10   6   88.62   18.14
  -2  10   7   -0.02    6.40
   2  10   7    4.90    4.94
   2  10  -7    5.52    7.46
  -2  10  -7    2.34    5.25
   2  10   7    0.45    3.29
  -2  10  -7   11.29    7.10
  -2  10   7   -2.18    2.62
   2 -10   7   -5.49    4.76
   2  10   8    4.23    0.95
   2  10   8    3.91    1.95
  -2  10   8    9.36    4.73
  -2  10   8    8.49    4.49
   2 -10   8    2.86    4.62
   2  10  -8   21.70    9.56
  -2  10  -8   26.20   10.16
  -2  10  -8   17.83    6.72
  -2  10  -9    7.20    7.02
   2  10   9    3.26    4.85
  -2  10   9    2.67    3.92
  -2  10  -9   -5.49    3.87
   2 -10   9    1.18    5.35
  -2  10   9    5.88    4.20
   2  10   9   -4.20    4.02
   2  10  -9    5.59    7.44
  -2  10  10    4.99    5.97
   2  10  10    3.93    5.48
  -2  10  10    2.97    4.28
  -2 -10  10   -1.20    3.33
   2  10  10    1.16    3.57
  -2  10 -10    1.50    2.48
  -2  10 -10    3.01    2.97
   2 -10  10   -1.39    1.58
   2  10 -10    6.40    1.57
   2  10  11   90.80   19.40
  -2  10  11   71.97   17.25
   2 -10  11   55.60   14.18
   2  10 -11   44.94   12.66
  -2  10  11   91.74   18.60
  -2  10 -11   48.31   13.26
   2  10  11   72.28   15.38
  -2 -10  11   48.94   12.11
  -2  10  12   47.19   13.85
   2  10 -12   32.74   11.01
  -2  10 -12   55.95   13.87
   2  10  12   49.82   11.79
  -2 -10  12   34.52   11.02
  -2  10  12   42.85   13.87
   2 -10  12   44.13   10.71
   2  10  12   44.17   12.40
   2  10  13    1.83    6.37
  -2  10  13    5.09    5.09
   2  10  13   -0.60    0.66
  -2  10  13    7.41    0.51
   2  10 -13    9.25    4.95
  -2  10 -13    3.90    2.71
   2 -10  13   14.60    8.66
  -2 -10  13    3.48    1.78
   2  10  14   34.42   11.50
  -2  10  14   16.67    6.70
   2  10 -14   21.24    7.79
   2 -10  14   25.51    9.79
   2  10  14   26.17   11.04
  -2  10 -14   20.99   11.71
  -2 -10  14   22.16    8.07
  -2  10  14   24.82    9.20
  -2  10  15   24.18    9.23
   2  10  15   24.35    8.77
  -2  10  15   35.50   12.27
   2 -10  15   31.75   12.60
   2 -10  15   28.05    8.75
   2  10  15   19.82   10.97
   2  10 -15   33.03   11.46
  -2 -10  15   55.41   14.81
  -2  10 -15   38.38   13.79
   2 -10  16   20.91    9.18
   2  10  16   -2.07    1.82
  -2  10  16   20.07   11.49
  -2  10  16    4.65    4.97
   2  10  16    7.00    6.80
  -2  10 -16   25.94   10.87
  -2 -10  16    1.57    4.72
   2  10 -16   14.50    8.57
   2 -10  16   17.28    7.97
   2 -10  17    3.30    4.87
   2  10 -17    0.32    2.40
  -2  10  17   -0.35    3.20
  -2  10 -17   -1.05    3.87
   2 -10  17    3.06    4.02
  -2  10  17    5.82    9.20
   2  10  17    2.94    2.81
  -2 -10  17   -1.82    5.83
  -2  10  17   -3.13    1.36
   2  10  17   -1.46    4.37
   2  10  18   33.42   15.42
  -2  10  18   30.19   12.83
  -2  10  18   31.21   14.16
  -2  10  18   60.30   16.11
   2  10  18   39.32   14.90
  -2  10 -18   24.42   11.37
   2  10 -18   38.79   11.38
   2 -10  18   47.12   13.12
  -2 -10  18   30.00   10.89
   2 -10  18   25.18   11.55
  -2  10  19   24.06   12.32
   2 -10  19    5.13    5.86
  -2  10  19   33.60   13.74
   2  10 -19   10.84    7.14
   2  10  19   15.80   11.34
  -2  10 -19   22.35    9.90
   2 -10  19   26.58    9.04
  -2 -10  19   38.19   14.21
  -2  10  19   12.55    8.22
  -2  10  20    4.47    6.05
   2  10  20    0.03    4.88
   2 -10  20    3.06    8.45
  -2  10  20   12.20    7.93
  -2  10  20    5.35    2.01
  -2 -10  20    3.96    7.40
  -2  10 -20    8.16    3.18
   2  10 -20   13.50   10.52
   2 -10  20   -0.88    3.76
   2  10  21   14.54   11.07
  -2  10 -21   13.64    7.95
   2 -10  21   28.32   11.44
  -2  10  21    6.05    6.39
   2 -10  21   20.63   10.13
  -2  10  21    7.54    4.12
  -2 -10  21   16.20    9.61
   2  10 -21    2.85    5.41
  -2  10  21    9.53    7.75
   2  10  22   46.57   12.73
  -2  10 -22   39.45    8.87
   2 -10  22   55.41   15.39
  -2  10  22   33.84   13.13
   2  10 -22   47.59   14.63
  -2 -10  22   80.53   17.47
  -2  10  22   64.99   16.37
  -2  10  22   67.86   19.18
   2 -10  22   74.14   19.94
   2  10  23   33.05   14.32
   2 -10  23   22.26   10.70
   2 -10  23    7.42    9.25
  -2  10 -23   15.96    9.54
   2  10 -23   10.20    6.70
  -2  10  23   25.67   11.02
  -2  10  23   27.75   12.66
  -2 -10  23    8.89    6.37
   2 -10  24    3.51    6.89
  -2  10 -24   13.88    7.82
   2  10 -24   17.78   10.81
   2 -10  24   10.86    6.13
  -2  10  24    3.47    7.22
  -2  10  24   16.90    7.17
  -2 -10  24   10.81    7.74
   2  10 -25   -0.16    0.76
  -2  10 -25    0.36    3.47
  -2  10  25    2.91    1.31
  -2 -10  25    4.69    0.62
   2  11   0  280.77   32.76
  -2  11   0  250.92   30.84
   2  11   0  183.23   23.69
  -2  11   0  255.03   29.45
   2  11  -1   19.69    5.04
   2  11   1   32.14   12.38
  -2  11   1   22.75    8.65
   2  11  -1   13.51    7.32
  -2  11  -1   19.35    9.54
  -2  11  -1   18.15    7.04
   2  11   1   14.26    6.53
  -2  11   1   15.54    3.26
  -2  11   2    3.40    3.28
   2  11   2    3.53    7.94
  -2  11   2    4.14    2.02
   2  11  -2   -2.01    1.65
  -2  11  -2    5.55    3.56
   2  11  -2    1.60    2.14
  -2  11  -2   -1.31    4.60
   2  11   2    1.07    1.98
   2  11   3    2.37    2.29
  -2  11   3   -1.09    6.61
  -2  11  -3    8.27    6.78
   2  11  -3    8.62    4.03
   2  11  -3    0.02    3.72
   2  11   3    6.65    5.73
  -2  11  -3    2.08    2.61
  -2  11   3    3.45    3.09
   2  11   4  463.54   42.30
  -2  11   4  536.41   45.49
   2  11  -4  429.83   41.08
  -2  11  -4  466.66   41.05
   2  11   4  429.85   36.48
  -2  11   4  434.93   38.05
  -2  11  -4  466.83   39.73
   2  11  -4  439.26   38.61
   2  11   5    1.75    2.21
  -2  11   5   13.66    8.22
   2  11   5    5.64    2.42
  -2  11   5    9.18    5.79
   2  11  -5    4.27    3.46
   2  11  -5   21.55   11.16
  -2  11  -5    8.85    4.91
  -2  11  -5    5.57    3.86
   2  11   6   99.86   17.09
   2  11  -6  115.24   19.31
  -2  11   6   66.08   15.36
  -2  11  -6   82.28   17.09
   2  11   6   75.29   17.61
   2 -11   6   70.02   15.97
   2  11  -6  103.81   19.97
  -2  11   6   59.43   14.39
  -2  11  -6  123.02   20.19
   2  11   7  181.24   27.35
  -2  11   7  158.95   26.10
  -2  11   7  200.56   26.66
  -2  11  -7  197.72   25.69
   2  11  -7  226.39   27.87
  -2  11  -7  199.19   26.91
   2 -11   7  223.49   27.74
   2  11  -7  157.58   23.40
   2  11   7  195.03   25.71
   2 -11   8    4.97    5.23
   2  11   8    3.53    6.14
  -2  11   8    6.49    5.99
   2  11   8   10.25    4.72
   2  11  -8   -2.06    2.74
  -2  11   8   10.72    5.76
  -2  11  -8   11.79    4.43
  -2  11  -8    9.77    7.05
   2  11  -8   14.20    8.04
  -2  11  -9   57.68   13.10
   2  11   9   23.98    9.96
  -2  11   9   42.32   11.84
   2  11  -9   38.50   10.70
  -2  11  -9   26.97    9.05
   2 -11   9   36.38   12.25
   2  11   9   42.67   12.72
  -2  11   9   52.93   12.92
   2  11  10  194.53   27.55
  -2  11  10  244.48   31.08
  -2  11 -10  123.61   21.23
  -2  11 -10  217.54   28.08
   2 -11  10  193.79   26.91
   2  11 -10  184.35   26.06
   2  11  10  176.94   25.56
  -2  11  10  240.89   30.54
  -2  11  11    0.55    3.85
   2  11  11    1.13    3.43
  -2  11 -11   -2.40    6.17
  -2  11 -11   -2.90    7.64
  -2  11  11    3.18    3.44
   2  11  11    2.89    6.33
   2  11 -11   -3.06    1.96
   2 -11  11    0.85    3.34
   2  11  12   57.94   16.28
  -2  11  12   50.84   12.61
  -2  11 -12   29.32   10.90
  -2 -11  12   39.89   11.21
   2 -11  12   29.59    9.74
  -2  11  12   48.45   14.00
  -2  11 -12   41.91   13.37
   2  11 -12   41.70   11.01
   2  11  12   43.32   12.59
  -2  11  13   24.00    6.61
   2  11  13   15.77    7.09
  -2 -11  13   14.06    8.08
   2  11 -13   21.62    8.60
   2 -11  13    5.50    6.00
   2  11  13   26.57   11.58
  -2  11  13   18.09   10.17
  -2  11 -13   44.45   12.44
  -2  11  14   81.54   17.45
  -2  11  14   33.06   19.60
   2  11 -14  107.47   20.47
  -2  11 -14   90.84   18.00
   2 -11  14   85.99   19.66
  -2 -11  14   54.75   15.16
   2  11  14   96.64   20.24
   2  11  14   88.10   18.65
  -2  11 -15    6.00    1.28
   2  11  15   16.93    8.38
   2 -11  15    5.41    1.58
   2  11 -15   -0.27    2.74
  -2 -11  15    5.02    3.92
  -2  11  15   12.77    8.04
  -2  11  16   27.74   11.23
   2  11  16   39.50   12.26
  -2  11  16   28.00   11.02
   2  11 -16   29.39   12.35
   2 -11  16   35.90   11.83
  -2  11 -16   24.56   10.67
  -2 -11  16   31.46   10.62
  -2  11  16   36.86   13.87
  -2  11  17    0.21    4.52
   2  11  17    1.61    4.75
  -2  11  17    2.44    3.66
   2 -11  17   -1.81    7.65
   2  11 -17   -0.69    7.03
  -2  11  17    0.52    5.85
  -2 -11  17    1.05    2.34
  -2  11 -17    7.05    4.69
  -2  11  18   16.66    9.54
   2  11  18    5.07    3.33
  -2  11  18   15.06   10.08
  -2 -11  18   20.35    8.52
   2 -11  18   28.44   11.50
   2  11 -18   33.65   11.59
  -2  11  18   23.79   10.71
  -2  11 -18    7.37    5.37
  -2  11  19    2.67    5.30
   2  11  19    3.59    7.29
  -2  11  19    1.79    9.99
  -2 -11  19   -0.48    1.80
  -2  11 -19   -4.45    4.46
   2 -11  19   15.95    8.45
  -2  11  19   -2.68    3.56
   2  11 -19    3.56    5.68
  -2  11  20    9.83    9.01
  -2  11  20    3.00    7.08
  -2  11  20   10.49   10.45
   2  11  20    1.93    4.59
   2  11 -20    8.63    9.35
  -2  11 -20    2.96    6.49
   2 -11  20    5.25    7.35
  -2 -11  20   -6.89    7.09
  -2  11  21    2.96    0.40
   2  11  21    8.60    8.92
  -2  11  21    5.26   11.99
  -2  11  21   11.79    7.67
   2  11 -21    6.36    9.41
  -2  11 -21    3.34    0.52
   2 -11  21   -0.76    2.44
  -2 -11  21   10.69    6.96
   2  11  22    5.13    6.22
   2 -11  22   -0.20    1.84
  -2  11  22    6.10   10.46
   2  11 -22   -6.32    5.46
  -2  11 -22    9.57    8.35
  -2  11  22   10.22    8.46
  -2  11  22   -0.83    3.14
  -2 -11  22   -7.09    9.03
  -2  11 -23    6.35    8.29
  -2  11  23   28.13   15.57
   2  11 -23   11.99    6.69
  -2 -11  23   16.14    9.65
   2 -11  23   12.74    8.69
  -2  11  23   11.66    8.39
   2  11  23   22.22   12.69
  -2  11  23    1.84    3.81
  -2  11 -24    6.25    2.38
   2  11 -24    4.27    6.50
   2 -11  24   10.40    6.81
  -2  11  24    8.88    7.25
  -2 -11  24   12.77    8.24
  -2  11  24    3.89   10.11
   2  12   0   40.66   13.83
  -2  12   0   55.02   16.98
  -2  12   0   43.14   11.35
   2  12   0   47.77   13.41
   2  12  -1   30.28   10.65
   2  12   1   10.12    6.64
  -2  12   1   19.65    7.43
  -2  12  -1   28.74   12.34
   2  12   1   19.13    7.43
   2  12  -1   19.65    8.81
  -2  12   1   16.17    8.76
  -2  12  -1   41.72   10.50
   2  12   2    8.73    6.18
   2  12  -2    1.49    2.90
   2  12   2    7.89    4.56
  -2  12   2   17.42    9.41
   2  12  -2    7.59    7.25
  -2  12  -2   27.85    9.75
  -2  12   2   18.48    8.30
  -2  12  -2   12.98    7.84
   2  12   3   11.21    7.99
   2  12   3   13.58    6.75
  -2  12   3   15.64    7.95
   2  12  -3   26.43    9.97
  -2  12  -3   10.79    8.57
  -2  12   3   31.72   10.86
   2  12  -3   11.73    6.46
  -2  12  -3   21.13    9.85
  -2  12   4   12.62    5.95
   2  12   4    8.50    2.18
   2  12   4    4.97    6.35
  -2  12   4   24.51   11.24
  -2  12  -4    9.52    4.00
   2  12  -4   -1.17    5.28
  -2  12  -4   20.78    9.48
   2  12  -4   19.61    8.77
  -2  12   5   -1.07    4.32
   2  12   5    1.24    1.10
  -2  12   5    0.43    4.61
   2  12  -5    5.75    6.47
  -2  12  -5   -0.48    2.38
  -2  12  -5    8.02    3.92
   2  12   5    5.91    6.07
   2  12  -5    4.81    3.92
  -2  12   6    0.46    2.49
  -2  12   6    0.11    3.12
   2  12  -6    5.16    7.30
   2  12   6    0.40    7.11
   2  12  -6    2.15    3.65
  -2  12  -6    2.28    5.73
  -2  12  -6   -2.00    2.39
   2  12   6    5.18    5.24
  -2  12   7    4.48    4.24
   2  12   7   12.15    4.78
   2  12  -7    0.63    2.89
  -2  12  -7    4.64    6.31
   2  12   7    6.31    7.13
   2  12  -7   -0.22    1.71
  -2  12  -7    2.03    3.95
  -2  12   7    1.62    7.35
  -2  12   8   18.70    7.83
  -2  12   8    4.64    6.70
  -2  12  -8   11.76    9.60
   2  12  -8    1.93    4.97
  -2  12  -8    4.56    3.74
   2  12  -8    2.83    3.66
   2  12   8    6.08    5.76
   2  12   8    7.51    1.05
   2  12   9   13.33    7.06
  -2  12   9   27.01   10.53
   2  12  -9    7.92    7.72
  -2  12  -9    9.17    6.85
  -2  12   9    5.63    3.29
   2  12   9   25.32    9.67
  -2  12  -9   22.99    9.50
   2  12  -9   19.71   10.74
   2  12 -10   13.85    9.27
  -2  12 -10   -5.02    7.75
  -2  12  10    4.74    6.29
   2  12 -10   -0.78    1.72
  -2  12  10   -4.23    7.66
  -2  12 -10    3.36    3.98
   2  12  10   -0.64    4.53
   2  12  11    6.03    4.69
  -2  12  11   14.11    9.82
  -2  12 -11   17.03    8.96
  -2  12  11   28.85   11.06
   2  12 -11    8.56    6.58
  -2  12 -11   10.97    4.12
   2  12  12    1.10    3.02
  -2  12  12    6.00    6.18
  -2  12 -12    3.79    6.69
   2  12 -12    7.66    6.40
  -2  12  12   -1.46    2.48
  -2  12 -12    3.73    6.24
   2  12  13   -0.68    3.88
  -2  12  13   -7.79    6.96
  -2  12 -13    6.62    5.75
  -2  12  13   -0.95    2.43
   2  12 -13    3.46    6.66
  -2  12 -13    1.99    4.03
  -2  12  14    7.86    6.73
  -2  12  14   11.28    8.44
  -2  12 -14    9.37    6.25
  -2  12 -14    5.41    4.42
   2  12 -14    4.90    4.92
   2  12  14   24.78   11.00
   2  12  15   21.92   11.00
  -2  12  15   11.85    8.49
  -2 -12  15   17.63    8.72
   2  12 -15    6.39    1.15
  -2  12  15   14.90    8.10
  -2  12 -15   14.86    9.59
  -2  12  16    6.57    5.67
   2  12  16    8.55    8.97
  -2  12  16    7.89    8.55
   2  12 -16   -2.45    2.88
  -2  12 -16   -1.17    4.05
  -2 -12  16   -1.77    6.90
  -2  12  16   -3.34    3.60
  -2  12  17    1.79    2.29
   2  12  17   -1.17    0.91
  -2  12  17    2.05    2.95
   2  12 -17   -2.34    6.05
  -2  12 -17    2.11    3.41
  -2 -12  17    4.44    6.32
  -2  12  17   -2.51    5.65
  -2  12  18   -1.78    5.12
  -2  12  18   -5.00    7.67
  -2  12  18    2.80    3.51
   2  12 -18   21.10   10.10
  -2  12 -18    4.85    1.83
  -2 -12  18   -0.71    2.19
   2  12  18   16.34    9.20
  -2  12  19   17.49   10.28
   2  12  19   20.93    8.50
  -2  12  19   27.88   10.97
  -2  12 -19   16.26    7.18
   2  12 -19   14.67    9.62
  -2 -12  19    8.02    6.66
  -2  12  19   10.04    7.82
  -2  12  20   -4.58    3.45
   2  12  20   -2.91   11.01
  -2  12  20   -2.97    6.09
  -2  12 -20   -4.83    1.82
   2  12 -20    5.68    5.37
  -2 -12  20    0.56    2.38
  -2  12  20    5.13    2.81
  -2  12  21    8.76    8.75
   2  12  21    0.67    7.70
  -2  12  21    6.28    4.56
   2  12 -21    9.63    7.27
  -2  12 -21    4.74    3.98
  -2  12  21    7.70    7.25
  -2 -12  21    2.63    5.19
  -2  12  22   -5.27    7.65
   2  12  22   -2.57    5.74
  -2  12  22   -5.19    8.40
  -2  12 -22   -4.03    5.70
   2 -12  22    9.48    6.01
   2  12 -22   -0.79    2.99
  -2 -12  22    7.89    7.62
  -2  12  22    1.40    5.45
  -2  13   0  145.93   26.46
  -2  13   0  132.03   23.19
   2  13   0  154.41   25.97
   2  13   0  140.13   22.61
  -2  13   1   45.33   16.66
  -2  13   1   36.03   11.21
   2  13  -1   48.32   14.87
  -2  13  -1   27.54   10.49
   2  13   1   39.14   12.00
   2  13   1   34.80   13.51
  -2  13  -1   23.26   11.29
   2  13  -1   31.93   11.50
   2  13   2    0.93    5.47
  -2  13   2    2.84    8.17
   2  13  -2    6.68    6.89
  -2  13  -2   12.40    9.84
   2  13   2   11.07    9.31
  -2  13   2    5.37    7.28
  -2  13  -2   -2.83    6.27
   2  13  -2    8.06    7.25
  -2  13  -3   12.55    5.81
   2  13  -3    3.05    1.90
   2  13   3    5.57    0.90
   2  13   3    4.17    2.16
  -2  13   3   13.87    3.86
  -2  13  -3    8.56    6.94
  -2  13   3   10.56    6.62
   2  13  -3    2.16    2.27
   2  13   4   25.53   11.09
  -2  13  -4   31.26   11.68
  -2  13   4    9.94    8.40
   2  13   4   18.98   10.76
  -2  13   4   34.53   11.48
   2  13  -4   18.08   10.92
   2  13  -4    9.06    5.64
  -2  13  -4    7.55    6.39
  -2  13   5    8.63    7.54
   2  13   5   -0.83    3.32
  -2  13   5    4.48    2.40
   2  13  -5   15.18    4.85
  -2  13  -5    2.17    0.62
  -2  13  -5    2.63    3.94
   2  13  -5    3.61    2.62
   2  13   5   15.58   10.81
   2  13   6   12.09    4.66
   2  13  -6   14.61    8.90
   2  13  -6   21.90    8.44
   2  13   6   -4.16    2.16
  -2  13  -6   20.10    7.48
  -2  13  -6   26.37   11.68
  -2  13   6   19.04   10.06
  -2  13   6    8.85    1.84
  -2  13   7   66.04   16.61
   2  13  -7   57.64   15.04
   2  13   7   82.63   18.99
  -2  13   7  100.81   20.98
   2  13  -7   62.97   16.46
  -2  13  -7   47.41   14.24
  -2  13  -7   80.91   17.32
   2  13   8   -4.67    7.62
  -2  13   8    0.15    4.21
  -2  13  -8    6.14    7.17
   2  13  -8   -2.37    4.37
   2  13  -8    2.30    3.37
  -2  13  -8    6.09    4.82
  -2  13   8   -0.37    5.00
  -2  13  -9   51.23   16.02
   2  13   9   24.55   12.98
  -2  13   9   32.10    9.69
   2  13  -9   44.45   15.06
  -2  13  -9   17.97    8.66
  -2  13   9   18.19    6.17
   2  13  -9   19.74    6.09
   2  13  10   24.65    9.76
  -2  13  10   15.61    7.32
   2  13 -10    4.28    4.25
  -2  13 -10   18.66   10.30
   2  13 -10   10.21    9.79
  -2  13 -10   19.67    8.52
  -2  13  10    4.16    3.19
   2  13  11   27.62   12.87
  -2  13  11   38.88   14.28
  -2  13  11   56.17   16.13
   2  13 -11   42.65   13.43
  -2  13 -11   37.12   10.58
  -2  13 -11   24.86    9.76
   2  13 -11   38.86   10.78
   2  13  12   17.17   10.16
  -2  13  12   13.54    8.15
  -2  13 -12    0.24    3.65
   2  13 -12   36.51   12.39
  -2  13  12   34.06   12.38
   2  13 -12    3.22    2.12
  -2  13 -12   10.42    7.44
  -2  13 -13   11.84    7.64
   2  13  13    3.14    2.67
  -2  13  13    5.55    3.70
   2  13 -13    6.17    6.06
   2  13 -13   -0.78    4.32
  -2  13 -13   12.28    8.74
  -2  13  13    6.97    8.32
   2  13  14    7.41    8.81
  -2  13  14    9.01    7.63
  -2  13  14   -0.21    4.40
   2  13 -14    2.10    4.47
  -2  13 -14   -3.42    8.00
  -2  13 -14   -2.22    4.85
   2  13  15   14.53    7.98
  -2  13  15   13.48    6.73
  -2  13  15   14.67    7.93
   2  13 -15   13.35    3.64
  -2  13 -15   40.54   13.56
  -2  13 -15   21.29   10.46
   2  13  16   -3.77    7.22
  -2  13  16   -7.78    8.96
  -2  13 -16   -1.19    4.15
  -2  13 -16    0.90    2.77
   2  13 -16   -2.16    3.76
  -2  13  16    1.26    5.69
   2  13  17    4.29    9.41
  -2  13  17   19.90    7.69
   2  13 -17   12.33    7.47
  -2  13  17   11.21    9.91
  -2  13 -17    9.80    5.39
  -2  13 -17   13.53   10.14
  -2  13  18    0.03    6.04
  -2  13  18   -2.49    3.64
   2  13 -18   -2.92    2.23
  -2  13 -18    1.97    1.34
  -2  13 -18   10.12    8.72
  -2  13  19    4.56    7.34
  -2  13  19   -0.68    5.01
   2  13  19   -4.39    3.82
   2  13 -19    7.54    7.14
  -2  13 -19    1.57    4.03
  -2 -13  19    5.96    3.85
   2  14   0   44.89   15.48
  -2  14   0   33.57   10.26
  -2  14   0   32.58    8.93
   2  14   0   46.95   14.71
   2  14  -1   -1.84    3.74
   2  14   1    1.48    3.90
  -2  14   1   -1.99    2.88
   2  14  -1   -3.68    6.98
  -2  14  -1    9.81    7.88
  -2  14   1   -2.55    3.28
  -2  14  -1   -0.32    2.13
   2  14   2    8.05    8.33
   2  14  -2    6.76    8.67
  -2  14  -2    4.28    0.97
  -2  14   2    9.01    6.50
   2  14  -2    3.93    7.44
  -2  14  -2   -1.08    3.77
  -2  14   2    2.48    5.91
   2  14   3   30.04   13.93
  -2  14   3    9.31    3.47
  -2  14   3   30.75   11.58
   2  14  -3   30.93   10.69
  -2  14  -3   31.27   10.17
  -2  14  -3   24.68   10.30
   2  14  -3   16.74    7.27
   2  14  -4   19.60    8.02
  -2  14   4    0.47    3.99
   2  14   4   19.90   12.05
  -2  14   4    6.67    5.72
   2  14  -4    8.80    4.69
  -2  14  -4    9.86    6.17
  -2  14  -4    5.87    4.27
  -2  14   5   -6.59    8.84
   2  14   5   -1.98    5.46
  -2  14   5   11.47    9.05
   2  14  -5    4.39    5.61
   2  14  -5   -5.47    7.08
  -2  14  -5    6.19    4.96
  -2  14  -5    8.53    4.90
   2  14   6    3.72    6.42
  -2  14   6    4.07    3.13
  -2  14  -6    0.52    4.62
   2  14  -6    0.41    3.71
  -2  14  -6   -3.87    3.40
   2  14  -6    9.42   10.04
  -2  14   6    1.02    0.88
   2  14   7   13.95    9.55
  -2  14   7    8.02    5.16
   2  14  -7   18.62    9.62
  -2  14  -7    4.69    1.60
  -2  14  -7   19.90    7.88
  -2  14   7    9.28    7.14
   2  14  -7   20.40   12.42
  -2  14   8    8.79    7.77
   2  14  -8    6.34    4.77
  -2  14  -8    5.25    2.42
  -2  14  -8    2.22    2.71
   2  14   8   15.07    9.69
  -2  14   8   13.70    7.63
   2  14  -8    8.14    2.70
   2  14  -9    4.13    6.62
   2  14   9    2.98    3.20
  -2  14   9   -2.47    6.83
  -2  14   9    2.23    6.66
   2  14  -9   -9.62    9.61
  -2  14  -9    0.33    4.57
  -2  14  -9    3.14    5.83
  -2  14  10    0.31    3.87
   2  14  10    1.09    5.57
   2  14 -10   -0.75    5.34
  -2  14 -10    6.18    5.47
   2  14 -10    5.93    6.36
  -2  14 -10    3.03    6.17
  -2  14  10   -2.81    5.99
  -2  14 -11   -1.32    5.55
   2  14  11    4.16    8.82
  -2  14  11   10.38    7.59
   2  14 -11   -1.49    5.00
   2  14 -11    6.25    2.57
  -2  14 -11    0.92    2.07
  -2  14  11   -1.07    2.26
   2  14 -12   -1.54    1.12
   2  14  12   -2.89    5.53
  -2  14  12    2.37    6.09
  -2  14 -12    0.36    1.35
   2  14 -12    1.21    2.64
  -2  14 -12    1.27    5.74
  -2  14  12    1.13    5.64
   2  14  13    4.94    4.87
  -2  14  13    8.14    9.07
   2  14 -13    3.16    5.32
  -2  14  13   23.76   10.28
  -2  14 -13   11.60    8.80
   2  14 -13    4.73    3.96
  -2  14 -13   -0.49    2.94
   2  14  14   -3.61    7.36
  -2  14  14   21.98   11.97
  -2  14 -14    1.95    6.51
  -2  14  14   15.00    6.30
   2  14 -14   -2.33    2.50
  -2  14 -14   -0.14    5.69
   2  14 -14   -0.79    3.51
   2  14  15   -6.34    8.66
  -2  14  15   11.89    9.15
  -2  14  15   -4.78    6.89
   2  14 -15    0.53    3.68
   2  14 -15    1.59    3.70
  -2  14 -15   -5.63    6.23
  -2  14 -15    0.06    5.51
  -2  14 -16   -4.98    7.37
   2  14  16   -4.83    5.88
  -2  14  16   -1.01    5.43
  -2  14 -16    3.13    5.05
   2  14 -16    3.27    5.11
   2  14 -16    1.89    6.27
  -2  14  16    7.87    6.76
  -2  14  17    1.28    5.45
  -2  14  17  -11.35    9.19
   2  14  17   -0.67    2.97
  -2  14 -17    4.46    4.63
   2  14 -17    3.14    6.06
  -2  14 -17    3.94    1.18
   2  15   0   10.28    2.37
  -2  15   0   11.40    8.41
  -2  15   0   13.20    8.97
   2  15   1   10.44    1.54
  -2  15   1   -3.43    5.93
   2  15  -1   -9.86    8.34
  -2  15  -1    6.77    4.78
  -2  15   1   -0.51    2.21
  -2  15  -1    0.11    4.53
   2  15   2    2.37    4.20
  -2  15   2   -1.47    5.52
  -2  15   2   -4.17    3.81
   2  15  -2    5.57    7.25
  -2  15  -2    9.21    8.15
  -2  15  -2    2.63    6.02
   2  15  -3   21.67    7.63
  -2  15   3   16.13    6.25
   2  15   3   37.55   13.05
  -2  15   3   34.43   11.48
  -2  15  -3   20.71    8.83
  -2  15  -3   19.98   11.01
  -2  15   4   32.53   13.46
   2  15   4   66.17   17.53
  -2  15   4   24.37   11.83
   2  15  -4   34.70   11.56
  -2  15  -4   42.36   13.66
  -2  15  -4   30.41   12.46
   2  15   5    4.33    8.33
   2  15  -5   10.27    9.34
  -2  15  -5   -1.72    5.96
  -2  15   5    0.70    1.44
  -2  15  -5    8.15    5.76
  -2  15   5    9.39    4.61
  -2  15  -6   17.40    8.84
  -2  15   6   18.22   10.24
   2  15  -6   27.86   13.56
   2  15  -6   27.44   13.43
   2  15   6   36.96   12.82
  -2  15  -6   35.21   14.58
  -2  15   6    7.83    6.46
  -2  15   7   43.75   14.68
  -2  15  -7   20.75    7.84
   2  15  -7   22.53    9.53
  -2  15  -7   36.32   15.53
   2  15  -7   17.16   10.70
   2  15   7   34.75   14.10
  -2  15   7   22.81    9.63
   2  15   8   50.97   15.50
  -2  15   8   47.57   13.35
  -2  15  -8   14.57    4.79
   2  15  -8   55.13   16.33
  -2  15  -8   57.46   15.93
   2  15  -8   38.71   13.43
  -2  15   8   46.68   14.83
   2  15   9   13.05    9.84
  -2  15   9   -1.54    4.81
  -2  15  -9   15.17    9.18
   2  15  -9    0.23    1.84
  -2  15  -9   -0.32    3.93
  -2  15   9   -2.29    7.63
   2  15  -9   10.47   10.82
   2  15  10    5.63    5.46
   2  15 -10    9.85    6.45
  -2  15 -10   10.77    9.92
  -2  15  10   10.36    7.57
  -2  15 -10    8.75   10.26
  -2  15  10    3.54    1.72
   2  15 -10    9.16    4.39
   2  15 -11    2.43    4.36
  -2  15  11   19.47   10.95
   2  15  11    0.43    6.61
  -2  15  11   11.93    8.94
   2  15 -11   -1.66    1.65
  -2  15 -11    2.79    7.39
  -2  15 -11    0.94    3.13
   2  15  12   -1.07    7.08
  -2  15  12   -1.78    8.12
   2  15 -12    1.14    4.91
   2  15 -12    0.16    6.22
  -2  15 -12    3.38    5.68
  -2  15  12   -3.20    6.15
  -2  15 -12   12.89   10.51
  -2  15 -13   -2.00    4.02
   2  15  13    1.91    3.26
  -2  15  13    0.39    4.17
   2  15 -13    2.23    5.37
  -2  15  13   13.66   11.66
  -2  15 -13    2.77    5.28
   2  15 -13   -1.45    1.70
   2  16   0    1.10    1.33
  -2  16   0   -3.11    9.44
  -2  16   0    1.82    9.11
  -2  16  -1   -8.02    5.36
   2  16   1   -1.34    5.31
  -2  16   1   -6.21    5.27
  -2  16   1    1.50    4.75
  -2  16  -1   -3.29    3.74
   2  16  -1   -0.93    7.27
  -2  16   2    1.49    6.60
   2  16   2    1.90    1.35
  -2  16   2    5.93    6.63
   2  16  -2    9.06    9.88
  -2  16  -2   -4.59    8.27
  -2  16  -2   -2.59    4.40
  -2  16   3   16.19   11.98
   2  16   3    5.45    7.32
  -2  16   3    5.98    2.71
   2  16  -3    1.39    1.03
  -2  16  -3    2.28    6.25
  -2  16  -3    1.20    3.54
  -2  16   4   10.26    7.17
   2  16   4   -1.75    4.18
   2  16  -4   15.38    9.80
  -2  16  -4   10.50    7.09
  -2  16   4    9.21    7.75
  -2  16  -4   16.64   10.19
   2  16   5   -3.18    3.51
  -2  16   5    2.74    4.92
  -2  16   5   -4.14    4.74
   2  16  -5    4.71    8.18
  -2  16  -5   -6.62    9.41
  -2  16  -5   -0.51    4.92
   2  16   6   -1.87    5.49
  -2  16   6    9.14    8.74
   2  16  -6    5.79    6.87
  -2  16  -6   13.29    7.87
  -2  16   6   19.59   10.63
  -2  16  -6   22.80    9.90
  -2  16  -7   -2.11    0.36
   2  16   7    3.15    3.84
  -2  16   7    2.15    2.03
   2  16  -7    3.65    9.70
  -2  16  -7   -5.88    3.08
  -2  16   7    7.51    5.35
   3   0   0    0.32    1.87
  -3   0   0    0.91    0.90
  -3   0   1   -0.45    0.72
   3   0  -1   -1.56    2.07
  -3   0  -1   -0.03    0.68
   3   0   1   -0.37    1.12
  -3   0   2  662.50   22.76
  -3   0  -2  814.42   20.73
  -3   0   3    0.22    1.71
   3   0   3    3.10    3.36
   3   0   4   48.66    7.78
  -3   0   4   37.17    6.22
   3   0   5    1.56    0.59
   3   0   5    1.77    1.89
  -3   0   5    0.56    2.38
  -3   0   6   32.38    6.61
   3   0   6   59.60    9.66
   3   0   6   54.54    7.35
   3   0   7    1.60    2.57
  -3   0   7   -0.46    0.97
   3   0   7   -0.93    2.46
   3   0   8    8.09    3.43
  -3   0   8   11.51    5.55
   3   0   8   11.96    4.08
   3   0   9    4.73    3.13
   3   0   9   -0.34    1.59
  -3   0   9   -2.26    2.63
  -3   0  10  107.63   14.99
   3   0  10  115.45   13.58
  -3   0  11   -0.71    2.53
   3   0  11   -1.36    0.14
   3   0  11   -1.95    3.74
   3   0  12    4.28    6.17
   3   0  12    5.89    3.65
   3   0  13   -0.54    1.23
  -3   0  13    0.73    3.16
   3   0  13   -1.80    3.05
   3   0  14    1.30    2.62
  -3   0  14    0.51    6.08
   3   0  14   -0.42    1.56
  -3   0  14   -0.29    2.63
   3   0  15    5.04    5.77
  -3   0  15    2.60    5.89
   3   0  15   -3.76    4.57
  -3   0  15    3.00    5.61
   3   0  16    1.76    1.80
  -3   0  16   -0.46    2.85
   3   0  16    4.13    3.81
  -3   0  16    3.56    5.69
   3   0  17    2.66    4.49
   3   0  17    5.76    6.60
  -3   0  17    3.58    4.30
  -3   0  17   -0.88    5.84
  -3   0  18  560.99   42.27
  -3   0  18  521.83   40.27
   3   0  18  487.11   38.08
  -3   0  19    1.08    2.01
   3   0  19   -2.69    3.74
  -3   0  19    2.96    3.80
   3   0  19   -2.37    2.86
   3   0  20   -0.43    3.81
  -3   0  20    8.67    4.62
   3   0  20   13.40   10.38
  -3   0  20    3.80    4.58
   3   0  21   -0.16    2.16
  -3   0  21    0.57    3.68
   3   0  21   -0.24    4.32
  -3   0  21   -4.90    6.59
   3   0  22    2.16    2.69
   3   0  22   -0.38    4.27
  -3   0  22    1.65    4.94
  -3   0  22   -4.48    6.86
  -3   0  23   -1.62    3.08
   3   0  23    1.43    5.07
  -3   0  23    7.78    8.42
   3   0  23   -0.55    3.28
   3   0  24    4.95    5.25
  -3   0  24    1.15    4.40
   3   0  24    5.66    0.73
  -3   0  24    0.69    3.44
   3   0  25   12.81    9.35
  -3   0  25    6.53    4.61
  -3   0  25    0.57    2.95
   3   0  25   -5.86    6.30
   3   0  26   17.79    9.37
  -3   0  26   16.85   10.69
   3   0  26   17.84   10.13
  -3   0  26   21.22   10.86
  -3   0  27   -0.93    5.72
   3   0  27    4.01    4.95
  -3   0  27   -3.33    3.66
   3   0  27    3.08    7.25
   3   0  28    5.59    7.74
  -3   0  28   -5.89    7.46
   3   0  28    4.06    3.15
  -3   0  28   -0.39    3.32
   3   0  29    2.18    5.50
  -3   0  29    1.76    8.16
   3   0  29   -7.08    5.07
  -3   0  29   -9.21    9.16
  -3   0  30    6.68    3.81
   3   0  30    5.07    3.09
  -3   0  30   11.84    7.41
   3   0  31    4.96    7.68
  -3   0  31    1.43    7.48
   3   0  31   -8.66    9.37
  -3   0  31   -1.57    5.97
  -3  -1   0    0.06    0.52
   3   1   0   -0.33    0.46
   3  -1   0    0.58    4.61
  -3   1   0    0.13    0.92
   3   1   0    0.12    0.90
   3   1  -1  717.07   19.55
  -3   1   1  850.38   27.02
  -3  -1   1  816.91   19.74
   3   1  -1  808.69   28.19
   3  -1  -1  946.12   35.73
   3   1   1  999.98   33.52
  -3   1  -1  843.78   26.21
   3   1   1  772.67   21.34
   3   1   2 1751.29   35.83
   3   1  -2 1477.59   26.60
  -3   1  -2 1518.61   35.43
   3   1   2 1706.83   43.78
   3  -1   2 1574.94   49.32
  -3   1   2 1900.78   43.10
  -3  -1   3 3187.83   52.83
   3   1  -3 4016.04   45.69
  -3   1  -3 3813.33   59.67
  -3   1   3 3240.87   60.66
   3  -1   3 3697.21   73.33
   3   1   3 2985.59   52.69
   3   1   4   24.58    5.11
   3  -1   4   16.02    5.11
  -3   1   4   18.06    4.95
   3   1  -4    2.97    1.61
   3   1   4   23.07    5.56
   3  -1   4   12.47    3.26
  -3  -1   4   17.41    4.27
   3   1   4   17.19    2.63
  -3  -1   5  425.46   22.91
   3  -1   5  467.25   23.19
   3   1   5  461.12   16.99
   3  -1   5  492.55   27.00
   3   1   5  409.69   23.25
  -3   1   6 2170.53   56.68
   3  -1   6 2062.56   57.40
   3   1   6 1930.05   55.18
  -3  -1   6 2238.75   57.34
   3  -1   6 2137.92   50.55
   3   1   6 2066.74   41.90
  -3  -1   7  374.57   25.04
  -3   1   7  346.56   23.70
   3  -1   7  312.98   23.10
   3  -1   7  272.12   18.38
   3   1   7  297.60   21.79
   3   1   7  291.97   16.85
  -3  -1   8  936.36   41.38
  -3   1   8  846.02   38.15
   3   1   8 1073.55   44.24
   3  -1   8  758.33   33.28
   3  -1   8 1008.58   43.33
   3   1   8  888.35   33.21
   3   1   9  365.93   22.82
  -3  -1   9  321.34   25.33
   3  -1   9  360.61   23.68
  -3   1   9  377.14   26.62
   3  -1   9  420.20   30.32
   3   1   9  404.35   27.34
  -3  -1  10  792.14   40.30
  -3   1  10  868.20   42.41
   3  -1  10  861.79   43.36
   3   1  10  942.29   44.90
   3  -1  10  844.28   37.30
   3   1  10  797.03   35.52
   3  -1  11    7.05    2.59
   3   1  11    5.58    3.93
   3   1  11    6.03    3.42
  -3  -1  11    5.82    5.03
   3  -1  11    4.68    2.76
  -3   1  11    4.68    2.15
  -3  -1  12 1616.27   61.96
   3   1  12 1724.66   57.80
   3  -1  12 1676.63   59.09
   3  -1  12 1818.32   66.03
  -3  -1  13  346.64   29.39
  -3  -1  13  372.66   29.68
   3  -1  13  349.80   29.91
   3   1  13  406.26   32.29
   3  -1  13  321.57   26.91
   3   1  13  348.98   27.33
   3  -1  14   13.50    6.55
   3   1  14   18.88    7.33
   3  -1  14   16.70    6.02
  -3  -1  14   15.98    7.39
  -3  -1  14   13.99    7.04
  -3   1  14   21.32    7.67
   3   1  14   20.61    5.00
  -3  -1  15  129.56   20.29
  -3   1  15  140.03   20.49
  -3   1  15  179.20   23.24
   3   1  15  167.62   20.32
   3  -1  15  207.32   23.96
   3   1  15  184.09   23.15
  -3  -1  15  119.80   18.11
   3  -1  15  143.26   19.40
  -3  -1  16  826.84   50.60
  -3   1  16  977.89   55.49
   3  -1  16 1136.20   57.95
   3   1  16  940.61   53.75
  -3  -1  16  699.70   44.16
  -3   1  16  878.21   51.64
   3  -1  16 1034.23   52.41
   3   1  16  977.24   51.18
  -3   1  17  209.31   26.53
  -3  -1  17  121.62   19.86
   3  -1  17  186.88   23.71
  -3   1  17  157.89   21.43
  -3  -1  17  168.94   22.23
   3  -1  17  188.90   22.41
   3   1  17  181.83   24.25
   3   1  17  160.83   21.11
  -3  -1  18   -4.44    5.51
   3  -1  18    5.22    3.96
   3   1  18    5.42    3.70
  -3  -1  18    9.55    3.41
  -3   1  18   12.29    6.73
   3  -1  18    2.33    1.24
   3   1  18    2.15    4.78
  -3   1  18   13.08    6.20
   3   1  19   13.91    5.64
  -3  -1  19    8.39    5.14
   3   1  19   27.59    9.93
  -3   1  19    5.18    6.34
   3  -1  19   13.76    7.05
   3  -1  19   25.55    9.70
  -3  -1  19   25.94    9.07
  -3   1  19   18.55    9.64
  -3  -1  20  323.82   34.68
  -3   1  20  315.95   33.69
   3  -1  20  275.57   30.14
   3   1  20  298.11   31.93
   3   1  20  215.30   28.00
  -3  -1  20  313.40   33.50
  -3   1  20  298.13   32.00
   3  -1  20  244.55   29.12
   3  -1  21   13.22    6.31
  -3  -1  21    7.10   10.05
   3   1  21   10.77    4.36
  -3  -1  21   24.61   10.47
  -3   1  21   22.16    9.45
   3  -1  21   22.81    8.41
  -3   1  21   14.09    7.01
   3   1  21   47.07   12.24
  -3   1  22  109.30   20.59
  -3  -1  22   91.06   19.51
   3  -1  22  131.08   21.46
   3   1  22  108.49   21.94
   3  -1  22  114.33   19.84
  -3  -1  22  111.96   20.92
  -3   1  22  107.89   21.29
   3   1  22   84.97   17.53
  -3   1  23  215.97   29.36
  -3  -1  23  212.75   29.90
   3   1  23  180.90   26.84
   3  -1  23  202.12   28.26
   3   1  23  272.73   33.52
  -3  -1  23  175.99   26.85
  -3   1  23  211.10   29.65
   3  -1  23  160.98   24.55
   3  -1  24   41.21   12.45
   3   1  24   34.23   12.75
  -3   1  24   15.38   13.30
  -3  -1  24   38.35   11.47
   3  -1  24   41.93   10.79
   3   1  24   64.18   16.21
  -3   1  24   62.86   16.14
  -3  -1  24   48.59   14.46
   3  -1  25   -0.16    5.11
  -3   1  25    3.12    3.42
   3   1  25    5.86    0.87
  -3  -1  25    6.07    5.65
  -3   1  25    1.55    5.76
   3  -1  25    4.42    4.45
   3   1  25    7.49    8.37
  -3  -1  25   -4.42    1.98
   3  -1  26   76.25   18.06
  -3   1  26   88.28   19.41
  -3  -1  26   98.09   21.67
   3   1  26   94.36   20.56
   3  -1  26   64.82   16.71
  -3   1  26   92.94   20.63
  -3  -1  26   74.81   18.22
   3   1  26  119.42   22.45
   3  -1  27   14.83    9.76
   3   1  27   43.56   14.82
  -3  -1  27   32.67   10.85
   3  -1  27   37.49   12.50
  -3   1  27   42.71   15.81
   3   1  27   31.11   12.59
  -3  -1  27   28.15   11.26
  -3   1  27   19.04    7.14
   3  -1  28   -1.36    6.05
   3   1  28    6.78    5.70
  -3  -1  28   17.80    8.83
  -3   1  28   21.07   10.14
   3  -1  28   28.29   11.84
   3   1  28   15.01    7.81
  -3  -1  28   17.08    8.02
  -3   1  28   13.77    9.02
   3  -1  29   -3.74    9.05
   3   1  29    1.98    0.53
  -3  -1  29    5.80    6.15
  -3   1  29    9.67    8.06
  -3   1  29    5.18    4.30
   3  -1  29   -0.84    8.43
   3   1  29    4.12    2.98
  -3  -1  29    8.34    4.02
   3  -1  30   10.87    6.18
   3   1  30   30.14   11.05
  -3  -1  30   30.75   12.47
  -3   1  30   43.11   14.21
  -3   1  30   29.42    8.92
   3  -1  30   24.36   12.36
   3   1  30   47.35   15.60
  -3  -1  30   42.35   14.85
   3  -1  31    2.82    3.49
   3   1  31   18.56    8.73
   3   1  31   32.36   12.52
  -3  -1  31   25.84   13.55
  -3   1  31   28.19   13.18
  -3  -1  31   41.95   11.30
   3  -1  31   35.03   15.86
  -3   1  31   29.77   12.16
   3   2   0   -0.44    0.92
   3   2   0   -0.06    0.56
  -3   2   0   -0.91    1.13
   3  -2   0   -0.26    2.13
  -3   2   0    1.31    0.48
   3  -2  -1    2.41    0.72
  -3  -2   1    1.96    1.10
   3   2   1    0.94    0.43
   3   2  -1    2.23    1.14
  -3   2  -1    0.13    0.82
  -3   2   1    2.83    1.62
  -3   2  -1    0.89    2.52
  -3   2   1    2.95    2.69
   3   2   1    2.42    2.67
   3  -2   1   -1.42    1.21
  -3   2   2  162.66    9.85
   3   2   2  229.85   15.13
   3   2   2  193.98   13.59
  -3   2   2  191.68   15.27
   3   2  -2  175.16   12.13
  -3  -2   2  215.36   11.92
   3  -2   2  134.91   14.98
  -3   2  -2  208.07   15.27
  -3  -2   3  477.43   19.77
  -3   2   3  513.65   25.75
   3  -2   3  450.31   26.95
   3   2  -3  436.58   19.68
  -3   2  -3  488.79   24.36
  -3   2   3  476.06   17.20
   3   2   3  519.56   23.03
   3   2   3  435.33   21.63
  -3  -2   4  629.13   25.76
   3  -2   4  919.61   38.56
   3   2   4  764.37   30.57
   3   2   4  742.04   28.93
  -3   2   4  472.34   18.04
  -3   2   4  709.18   32.03
   3   2   4  770.99   16.65
   3  -2   5  272.89   21.55
   3  -2   5  360.88   21.29
  -3  -2   5  439.93   23.39
   3   2   5  368.91   22.21
   3   2  -5  245.72   15.83
   3   2   5  324.48   14.06
  -3   2   5  355.88   23.74
  -3   2   5  299.61   16.04
   3   2   5  463.74   24.65
   3   2   6   -0.98    2.68
  -3   2   6   -0.14    2.52
   3   2   6   -0.64    1.11
   3   2   6   -1.56    1.34
  -3  -2   6   -1.25    2.32
   3  -2   6    2.23    2.69
   3   2  -6   -0.77    1.74
  -3   2   6   -1.69    1.63
   3  -2   6    2.84    1.83
   3   2   7  304.55   22.21
   3   2   7  210.33   14.50
  -3  -2   7  231.89   19.14
   3   2  -7  322.11   21.13
   3  -2   7  238.03   20.86
  -3   2   7  208.55   19.50
   3  -2   7  275.04   20.37
   3   2   7  237.77   19.75
   3   2   8  472.09   23.60
  -3  -2   8  444.91   28.22
   3   2   8  411.74   27.13
  -3   2   8  378.44   26.53
   3  -2   8  363.86   24.24
   3   2  -8  413.54   24.62
   3   2   8  455.24   29.38
  -3   2   9    0.46    3.16
   3   2   9   10.10    4.24
  -3  -2   9    6.48    4.48
   3  -2   9    5.40    3.71
   3   2   9   10.88    5.54
   3  -2   9    4.78    3.39
   3  -2  10    0.90    1.43
  -3   2  10   -0.32    1.80
  -3  -2  10    0.89    0.79
   3   2  10   -0.57    0.42
  -3  -2  10   -0.56    1.48
   3  -2  11   35.55    8.60
   3  -2  11   48.95   10.31
   3   2  11   28.78    6.97
  -3  -2  11   37.83    9.18
  -3  -2  11   32.73    7.69
   3   2  11   48.38   10.97
  -3   2  11   23.52    7.69
   3   2  12   60.21   10.50
  -3  -2  12   75.55   13.26
  -3   2  12   72.10   12.78
   3  -2  12   74.82   14.05
   3   2  12   71.71   12.81
  -3  -2  12   87.37   13.69
   3  -2  12   78.79   12.90
   3   2  13   45.11    9.91
  -3  -2  13   35.87   10.14
   3   2  13   31.99    8.68
   3  -2  13   36.73   10.29
   3  -2  13   47.15   10.49
  -3  -2  13   41.99   10.17
  -3   2  13   48.51   11.42
  -3  -2  14   73.47   15.67
  -3   2  14   31.15   14.21
   3  -2  14   74.09   14.15
   3   2  14   57.43   12.78
   3   2  14  103.88   15.85
   3  -2  14   56.07   11.32
  -3  -2  14  100.13   15.82
   3   2  15   94.41   15.65
  -3  -2  15   71.59   15.31
   3  -2  15   82.67   15.32
   3   2  15   59.33   13.52
  -3   2  15   46.61   11.02
   3  -2  15   71.78   13.28
  -3  -2  15   54.57   11.51
   3   2  16  154.93   19.41
   3  -2  16  127.27   19.45
  -3   2  16  110.25   18.77
  -3  -2  16  116.92   18.95
   3   2  16   97.81   15.51
   3  -2  16  127.13   18.39
  -3   2  16  140.75   20.63
   3   2  17   74.12   15.11
  -3  -2  17   45.48   13.11
   3  -2  17   27.20    8.97
   3   2  17   72.36   14.85
  -3   2  17   58.02   14.24
   3  -2  17   66.93   14.12
  -3   2  17   92.88   16.53
  -3  -2  17   59.58   13.19
   3   2  18   83.83   15.88
  -3  -2  18  129.58   20.48
  -3   2  18   94.48   18.50
   3  -2  18   85.66   17.29
   3   2  18  112.81   18.25
  -3  -2  18   93.59   17.83
   3  -2  18  105.13   17.99
  -3   2  18  107.52   19.35
   3  -2  19   -3.13    5.17
   3   2  19   -1.28    3.05
  -3   2  19   -1.90    4.65
  -3  -2  19    1.51    5.51
  -3   2  19    5.41    5.46
   3  -2  19   -0.24    5.46
   3   2  19   -0.40    4.07
  -3  -2  19    1.57    4.28
   3  -2  20   23.95    9.53
   3   2  20   35.82   10.80
  -3  -2  20   31.51    9.94
  -3   2  20   34.72   10.19
   3  -2  20   29.93    9.17
  -3   2  20   40.95   11.28
   3   2  20   31.86   11.01
  -3  -2  20   14.58    4.40
  -3   2  21   45.06   13.04
   3  -2  21   46.88   13.47
   3   2  21   39.08   10.50
  -3  -2  21   33.71   11.31
  -3   2  21   37.44    9.42
   3  -2  21   54.48   15.00
   3   2  21   18.79    8.37
  -3  -2  21   16.00    8.49
   3  -2  22   15.52    8.92
   3   2  22   18.62    7.63
  -3  -2  22    5.07    6.35
  -3   2  22   23.22   10.05
   3  -2  22   10.33    5.13
   3   2  22    8.45    4.92
  -3  -2  22    9.23    5.30
  -3   2  22   16.85    9.93
   3  -2  23    8.21    4.56
   3   2  23    5.47    8.03
  -3  -2  23   -4.24    3.64
   3   2  23    3.57    3.70
  -3   2  23   -0.08    0.71
   3  -2  23   15.95    8.77
  -3  -2  23    4.08    5.78
  -3   2  23    6.41    6.39
   3  -2  24   -3.82    6.79
   3   2  24    0.35    2.03
  -3  -2  24   11.07    9.15
  -3  -2  24   -4.47    3.21
  -3   2  24    0.70    0.91
   3   2  24   -0.57    4.91
  -3   2  24   -2.98    7.57
   3  -2  24    1.46    5.23
   3  -2  25    7.39    4.09
   3   2  25    3.88    3.84
  -3  -2  25    2.13    7.14
  -3   2  25    7.64    5.98
   3  -2  25   -2.72    5.35
   3   2  25    6.73    8.60
  -3   2  25    1.10    4.65
  -3  -2  25    9.18    3.27
   3  -2  26   -2.07    5.25
   3   2  26   -2.05    1.90
  -3  -2  26   -1.46    4.33
  -3   2  26    2.83    7.04
   3   2  26   -5.75   10.29
   3  -2  26   -0.36    7.15
  -3  -2  26   -1.35    6.06
  -3   2  26   -1.21    6.88
   3   2  27   13.40    8.69
  -3  -2  27    8.55    4.64
   3  -2  27   34.80   13.45
   3  -2  27   11.52    7.62
   3   2  27   13.95    3.92
  -3  -2  27   21.14   11.48
  -3   2  27    2.38    4.32
  -3   2  27   21.64   11.94
   3  -2  28    4.02    3.38
   3   2  28   12.46    9.42
  -3  -2  28   12.05    8.96
  -3   2  28   -6.12    3.78
   3  -2  28   -1.65    5.68
   3   2  28    4.25    6.31
  -3  -2  28   -0.24    6.35
  -3   2  28    8.32    8.01
   3  -2  29    2.95    4.36
   3   2  29    5.61    1.02
  -3  -2  29   14.16    9.97
  -3   2  29   18.93   10.98
   3  -2  29   -1.73    2.88
   3   2  29   10.89   10.28
  -3  -2  29    8.53    4.87
  -3   2  29    1.67    4.02
   3  -2  30   -3.48    6.10
   3   2  30   -5.49    8.03
  -3  -2  30    5.01    3.75
  -3   2  30    3.69    6.86
  -3   2  30    8.45   10.28
   3  -2  30   -4.77    4.14
   3   2  30    0.46    3.95
  -3  -2  30    0.98    8.58
   3  -2  31    2.80    2.01
   3   2  31    4.48    7.80
  -3  -2  31   -4.89    7.64
  -3   2  31    8.64    8.18
  -3  -2  31   -0.10    3.46
   3  -2  31    6.29    6.91
  -3   2  31   13.00   10.74
   3   2  31    1.20    4.83
   3   3   0   -0.70    1.29
  -3   3   0    1.54    2.07
   3   3   0   -0.07    0.54
   3  -3   0    2.57    3.20
  -3   3   0    3.37    2.48
   3   3   1   90.62   10.88
   3  -3   1  101.74   13.73
   3   3  -1  109.49   11.41
  -3   3   1  106.87   10.31
  -3   3  -1   61.71    7.47
   3   3   1   86.11    5.15
  -3   3   1  100.76   12.05
   3   3   1  100.98    8.51
   3  -3  -1   73.62   11.20
  -3  -3   1  107.18    8.00
  -3   3  -1   85.45   11.03
   3   3   2  629.12   29.87
  -3   3   2 1057.71   32.50
   3   3  -2  751.76   30.36
  -3   3   2  859.99   35.38
  -3   3  -2  876.93   31.03
   3   3   2 1100.63   28.67
   3  -3   2 1214.33   46.34
  -3  -3   2  822.68   25.19
  -3   3  -2  854.78   35.03
  -3   3   3  147.00   14.75
  -3   3  -3   99.44   11.98
   3   3  -3   62.69    8.15
  -3   3   3  136.32   11.53
  -3   3  -3   49.25    7.69
   3  -3   3  108.16   14.49
   3   3   3  180.51   15.89
  -3  -3   3  118.33   10.51
   3   3   3  118.90   10.19
   3   3   4  411.84   24.90
  -3   3   4  369.77   20.63
  -3   3   4  472.27   27.16
  -3   3  -4  616.48   29.94
   3   3   4  460.49   23.18
   3   3  -4  561.23   26.26
   3   3   4  503.78   15.52
   3  -3   4  379.83   26.31
  -3  -3   4  516.00   23.95
  -3   3   5 3618.40   62.88
   3   3   5 3675.36   68.16
   3   3   5 3688.48   48.64
   3   3  -5 3534.19   69.26
  -3   3   5 3772.05   80.83
   3  -3   5 3473.78   71.47
   3   3   5 3668.62   75.57
  -3  -3   5 3768.05   68.86
   3   3   6  678.86   24.18
   3   3  -6  673.95   30.77
   3   3   6  730.52   32.39
   3  -3   6  959.93   42.90
   3  -3   6  652.61   32.24
  -3   3   6  688.30   35.93
  -3  -3   6  766.09   33.72
   3   3   6  895.63   38.24
  -3   3   6  814.45   31.37
   3   3   7  119.20   14.34
   3   3   7   81.19    9.57
   3   3  -7   49.04    8.97
   3  -3   7  110.11   14.12
  -3  -3   7   82.84    9.89
   3  -3   7   80.16   11.23
  -3   3   7   99.24   13.81
  -3  -3   7  102.69   12.99
  -3   3   7  111.98   12.24
   3   3   7   93.22   13.34
   3   3   8  402.45   22.75
   3  -3   8  374.27   26.62
   3   3  -8  395.35   25.78
   3  -3   8  336.41   25.73
  -3   3   8  378.31   28.04
   3   3   8  254.83   21.68
  -3  -3   8  431.77   24.27
  -3  -3   8  372.37   25.93
   3   3   8  307.89   25.15
   3   3   9 1363.85   44.03
  -3   3   9 1104.52   48.37
   3  -3   9 1294.09   51.90
   3   3  -9 1408.07   53.11
   3   3   9 1119.14   46.97
   3  -3   9 1226.71   48.89
  -3  -3   9 1366.49   45.22
   3   3   9 1492.28   57.16
  -3   3   9 1439.33   48.79
  -3  -3   9 1122.21   46.85
   3   3  10  220.41   18.16
   3   3  10  226.61   22.84
  -3   3  10  200.79   21.02
   3   3 -10  297.38   24.75
   3  -3  10  178.41   19.56
  -3  -3  10  202.81   18.84
   3   3  10  181.72   18.91
  -3   3  10  290.95   23.96
  -3  -3  10  229.83   22.05
   3   3  11   49.22   10.79
  -3   3  11   30.62    8.41
   3  -3  11   35.77    8.06
   3  -3  11   51.46   10.37
   3   3  11   31.01    7.72
  -3  -3  11   54.83   10.20
   3   3  11   65.83   11.62
   3   3 -11   49.65   10.41
  -3  -3  11   46.14   10.46
  -3   3  12   -0.65    2.33
  -3  -3  12   -3.28    2.76
   3   3  12    0.81    2.98
   3  -3  12    0.62    2.05
   3   3  12    2.43    2.81
   3   3 -12    1.71    1.07
  -3  -3  12    3.09    3.74
   3  -3  12    3.22    1.45
   3   3  13  412.47   28.74
  -3  -3  13  427.72   30.69
  -3   3  13  443.07   34.51
   3  -3  13  353.31   30.89
   3  -3  13  426.67   32.03
  -3  -3  13  465.84   34.76
   3  -3  14    1.33    1.50
   3   3  14   -1.83    2.86
  -3  -3  14    2.48    6.91
   3   3  14    0.99    1.58
  -3  -3  14    1.42    4.63
   3  -3  14   -4.70    4.77
  -3   3  14    0.90    3.49
   3   3  15  272.23   26.65
   3  -3  15  340.18   31.93
  -3  -3  15  294.35   27.88
   3   3  15  394.31   33.17
  -3  -3  15  347.49   32.10
   3  -3  15  290.73   28.61
   3  -3  16    5.51    5.73
  -3  -3  16    4.15    6.14
   3   3  16    2.11    2.16
   3  -3  16    2.70    5.22
   3   3  16    1.86    4.60
  -3   3  16    1.98    4.71
  -3  -3  16    8.08    3.51
   3   3  17  328.16   31.27
  -3   3  17  307.83   31.90
   3  -3  17  294.39   30.74
   3   3  17  239.95   27.59
  -3  -3  17  331.35   31.35
   3  -3  17  284.46   28.78
  -3   3  17  311.05   32.45
  -3  -3  17  344.74   33.78
   3   3  18  110.63   18.75
   3  -3  18  120.98   20.27
  -3   3  18  122.69   20.55
   3   3  18  107.42   18.31
  -3  -3  18  118.58   19.03
   3  -3  18  104.87   17.95
  -3   3  18  134.80   21.01
  -3  -3  18   90.89   17.23
  -3  -3  19  104.05   18.13
   3   3  19  126.46   20.57
  -3   3  19  140.75   21.95
  -3   3  19  127.60   22.50
   3  -3  19  129.07   21.11
   3  -3  19  115.15   18.93
  -3  -3  19  142.04   21.89
   3  -3  20   10.00    6.92
  -3  -3  20    9.75    3.19
   3   3  20   12.04    8.50
  -3   3  20   26.15   10.79
   3  -3  20   10.59    8.14
   3   3  20    7.45    3.82
  -3  -3  20   11.04    4.03
  -3   3  20    6.11    6.58
   3  -3  21   33.52   10.21
  -3  -3  21   46.46   12.58
   3   3  21   15.92    6.93
  -3   3  21   49.37   13.22
   3  -3  21   56.15   15.67
   3   3  21   21.13    7.95
  -3  -3  21   32.11    8.27
  -3   3  21   22.37   11.38
   3  -3  22   11.72    8.56
  -3  -3  22    6.59    4.59
  -3  -3  22   10.06    6.42
   3   3  22    2.22    0.79
  -3   3  22   12.32    7.25
   3  -3  22   15.26    7.00
   3   3  22    6.29    4.27
  -3   3  22    8.62    5.64
   3   3  23  125.66   22.99
  -3   3  23  138.03   24.20
   3  -3  23  101.82   21.39
   3   3  23   98.37   19.34
  -3   3  23   89.92   20.32
   3  -3  23  109.38   19.47
  -3  -3  23   94.79   18.33
  -3  -3  23  145.08   24.37
   3  -3  24   -2.44    3.25
  -3  -3  24    1.33    3.76
   3   3  24   11.47    8.24
   3  -3  24   13.50   10.25
   3   3  24    6.20    6.85
  -3   3  24    8.72    9.08
  -3  -3  24    3.26    4.45
  -3   3  24   -3.60    3.18
   3  -3  25    3.20    8.86
  -3   3  25    2.99    5.46
   3  -3  25    6.66    2.82
  -3  -3  25   -2.60    8.52
   3   3  25   15.63    8.26
   3   3  25    3.15    3.83
  -3   3  25   -3.91    6.59
  -3  -3  25   -4.62    4.99
   3  -3  26    6.69    7.06
  -3  -3  26   21.42   11.18
  -3  -3  26   15.28    9.19
  -3   3  26   24.70   10.73
   3   3  26   44.82   15.52
   3  -3  26   23.93    6.52
   3   3  26    9.60    7.83
  -3   3  26   21.04   10.37
   3  -3  27   42.73   12.41
  -3  -3  27   40.61   14.23
   3  -3  27   64.94   17.81
   3   3  27   32.88   14.12
  -3  -3  27   21.31    8.21
  -3   3  27   29.64   11.52
  -3   3  27   34.36   14.30
   3   3  27   51.38   14.86
  -3  -3  28    4.68    0.96
   3   3  28   18.95   10.43
  -3   3  28   15.71    8.12
   3  -3  28   23.01   10.71
  -3   3  28   16.90    5.42
   3  -3  28    9.28    2.69
   3   3  28   17.46   12.14
  -3  -3  28   15.55    6.37
   3  -3  29    3.93    2.18
  -3  -3  29    3.14    3.07
   3   3  29   15.31   11.48
   3  -3  29   13.07    4.08
  -3   3  29    9.21    6.96
   3   3  29    0.16    3.16
  -3   3  29    2.10    6.22
   3  -3  30   21.77   10.51
  -3  -3  30   32.63   13.37
   3   3  30   21.14   12.49
  -3   3  30   40.09   11.89
   3  -3  30   28.25    8.71
   3   3  30   25.88   14.28
  -3  -3  30   27.18   12.09
  -3   3  30    2.39    5.61
   3  -3  31   34.01   10.48
   3   3  31   42.89   17.07
  -3   3  31   50.65   16.85
  -3  -3  31   20.12   11.74
   3   3  31   50.46   16.67
   3  -3  31   15.74    7.95
  -3  -3  31   19.84   10.47
  -3   3  31   36.87   14.24
   3   4   0   -0.74    2.59
  -3   4   0   -2.06    0.23
  -3   4   0    1.51    2.48
   3   4   0   -0.29    0.52
   3  -4   0    4.11    3.44
   3   4   0   -0.16    0.76
  -3  -4   1  245.26   13.88
   3   4   1  253.19   20.90
   3   4  -1  331.24   23.43
  -3   4   1  200.34   16.25
  -3   4  -1  285.17   18.73
   3   4   1  288.95   13.95
   3   4   1  241.08   12.33
   3  -4   1  272.17   23.84
  -3   4   1  322.25   22.82
  -3   4  -1  288.53   21.87
  -3   4  -2    1.81    2.92
  -3   4   2    6.01    2.87
   3  -4   2   -0.35    2.62
   3   4   2    1.45    1.45
   3   4   2    2.67    2.85
  -3   4   2    1.55    2.42
   3   4  -2    1.67    2.05
  -3   4  -2    4.61    3.13
   3   4   2    2.19    1.37
  -3  -4   2   -0.44    1.17
   3   4   3   67.97   10.85
  -3   4   3   66.78    9.76
  -3   4  -3   50.36    9.66
   3   4  -3   98.53   12.12
  -3   4   3   91.91   12.34
  -3   4  -3   82.20   11.02
   3   4   3   74.31    7.68
   3  -4   3   84.47   13.34
  -3  -4   3   79.44    9.34
   3   4   3   67.76    6.34
  -3   4   4 1092.02   39.70
  -3   4   4 1000.53   42.41
   3   4  -4  909.07   37.49
  -3   4  -4 1137.68   45.54
  -3   4  -4  954.82   38.31
   3  -4   4 1177.03   49.68
   3   4   4 1052.98   33.10
   3   4   4 1213.37   29.60
  -3  -4   4  967.44   35.22
  -3  -4   4 1218.10   25.69
   3   4   4 1235.50   47.06
  -3   4   5   46.29    7.61
   3   4   5   27.95    5.94
   3   4   5   33.66    8.19
   3  -4   5   31.29    7.89
   3   4  -5   44.80    8.53
  -3   4  -5   65.44   10.22
   3   4   5   41.41    5.50
  -3  -4   5   61.37    9.63
  -3   4   5   35.75    7.48
  -3  -4   5   53.81    6.15
   3  -4   6   96.35   14.02
   3   4   6  209.68   19.63
   3   4  -6  127.74   14.84
   3   4   6  144.98   11.54
  -3   4   6  156.62   17.47
  -3   4   6  170.72   15.83
   3   4   6  195.85   16.82
  -3   4  -6  217.03   20.70
  -3  -4   6  120.42   11.62
  -3  -4   6  173.49   16.76
   3  -4   6  139.35   15.72
  -3   4  -7  191.86   19.21
   3   4  -7  161.10   17.02
   3   4   7  150.41   12.99
   3  -4   7  125.99   16.29
   3   4   7  147.67   15.13
   3  -4   7  133.26   16.27
  -3  -4   7  148.29   16.28
  -3   4   7  112.02   15.48
   3   4   7  151.53   17.15
  -3   4   7  144.30   14.89
   3   4   8   55.52    9.57
   3   4   8   44.45    7.12
   3   4  -8   78.49   11.86
  -3   4  -8   11.83    4.66
   3  -4   8   38.51    9.01
   3  -4   8   49.25    9.75
  -3  -4   8   43.74    7.11
  -3   4   8   50.95   10.74
  -3  -4   8   59.50   10.65
   3   4   8   59.09   10.54
  -3   4   8   58.52   10.01
   3   4   9  716.79   32.45
   3   4  -9  604.49   34.53
   3  -4   9  701.58   38.91
   3  -4   9  834.50   42.02
   3   4   9  599.81   33.28
  -3   4   9  736.48   40.83
  -3  -4   9  657.89   36.60
  -3   4   9  517.73   31.79
   3   4   9  833.73   43.70
  -3   4  10    9.19    3.98
   3   4  10   12.95    6.31
  -3  -4  10    6.20    3.83
  -3   4  10   11.62    4.98
   3   4 -10    3.44    2.15
   3  -4  10    5.18    4.40
   3   4  10   11.12    5.39
  -3  -4  10    6.29    2.58
   3  -4  10    7.73    3.89
   3   4  10    3.84    2.99
  -3   4  11    2.20    3.47
   3   4  11   -2.64    4.69
  -3   4  11    3.95    4.32
  -3  -4  11   -0.87    3.04
   3  -4  11   -1.02    1.08
  -3  -4  11   -2.86    2.30
   3   4 -11   -0.72    2.77
   3   4  11   -1.23    1.92
   3   4  11    0.38    3.67
   3  -4  11   -1.76    3.60
  -3   4  12   12.29    6.53
   3   4  12   14.06    5.73
  -3   4  12    9.86    5.42
  -3  -4  12   15.31    5.64
  -3  -4  12    7.76    4.35
   3  -4  12   17.36    7.65
   3   4  12   18.47    6.37
   3   4  12   17.12    7.27
   3   4 -12   24.28    7.20
   3  -4  12    1.96    6.15
   3   4  13   16.56    7.50
  -3   4  13    6.54    3.03
  -3  -4  13    7.52    5.51
   3   4  13    4.00    4.05
   3  -4  13   16.66    8.71
   3   4  13   11.23    5.53
   3   4 -13   12.09    6.40
  -3  -4  13   12.40    5.17
   3  -4  13    7.96    2.53
  -3   4  14    2.70    3.54
  -3  -4  14    6.08    3.99
   3  -4  14    0.30    3.15
   3   4  14    5.64    4.95
   3   4 -14    2.46    4.29
   3   4  14   -1.39    2.55
  -3  -4  14    4.33    5.00
   3   4  14    2.56    6.12
   3  -4  14   -1.43    3.25
   3  -4  15    0.95    3.50
  -3  -4  15   -1.04    4.45
   3   4 -15   -0.79    1.43
   3   4  15   -2.82    3.18
   3   4  15   -1.31    0.95
  -3  -4  15    2.04    3.19
  -3   4  15    0.23    3.71
   3  -4  15    1.22    1.17
   3  -4  16   12.81    7.92
  -3  -4  16   17.09    6.13
   3   4  16   17.90    8.32
  -3   4  16   10.61    9.72
   3   4 -16   26.55    8.98
  -3  -4  16   21.39    7.21
   3  -4  16   15.03    7.38
   3   4  16   17.72    7.63
   3  -4  17   14.09    6.24
   3   4  17   11.74    5.13
  -3  -4  17   15.88    7.34
   3  -4  17    7.20    4.19
   3   4  17   -0.66    3.15
  -3  -4  17    1.02    6.38
  -3   4  17   13.90    5.61
   3  -4  18   -2.81    5.65
  -3  -4  18    3.03    5.52
  -3  -4  18    3.95    0.27
   3   4  18   -3.80    5.36
   3   4 -18    6.48    7.51
   3  -4  18    4.82    5.13
   3   4  18    1.48    6.75
  -3   4  18   -2.88    3.58
  -3   4  18    2.49    4.42
   3  -4  19    6.77    6.49
   3   4  19    7.96    3.98
  -3  -4  19    3.84    4.76
   3  -4  19    5.71    3.44
  -3   4  19    2.40    7.18
   3   4  19   15.34    6.36
  -3  -4  19    0.80    2.24
  -3   4  19    7.94    5.93
   3  -4  20   54.39   13.46
  -3  -4  20   71.11   15.89
   3   4  20   42.72   11.38
   3  -4  20   46.28   13.77
   3   4  20   57.71   15.47
  -3   4  20   60.25   14.74
  -3  -4  20   46.56   12.32
  -3   4  20   40.52   13.47
   3  -4  21    5.32    4.79
  -3  -4  21    3.35    3.97
   3   4  21    2.45    2.96
  -3  -4  21   -1.05    4.94
   3  -4  21   11.23    5.24
  -3   4  21   13.44    7.27
   3   4  21    9.13    8.01
  -3   4  21    7.03    7.09
   3  -4  22   -0.05    4.72
  -3   4  22    5.55    4.45
  -3  -4  22    3.54    5.49
   3   4  22   -2.94    5.16
  -3   4  22    2.69    6.14
   3   4  22   -2.13    4.72
  -3  -4  22   -2.97    0.67
   3  -4  22    5.27    8.54
   3  -4  23   11.90    6.05
  -3  -4  23    6.61    7.39
   3   4  23    1.12    5.73
   3   4  23   11.19    9.30
  -3   4  23   -1.64    1.80
  -3  -4  23   10.75    5.75
  -3   4  23    0.46    5.11
   3  -4  23    7.14    6.02
   3  -4  24   -3.63    8.16
  -3  -4  24   -2.25    5.16
   3   4  24    3.41    4.20
   3  -4  24    2.24    5.38
  -3   4  24    6.54    8.90
  -3  -4  24   -7.26    6.47
   3   4  24   -1.95    1.29
  -3   4  24   -0.39    3.19
   3  -4  25    1.54    3.91
  -3   4  25    6.75    8.43
  -3  -4  25    5.84    8.03
   3   4  25   -4.08    4.24
   3   4  25    0.26    1.57
  -3  -4  25   -0.66    3.68
   3  -4  25   -4.67    7.52
  -3   4  25   -0.53    7.15
   3  -4  26    2.23    6.50
  -3  -4  26    8.01    8.94
   3  -4  26   10.77    8.18
   3   4  26    3.45    6.43
  -3   4  26   -3.92    4.74
  -3  -4  26    9.00    2.50
   3   4  26    1.49    5.04
  -3   4  26   -2.66    1.71
   3  -4  27    1.87    3.66
  -3  -4  27    5.34    5.43
   3  -4  27   -5.88    4.04
   3   4  27   -1.97    4.11
  -3   4  27   -3.07    7.45
   3   4  27   -0.68    4.48
  -3  -4  27    6.86    6.85
  -3   4  27   -4.43    1.79
   3  -4  28    4.11    2.77
  -3  -4  28    3.38    6.01
   3   4  28    4.63    7.98
   3  -4  28   -1.22    3.09
  -3   4  28    8.97    8.67
   3   4  28    8.05    9.27
  -3  -4  28   15.96    9.70
  -3   4  28   -3.82    7.52
   3  -4  29   -1.56    4.41
  -3  -4  29   -1.27    4.97
   3   4  29   -3.49    6.92
  -3   4  29   13.83    9.23
   3  -4  29    0.63    5.55
   3   4  29    7.71    4.55
  -3  -4  29    5.78    5.94
  -3   4  29    1.29    3.23
   3  -4  30    6.55    3.87
  -3  -4  30   -3.48    6.64
   3  -4  30    3.43    4.70
  -3   4  30   11.64    8.59
   3   4  30    4.32    5.68
  -3  -4  30   10.69    8.12
  -3   4  30   11.88   11.13
  -3   5   0   -0.39    1.46
   3   5   0    1.41    2.40
   3   5   0    0.87    1.76
  -3   5   0   -2.85    3.21
   3  -5   0    1.78    3.33
   3   5   1  374.44   27.88
   3   5  -1  346.88   26.10
  -3   5   1  228.88   19.37
  -3   5  -1  155.01   15.72
   3   5  -1  331.67   19.24
   3  -5   1  363.49   28.87
   3   5   1  291.93   17.68
  -3   5   1  306.81   24.37
  -3   5  -1  272.51   22.98
   3   5   2  514.20   32.04
  -3   5   2  588.11   31.80
  -3   5  -2  654.45   32.39
   3   5   2  496.60   23.27
   3  -5   2  422.67   31.28
  -3   5   2  685.77   36.94
   3   5   2  532.91   16.73
  -3  -5   2  528.10   24.36
  -3   5  -2  667.00   36.41
   3   5   3   40.48    9.66
   3   5   3   21.96    4.16
   3   5   3   26.16    4.76
   3   5  -3   37.06    8.53
  -3   5  -3   15.03    5.05
  -3   5   3   34.82    7.69
  -3   5   3   32.75    8.50
   3  -5   3   32.75    8.10
  -3   5  -3   18.02    5.96
  -3  -5   3    9.03    3.36
  -3   5   4    6.17    1.20
   3  -5   4   17.66    4.80
   3   5   4   16.01    4.32
  -3   5   4   16.06    6.14
   3   5  -4    5.61    2.30
  -3   5  -4   14.86    5.86
  -3   5  -4   11.14    5.37
   3   5   4    8.81    3.08
   3   5   4   17.37    6.25
  -3  -5   4   10.99    4.03
   3   5   5  246.01   23.13
  -3   5   5  305.94   24.01
  -3   5   5  359.22   27.13
   3   5   5  218.21   16.55
   3   5  -5  302.80   23.72
  -3   5  -5  465.67   29.42
  -3   5  -5  407.56   28.94
   3  -5   5  379.21   29.88
   3   5   5  308.84   18.99
  -3  -5   5  356.00   14.15
  -3  -5   5  259.47   20.29
   3   5   6  374.24   29.05
  -3   5   6  243.03   23.37
   3   5   6  317.14   19.35
   3   5  -6  202.82   19.95
   3  -5   6  290.67   25.29
  -3   5  -6  283.48   23.48
   3   5   6  284.54   19.59
  -3  -5   6  245.94   14.19
  -3  -5   6  223.80   20.09
  -3   5   6  279.66   23.16
   3   5   7  131.58   16.87
  -3   5   7  124.16   16.18
   3   5  -7  122.01   15.84
   3   5   7  152.28   14.01
   3   5   7  169.75   15.71
  -3  -5   7  129.35   11.64
   3  -5   7  138.57   17.75
  -3  -5   7  134.28   15.55
  -3   5   7  157.04   19.28
   3   5   8  320.46   21.80
   3  -5   8  288.63   26.21
  -3   5   8  340.63   28.78
   3   5   8  256.42   21.43
  -3  -5   8  312.99   24.96
   3   5   8  319.65   27.30
  -3   5   8  270.55   23.47
   3  -5   9    1.86    1.35
  -3  -5   9   -0.72    3.03
   3   5   9    5.82    4.46
  -3   5   9   -0.38    1.95
   3   5  -9    0.03    3.05
  -3   5  -9   -2.18    3.09
   3   5   9   -0.30    1.55
   3  -5   9    0.52    1.37
  -3  -5   9    2.04    1.90
  -3   5   9    3.87    4.62
   3   5   9    3.33    2.76
  -3   5  10   30.06    9.17
   3   5  10   27.91    8.27
  -3  -5  10   19.21    7.21
  -3   5  10   18.36    7.28
  -3   5 -10   40.89    9.83
   3  -5  10   18.73    7.39
   3   5  10   22.28    7.03
   3   5 -10   24.05    7.62
  -3  -5  10   11.59    4.73
   3  -5  10   15.90    6.30
   3   5  10   21.72    6.61
   3  -5  11  431.88   33.02
   3   5  11  423.52   28.53
   3   5 -11  666.35   40.21
   3   5  11  494.45   34.39
   3  -5  11  321.67   29.36
  -3   5 -11  126.39   18.74
  -3   5  11  508.23   37.35
   3   5  11  450.95   33.96
  -3   5  11  351.64   28.65
  -3  -5  11  490.78   35.61
   3   5  12   32.45    9.93
  -3   5  12   32.52    9.12
  -3   5 -12   34.49    8.16
  -3   5  12   29.70    7.37
   3   5  12   55.51   11.12
   3  -5  12   22.25    8.30
   3  -5  12   31.02    9.65
   3   5 -12   25.54    8.21
  -3  -5  12   45.45   11.85
   3   5  12   23.50    6.23
  -3  -5  12    9.85    6.58
  -3   5  13   16.08    6.74
   3   5  13   25.91    9.40
  -3  -5  13   21.57    7.83
  -3   5  13   36.05   10.39
   3  -5  13   31.90    8.35
   3   5  13   24.88    8.97
   3   5 -13   48.95   12.10
  -3   5 -13   24.63    8.91
   3   5  13   33.84    9.17
   3  -5  13   27.46    9.47
  -3  -5  13   30.69    7.49
   3   5  14    4.51    6.59
   3   5 -14   -3.11    5.29
  -3   5  14    3.52    5.00
  -3  -5  14   15.75    8.40
   3  -5  14    3.25    1.94
   3  -5  14    4.16    3.44
   3   5  14   10.92    4.31
   3   5  14   11.76    4.79
  -3  -5  14   22.34    7.10
  -3   5  14    4.52    6.49
   3   5  15   32.24    9.67
  -3   5  15   45.95   11.98
  -3  -5  15   32.33    9.90
   3  -5  15   46.57   12.75
   3   5  15   49.23   11.41
   3   5 -15   55.58   13.80
   3   5  15   25.16    7.89
  -3  -5  15   35.18    8.98
   3  -5  15   28.03   11.14
  -3   5  15   29.64    9.87
   3  -5  16  263.80   27.67
   3   5  16  315.26   31.18
  -3   5  16  340.88   34.02
   3   5 -16  299.76   32.07
  -3  -5  16  307.73   29.11
  -3  -5  16  374.21   33.98
   3   5  16  334.68   34.91
   3   5  17  122.19   18.65
   3   5 -17  133.36   21.95
  -3   5  17  153.91   22.70
   3  -5  17  125.79   19.80
   3  -5  17   85.01   17.91
   3   5  17  115.75   19.66
  -3  -5  17   88.11   16.70
  -3  -5  17   92.26   18.63
  -3  -5  18   14.57    5.88
   3   5  18   24.99    9.16
   3   5 -18   14.89    7.06
   3  -5  18   17.43    8.22
   3   5  18   30.52   10.85
  -3  -5  18   13.55    7.45
  -3   5  18   11.98    9.52
  -3   5  18   16.71    6.77
   3  -5  18   21.02    9.11
   3  -5  19   17.38    7.74
  -3  -5  19   29.38   10.94
   3   5  19   25.60    8.28
   3   5 -19   28.80   11.39
   3   5  19   28.55   11.82
  -3  -5  19   13.76    6.46
  -3   5  19   -1.69    6.71
  -3   5  19   10.44    5.99
   3  -5  19   16.38    6.85
   3   5  20   48.56   12.97
   3   5 -20   64.84   16.16
   3  -5  20   35.20    9.75
   3   5  20   65.94   15.42
  -3   5  20   82.46   18.66
  -3   5  20   34.22   16.28
  -3  -5  20   67.30   15.07
  -3  -5  20   68.15   16.48
   3  -5  20   51.80   12.93
   3   5  21   83.20   17.87
  -3  -5  21   85.41   17.46
  -3  -5  21   69.78   16.46
   3   5 -21  104.44   20.83
  -3   5  21   89.33   19.50
   3  -5  21   61.75   15.09
   3   5  21   68.39   15.83
   3  -5  21   83.85   17.26
  -3   5  21   75.51   17.43
  -3  -5  22   46.28   14.01
  -3   5  22   69.91   16.93
  -3   5  22   74.42   15.85
   3   5 -22   47.82   12.72
  -3  -5  22   96.84   19.67
   3  -5  22   62.64   15.33
   3   5  22   52.97   12.99
   3   5  22   64.99   17.25
   3  -5  22   66.69   15.85
  -3  -5  23   -2.75    6.18
   3   5  23   -1.67    1.71
   3   5 -23   -0.82    5.53
  -3   5  23    0.03    4.99
  -3   5  23   -0.94    6.03
   3   5  23   11.30    6.91
  -3  -5  23    3.32    7.17
   3  -5  23   -5.44    7.94
   3  -5  23   -5.06    7.23
   3   5  24  126.75   24.49
  -3   5  24  233.26   33.40
   3  -5  24  180.23   26.85
  -3   5  24  149.08   25.33
   3   5  24  169.75   27.05
  -3  -5  24  217.40   29.88
   3  -5  24  202.87   28.74
  -3  -5  24  125.95   23.73
   3   5 -24  122.27   23.02
   3  -5  25   -3.37    4.27
  -3  -5  25    0.34    5.43
   3   5  25   -3.19    5.62
  -3   5  25   -1.93    5.98
   3   5 -25    4.23    5.21
   3   5  25   -6.49    6.08
  -3  -5  25    2.15    4.53
  -3   5  25   14.46   11.26
   3  -5  25   -4.15    4.98
   3  -5  26   46.22   14.44
  -3  -5  26   41.39   11.43
   3   5  26   58.91   20.71
  -3   5  26   65.07   18.18
  -3   5  26   64.86   17.54
   3   5 -26   24.95   11.23
   3  -5  26   33.45   11.77
   3   5  26   43.50   13.60
  -3  -5  26   24.22   10.18
   3  -5  27   22.48    8.79
   3   5  27   12.94    7.09
  -3  -5  27   23.88   12.72
   3  -5  27    8.04    3.55
  -3   5  27   12.90    8.85
   3   5 -27    0.68    4.95
  -3  -5  27   11.33    4.32
  -3   5  27   21.20    8.20
  -3  -5  28   11.47    5.42
   3   5 -28   13.46    6.94
  -3   5  28   16.35   11.64
   3   5  28   26.92    8.95
  -3  -5  28   -1.33    5.10
  -3   5  28   11.96   10.39
   3  -5  28    7.52    6.61
   3  -5  28    0.83    5.65
  -3  -5  29   10.12    4.36
  -3   5  29    2.92    5.63
   3   5 -29   -0.77    4.92
   3  -5  29   13.82    9.62
   3   5  29    6.14    9.18
  -3  -5  29   -1.30    2.92
  -3   5  29   -2.06    6.63
   3  -5  29    5.19    8.36
  -3  -5  30   24.60   13.23
  -3   5  30   38.18   13.99
   3   5 -30    5.21    2.91
   3  -5  30   20.34   10.25
   3   5  30   28.67   14.11
  -3  -5  30    7.80    2.69
  -3   5  30    3.18    4.02
   3  -5  30   19.45    8.00
   3   6   0   -3.37    3.63
  -3   6   0    0.60    2.86
   3   6   0   -1.40    2.49
  -3   6   0   -0.26    1.11
   3   6   1   12.58    4.18
   3  -6   1    3.77    5.78
   3   6   1    9.68    5.61
   3   6  -1    3.72    2.96
  -3   6   1   19.37    6.29
  -3   6  -1   10.73    5.00
  -3   6  -1   13.29    4.37
   3   6  -1   11.44    3.87
  -3   6   1    4.27    3.04
   3   6   2  327.71   27.83
  -3   6   2  403.70   29.17
   3   6  -2  255.28   24.67
  -3   6  -2  364.38   26.37
   3   6   2  303.77   11.22
   3   6   2  356.68   21.41
  -3   6   2  169.11   19.34
   3  -6   2  318.79   28.68
  -3   6  -2  441.46   31.06
   3   6   3   23.47    4.04
  -3   6  -3   34.09    8.94
   3   6   3   24.92    5.45
   3   6   3   22.70    5.86
  -3   6   3   30.59    7.85
   3   6  -3   22.20    5.95
  -3   6  -3   26.09    7.29
  -3   6   3   32.28    8.37
   3  -6   3   18.76    7.38
  -3  -6   3   27.36    6.41
   3   6   4   42.08    7.36
  -3   6  -4   47.32   10.90
   3   6  -4   57.72   10.88
   3   6   4   40.72    9.90
  -3   6   4   25.07    6.94
  -3   6   4   39.62    9.18
   3   6   4   32.89    6.03
   3  -6   4   38.58   10.51
  -3   6  -4   30.06    7.74
  -3  -6   4   36.55    7.66
  -3   6   5   40.38    9.19
   3   6   5   52.68   10.85
  -3   6   5   31.10    9.01
   3   6  -5   53.88   11.15
  -3   6  -5   54.97   11.31
  -3   6  -5   66.64   12.46
  -3  -6   5   53.52   10.13
   3  -6   5   65.71   12.30
   3   6   5   33.36    6.40
   3   6   5   41.84    7.48
   3   6   6  124.25   17.86
  -3   6   6  171.12   19.09
   3   6   6  125.27   13.94
   3   6  -6  122.44   16.42
  -3   6   6  116.76   16.86
  -3   6  -6  154.44   18.80
  -3   6  -6  141.02   18.56
   3  -6   6  144.61   19.34
   3   6   6  143.41   14.20
  -3  -6   6  131.69   16.14
  -3  -6   6  100.95    7.44
   3   6   7   -1.05    1.56
  -3   6   7    0.43    3.42
  -3   6  -7    0.41    2.47
   3   6   7    3.46    2.68
   3   6  -7    3.16    3.07
   3  -6   7    3.08    4.93
  -3  -6   7   -1.23    2.16
  -3   6   7    0.90    2.06
   3   6   7   -0.91    1.72
  -3  -6   7   -2.81    3.63
   3   6   8   54.91   12.79
  -3   6   8   57.24   11.58
  -3   6  -8   71.03   12.93
   3   6   8   65.63   10.41
  -3  -6   8   56.20    7.87
   3  -6   8   42.69   10.68
   3   6  -8   31.82    8.22
   3   6   8   39.83    9.48
  -3  -6   8   58.89   11.50
  -3   6   8   60.96   12.68
  -3  -6   9   22.86    7.24
  -3   6   9   15.23    4.70
   3   6   9   17.64    5.49
   3   6   9   15.50    6.46
  -3   6   9   10.56    4.41
   3   6  -9   14.06    8.99
   3  -6   9   25.18    8.66
  -3   6  -9   15.87    7.74
   3  -6   9   16.81    6.31
   3   6   9   10.41    5.37
  -3  -6   9   17.94    5.43
   3   6  10    6.44    0.88
  -3  -6  10    8.79    5.83
   3   6  10    3.45    2.77
  -3   6  10    8.40    5.02
   3  -6  10   12.64    7.13
  -3  -6  10    7.38    3.32
  -3   6  10   12.01    6.07
   3   6 -10    9.69    6.03
   3   6  10    7.81    3.14
  -3   6 -10   11.70    5.10
   3  -6  10   10.38    7.82
  -3  -6  11    7.56    4.15
  -3   6  11   14.91    6.55
   3   6  11   11.30    6.95
  -3   6  11    8.67    5.07
   3  -6  11   10.56    5.97
   3   6 -11    7.01    5.75
  -3  -6  11   11.16    4.98
   3   6  11   -0.13    2.86
   3  -6  11    3.06    3.08
  -3   6 -11    1.75    4.01
   3   6  11    6.77    4.23
  -3  -6  12   -0.52    2.53
  -3   6  12    1.08    3.56
   3   6  12   -0.41    0.79
   3   6  12   -1.35    3.48
  -3   6 -12   -2.01    5.52
  -3   6  12    4.59    1.63
   3   6  12    0.49    3.36
   3   6 -12    7.35    3.31
   3  -6  12    1.37    4.34
  -3  -6  12    1.85    3.26
   3  -6  12    0.09    2.05
  -3   6  13   29.47    9.52
   3   6  13   15.87    5.59
  -3  -6  13   26.17    8.74
  -3   6  13   24.85   10.80
   3   6  13   39.69   11.27
   3   6 -13   38.92   11.42
   3  -6  13   28.88    8.77
  -3   6 -13   30.29    8.88
  -3  -6  13   28.70    7.91
   3   6  13   40.28   10.38
   3  -6  13   23.16    7.89
   3  -6  14   80.16   15.91
  -3   6  14   54.32   14.22
   3   6  14   38.63   10.36
  -3  -6  14   49.26   11.78
  -3   6 -14   65.02   14.58
   3   6  14   44.23   10.35
   3   6  14   63.78   13.98
  -3   6  14   69.80   15.19
   3   6 -14   39.86   12.04
   3  -6  14   36.00   10.92
  -3  -6  14   33.97    8.62
  -3   6  15    4.17    0.25
   3   6  15    0.95    4.91
  -3  -6  15    1.34    3.89
   3  -6  15    8.51    4.72
  -3   6  15    4.71    4.51
   3   6  15    6.94    6.46
   3   6  15    4.46    5.35
  -3   6 -15    8.78    6.38
  -3  -6  15    0.69    2.92
   3   6 -15   -0.91    3.10
   3  -6  15   12.15    7.78
  -3   6  16    1.38    7.98
   3   6  16    4.45    5.72
  -3  -6  16    2.54    1.70
   3   6 -16   -1.59    1.07
   3  -6  16   -1.94    1.19
  -3   6 -16   -3.24    1.20
  -3   6  16   -3.34    5.28
  -3  -6  16    0.69    2.37
   3   6  16    3.28    5.63
   3   6  16   -2.51    3.95
   3  -6  16   -1.26    3.05
  -3   6  17   23.42   10.17
  -3  -6  17   10.34    7.28
  -3  -6  17   17.52    5.78
   3  -6  17    7.80    3.69
   3   6 -17   11.63    6.37
   3   6  17    9.45    1.78
   3   6  17   17.87    9.01
  -3   6 -17   18.13    4.06
   3   6  17   14.30    8.35
   3  -6  17   12.64    9.59
  -3  -6  18   -2.99    5.98
   3   6  18    5.63    4.31
   3   6 -18   -2.45    4.87
  -3   6 -18    1.38    3.76
  -3  -6  18    9.67    5.72
   3   6  18    1.80    4.15
   3  -6  18    5.41    6.68
   3  -6  18    2.40    2.35
   3   6  18   23.95   10.36
  -3   6  18   11.63    8.18
  -3  -6  19    4.55    4.80
   3   6 -19   11.03    7.05
  -3   6  19   -0.52    6.75
   3  -6  19    9.22    5.38
  -3   6 -19   13.08   10.35
  -3  -6  19    9.14    8.03
   3   6  19    1.43    5.82
   3   6  19    2.65    1.96
  -3   6  19    5.68    8.46
   3  -6  19    5.15    4.12
  -3  -6  20    3.32    5.39
   3   6  20    5.10    4.34
   3   6 -20   15.78    6.48
   3  -6  20   11.21    7.27
  -3   6 -20   12.37    7.22
  -3  -6  20    5.38    5.24
   3   6  20   10.26    8.48
   3  -6  20    4.12    2.88
  -3   6  20    1.22    4.65
  -3   6  20    7.39    6.46
   3  -6  21   -2.68    2.14
  -3  -6  21    0.97    0.81
  -3   6  21    3.26    3.27
   3   6  21   -4.13    4.33
   3   6 -21   -1.73    1.62
   3  -6  21   -2.02    4.67
  -3   6 -21   -0.40    3.94
  -3  -6  21    4.61    5.96
   3   6  21    2.50    3.37
  -3   6  21   10.50    6.52
   3   6  22    0.84    4.02
  -3  -6  22   -2.16    4.54
   3   6  22    1.24    3.70
   3   6 -22   -3.99    1.92
   3  -6  22    1.13    4.72
  -3   6 -22    2.68    1.59
  -3  -6  22   -0.15    1.10
  -3   6  22    2.68    3.89
  -3   6  22    6.47    8.33
   3  -6  22   -4.06    3.54
  -3   6 -23    6.56    6.76
   3   6  23   16.89   12.97
   3  -6  23    2.92    3.37
   3   6 -23    3.87    2.84
   3  -6  23    4.15    4.06
  -3   6  23    6.12    8.56
  -3  -6  23   -7.20    4.97
   3   6  23    0.81    5.68
  -3  -6  23   -2.58    5.89
  -3   6  23   13.28    8.58
  -3  -6  24   10.76    8.43
   3   6 -24    7.29    8.25
   3  -6  24    7.54   10.24
  -3   6  24    2.75    4.94
   3  -6  24    0.98    2.11
  -3   6 -24    4.73    4.41
  -3  -6  24    6.98    8.18
   3   6  24    1.92    5.78
  -3   6  24   -0.99    2.56
  -3  -6  25    0.17    4.19
  -3   6  25    7.30    9.62
   3   6 -25   -3.14    5.58
   3  -6  25   -1.53    5.29
  -3   6 -25   -0.94    5.54
  -3  -6  25   12.38    8.79
   3   6  25    3.31    5.47
  -3   6  25   -2.32    5.47
   3  -6  25    0.87    1.73
  -3  -6  26    2.06    7.21
   3  -6  26   13.53   11.83
  -3  -6  26   -0.12    6.46
   3   6 -26   14.86   10.39
  -3   6  26    6.64    8.68
  -3   6 -26   10.16    4.02
   3   6  26    3.17    6.13
  -3   6  26    6.49    8.15
   3  -6  26   -7.91    8.03
  -3  -6  27   -2.55    1.58
   3   6 -27    6.63    4.15
  -3   6  27   -4.15    5.73
   3  -6  27    2.34    6.31
  -3   6 -27   -0.09    7.43
  -3  -6  27    3.23    5.15
   3   6  27   -2.50    7.97
  -3   6  27   -0.98    1.57
   3  -6  27    1.15    4.11
  -3  -6  28   -0.57    1.98
  -3   6  28   10.21    7.44
   3  -6  28    2.64    3.15
   3   6 -28    0.27    4.79
  -3   6 -28    8.86    7.19
   3   6  28    9.07    9.03
  -3   6  28    6.71    6.07
   3  -6  28    9.08    8.49
  -3   6 -29   18.61    8.90
  -3  -6  29    7.09    5.97
   3   6  29   17.48    8.71
  -3   6  29   17.72   11.36
   3   6 -29   10.83   10.84
   3  -6  29   12.60   12.50
  -3   6  29    9.64    6.21
   3  -6  29   11.32    6.02
   3   7   0   -0.12    2.04
   3   7   0   -3.16    5.93
  -3   7   0    1.13    2.03
  -3   7   0   -2.66    3.89
   3   7   1  638.21   41.99
   3   7  -1  472.29   35.42
  -3   7   1  315.07   27.88
  -3   7  -1  309.91   27.22
   3  -7   1  289.69   26.70
  -3   7   1  538.93   36.19
   3   7   1  537.95   29.19
  -3   7  -1  578.30   37.54
   3   7  -1  468.17   28.62
   3   7   2   12.65    6.05
   3   7  -2   10.05    5.50
   3   7  -2   13.12    4.71
  -3   7  -2   10.10    3.17
   3  -7   2   11.72    4.54
  -3   7  -2    7.02    2.60
  -3   7   2   18.41    8.35
   3   7   2    9.67    3.81
   3   7   3  579.65   39.02
  -3   7   3  545.99   37.55
   3   7  -3  842.08   47.02
  -3   7  -3  559.93   35.85
   3   7   3  616.57   31.37
   3  -7   3  723.18   45.23
  -3   7   3  559.21   37.54
  -3   7  -3  576.25   38.33
   3   7   3  267.45   13.95
  -3   7  -4  985.76   49.69
   3   7   4  866.59   49.25
  -3   7   4  796.72   44.38
   3   7   4  900.47   38.27
   3   7  -4  964.82   47.97
  -3   7  -4 1077.55   50.30
  -3   7   4  960.56   49.47
   3   7   4 1045.30   32.53
   3  -7   4 1090.36   54.53
   3   7   5 1035.80   53.90
  -3   7   5  925.30   48.55
  -3   7  -5  808.97   45.47
  -3   7   5 1001.53   50.97
   3   7  -5  934.16   47.68
  -3   7  -5  948.41   47.00
   3   7   5  673.04   27.88
   3  -7   5  838.99   47.14
  -3  -7   5  714.61   37.62
   3   7   5  908.51   39.20
   3   7   6  128.15   19.21
  -3   7   6  141.34   19.10
  -3   7   6  133.17   18.46
   3   7   6  136.43   15.93
   3   7  -6  105.57   15.54
  -3   7  -6  119.40   17.60
  -3   7  -6  135.15   18.27
   3  -7   6  171.86   21.89
   3   7   6  131.88   13.85
  -3  -7   6   76.34   12.88
   3   7   7   -6.56    7.15
  -3   7   7    0.85    0.53
  -3  -7   7   -0.19    0.90
   3  -7   7    2.53    3.36
   3   7   7    1.96    3.90
  -3   7  -7   -1.65    1.43
  -3   7  -7    5.80    5.45
   3   7  -7    3.60    6.08
   3   7   7    0.51    2.28
  -3   7   7    4.50    4.36
  -3  -7   7    1.85    3.39
   3   7   8  191.23   23.98
  -3   7   8  230.66   24.91
   3   7  -8  276.97   26.95
  -3   7  -8  164.01   20.52
   3  -7   8  249.90   26.90
  -3  -7   8  192.39   13.08
  -3  -7   8  256.51   25.01
   3   7   8  232.40   21.93
   3   7   8  242.48   21.89
  -3   7   8  264.01   27.31
   3   7   9  371.27   33.15
  -3   7   9  481.89   35.57
   3  -7   9  510.49   38.19
   3   7  -9  448.79   34.29
  -3  -7   9  359.59   21.30
   3   7   9  507.61   32.42
   3   7   9  415.63   29.96
  -3  -7   9  501.88   35.15
  -3   7   9  507.49   38.76
   3   7  10   45.32   12.65
   3   7 -10   60.42   12.61
   3  -7  10   55.94   13.17
   3   7  10   49.90   10.42
  -3   7 -10   33.93    8.16
  -3  -7  10   52.23    8.92
   3  -7  10   53.35   11.78
  -3   7  10   70.35   14.50
   3   7  10   11.37    6.66
  -3  -7  10   25.36    7.44
  -3   7  10   64.57   12.70
   3  -7  11    4.40    5.67
   3   7  11    3.81    4.39
   3   7  11   -0.21    2.67
  -3   7  11   -1.20    1.45
  -3   7  11   -4.83    3.41
   3   7 -11   -0.88    1.47
  -3   7 -11   -0.13    3.30
  -3  -7  11    2.06    2.20
   3  -7  11    6.25    6.20
   3   7  11   -1.37    3.59
  -3  -7  11    1.78    4.73
   3   7 -12   65.38   16.09
  -3   7 -12   81.03   15.09
   3   7  12   56.40   13.11
   3  -7  12   77.09   14.61
  -3  -7  12  101.02   14.02
   3   7  12   85.67   14.85
  -3   7  12  103.24   18.65
   3  -7  12   94.22   16.65
   3   7  12   78.93   16.38
  -3  -7  12   91.91   15.77
  -3   7  12   92.36   16.76
   3   7 -13  577.08   43.00
   3   7  13  626.64   40.84
   3  -7  13  701.03   47.63
  -3  -7  13  608.39   36.25
  -3   7  13  729.36   49.25
   3   7  13  575.54   40.39
   3  -7  13  597.58   41.54
  -3  -7  13  570.70   41.75
  -3   7  13  816.62   49.95
   3   7  13  605.01   46.02
  -3  -7  14   15.99    8.55
  -3   7  14    4.27    3.14
   3   7  14   23.22   12.36
  -3   7  14   11.60    6.11
   3   7 -14   10.76    8.72
  -3   7 -14    9.64    6.57
   3  -7  14    2.69    4.15
  -3  -7  14   20.13    7.19
   3  -7  14   15.60    7.39
   3   7  14   25.84    9.93
   3   7  14   26.18   10.43
  -3  -7  15   -2.11    4.16
  -3   7  15   -0.86    2.15
   3   7  15    3.22    4.24
  -3   7  15   14.69    7.37
   3  -7  15    5.97    4.18
   3   7 -15    7.54    3.40
  -3   7 -15    1.55    1.06
  -3  -7  15   16.06    6.74
   3   7  15    2.65    2.42
   3   7  15    5.67    8.50
   3  -7  15    4.10    3.65
  -3   7  16   30.36   12.03
  -3  -7  16   30.21   10.33
   3   7  16   23.03   10.42
  -3   7  16   38.24   13.70
  -3  -7  16   16.54    6.48
   3  -7  16   27.20    9.70
   3   7 -16   35.56   11.98
  -3   7 -16   20.57    8.93
   3   7  16   20.12    7.87
   3   7  16    8.20    7.30
   3  -7  16   29.85   10.55
   3   7  17  245.10   29.25
   3   7 -17  210.47   27.34
   3  -7  17  215.17   27.16
  -3   7  17  292.39   31.92
  -3  -7  17  259.81   28.09
   3   7  17  202.61   27.84
   3  -7  17  318.67   32.48
  -3  -7  17  239.62   29.09
  -3   7 -17  341.48   36.89
  -3   7  17  218.20   29.65
   3   7  17  234.68   30.06
  -3   7  18    7.42    8.17
   3   7  18   13.56   10.82
  -3  -7  18   -3.43    6.40
   3   7 -18   12.60    7.74
   3  -7  18    8.92    8.09
  -3   7 -18    0.97    5.54
   3   7  18    9.09    5.69
  -3  -7  18   14.09   11.72
   3   7  18   -1.37    3.44
   3  -7  18    2.46    3.37
  -3   7  18   16.15    8.49
   3   7  19  198.71   27.98
   3   7 -19  117.29   22.09
  -3   7  19  186.91   27.98
   3  -7  19  214.51   27.34
  -3   7 -19  227.36   30.42
  -3  -7  19  149.03   22.34
   3   7  19  167.66   26.55
   3  -7  19  115.28   20.43
  -3  -7  19  192.32   26.66
  -3   7  19  163.13   26.71
   3   7  19  170.34   27.52
  -3  -7  20   21.02    8.65
  -3   7  20   25.70   10.37
   3   7 -20   24.68    8.63
   3   7  20    2.03   10.30
   3  -7  20   32.78   11.39
  -3   7 -20   38.04   14.25
   3   7  20   33.67   11.38
   3  -7  20   14.07    7.84
  -3   7  20   18.76    6.84
  -3  -7  21   31.07   10.85
   3   7 -21   44.35   11.85
   3  -7  21   67.86   16.17
   3   7  21   42.36   13.88
  -3   7 -21   37.80   11.44
  -3   7  21   47.90   15.65
   3  -7  21   43.88   13.67
  -3   7  21   34.49   12.83
  -3  -7  22   22.13   10.44
   3   7 -22   14.23    8.98
   3  -7  22   12.58    3.36
  -3   7 -22   23.59   11.72
   3   7  22    5.40    9.42
  -3   7  22   39.78   14.46
   3  -7  22   34.49   12.02
  -3   7  22   52.36   15.17
  -3   7 -23  138.00   25.03
  -3   7  23  144.90   24.86
   3   7 -23  202.86   28.06
   3  -7  23  126.07   20.88
   3   7  23  125.87   24.24
   3  -7  23  132.67   23.46
  -3  -7  23  185.95   27.75
  -3   7  23  187.28   28.96
  -3  -7  24    8.04    6.58
   3   7 -24    0.97    4.52
   3  -7  24   -1.48    4.72
  -3   7 -24    5.81    9.62
  -3   7  24   -1.25    3.34
   3   7  24    4.00    3.56
  -3   7  24    8.01    5.59
   3  -7  24   -1.61    3.28
  -3  -7  25   25.85   10.27
   3  -7  25   14.76    7.28
   3   7 -25    9.45    5.46
   3  -7  25   13.99    7.34
  -3   7 -25    9.52    6.85
  -3   7  25    6.91    4.60
   3   7  25   12.35    8.04
  -3   7  25   36.54   14.15
  -3  -7  26    2.52    5.89
  -3   7  26    6.74    8.08
   3  -7  26   11.23    5.59
   3  -7  26    3.93    1.02
  -3   7 -26    3.84    8.08
   3   7  26    4.98    6.68
   3   7 -26  -13.26    8.73
  -3   7  26   -0.97    3.41
  -3  -7  27  149.60   26.08
  -3   7  27  215.85   33.17
   3  -7  27  133.63   25.01
   3   7 -27  148.15   25.87
   3  -7  27  113.69   23.34
  -3   7 -27   61.18   17.87
  -3   7  27  182.73   29.15
   3   7  27   72.61   18.78
  -3   7  28    7.03    6.12
  -3  -7  28   10.46    9.55
  -3   7  28   -1.09    1.84
   3   7 -28    7.01    5.46
  -3   7 -28    9.09    6.83
   3   7  28    7.75    4.50
   3  -7  28    0.03    4.48
   3  -7  28    4.20    6.28
   3   8   0   -0.31    2.12
   3   8   0   -0.42    2.18
  -3   8   0    0.27    1.67
  -3   8   0   -1.15    3.57
   3   8   1   11.90    5.29
  -3   8  -1   11.96    5.06
   3   8   1    2.80    2.95
   3   8  -1   15.92    7.47
  -3   8   1   19.41    6.38
  -3   8  -1    9.45    5.91
   3   8  -1   17.43    6.65
  -3   8   1    9.31    5.73
   3  -8   2   -2.76    4.71
   3   8   2    4.11    2.80
  -3   8   2   -3.88    5.13
   3   8  -2   -1.15    3.77
  -3   8  -2   -3.34    5.11
   3   8  -2    1.72    1.13
  -3   8  -2   -3.41    3.52
   3   8   2    2.29    0.88
  -3   8   2   -2.50    2.09
   3   8   3  121.69   19.07
  -3   8   3  100.29   16.63
   3   8  -3  126.43   19.20
   3   8  -3  116.66   16.55
  -3   8  -3  102.09   16.30
  -3   8   3  128.71   18.77
   3  -8   3   80.95   15.98
  -3   8  -3  128.11   19.08
   3   8   4   25.79    7.32
  -3   8  -4   35.11    9.02
   3   8   4   21.97    7.55
  -3   8   4   35.95   10.94
  -3   8   4   43.87    9.77
   3   8  -4   36.11    9.43
   3  -8   4   35.71   10.38
  -3   8  -4   21.87    7.33
   3   8   5   49.59   10.71
  -3   8   5   47.07   10.87
   3   8   5   53.90   13.54
  -3   8   5   30.51   10.13
  -3   8  -5   59.38   13.08
   3   8  -5   49.45   11.42
  -3   8  -5   31.94    9.37
   3  -8   5   56.30   13.53
  -3   8   6   48.60   11.05
  -3   8  -6   56.27   12.15
  -3   8   6   66.84   13.21
  -3   8  -6   71.06   13.28
   3   8   6   54.55   13.41
   3   8  -6   45.43   11.41
   3  -8   6   42.05   10.86
  -3  -8   6   56.45   11.25
   3   8   6   57.18   11.31
  -3   8  -7    4.98    1.09
   3   8   7    6.48    3.59
  -3   8   7   18.11    7.66
   3   8  -7    8.86    6.73
   3   8   7   10.84    5.79
  -3   8  -7   10.25    6.05
   3  -8   7    8.30    6.39
  -3   8   7    9.73    4.90
  -3  -8   7    6.08    2.37
   3   8   8   82.25   15.19
  -3   8   8   72.97   14.22
   3   8  -8   83.77   15.06
  -3   8  -8   72.76   15.08
  -3   8  -8   48.80   11.77
   3  -8   8   65.77   14.65
  -3  -8   8   58.54   12.91
   3   8   8   90.74   14.37
  -3   8   8   95.36   17.61
  -3   8   9  149.02   21.10
   3  -8   9  144.18   22.16
   3   8  -9  131.53   19.24
  -3   8  -9  201.41   25.45
  -3  -8   9  150.21   19.47
   3   8   9  146.06   18.23
  -3   8   9  168.85   23.00
   3   8   9  135.29   20.90
   3   8  10   25.04    9.98
  -3   8  10   20.87    7.53
   3   8  10   25.28    7.76
   3  -8  10   43.38   13.11
   3   8 -10   38.13   11.49
  -3   8 -10   28.89    8.12
   3   8  10   14.70   12.15
  -3  -8  10   26.20    8.64
  -3   8  10   28.75   10.87
   3   8  11    6.16    7.13
   3   8  11    5.04    4.43
  -3   8  11    7.59    4.25
   3   8 -11    5.49    2.63
  -3   8  11    8.05    6.46
  -3   8 -11    0.27    2.33
   3  -8  11    8.18    6.14
   3   8  11    3.10    1.33
  -3  -8  11    3.37    3.87
   3   8 -12   14.40    6.41
   3   8  12   18.51    7.63
   3   8  12    9.32    6.92
  -3   8  12   10.94    4.87
  -3   8  12   29.57   10.35
   3  -8  12   22.84    9.88
   3  -8  12   11.47    6.07
  -3   8 -12   13.57    6.64
   3   8  12   10.97    5.53
  -3  -8  12   25.81    8.74
  -3   8  13    1.25    3.79
   3   8  13   -0.46    6.47
  -3   8  13    2.64    4.35
   3   8 -13    8.88    8.55
   3  -8  13    3.35    2.00
  -3   8 -13    4.41    5.59
   3  -8  13   -3.06    1.28
   3   8  13    6.83    4.21
  -3  -8  13    7.21    6.72
   3   8  13    9.36    7.64
  -3   8  14    3.59    6.58
   3   8  14    0.92    4.25
  -3   8  14   -1.96    4.76
   3   8 -14   -1.27    2.59
   3  -8  14    2.47    3.70
  -3   8 -14    2.89    5.82
  -3  -8  14    1.14    3.91
   3  -8  14   -1.16    2.55
   3   8  14    0.52    1.64
   3   8  14   -1.87    2.35
  -3   8  15   39.98   12.20
   3   8  15   70.90   15.77
  -3   8  15   52.81   14.74
   3   8 -15   31.09   12.30
  -3   8 -15   51.16   13.54
   3  -8  15   58.51   15.18
   3  -8  15   36.66   10.08
   3   8  15   68.47   15.01
   3   8  15   45.15   14.56
  -3  -8  15   45.66   12.01
  -3   8  16   -6.31    6.99
   3   8  16   -2.95    4.38
  -3   8  16    0.78    3.37
   3   8 -16    5.85    8.39
   3  -8  16   -2.16    4.69
  -3   8 -16   -0.93    3.18
   3   8  16    0.58    1.48
   3  -8  16   -0.85    5.11
  -3  -8  16    3.18    3.58
   3   8  17   66.51   17.10
  -3   8  17   32.49   11.79
  -3   8  17   79.27   18.49
   3   8 -17   33.85   10.79
  -3   8 -17   35.08   13.00
   3   8  17   37.30   14.73
   3  -8  17   23.46   10.38
  -3  -8  17   61.34   14.30
   3  -8  17   41.42   11.65
  -3  -8  18    1.27    3.20
  -3   8  18   13.76    6.32
   3   8  18   -3.56    2.88
  -3   8  18    3.92    3.57
   3   8 -18    3.20    6.00
  -3   8 -18    4.30    4.34
   3  -8  18    4.41    2.98
   3   8  18    2.00    6.18
   3  -8  18   -0.05    3.56
  -3  -8  19   14.68   10.18
  -3   8  19    2.45    3.87
   3   8  19    7.15    1.67
  -3   8  19    3.54    2.89
   3   8 -19    0.31    4.61
  -3   8 -19    6.57    7.46
   3  -8  19   18.46    9.75
  -3   8  19    5.50    4.78
   3   8  19   -5.20    6.81
   3  -8  19    2.41    2.47
  -3  -8  20   16.36    6.93
  -3   8 -20   11.65    7.77
   3   8  20   11.16   10.32
   3   8 -20   20.12    9.63
   3  -8  20   10.39    8.45
   3   8  20   16.43    8.74
   3  -8  20   14.35    9.94
  -3   8  20    4.83    3.72
  -3   8  20    4.70    4.25
  -3  -8  21    3.51    7.16
   3   8 -21    0.46    3.17
   3  -8  21   -2.62    5.86
  -3   8 -21    4.26    7.20
   3  -8  21   -1.59    3.53
   3   8  21    3.51    6.47
  -3   8  21    3.56    4.41
  -3   8  21    4.97    8.70
   3   8 -22    2.55    5.10
   3  -8  22   -0.66    2.59
  -3   8  22   -1.90    3.99
  -3   8 -22    0.23    2.53
   3   8  22    2.17    3.55
   3  -8  22    8.10    4.87
  -3   8  22    1.08    5.81
  -3  -8  23   -1.86    2.64
   3   8 -23    0.66    1.93
  -3   8 -23    2.36    4.13
   3  -8  23   -9.68    9.11
   3   8  23   -1.96    5.75
  -3   8  23   -3.56    6.24
   3  -8  23   -1.05    5.33
  -3   8  23   11.55   11.48
  -3  -8  24   18.62    9.61
   3  -8  24    7.45    6.40
   3   8 -24   -0.82    3.00
  -3   8 -24    5.40    4.07
   3   8  24   23.42   13.61
  -3   8  24   12.85   12.38
   3  -8  24    8.50    5.31
  -3   8  24   -0.56    7.05
  -3  -8  25    7.64    7.27
   3  -8  25    3.51    7.10
  -3   8 -25    5.32    1.42
  -3   8  25    2.67    2.39
   3   8  25   -8.29    8.77
   3   8 -25    1.35    5.61
   3  -8  25   -1.51    4.01
  -3   8  25    5.09    8.18
  -3  -8  26   -4.46    7.07
   3   8 -26   -0.74    6.34
  -3   8  26   -1.10    2.15
  -3   8 -26   -0.64    3.69
   3  -8  26    8.73    9.95
   3   8  26   -6.92    8.46
   3  -8  26   -2.45    3.20
  -3   8  26    7.94    7.37
  -3  -8  27   -1.92    5.25
   3  -8  27   -3.07    4.14
   3   8 -27    7.93    7.68
  -3   8 -27    2.94    9.24
  -3   8  27    7.71    9.95
   3   8  27    5.62    5.49
   3  -8  27    1.33    4.93
  -3   8  27    2.03    4.35
   3   9   0    3.75    4.35
   3   9   0   -1.61    2.13
  -3   9   0   -6.61    6.98
  -3   9   0    5.75    4.29
   3   9   1  730.64   49.98
   3   9  -1  430.37   38.11
  -3   9   1  659.44   45.62
  -3   9  -1  911.87   53.38
  -3   9   1  701.77   45.79
   3   9   1  602.03   37.75
  -3   9  -1  511.75   38.82
   3   9  -1  639.14   39.00
   3   9  -2   64.20   15.13
   3   9   2   51.41   13.09
  -3   9   2   48.65   11.15
  -3   9  -2   58.43   13.54
   3   9   2   65.06   12.05
  -3   9   2   73.50   14.64
  -3   9  -2   55.70   13.50
   3   9  -2   47.85   10.03
   3   9  -3    0.42    3.30
  -3   9  -3    4.01    5.13
   3   9   3   -0.62    2.01
  -3   9   3    0.53    4.09
   3   9   3    0.19    3.11
   3   9  -3   -0.45    5.75
  -3   9  -3    1.23    3.19
  -3   9   3    1.68    5.16
   3  -9   3    2.18    4.41
   3   9   4  187.47   25.82
  -3   9   4  201.36   24.86
   3   9  -4  176.60   24.15
   3   9   4  171.14   19.88
   3   9  -4  149.51   19.48
  -3   9  -4  183.54   22.95
  -3   9   4  178.82   23.02
   3  -9   4  118.38   18.10
  -3   9  -4  191.76   23.97
   3   9   5  778.17   52.17
  -3   9   5  795.59   50.61
   3   9   5  878.90   45.79
   3   9  -5  720.52   47.69
  -3   9   5  786.96   49.49
  -3   9  -5  826.02   49.55
   3   9  -5  891.44   49.41
  -3   9  -5  765.06   48.29
   3   9   6  238.33   28.31
  -3   9  -6  213.94   25.96
  -3   9   6  196.76   26.39
  -3   9   6  216.42   25.50
   3   9  -6  179.34   23.29
  -3   9  -6  152.22   21.67
   3  -9   6  214.73   26.74
   3   9   6  180.01   20.54
   3   9   7  143.66   22.54
  -3   9   7  142.99   22.04
  -3   9   7  144.73   21.71
  -3   9  -7  108.09   18.74
   3   9  -7   93.51   16.33
  -3   9  -7  168.30   22.96
   3  -9   7  154.51   21.03
   3   9   7  116.02   17.30
  -3   9   8  110.60   19.11
  -3   9   8  113.39   17.85
   3   9  -8  121.70   20.59
   3  -9   8   85.46   16.27
  -3   9  -8   98.34   18.00
  -3   9  -8  180.50   23.47
   3   9   8   99.95   16.81
  -3  -9   8  112.32   17.52
   3   9   8  136.33   21.41
   3   9   9  333.31   33.64
  -3   9   9  370.67   34.83
   3   9  -9  318.15   31.42
  -3   9  -9  293.23   29.69
  -3   9  -9  322.57   32.65
   3  -9   9  284.53   32.08
  -3  -9   9  314.74   30.31
  -3   9   9  335.39   33.55
   3   9  10  174.98   26.32
  -3   9  10  176.13   24.72
  -3   9 -10  136.75   21.55
   3   9 -10  154.25   22.34
  -3   9 -10  173.34   25.30
   3  -9  10  161.93   23.56
   3   9  10  119.90   18.96
  -3  -9  10  114.27   18.46
  -3   9  10  163.22   23.25
  -3   9  11   71.78   16.00
   3   9  11   67.44   15.89
   3   9 -11   40.70   12.73
   3   9  11   54.14   14.25
  -3   9 -11   85.22   17.06
   3  -9  11   52.13   14.44
  -3  -9  11   65.09   15.23
  -3   9  11   77.49   17.84
   3   9  12    9.24    5.22
   3   9  12   -5.40    0.82
  -3   9  12    2.03    3.16
   3   9 -12    3.14    4.00
   3  -9  12    5.67    1.94
  -3   9  12   10.88    7.45
  -3   9 -12    8.97    6.28
  -3  -9  12   12.69    6.07
  -3   9  13   61.18   14.67
   3   9 -13   96.65   18.54
  -3   9 -13  103.02   19.06
  -3   9  13   70.78   16.01
  -3  -9  13   98.54   19.01
   3  -9  13   81.55   17.74
   3   9  13   84.61   17.47
  -3   9  14   72.20   15.26
   3   9 -14   71.96   16.43
  -3   9  14   46.25   13.59
   3  -9  14   50.06   13.29
  -3   9 -14   90.87   18.91
   3  -9  14   61.46   14.84
  -3  -9  14   39.68   12.18
   3   9  14   72.54   17.51
  -3   9  15    7.55    8.53
   3   9  15   11.23    8.75
  -3   9  15    3.62    5.48
  -3   9 -15    4.03    4.78
   3  -9  15    4.19    2.58
   3   9 -15   -0.05    2.86
   3  -9  15   -1.38    4.44
  -3  -9  15   10.50    7.55
   3   9 -16  190.58   28.05
   3  -9  16  222.18   28.43
  -3   9 -16  101.13   18.61
   3  -9  16  199.16   28.57
  -3   9  16  145.71   23.72
  -3  -9  16  232.09   28.54
  -3   9  16  152.72   25.51
   3   9  16  161.25   24.55
   3  -9  17  169.10   25.50
  -3   9  17  149.53   25.41
   3   9 -17  135.40   22.44
  -3   9 -17  116.73   21.45
   3  -9  17  124.36   20.99
  -3  -9  17  126.94   21.24
  -3   9  17  137.42   24.58
   3   9  17  158.10   26.71
  -3   9 -18    5.02    6.04
  -3   9  18    1.25    4.21
   3   9  18    6.31    8.28
  -3   9  18    2.98    3.93
   3   9 -18   16.32   11.22
   3  -9  18   -3.02    6.88
   3  -9  18   -0.02    2.86
  -3  -9  18   -4.61    6.59
  -3   9  19   85.68   17.92
   3   9 -19  122.34   23.51
  -3   9 -19   52.15   15.53
   3  -9  19   85.17   18.57
   3  -9  19  104.07   19.61
  -3  -9  19   77.50   18.10
  -3   9  19   51.12   16.40
  -3   9  19   99.89   21.23
   3   9  19   91.46   20.86
  -3   9  20   74.73   17.19
   3   9  20   49.21   15.55
   3  -9  20   50.69   14.14
  -3   9 -20   60.86   14.93
   3  -9  20   62.40   14.83
  -3   9  20   64.94   17.37
  -3  -9  20   61.13   15.65
  -3   9  20  122.16   24.46
   3   9 -20   39.21   13.47
  -3   9 -21   62.04   15.57
   3  -9  21   38.70   13.15
   3   9 -21   47.13   14.63
   3  -9  21   38.92   12.90
  -3   9  21   27.95    8.10
  -3  -9  21   19.92    4.21
  -3   9  21   38.71   12.84
   3   9  21   46.96   14.45
  -3   9 -22   -0.92    1.60
   3   9 -22    5.15    4.98
  -3   9  22    0.76    4.98
   3  -9  22   -3.80    5.85
  -3   9  22    8.17    9.76
  -3  -9  22    5.23    3.00
   3  -9  22    5.89    4.67
  -3   9  23  112.66   22.33
  -3   9  23   65.45   24.62
  -3   9 -23  153.54   25.26
   3  -9  23  162.45   26.34
   3   9 -23   93.47   19.93
   3  -9  23  104.76   20.15
  -3  -9  23   92.81   19.60
  -3   9 -24   33.10    9.29
   3  -9  24   24.61    9.69
   3   9 -24   15.70    8.33
  -3   9  24   14.28    7.96
  -3   9  24   48.85   18.02
   3  -9  24   33.53   12.30
  -3  -9  24   44.07   10.88
   3   9 -25    9.70    7.99
   3  -9  25   32.09   13.23
  -3   9  25    7.48    8.07
   3  -9  25    2.73    5.17
  -3   9  25   43.30   15.42
  -3   9 -25    3.43    3.97
  -3  -9  25    7.32    7.39
  -3   9 -26    8.25    6.60
   3  -9  26   22.12    9.42
   3   9 -26   14.43    8.05
   3  -9  26   17.60   10.29
  -3   9  26   10.30    8.56
  -3   9  26    1.55    2.76
  -3  -9  26   27.48   11.25
   3  10   0   -2.04    7.43
  -3  10   0    0.57    6.30
  -3  10   0   -1.68    0.91
   3  10   0   -1.37    2.37
  -3  10  -1    0.27    4.23
   3  10   1    2.90    2.69
   3  10  -1    7.81    4.78
   3  10   1    8.10    4.23
   3  10  -1    4.90    6.79
  -3  10   1   15.75    5.05
  -3  10  -1   17.81    9.05
  -3  10   1    6.52    6.34
  -3  10  -2    0.49    4.70
   3  10   2    2.37    5.98
  -3  10   2   -0.68    2.55
   3  10  -2   -3.84    2.68
  -3  10  -2    7.97    7.55
   3  10   2    0.48    1.02
   3  10  -2    2.15    3.52
  -3  10   2   -2.08    5.72
   3  10   3   12.10    7.84
  -3  10   3   10.37    6.20
   3  10   3   22.18    8.66
   3  10  -3    1.11    0.96
  -3  10  -3   11.77    7.63
  -3  10  -3   24.93    7.91
  -3  10   3   15.39    5.50
   3  10  -3   10.33    5.84
   3  10   4   13.74    6.82
   3  10   4    9.44    4.99
  -3  10   4    7.93    7.15
  -3  10   4    4.59    2.31
   3  10  -4   16.39    6.63
  -3  10  -4   -0.46    1.43
   3 -10   4   11.17    5.18
   3  10  -4    3.55    1.35
  -3  10  -4   13.06    6.85
  -3  10   5    1.64    0.52
   3  10  -5    1.42    2.36
   3  10   5   -0.70    1.00
  -3  10   5   -2.96    5.19
   3  10  -5   -3.49    6.16
  -3  10  -5    6.31    7.57
   3 -10   5    6.73    6.74
  -3  10  -5   -1.47    2.23
   3  10   5    0.21    4.06
  -3  10   6   -2.00    4.23
  -3  10  -6    8.46    7.89
   3  10   6    7.17    0.73
  -3  10   6    0.66    2.16
   3  10  -6    5.20    1.55
   3  10  -6    4.44    3.30
  -3  10  -6    5.93    5.97
   3 -10   6   -1.33    1.94
   3  10   6   -1.07    5.37
  -3  10  -7   27.57    9.25
   3  10   7   34.94   12.70
  -3  10   7   45.61   13.98
  -3  10  -7   33.29    9.33
   3  10  -7   38.36   10.44
   3 -10   7   50.95   14.01
  -3  10   7   31.58   10.53
   3  10   7   38.87   12.77
   3  10   8  156.49   25.09
  -3  10   8  155.86   22.81
  -3  10   8  125.32   21.41
  -3  10  -8  116.20   20.58
   3  10  -8  111.35   19.43
  -3  10  -8   74.79   15.85
   3 -10   8  159.63   24.74
   3 -10   9   62.12   15.76
  -3  10   9   62.86   15.63
   3  10   9   64.81   16.57
  -3  10  -9   53.53   13.21
   3  10  -9   39.52   11.78
  -3  10   9   48.49   12.54
  -3  10  -9   37.98   10.77
   3  10  10   47.79   14.32
  -3  10  10   39.32   13.71
   3  10 -10   46.32   12.91
  -3  10 -10   54.33   13.63
  -3  10  10   54.23   15.46
  -3 -10  10   34.56   11.04
  -3  10 -10   37.65   11.01
   3 -10  10   53.55   14.57
  -3  10 -11   10.18   11.59
   3  10  11   -3.43    3.85
  -3  10  11    7.54    5.56
   3  10 -11    2.52    5.51
   3 -10  11   -1.50    6.09
  -3  10 -11    2.76    3.83
  -3 -10  11    2.35    1.76
  -3  10  11   -5.37    8.17
   3  10  12   -0.78    4.22
  -3  10  12    1.03    5.91
  -3  10  12    0.15    3.96
   3  10 -12    3.68    3.56
   3 -10  12    3.83    0.44
  -3 -10  12    0.49    2.79
  -3  10 -12    7.39    6.12
   3  10  13    6.59    7.81
  -3  10  13   10.81    8.89
  -3  10  13   -2.53    1.72
   3  10 -13    1.22    6.70
  -3  10 -13   -0.61    1.32
  -3 -10  13   -3.58    4.28
   3  10  14   25.23   10.23
  -3  10  14   13.87    3.63
  -3  10 -14   17.38    5.52
  -3  10  14    9.01    7.57
   3 -10  14   16.52    5.43
   3  10 -14   16.29    8.77
  -3 -10  14   18.65    8.29
  -3  10  15    4.53    8.62
   3  10  15   -0.22    7.01
  -3  10  15   -1.06    7.21
  -3  10 -15    0.11    2.62
   3  10 -15    3.21    4.00
   3 -10  15    0.22    1.13
  -3 -10  15    1.83    1.79
  -3  10  16   38.75   13.00
   3  10  16   26.27    8.49
  -3  10  16   22.84   10.90
   3 -10  16   44.18   14.29
   3  10 -16   32.69   11.11
  -3  10 -16   21.90   11.14
  -3 -10  16   23.99   10.77
  -3  10  17   12.20    5.46
   3  10  17   33.35   12.66
  -3  10  17   17.58   12.30
   3 -10  17    5.82    9.92
   3  10 -17    3.78    1.29
  -3  10 -17    5.32    4.83
   3 -10  17   33.76   12.91
  -3 -10  17    2.21    2.63
  -3  10  18   35.00   12.87
   3  10  18   31.56   11.31
  -3  10  18   29.61    9.02
   3  10 -18   31.72   11.38
  -3  10 -18   19.32    9.86
   3 -10  18   52.90   16.77
   3 -10  18   10.73    9.13
  -3 -10  18   31.12   10.66
  -3  10  19    2.53    3.34
  -3  10  19    5.13    5.73
   3  10  19    0.31    5.90
  -3  10 -19   20.27    9.69
   3 -10  19   17.31    9.98
   3 -10  19    1.81    3.30
   3  10 -19    4.69    6.37
  -3 -10  19    1.12    4.54
  -3  10  19   12.86    9.98
  -3  10  20   11.16    7.73
   3  10  20   25.76   11.71
  -3  10  20   11.50    7.20
  -3  10 -20   12.39    5.27
   3  10 -20   11.78    6.34
   3 -10  20    0.99    6.59
   3 -10  20   11.04    7.47
  -3 -10  20   10.09    6.91
  -3  10  20   32.10   13.23
  -3  10  21    2.23    5.87
   3  10  21    2.27    8.68
   3 -10  21   -3.67    2.44
   3  10 -21    2.43    5.45
  -3  10 -21    9.84    8.11
   3 -10  21    9.03    7.60
  -3 -10  21   -2.97    6.53
  -3  10  21    5.29    2.29
  -3  10  21    3.29    2.51
  -3  10 -22    9.56    8.38
   3  10  22   11.49    7.89
   3 -10  22   21.02   11.74
   3  10 -22   23.61    9.88
   3 -10  22   12.28    2.33
  -3 -10  22   20.30    1.51
  -3  10  22   12.82    7.92
  -3  10  22   25.84   12.66
  -3  10  23    5.66    4.22
  -3  10 -23    1.71    7.50
   3 -10  23    0.58    4.21
   3  10 -23    6.44    2.83
   3 -10  23    0.31    0.47
  -3  10  23    3.48    2.49
  -3 -10  23    5.49    7.50
   3  10 -24    0.56    6.18
  -3  10 -24   -5.18    3.23
   3 -10  24   -1.15    4.98
   3 -10  24   -7.49    8.68
  -3  10  24    4.61    2.24
  -3  10  24   -2.96    5.39
  -3 -10  24    2.70    7.14
  -3  10  25   12.84    6.55
   3  10 -25    8.46    6.72
  -3  10 -25   11.44    9.24
   3 -10  25   22.56    6.70
   3 -10  25   17.46    8.03
  -3  10  25   19.76    9.24
  -3 -10  25   10.66    9.07
   3  11   0    2.23    6.96
  -3  11   0    2.87    4.55
  -3  11   0   -0.27    2.15
   3  11   0   -1.29    2.40
   3  11  -1   24.48    8.25
   3  11   1   21.17    9.45
   3  11  -1   13.65    6.71
  -3  11   1   39.63   12.11
  -3  11  -1   12.29    7.91
   3  11   1   20.96    9.79
  -3  11   1   50.17   13.12
  -3  11  -1   17.85   10.90
   3  11   2  191.27   27.75
  -3  11   2  140.89   24.13
   3  11  -2   93.79   19.62
  -3  11  -2  156.36   24.33
   3  11   2  167.01   22.48
  -3  11   2  135.87   21.43
  -3  11  -2  140.06   21.92
   3  11  -2  144.96   21.13
  -3  11  -3   31.02    9.85
   3  11   3   26.43   10.87
   3  11   3   30.00   12.53
  -3  11   3   17.29    8.30
   3  11  -3   24.95   10.20
  -3  11  -3   22.89   10.03
  -3  11   3   39.28   12.88
   3  11  -3   21.36    7.27
   3  11   4   46.57   14.24
  -3  11   4   35.69    9.96
  -3  11   4   11.49    5.66
   3  11  -4   38.12   10.57
  -3  11  -4   33.40   12.02
  -3  11  -4   43.25   13.60
   3  11  -4   40.90   12.54
  -3  11   5   76.55   16.23
   3  11   5   26.61   11.65
  -3  11   5   40.40   13.12
   3  11  -5   32.44    9.83
   3  11  -5   30.09   10.72
  -3  11  -5   42.58   12.42
  -3  11  -5   24.38    9.47
  -3  11   6   86.31   17.50
   3  11   6   73.75   16.84
  -3  11   6   56.92   16.29
   3  11  -6   70.91   16.06
  -3  11  -6   66.49   15.97
   3 -11   6   61.64   14.45
  -3  11  -6   86.61   17.59
   3  11  -6   39.94   11.32
  -3  11  -7    0.96    8.38
   3  11   7    6.39    8.18
  -3  11   7   -4.30    2.49
   3  11  -7    4.71    4.59
  -3  11  -7   10.80    6.92
   3 -11   7    0.25    4.24
   3  11  -7    1.59    2.53
  -3  11   7    3.34    2.66
   3  11   8    2.07    4.76
   3  11  -8    2.19    0.89
  -3  11   8   11.73    9.25
  -3  11  -8    4.15    5.76
   3  11  -8   -3.28    3.36
  -3  11  -8   13.92    9.91
   3 -11   8   -4.19    4.04
  -3  11   8    0.50    5.17
   3  11   9    0.37    2.37
  -3  11   9    4.63    3.41
   3  11  -9    6.26    5.81
  -3  11  -9    3.22    3.27
   3 -11   9   -3.57    4.53
  -3  11  -9   -0.87    4.71
  -3  11   9    0.94    4.60
   3  11  10    7.28    8.05
  -3  11  10    8.58    7.95
  -3  11 -10   11.32    6.69
   3  11 -10    1.26    4.66
  -3  11  10   -0.20    3.67
   3 -11  10    2.89    1.21
  -3  11 -10    8.70    6.61
   3 -11  11    6.24    8.03
   3  11  11    2.64    6.08
  -3  11  11    6.68    5.79
   3  11 -11   -1.39    4.22
  -3  11 -11    4.92    4.67
  -3  11 -11    4.84    5.46
  -3  11  11    0.83    6.89
  -3  11  12  200.22   27.36
   3  11 -12  252.67   31.31
  -3  11 -12  214.56   28.37
  -3  11 -12  220.69   30.16
   3 -11  12  176.21   27.25
  -3 -11  12  151.15   23.54
  -3  11  12  265.91   33.29
   3  11  12  191.08   28.43
   3  11  13   17.70   10.04
  -3  11  13    6.91    2.11
   3  11 -13   22.95    7.97
  -3  11  13   17.01    6.45
  -3 -11  13    3.33    2.06
  -3  11 -13    5.01    1.28
  -3  11 -13    3.50    5.74
   3 -11  13    0.22    4.55
   3  11  14   42.13   12.99
  -3  11  14   36.94   13.23
  -3  11  14   51.87   15.49
   3  11 -14   54.40   14.94
  -3  11 -14   12.13    4.56
   3 -11  14   31.08   10.14
  -3 -11  14   17.77    8.56
  -3  11 -14   19.92    8.85
  -3  11  15    6.10    3.40
   3  11  15   24.86   10.70
  -3  11  15   18.71   11.32
  -3  11 -15   17.33    8.21
   3  11 -15    3.92    1.90
   3 -11  15    7.89    3.24
  -3 -11  15    9.90    5.05
   3  11  16    3.78    5.53
  -3  11  16   25.67   11.28
   3  11 -16   15.73    8.48
  -3  11 -16    8.04    4.47
   3 -11  16   20.68    7.22
  -3 -11  16   18.14    7.75
  -3  11  16   15.77    9.94
  -3  11  17    3.01    2.59
   3  11  17    4.11    4.04
   3 -11  17   -3.83    6.41
  -3  11  17   -2.83    8.10
   3  11 -17    7.04    7.09
  -3 -11  17   -1.64    4.99
  -3  11 -17   -0.28    1.17
  -3  11  18    3.15    4.92
   3  11  18   -1.90    5.21
   3 -11  18   -2.79    1.12
  -3  11  18    2.20   13.29
   3  11 -18    3.91    4.49
  -3  11 -18   -4.29    7.82
  -3 -11  18   -0.81    2.03
  -3  11  19    9.48    8.25
   3  11  19   24.05    9.59
  -3  11  19    7.30    6.15
   3 -11  19   39.54   12.80
  -3  11 -19   25.65   10.83
  -3 -11  19   28.86   12.30
   3  11 -19    7.95    3.67
  -3  11  19   30.76   12.54
  -3  11  20   70.43   20.45
  -3  11  20   40.52   13.14
  -3  11 -20   88.25   22.92
   3  11 -20   38.75   13.65
   3 -11  20   63.07   17.50
  -3 -11  20   58.12   15.73
  -3  11  20   76.17   19.06
   3  11  20   88.10   20.69
  -3  11  21    4.55    4.67
  -3  11  21   -0.97    4.59
   3  11  21   -0.39    3.63
   3  11 -21    1.38    1.42
   3 -11  21   18.92   12.28
   3 -11  21    1.13    2.73
  -3  11 -21    2.24    8.12
  -3 -11  21    0.03    3.33
  -3  11  21    3.01    3.61
  -3  11  22   36.25   13.80
   3 -11  22   53.86   15.22
  -3  11  22   76.56   19.74
  -3  11 -22   68.66   15.28
   3  11 -22   67.58   17.78
   3 -11  22   72.69   18.38
  -3 -11  22   85.26   19.86
  -3  11  22   51.19   16.07
   3  11  22   75.57   21.11
   3  11 -23    4.59    4.05
  -3  11 -23   -0.84    2.81
   3 -11  23    0.47    2.47
  -3 -11  23   -0.41    5.39
  -3  11  23    0.20    4.99
   3  11  23    3.79    1.72
   3  12   0   10.06    9.41
  -3  12   0    6.17    7.92
  -3  12   0   -3.42    4.02
  -3  12   1   18.13    7.04
   3  12   1   18.66   10.47
   3  12  -1   19.52   10.04
  -3  12   1   16.11   10.52
  -3  12  -1   26.21   10.04
  -3  12  -1    9.01    8.77
   3  12  -2   19.63    7.73
   3  12   2   14.86    8.36
  -3  12   2   15.02    8.47
   3  12  -2   19.38    7.20
  -3  12  -2   11.82   11.05
  -3  12   2    4.42    5.72
  -3  12  -2   26.31   10.23
  -3  12  -3   11.01    9.02
   3  12   3   -6.18    5.53
  -3  12   3    5.08    6.13
   3  12  -3    0.30    1.50
   3  12  -3   -0.28    4.19
  -3  12   3    1.28    6.82
  -3  12  -3    9.97    7.46
  -3  12   4   -5.52    7.43
   3  12   4   -1.85    1.85
  -3  12  -4   -4.39    4.32
  -3  12   4   -1.65    4.29
   3  12  -4    2.93    0.83
  -3  12  -4    0.22    4.27
   3  12  -4    2.19    4.92
  -3  12   5    4.05    7.89
   3  12   5    7.42    7.91
  -3  12   5   -3.80    2.37
   3  12  -5   10.62   10.08
  -3  12  -5    3.50    6.23
  -3  12  -5    2.20    1.25
   3  12  -5    1.40    3.16
  -3  12   6   -1.83    4.87
  -3  12  -6    4.11    3.07
   3  12  -6    8.87    7.73
   3  12   6   -6.03    6.91
  -3  12   6    3.64    5.29
   3  12  -6    3.95    4.97
  -3  12  -6    3.81    3.82
   3  12  -7    7.62    6.90
   3  12   7    3.39    6.42
  -3  12   7   -5.25    8.31
   3  12  -7    4.23    4.50
  -3  12  -7    5.40    5.88
   3 -12   7    0.89    2.36
  -3  12  -7   -3.07    5.20
  -3  12   7    3.31    2.63
   3  12  -8   -6.76    3.92
   3  12   8   -4.21    4.76
  -3  12   8    5.58    8.83
   3  12  -8   -4.12    6.74
  -3  12  -8   -1.44    2.33
  -3  12   8   -0.13    1.43
   3 -12   8    3.51    6.22
  -3  12  -8    1.60    4.76
  -3  12  -9   19.54   10.23
   3  12   9    6.09    5.81
  -3  12   9    8.82    7.19
   3  12  -9   27.12   12.46
  -3  12  -9   11.26    5.25
   3 -12   9   13.31   12.17
  -3  12   9   15.92    7.71
   3  12  -9   14.54    6.68
   3  12  10    7.73    5.61
  -3  12  10   25.29   10.67
   3  12 -10   18.51    8.31
  -3  12 -10   16.06    6.65
   3  12 -10    4.61    4.61
  -3  12 -10   21.48    9.19
   3 -12  10   15.15    5.42
  -3  12  10   12.79    8.33
   3  12  11   -1.68    1.64
  -3  12  11   -3.17    6.65
  -3  12 -11   -1.54    5.37
  -3  12  11    3.37    8.08
   3  12 -11    6.01    3.46
   3 -12  11   -0.87    6.36
  -3  12 -11   -0.57    2.41
  -3  12 -12    4.11    2.24
   3  12  12   19.80    9.95
  -3  12  12    0.34    3.20
   3  12 -12    5.72    3.31
  -3  12  12   20.96   10.11
   3 -12  12    9.90    9.41
  -3  12 -12   12.99    5.71
   3  12  13    3.20    6.27
  -3  12  13    6.52    5.77
  -3  12 -13    1.19    1.75
  -3  12  13   -1.03    5.67
   3  12 -13    0.65    1.18
  -3  12 -13    1.62    3.31
   3 -12  13   -4.04    3.58
   3  12  14   10.13    1.93
  -3  12  14    6.98    6.94
  -3  12  14    1.32    6.22
   3  12 -14    9.28    3.85
  -3  12 -14    4.00    1.05
  -3  12 -14   -2.36    4.88
   3  12  15    0.06    4.21
  -3  12  15    6.58    9.02
  -3  12 -15    9.69    9.59
  -3  12  15    5.41    6.88
   3  12 -15    8.78    5.89
  -3  12 -15   -0.16    6.60
  -3 -12  15   13.82    8.65
  -3  12  16   -6.21    7.90
   3  12  16    0.95    4.89
  -3  12  16    2.06    6.61
  -3  12 -16   -2.47    5.03
  -3  12 -16    9.86    6.61
   3  12 -16    2.79    2.35
  -3 -12  16   -0.18    3.21
  -3  12  17   66.04   18.56
   3  12  17   34.97   12.34
  -3  12  17   37.60   12.33
  -3  12 -17   37.68   13.92
  -3  12 -17   46.72   13.96
   3  12 -17   30.89    9.93
  -3 -12  17   64.68   15.86
   3  12 -18   -2.87    8.28
  -3  12  18   16.53    9.98
   3  12  18    3.03    4.17
  -3  12  18    5.49    6.07
  -3  12 -18    2.69    4.64
  -3 -12  18   -2.00    3.34
  -3  12  18    5.58    5.07
  -3  12  19   -1.26    5.14
   3  12  19    6.19    4.89
  -3  12  19    0.12    7.01
  -3  12 -19    4.41    2.96
  -3 -12  19   -3.17    5.51
   3  12 -19    9.20    8.83
  -3  12  19   -1.65    6.82
  -3  12 -20    0.27    4.40
  -3  12  20    2.25    3.46
   3  12  20    1.62    6.55
  -3  12  20   -7.02    9.01
  -3 -12  20   -7.80    6.82
  -3  12  20    0.53    3.83
   3  12 -20   -6.79    6.05
  -3  12  21    8.77    7.79
   3  12  21    1.64    4.39
  -3  12  21    2.33    4.16
   3  12 -21   -0.75    1.31
  -3  12 -21   -5.76    0.73
  -3 -12  21   -1.97    6.17
  -3  12  21   -8.32    7.25
   3  13   0    3.87    4.61
  -3  13   0    7.47    8.55
  -3  13   0   -0.18    5.33
   3  13   1   97.31   19.60
   3  13  -1  128.77   23.67
  -3  13   1  118.39   22.53
  -3  13  -1  100.53   22.60
  -3  13   1   74.05   16.68
  -3  13  -1   69.74   17.25
  -3  13   2   96.12   20.77
   3  13  -2  132.79   24.44
  -3  13  -2  113.65   24.15
   3  13   2   59.00   17.19
  -3  13   2  118.74   20.75
  -3  13  -2  114.29   19.98
   3  13   3   -0.76    9.52
  -3  13   3    7.19    8.00
  -3  13   3   -3.34    6.33
   3  13  -3   -3.30    7.29
  -3  13  -3    6.46    5.43
  -3  13  -3    5.25    4.82
  -3  13  -4   33.11   12.66
  -3  13   4   45.39   11.64
   3  13   4   24.19   11.87
  -3  13   4   35.28   14.27
   3  13  -4   37.98   13.97
  -3  13  -4   30.30   11.68
  -3  13   5   68.11   16.36
   3  13   5   51.23   14.78
  -3  13   5   64.05   17.02
   3  13  -5   36.78   14.89
  -3  13  -5   52.99   15.17
  -3  13  -5   78.34   19.03
   3  13   6    0.09    5.79
  -3  13   6   -7.30    9.27
  -3  13  -6   -0.05    0.99
   3  13  -6    5.74    6.84
  -3  13  -6   -2.97    3.97
  -3  13   6   -4.03    1.93
   3  13  -7   22.39   11.92
  -3  13  -7   16.82    7.77
   3  13   7   -0.53    5.07
  -3  13   7   21.02   11.29
   3  13  -7   14.65    8.16
  -3  13  -7   -0.51    4.45
  -3  13   7    9.81    7.30
   3  13   8   20.90   10.46
  -3  13   8    6.89    4.83
   3  13  -8   14.43    4.47
   3  13  -8   13.71    6.59
  -3  13  -8   27.58   10.57
  -3  13  -8   21.19    9.62
  -3  13   8    6.80    5.66
   3  13   9   65.62   17.77
  -3  13   9   54.38   15.76
   3  13  -9   41.04   13.78
  -3  13  -9   60.13   15.73
  -3  13   9   57.24   15.21
   3  13  -9   69.10   15.47
  -3  13  -9   57.76   14.81
  -3  13 -10   -1.11    2.62
   3  13  10   -5.78    8.21
  -3  13  10   -0.60    3.20
   3  13 -10   -3.44    6.98
   3  13 -10    1.27    3.59
  -3  13 -10    8.21    7.30
  -3  13  10   -0.63    5.06
   3  13  11   18.64    8.42
  -3  13  11   14.65    8.81
  -3  13 -11   30.69   11.57
   3  13 -11    8.85    4.64
  -3  13 -11   37.19   14.39
  -3  13  11   18.61    5.76
   3  13 -11   10.23    7.70
   3  13  12   11.77    7.27
  -3  13  12    9.27    6.44
   3  13 -12    7.51    5.10
  -3  13 -12   -0.36    5.56
  -3  13 -12   15.76    9.82
  -3  13  12   -1.66    2.56
   3  13 -12    5.64    7.02
  -3  13 -13  121.83   22.68
  -3  13  13   56.36   17.04
  -3  13 -13  105.00   21.27
   3  13 -13   76.71   15.86
   3  13 -13  106.83   21.34
  -3  13  13   92.32   20.75
   3  13  13  113.81   22.83
   3  13  14    1.76    1.44
  -3  13  14    7.26    9.15
  -3  13 -14    0.60    2.52
  -3  13  14    5.06    2.43
   3  13 -14    8.27    8.17
  -3  13 -14    1.36    3.87
   3  13  15    0.83    3.57
  -3  13  15   -3.54    4.28
  -3  13 -15   -0.82    6.81
  -3  13  15   10.52    8.84
   3  13 -15   -3.56    4.65
  -3  13 -15    8.81    7.56
  -3  13  16    6.86    0.78
   3  13  16   13.50   10.12
  -3  13  16    5.33    4.95
   3  13 -16   -3.15    6.73
  -3  13 -16    0.23    2.62
  -3  13 -16    4.87    6.69
  -3  13  17   17.16   10.16
   3  13  17   28.29   10.55
  -3  13  17   15.18    9.76
  -3  13 -17   25.48   10.67
   3  13 -17   23.82   10.60
  -3  13 -17   29.80   10.55
  -3  13  18    0.23    1.75
   3  13  18   -2.15    4.33
  -3  13  18   -0.98    5.83
  -3  13 -18    4.13    7.17
   3  13 -18    8.40    8.06
  -3 -13  18    3.49    5.92
  -3  13 -18    3.19    4.24
  -3  13  19   10.53    7.70
   3  13  19    2.09    6.32
  -3  13  19   24.94    5.72
  -3  13 -19   16.78    9.57
  -3  13 -19   25.89   11.82
  -3 -13  19   23.20   10.12
   3  13 -19   14.66    8.33
   3  14   0    0.13    4.90
  -3  14   0    9.43    9.04
  -3  14   0    7.56    5.18
  -3  14  -1   14.18    6.41
   3  14   1   12.12    6.48
  -3  14   1   -5.67    0.93
   3  14  -1    6.83    5.99
  -3  14  -1    6.43    4.88
  -3  14   1   -1.87    6.50
   3  14   2    6.96    5.29
  -3  14   2    9.85    7.24
   3  14  -2   20.53   14.56
  -3  14   2   -5.93    4.82
  -3  14  -2    7.41    0.65
  -3  14  -2   14.63    6.08
  -3  14   3    2.63    3.90
   3  14   3    0.66    7.19
  -3  14   3    1.64    3.40
   3  14  -3   -6.23    6.17
  -3  14  -3    6.17   10.15
  -3  14  -3    0.52    3.80
  -3  14   4    4.78    7.59
   3  14   4    0.89    4.55
  -3  14   4   -1.15    4.97
   3  14  -4   10.31    8.39
  -3  14  -4   -3.82    7.16
  -3  14  -4    6.72    7.55
  -3  14   5   -0.58    2.07
  -3  14  -5   -1.50    4.60
   3  14   5    5.24    3.88
  -3  14   5    7.62    7.07
   3  14  -5    3.39    8.61
  -3  14  -5    3.24    4.27
  -3  14  -6   33.68   13.20
   3  14   6   30.64   13.81
  -3  14   6   11.33    8.16
   3  14  -6   24.32   11.00
  -3  14  -6   23.73    9.05
  -3  14   6   13.60    6.86
   3  14   7   17.82   10.15
  -3  14   7   11.22    7.25
  -3  14  -7   11.72    9.25
   3  14  -7   14.04    8.82
  -3  14  -7   14.64    9.04
  -3  14   7    5.35    4.44
   3  14   8   11.68    8.23
  -3  14   8   -1.43    5.42
   3  14  -8    0.13    7.16
  -3  14  -8    5.05    6.48
  -3  14  -8    3.53    7.15
  -3  14   8    0.06    6.95
   3  14   9   -5.48    8.65
  -3  14   9   -6.55    6.64
   3  14  -9   -6.80    2.13
  -3  14  -9   -0.09    3.53
  -3  14  -9   -5.81    7.56
  -3  14   9   -2.70    6.71
   3  14  10   10.50    7.14
  -3  14  10    6.28    5.99
   3  14 -10   -0.87    4.53
  -3  14 -10    1.08    7.04
  -3  14  10   11.64    9.38
  -3  14 -10    6.81    1.35
   3  14  11   -4.81    8.11
  -3  14  11   11.38    5.57
   3  14 -11    2.26    1.84
  -3  14 -11    1.81    3.93
  -3  14  11    1.01    5.03
  -3  14 -11    2.61    3.18
  -3  14 -12   -2.55    7.83
   3  14 -12   -8.93    6.28
   3  14  12    1.43    4.74
  -3  14  12    6.04    4.39
   3  14 -12    8.06    8.05
  -3  14 -12    0.03    2.35
  -3  14  12   17.15    9.80
   3  14  13    1.88    1.00
  -3  14  13   11.73    9.18
  -3  14 -13    2.07    7.97
   3  14 -13    4.58    7.65
  -3  14  13    0.88    5.21
  -3  14 -13   -4.01    7.24
   3  14 -13   -5.90    2.01
   3  14 -14   18.80   12.23
   3  14  14    3.52    6.22
  -3  14  14    2.90    9.09
  -3  14 -14    1.92    6.09
  -3  14  14    0.35    5.20
   3  14 -14   18.69    9.94
  -3  14 -14   -2.33    5.06
   3  14  15    0.13    4.03
  -3  14  15    0.62    7.10
  -3  14  15   13.77    9.74
  -3  14 -15  -11.08    8.89
   3  14 -15   -3.82    7.96
   3  14 -15   20.99   14.57
  -3  14 -15    8.77    8.23
  -3  14 -16   -4.10    5.62
  -3  14  16   -6.28    7.66
   3  14  16    8.86   10.88
  -3  14  16   -1.72    3.97
   3  14 -16   -6.77    6.15
  -3  14 -16    4.53    7.86
   3  14 -16   -4.00    0.55
   3  15   0   -2.27    2.82
  -3  15   0    7.45    8.91
  -3  15   0   -1.59    3.32
   3  15   1   24.78   13.19
  -3  15   1   19.42    9.91
   3  15  -1    2.53    3.31
  -3  15  -1    8.70    4.65
  -3  15   1   10.36    6.66
  -3  15  -1    3.95    2.14
   3  15  -2  118.78   23.24
  -3  15  -2  117.57   25.64
  -3  15  -2  104.20   19.72
   3  15   2   94.86   21.89
  -3  15   2   81.21   19.91
  -3  15   2   78.40   19.26
  -3  15   3   26.45   10.16
   3  15   3    4.29    2.82
  -3  15   3    8.32    1.67
   3  15  -3   21.74    9.35
  -3  15  -3    9.91    5.23
  -3  15  -3   22.08   11.77
  -3  15   4   29.36   10.99
  -3  15   4   50.03   15.63
   3  15  -4   62.54   18.11
  -3  15  -4   60.54   17.57
  -3  15  -4   27.53   11.70
  -3  15   5   -2.71    2.83
   3  15  -5   -1.12    3.55
  -3  15  -5   -2.74    6.46
  -3  15  -5    2.90    1.97
  -3  15   5    6.21    5.88
  -3  15  -6   72.50   17.95
  -3  15   6   91.88   20.54
   3  15  -6  120.82   25.30
   3  15   6   65.57   18.45
  -3  15   6   51.87   16.42
  -3  15  -6   35.02   13.19
  -3  15  -7    8.73    6.65
   3  15   7   -0.33    1.72
  -3  15   7    6.15    6.89
   3  15  -7   13.19    8.89
  -3  15  -7   -0.26    2.81
  -3  15   7    6.57    8.80
   3  15   8    9.13    4.38
  -3  15   8   15.93   13.14
  -3  15  -8   30.77   11.16
   3  15  -8   15.35    5.65
  -3  15  -8   19.20   11.60
  -3  15   8   14.42    1.76
   3  15   9    9.97   13.44
  -3  15   9   15.37   11.18
  -3  15  -9    3.98    4.68
   3  15  -9    5.24    7.27
  -3  15  -9    4.39    7.25
  -3  15   9   12.42    8.46
   3  15  10   15.53   11.43
  -3  15  10    1.44    3.02
  -3  15  10   24.53   12.47
   3  15 -10   22.55   10.16
  -3  15 -10   15.58    8.77
  -3  15 -10    0.35    2.81
   3  15  11   -1.00    0.81
  -3  15  11    0.10    3.36
   3  15 -11   -2.80    6.20
  -3  15 -11   -1.70    4.34
  -3  15  11   -0.39    0.68
  -3  15 -11   -2.98    5.12
   3  15  12   31.63   12.92
  -3  15  12   45.94   16.62
  -3  15  12   38.92   12.83
   3  15 -12   40.78   14.08
  -3  15 -12   39.69   12.47
  -3  15 -12   50.99   15.90
   3  16   0    6.16    7.05
  -3  16   0   -6.38    4.97
  -3  16   0   -4.93    5.19
   3  16   1    2.46    8.29
  -3  16   1   16.56    9.89
  -3  16   1    5.48    5.76
   3  16  -1    6.45    6.69
  -3  16  -1    7.88    6.36
  -3  16  -1    2.65    6.60
  -3  16   2    8.18    7.66
   3  16   2    3.84    5.23
  -3  16   2   10.90    5.95
   3  16  -2    0.07    8.02
  -3  16  -2    3.32    1.86
  -3  16  -2   -1.52    3.71
  -3  16   3   -8.76    5.68
   3  16   3    5.11    5.92
  -3  16   3    9.12    8.25
   3  16  -3   -2.01    2.08
  -3  16  -3    3.05    5.86
  -3  16  -3   -5.40    6.08
  -3  16   4   -1.81    4.38
   3  16   4    5.94    6.24
  -3  16   4    4.39    5.25
   3  16  -4    3.30    5.82
  -3  16  -4    0.63    2.95
  -3  16  -4   -2.63    5.01
   3  16   5    5.83    4.62
  -3  16   5   -1.51    4.81
   3  16  -5   -4.01   10.05
  -3  16  -5   -4.31    4.69
  -3  16  -5   -6.61    3.04
  -3  16   5   -7.12    8.58
   4   0   0 5052.01   95.62
  -4   0   0 6305.31   70.20
  -4   0  -1    1.15    1.80
  -4   0   1   -0.02    1.48
   4   0  -1    2.00    2.95
   4   0   1    0.23    1.70
   4   0   2  586.03   32.68
  -4   0  -2  519.50   19.33
  -4   0   3   -1.01    1.64
  -4   0  -3    0.28    1.01
   4   0   3    1.99    3.29
   4   0   4  571.65   31.58
  -4   0  -4  644.41   23.04
   4   0   5   -1.10    2.22
   4   0   5    0.55    0.87
   4   0  -5    0.62    0.64
  -4   0   5   -0.30    1.07
  -4   0   6   59.48    9.38
   4   0   6   94.74   12.77
   4   0   6   79.34    8.89
   4   0   7   -0.51    1.85
  -4   0   7   -0.35    3.30
   4   0   7    2.87    2.35
   4   0   8  354.29   26.40
   4   0   8  435.58   23.87
   4   0   9   -0.35    1.14
   4   0   9    3.16    5.15
  -4   0   9    0.51    1.82
  -4   0  10  264.82   24.57
   4   0  10  247.49   23.93
   4   0  10  185.05   17.39
  -4   0  11    2.53    3.05
   4   0  11    1.20    0.84
   4   0  11   -1.14    0.88
  -4   0  12  241.08   25.27
   4   0  12  183.92   19.15
   4   0  13    2.29    2.38
  -4   0  13    2.72    4.87
   4   0  13   -1.79    0.31
  -4   0  14 2087.22   79.45
   4   0  14 1998.80   68.79
   4   0  14 1932.08   74.99
   4   0  15    2.44    4.70
  -4   0  15   -2.94    4.03
   4   0  15   -1.75    4.75
  -4   0  16  355.38   34.65
   4   0  16  381.38   34.24
  -4   0  16  310.20   31.48
   4   0  16  312.60   29.27
   4   0  17    3.43    3.68
  -4   0  17   -0.55    2.09
   4   0  17    0.15    6.38
  -4   0  17    2.87    6.52
   4   0  18   57.48   13.32
  -4   0  18   57.83   14.17
   4   0  18   61.51   14.35
  -4   0  18   39.56    9.87
   4   0  19    4.84    4.68
  -4   0  19   -1.56    1.02
   4   0  19   -1.18    3.03
  -4   0  19   -3.48    5.41
   4   0  20   36.22    9.95
  -4   0  20   44.47   11.67
   4   0  20   55.78   14.46
  -4   0  20   53.05   12.98
  -4   0  21    1.13    4.02
   4   0  21    5.62    5.95
  -4   0  21   -5.28    7.31
   4   0  21    8.64    7.32
   4   0  22   44.68   14.76
   4   0  22   58.41   14.69
  -4   0  22   40.07   13.84
  -4   0  22   68.68   17.58
   4   0  23    1.54    3.94
   4   0  23    1.91    0.70
  -4   0  23   -5.22    7.31
  -4   0  23   11.45    6.95
   4   0  24   11.89    9.97
   4   0  24    1.89    5.01
  -4   0  24   -1.58    4.43
  -4   0  24    4.76    4.76
   4   0  25    7.16    7.33
  -4   0  25    1.21    5.56
  -4   0  25    3.74    5.98
   4   0  25    2.44    6.24
   4   0  26    6.17    5.22
  -4   0  26   -1.92    4.66
   4   0  26    6.02    2.66
  -4   0  26    8.88    9.05
   4   0  27   -1.76    7.44
  -4   0  27    4.03    7.61
   4   0  27    3.87    1.62
  -4   0  27    0.50    6.42
   4   0  28   20.20    8.64
  -4   0  28   24.65   10.55
   4   0  28   28.59   13.00
  -4   0  28   46.92   17.16
   4   0  29   -6.59    8.53
  -4   0  29    9.22   11.64
  -4   0  29   -3.13    3.61
   4   0  29   -3.11    5.20
   4   0  30   20.36    9.71
   4   0  30   16.43   12.12
  -4   0  30   32.61   14.64
  -4   0  30   41.74   15.10
   4   0  31   -5.76    4.46
  -4   0  31    7.60    8.16
   4   0  31    8.25    8.99
  -4   0  31   -1.19    6.00
  -4   1   0  205.28   14.72
   4  -1   0  223.23   20.91
  -4  -1   0  181.46    9.36
   4   1   0  213.04   11.05
  -4   1   1  434.35   21.65
  -4  -1   1  588.78   19.91
   4  -1   1  364.25   25.13
  -4   1  -1  520.50   22.93
   4   1   1  318.83   21.79
  -4   1  -1  536.60   16.32
   4   1  -1  437.81   25.19
  -4  -1  -1  462.54   13.36
   4  -1  -1  376.92   25.72
   4   1   1  421.41   17.15
  -4  -1   2  246.69   14.25
   4   1   2  228.67   19.20
   4  -1   2  348.18   25.02
  -4   1  -2  262.82   16.36
  -4   1   2  278.16   18.41
   4   1   2  167.39   12.02
  -4  -1  -2  256.04    9.25
   4  -1   3   46.73    9.13
   4   1  -3   60.77    5.98
  -4  -1   3   81.76    8.87
   4   1   3   68.52   10.21
  -4   1   3   69.45    9.27
  -4   1  -3   65.10    7.98
   4   1   3   70.69    8.50
  -4  -1  -3   68.13    5.08
  -4  -1  -4 1618.85   27.82
  -4   1  -4 2051.13   47.45
   4   1  -4 1805.18   32.39
  -4  -1   4 1435.40   40.56
   4   1   4 1508.28   49.51
  -4   1   4 2187.42   54.91
  -4   1   5  232.19   18.93
  -4  -1   5  248.81   18.48
   4   1  -5  301.46   14.95
   4   1   5  312.10   21.67
   4   1   5  262.34   12.36
   4  -1   5  236.04   21.51
   4   1  -6   21.30    4.24
  -4   1   6   20.90    5.88
  -4  -1   6   31.30    7.52
   4  -1   6   23.48    6.71
   4  -1   6   21.83    4.84
   4   1   6   17.65    3.75
   4   1   6   18.16    5.58
   4   1  -7  136.01   12.39
  -4   1   7  136.80   15.58
   4  -1   7  152.71   17.00
   4  -1   7  106.73   11.87
   4   1   7  145.03   11.91
   4   1   7  103.14   13.56
   4  -1   8  842.75   35.82
  -4  -1   8  958.24   43.75
  -4   1   8  894.19   41.08
   4  -1   8 1031.31   46.17
   4   1   8  731.96   28.85
   4   1   9    7.70    3.79
  -4  -1   9   13.79    6.07
   4  -1   9    8.14    5.09
   4   1   9    9.18    3.76
   4  -1   9    9.80    4.18
  -4   1   9    9.28    3.13
   4   1  10  180.13   20.71
  -4  -1  10  172.19   20.79
  -4   1  10  172.99   20.29
   4  -1  10  162.56   16.85
   4  -1  10  171.57   19.92
   4   1  10  212.15   18.43
  -4  -1  11  112.83   16.42
  -4   1  11  121.35   17.11
   4  -1  11  126.43   15.99
   4   1  11  108.63   13.86
  -4   1  12  151.62   19.37
   4  -1  12  125.92   17.84
   4   1  12  144.49   19.32
   4  -1  12  139.17   18.61
   4   1  12  160.30   18.06
  -4  -1  13   68.25   13.41
  -4   1  13   65.32   13.50
   4  -1  13   71.73   13.47
   4   1  13   53.47   11.74
   4  -1  13   68.29   12.05
   4   1  13   74.84   12.25
  -4  -1  14  417.30   33.81
   4  -1  14  536.71   40.09
  -4   1  14  572.57   40.52
   4   1  14  288.55   28.50
   4  -1  14  438.62   32.03
   4   1  14  455.68   31.64
  -4  -1  14  415.51   33.72
  -4  -1  15 1238.93   59.65
  -4   1  15 1318.41   64.61
   4   1  15 1254.30   60.51
  -4  -1  15 1255.60   59.77
   4   1  15 1202.95   54.26
  -4  -1  16  218.44   25.65
  -4   1  16  228.03   27.49
   4  -1  16  214.76   26.25
   4   1  16  242.80   27.18
   4  -1  16  222.63   23.87
  -4  -1  16  230.40   25.93
   4   1  16  243.07   24.82
   4   1  17   24.40    7.67
   4  -1  17   14.92    5.58
   4   1  17   21.89    9.41
  -4  -1  17   45.66   13.30
  -4   1  17   22.86    8.83
   4  -1  17   29.66   10.22
  -4   1  17   25.31   10.06
  -4  -1  17   25.05    8.44
  -4  -1  18  366.94   36.20
  -4   1  18  392.38   37.78
   4  -1  18  260.98   30.33
   4   1  18  335.51   32.83
  -4  -1  18  331.15   32.79
   4  -1  18  261.90   28.05
  -4   1  18  321.15   33.62
   4   1  18  267.57   28.40
   4  -1  19   -0.89    5.07
  -4   1  19    3.23    0.31
   4   1  19   -0.57    2.51
  -4  -1  19   10.43    8.82
   4  -1  19    2.60    3.25
  -4   1  19    6.27    8.55
   4   1  19   -5.26    6.81
  -4  -1  19   -0.98    1.76
   4  -1  20   16.60    8.02
   4   1  20   30.82   11.04
   4   1  20   24.63    8.73
  -4  -1  20   16.04    8.65
  -4   1  20   16.86    7.43
   4  -1  20   23.36   10.71
  -4  -1  20   28.65   10.14
  -4   1  20   28.36    9.09
   4  -1  21   42.78   11.19
   4   1  21   41.37   12.45
  -4  -1  21   49.00   13.06
  -4   1  21   66.25   16.65
   4  -1  21   34.65   11.60
   4   1  21   46.49   13.26
  -4  -1  21   37.21   12.23
  -4   1  21   60.71   16.68
  -4  -1  22  208.59   29.45
  -4   1  22  245.62   31.23
   4  -1  22  172.17   26.45
   4   1  22  244.03   29.98
  -4  -1  22  212.37   28.14
  -4   1  22  246.71   31.21
   4  -1  22  185.89   26.02
   4   1  22  231.43   29.29
   4  -1  23    2.86    3.64
   4   1  23    5.38    6.59
  -4  -1  23   11.20    8.22
   4  -1  23   -0.67    3.91
  -4   1  23    1.60    3.55
   4   1  23    0.48    5.27
  -4  -1  23    0.92    4.51
  -4   1  23    0.26    4.80
   4  -1  24    4.98    7.20
  -4  -1  24    0.41    5.45
   4   1  24   16.68   10.68
  -4  -1  24   12.89    8.63
  -4   1  24    0.30    6.80
   4  -1  24    5.51    1.40
   4   1  24   16.22    8.91
  -4   1  24    8.24    8.09
   4   1  25   90.55   18.89
   4   1  25   54.43   15.19
  -4  -1  25   92.60   18.69
  -4   1  25   50.04   13.61
   4  -1  25   50.66   15.02
   4  -1  25  108.95   21.59
  -4  -1  25   72.27   16.83
  -4   1  25   63.84   16.91
  -4   1  26  125.20   25.40
  -4  -1  26  102.35   20.77
   4  -1  26  106.53   22.73
   4   1  26   96.57   20.77
  -4  -1  26  141.23   24.54
  -4   1  26  111.03   25.32
   4  -1  26  105.81   20.39
   4   1  26  112.15   21.99
   4  -1  27   -1.42    6.44
   4   1  27   -1.82    2.48
  -4  -1  27    1.23    7.75
  -4   1  27    9.98    8.35
   4  -1  27    3.90    5.57
  -4  -1  27   -2.65    2.51
  -4   1  27   -6.35    9.47
   4   1  27    2.92    6.26
   4  -1  28   52.77   14.78
   4   1  28   58.67   16.73
   4   1  28   48.07   15.01
  -4  -1  28   60.37   15.04
  -4   1  28   69.96   17.69
   4  -1  28   64.68   18.23
  -4  -1  28   64.40   17.70
  -4   1  28   64.05   18.76
   4  -1  29   25.22   11.26
   4   1  29   31.37   13.53
  -4  -1  29    5.27    5.37
  -4  -1  29    8.18    8.66
  -4   1  29   28.37   14.17
   4  -1  29    1.41    2.47
   4   1  29   18.25    9.81
  -4   1  29   18.26    9.41
   4  -1  30    5.06    4.99
   4   1  30   -8.12    6.33
  -4  -1  30   15.86   10.64
  -4   1  30    0.30    5.60
   4   1  30   14.01   11.10
   4  -1  30   -6.21    7.62
  -4  -1  30   14.10    9.57
  -4   1  30    0.38    4.74
   4  -1  31   18.76    9.23
  -4  -1  31   15.94    9.63
  -4   1  31   32.88   13.83
   4  -1  31   18.80   11.70
   4   1  31   32.69   12.97
  -4  -1  31   38.60   14.78
  -4   1  31   33.75   12.65
   4   2   0  534.45   23.06
   4   2   0  529.27   27.46
  -4   2   0  563.25   27.05
   4   2   1   10.48    3.02
  -4   2   1    6.63    1.87
   4   2  -1    3.51    1.72
  -4   2   1    5.10    1.93
  -4  -2   1    3.55    1.45
   4  -2   1    1.12    2.93
   4   2   1    5.39    3.15
  -4   2  -1    6.77    2.47
  -4   2  -1    5.19    2.94
   4  -2  -1    6.74    3.26
  -4   2   2  407.74   13.83
  -4  -2   2  624.99   21.36
  -4   2   2  429.45   24.31
   4   2  -2  357.94   19.61
  -4   2  -2  684.96   24.15
   4  -2   2  566.11   34.26
   4   2   2  466.26   25.62
  -4   2  -2  437.16   24.27
   4   2   2  329.89   18.80
  -4  -2   3 1271.93   34.60
   4   2  -3 1410.01   36.46
  -4   2  -3  739.39   27.23
   4  -2   3 1029.77   47.51
   4   2   3  899.18   36.15
  -4   2  -3 1051.46   37.96
  -4   2   3  861.86   36.38
   4   2   3 1168.42   37.89
  -4   2   3 1345.35   24.73
  -4  -2   4 1948.53   49.60
  -4   2  -4 2309.73   56.91
   4   2  -4 2593.37   47.77
  -4   2   4 2165.68   59.65
   4   2   4 1723.65   49.92
   4  -2   4 1751.38   60.35
  -4   2   4 1966.57   35.15
  -4  -2   5  103.90   11.55
   4   2  -5   88.34    8.93
   4  -2   5  129.40   16.05
   4   2   5  121.84   13.61
  -4  -2   6  214.65   18.31
   4  -2   6  292.31   24.43
  -4   2   6  221.24   19.74
   4  -2   6  232.97   18.42
   4   2   6  249.52   20.23
   4   2   6  205.86   11.05
   4   2   6  282.40   21.54
  -4  -2   7  790.01   36.71
   4   2   7  525.59   30.75
   4   2  -7  612.54   27.85
   4  -2   7  802.44   41.11
  -4   2   7  545.37   32.30
   4  -2   7  663.68   31.90
   4   2   7  802.16   26.21
   4   2   7  792.96   38.90
  -4  -2   8  210.52   19.44
   4  -2   8  101.78   14.65
   4   2  -8  153.40   15.10
  -4   2   8  139.89   17.20
   4   2   8  170.71   18.06
   4  -2   8  142.42   15.52
   4   2   8  143.12   11.86
  -4   2   9    4.81    2.90
   4   2   9    7.73    4.21
   4   2   9   10.12    4.22
  -4  -2   9    5.18    0.81
   4  -2   9    6.05    4.52
   4   2  -9   12.48    5.22
   4  -2   9    3.20    1.43
  -4   2  10   17.77    5.81
   4   2  10    9.83    3.70
  -4  -2  10   26.70    7.60
   4  -2  10   13.11    6.06
   4   2 -10   16.26    5.32
   4   2  10    4.05    2.74
   4  -2  10   10.13    5.04
  -4  -2  11   82.60   14.49
  -4   2  11   59.60   11.79
   4  -2  11   80.74   13.52
   4   2  11  108.91   16.28
   4  -2  11   28.73   10.85
   4   2 -11   66.39   11.28
   4   2  11   91.80   12.67
  -4  -2  12   91.32   15.42
  -4   2  12  125.65   17.55
   4  -2  12  138.21   18.94
   4   2  12  106.22   16.15
   4  -2  12  124.12   16.14
   4   2  12  111.51   14.54
  -4  -2  12   76.37   13.51
  -4  -2  13  116.33   17.94
  -4   2  13   99.71   17.24
   4  -2  13   82.45   14.88
   4   2  13   88.53   15.36
   4  -2  13   86.68   14.62
  -4  -2  13   70.00   13.19
   4   2  13   87.84   13.83
  -4  -2  14   75.47   14.72
   4  -2  14   50.38   11.98
   4   2  14   43.23    9.93
   4  -2  14   67.52   13.74
   4   2  14   40.67   12.26
  -4   2  14    9.30    9.50
  -4  -2  14   32.78    9.03
  -4  -2  15  113.68   20.35
  -4   2  15  124.10   19.87
   4  -2  15  113.59   17.85
   4  -2  15  130.56   18.10
  -4  -2  15  142.79   19.63
   4   2  15  134.82   18.33
   4  -2  16   57.32   12.98
  -4   2  16   38.83   15.14
  -4  -2  16   46.80   13.51
   4  -2  16   78.98   16.11
   4   2  16   61.46   14.00
  -4  -2  16   67.35   14.14
   4   2  16   68.28   13.73
   4  -2  17   41.66   11.87
  -4  -2  17   73.76   16.98
   4  -2  17   67.16   14.21
  -4   2  17   66.13   15.22
   4   2  17   52.85   13.44
  -4  -2  17   58.14   12.47
   4   2  17   69.38   14.82
  -4  -2  18  179.77   25.99
  -4   2  18  163.54   25.25
   4   2  18  135.57   21.04
  -4  -2  18  145.55   21.53
   4  -2  18  142.56   21.38
   4   2  18  134.83   20.71
   4  -2  18  154.38   23.94
  -4   2  18  142.33   22.80
   4  -2  19   11.40    7.99
   4   2  19   11.58    9.31
  -4  -2  19    1.70    1.53
   4  -2  19   13.26    7.12
  -4   2  19   17.77    9.22
   4   2  19   18.93    6.60
  -4  -2  19    0.30    5.33
  -4   2  19   16.83    9.02
   4  -2  20    2.51    3.76
   4   2  20    3.77    2.36
  -4  -2  20    6.46    4.81
  -4   2  20    6.87    2.17
   4  -2  20    0.56    4.17
   4   2  20   14.06    3.74
  -4  -2  20    2.93    3.85
  -4   2  20   -0.82    1.89
   4  -2  21   29.95   10.48
   4   2  21   27.13    9.22
  -4  -2  21   12.73    7.96
  -4   2  21   14.83    4.81
   4  -2  21   15.49    7.80
   4   2  21   44.55   13.75
  -4  -2  21   26.30    8.17
  -4   2  21   16.01    9.06
   4  -2  22    9.60    5.79
   4  -2  22   -0.03    2.44
   4   2  22    8.15    7.31
  -4  -2  22    4.31    8.71
  -4   2  22   21.38   11.54
   4   2  22    3.89    4.09
  -4  -2  22    9.80    8.29
  -4   2  22    4.24    3.12
   4  -2  23   15.43    7.97
   4   2  23    5.62    6.04
  -4  -2  23   10.25    7.36
  -4   2  23    7.35    8.64
   4  -2  23   11.12    8.79
   4   2  23   11.10    4.67
  -4  -2  23    9.43    4.59
  -4   2  23    6.09    6.74
   4  -2  24    7.18    6.99
   4   2  24   -2.49    4.65
  -4  -2  24   -3.21    3.14
  -4   2  24   -2.58    2.85
   4  -2  24   -1.16    4.63
   4   2  24   -5.67    8.94
  -4  -2  24   -0.66    6.32
  -4   2  24   -6.54    5.15
  -4   2  25    1.05    2.10
   4  -2  25   -1.69    3.41
   4   2  25    2.63    4.19
  -4  -2  25   -1.54    5.46
   4  -2  25    0.93    0.96
   4   2  25    5.56    6.40
  -4  -2  25   -1.90    3.17
  -4   2  25   -4.26    3.44
   4  -2  26   16.78    7.65
   4   2  26   12.68    6.08
  -4  -2  26   27.34   10.87
  -4   2  26   18.68    9.18
   4  -2  26   11.46    7.12
   4   2  26    5.16    9.71
  -4  -2  26   34.99   13.34
  -4   2  26   12.76    5.21
   4  -2  27    2.56    5.75
   4   2  27   21.12   14.05
  -4  -2  27    5.06    3.46
  -4   2  27    3.10    3.43
   4  -2  27   -1.61    3.37
  -4  -2  27    6.49    0.96
  -4   2  27   18.00   13.14
   4   2  27   21.05    8.75
   4  -2  28    1.84    1.01
  -4  -2  28   -5.41    7.60
  -4   2  28    5.24    5.59
   4  -2  28    9.41    9.78
   4   2  28    6.21    8.62
  -4  -2  28   15.31    9.76
  -4   2  28   -7.23    5.02
   4  -2  29    8.74    4.37
  -4  -2  29   17.93    9.78
  -4   2  29    9.01    1.06
   4  -2  29   19.70   10.49
   4   2  29   23.56   12.48
  -4  -2  29   19.64   10.99
  -4   2  29   23.04   10.86
   4  -2  30    4.89    6.87
  -4  -2  30   -1.86    9.43
  -4   2  30   10.92   10.38
   4  -2  30    3.85    7.44
   4   2  30    2.95    5.57
  -4  -2  30   -3.17    2.29
  -4   2  30   19.22   12.35
   4   3   0 1081.06   38.05
  -4   3   0 1575.23   36.96
   4   3   0 1501.84   42.08
  -4   3   0 1397.80   47.08
   4  -3   0 1171.18   52.08
  -4   3  -1   33.87    6.92
   4   3   1   19.21    5.31
   4   3  -1   27.10    6.18
  -4   3   1   15.85    4.26
  -4   3   1   24.85    6.70
   4   3   1   27.41    5.86
   4  -3   1   32.93    8.46
  -4   3  -1   23.27    4.39
   4  -3  -1   10.61    3.59
  -4  -3   1   21.01    3.19
   4   3   2   57.76    9.02
  -4   3   2   44.00    6.42
   4   3  -2   57.46    8.75
  -4   3   2   52.16    9.19
  -4   3  -2   34.67    6.39
   4   3   2   41.66    7.06
   4  -3   2   70.09   12.00
  -4  -3   2   59.53    6.47
  -4   3  -2   53.05    9.30
   4   3   3  491.71   27.11
  -4   3   3  495.32   21.30
   4   3   3  460.52   24.38
  -4   3   3  492.74   28.72
   4   3  -3  599.15   27.94
  -4   3  -3  443.00   23.35
   4  -3   3  385.89   29.65
  -4  -3   3  563.10   22.93
  -4   3  -3  506.58   28.57
   4   3   4    2.43    0.27
  -4   3   4    2.42    1.47
  -4  -3   4    4.13    1.87
   4  -3   4    0.23    2.41
   4   3  -4    1.25    2.74
   4   3   4    2.21    1.86
  -4   3   4   -0.91    3.61
  -4   3  -4   -0.59    2.82
  -4   3  -4   -0.26    2.27
  -4   3  -5  238.11   19.39
  -4   3  -5  224.89   20.13
   4  -3   5  251.31   23.93
   4   3   5  210.14   17.40
  -4   3   5  279.58   23.79
  -4  -3   5  236.45   17.88
   4   3   5  219.62   18.97
  -4   3   5  246.64   15.52
   4  -3   6  766.74   41.46
   4   3   6  836.00   36.42
  -4   3   6  847.99   41.60
   4   3   6  742.28   21.57
  -4  -3   6  922.76   37.43
  -4   3   6  776.20   29.36
   4   3   6  862.87   39.58
   4  -3   7   92.06   15.03
   4   3   7  110.94   14.28
   4  -3   7  101.03   13.15
  -4   3   7  138.65   16.91
  -4   3   7  145.25   14.03
   4   3   7  133.08   16.86
   4   3   7  116.02    9.82
  -4  -3   7  158.13   16.42
   4   3  -8  148.43   15.61
   4  -3   8  178.65   20.73
   4   3   8  101.30   14.02
  -4   3   8  121.45   16.06
   4  -3   8  140.86   16.47
  -4   3   8  180.13   16.50
  -4  -3   8  141.51   16.33
   4   3   8  121.83   11.36
  -4  -3   9  150.78   17.93
   4   3   9  117.44   12.00
   4   3  -9   77.66   11.73
   4  -3   9  113.08   15.35
   4   3   9  100.15   14.80
  -4   3   9  120.43   16.64
   4  -3   9  118.71   14.88
   4   3   9  145.72   18.07
   4   3  10   40.95   10.55
   4   3  10   43.59    7.78
  -4   3  10   24.43    7.23
   4  -3  10   34.28    8.85
  -4  -3  10   33.82    8.93
   4   3 -10   35.76    7.90
   4   3  10   20.50    7.34
  -4  -3  10   40.75    8.79
   4  -3  10   36.77    8.88
  -4  -3  11  297.31   26.44
   4   3  11  218.03   18.91
   4   3 -11  253.55   24.09
   4  -3  11  271.70   26.89
  -4   3  11  214.69   23.27
   4   3  11  309.87   26.75
   4  -3  11  280.79   25.12
  -4  -3  11  234.07   22.23
   4   3  12   39.89    8.92
  -4   3  12   19.01    8.30
   4  -3  12   12.72    6.33
  -4  -3  12   33.98    9.20
   4   3 -12   33.13    8.93
   4   3  12   21.79    7.17
   4  -3  12   35.02    9.65
  -4  -3  12   31.95    9.08
  -4  -3  13   17.92    7.37
   4   3  13    5.96    3.41
   4  -3  13   12.14    3.85
   4   3 -13   17.66    7.42
   4   3  13   14.30    5.39
   4  -3  13    2.78    2.79
  -4  -3  13   22.11    6.67
  -4   3  13   23.24    7.76
  -4  -3  14    0.98    3.12
   4   3  14    3.96    4.18
   4  -3  14    4.39    5.40
   4   3  14   10.12    6.08
  -4  -3  14    1.10    2.29
  -4   3  14   -1.88    0.23
   4  -3  14    0.31    0.68
  -4  -3  15  134.67   20.60
   4   3  15   83.31   14.77
  -4   3  15  106.84   19.11
   4  -3  15  110.50   17.57
   4   3 -15   75.42   13.86
   4   3  15  116.57   18.29
   4  -3  15  103.88   17.30
  -4  -3  15   81.89   14.88
  -4  -3  16    4.47    5.45
   4   3  16    1.44    3.65
   4  -3  16   -2.44    0.48
   4   3  16    3.49    2.38
  -4   3  16    3.96    5.46
  -4  -3  16    2.17    2.58
   4  -3  16    5.42    3.89
   4   3  17  182.47   22.39
  -4   3  17  138.79   21.55
   4  -3  17  191.01   24.07
   4   3  17  157.12   23.41
  -4  -3  17   95.85   17.32
   4  -3  17  147.61   20.94
  -4  -3  17  143.54   22.04
  -4  -3  18   65.43   14.63
   4   3  18   47.27   11.96
   4   3  18   85.85   16.83
   4  -3  18   69.69   15.26
   4  -3  18   78.31   15.77
  -4   3  18   70.17   15.82
  -4  -3  18   55.68   13.97
  -4   3  19   94.55   20.09
  -4  -3  19   73.87   16.17
   4  -3  19  106.77   18.17
   4   3  19   70.51   17.50
   4  -3  19   75.18   15.92
  -4   3  19  102.90   20.84
  -4  -3  19   71.59   15.31
   4   3  19   83.38   17.07
   4  -3  20   49.58   13.45
   4   3  20   28.90    9.69
  -4  -3  20   43.00   13.76
   4  -3  20   51.04   14.67
  -4   3  20   67.77   16.81
   4   3  20   34.97   13.05
  -4  -3  20   44.22   13.13
  -4   3  20   50.87   14.85
  -4   3  21  432.87   42.01
   4  -3  21  424.06   41.24
   4   3  21  492.19   44.03
  -4  -3  21  337.46   36.09
   4  -3  21  447.90   40.24
  -4   3  21  476.12   42.74
   4   3  21  331.04   34.83
  -4  -3  21  438.03   41.00
   4  -3  22    3.99    6.27
   4   3  22    4.50    5.75
  -4  -3  22    1.86    3.54
  -4   3  22   -2.28    3.36
   4  -3  22    3.66    2.54
   4   3  22   -1.65    5.53
  -4  -3  22    5.26    2.76
  -4   3  22   -1.27    4.90
   4  -3  23   27.49    8.69
   4   3  23   24.50    9.53
  -4  -3  23   25.32   11.30
  -4   3  23   21.40    9.38
   4  -3  23   49.15   14.28
   4   3  23   31.83   10.59
  -4  -3  23   15.36    7.37
  -4   3  23   36.27   13.00
   4  -3  24   -3.05    6.45
   4   3  24   10.35    9.35
  -4  -3  24   -6.72    5.96
   4  -3  24    1.06    6.77
  -4   3  24    0.96    2.08
   4   3  24    2.72    7.24
  -4  -3  24    0.14    1.79
  -4   3  24    0.33    6.95
   4  -3  25   27.14   11.94
  -4  -3  25   48.08   14.57
  -4   3  25   41.89   12.56
   4  -3  25   44.89   14.82
   4   3  25   76.46   18.20
  -4  -3  25   58.34   16.13
  -4   3  25   49.07   14.51
   4  -3  26   16.21    5.45
  -4  -3  26   23.72   10.97
   4  -3  26   15.02    8.34
  -4   3  26   33.78   16.47
   4   3  26   16.12    8.15
  -4  -3  26    8.04    5.95
  -4   3  26    3.79    6.80
   4  -3  27   13.94    7.45
  -4  -3  27   -2.60    2.36
   4  -3  27    1.54    3.25
   4   3  27   14.56    8.48
  -4  -3  27    7.67    8.68
  -4   3  27   15.58   10.64
  -4   3  27   13.42    8.12
   4  -3  28   14.59   10.60
  -4  -3  28    8.53    7.22
  -4   3  28    0.96    1.58
   4  -3  28    7.07    1.89
   4   3  28    5.93    3.74
  -4  -3  28   -4.34    5.74
   4  -3  29   46.85   13.48
  -4  -3  29   48.60   15.40
  -4   3  29   75.71   18.32
   4  -3  29   56.16   15.36
   4   3  29   25.67   11.75
  -4  -3  29   53.94   17.42
  -4   3  29    8.84   14.29
   4  -3  30    7.16    9.13
  -4   3  30    1.94    6.76
  -4  -3  30    1.21    1.01
   4  -3  30    6.69    3.54
   4   3  30   -0.56    6.64
  -4  -3  30    9.60    9.18
  -4   3  30   -1.49    4.74
   4   4   0   20.74    3.37
   4   4   0   16.30    5.36
  -4   4   0   11.61    3.80
   4   4   0   10.38    3.34
  -4   4   0   24.94    6.94
   4  -4   0   18.06    7.35
  -4   4  -1   24.00    6.47
  -4   4   1   29.91    6.41
   4   4   1   30.90    7.24
  -4   4  -1   41.37    7.53
   4   4  -1   39.32    7.82
   4   4   1   28.18    3.09
  -4   4   1   24.86    6.01
   4  -4   1   45.78   10.30
  -4  -4   1   23.10    3.90
   4   4   1   18.23    4.18
   4   4   2  131.19   15.35
  -4   4   2  154.68   14.60
   4   4  -2  169.55   16.85
  -4   4  -2  129.23   12.87
  -4   4   2  126.89   15.60
   4  -4   2  196.16   21.17
   4   4   2  139.00   12.42
  -4  -4   2  111.44    9.90
  -4   4  -2  165.18   17.75
   4   4   3   53.63    9.91
  -4   4   3   56.79    8.83
   4   4   3   56.07    8.10
   4   4  -3   92.45   12.31
  -4   4   3   49.62    9.52
  -4   4  -3   35.16    7.70
  -4  -4   3   38.33    6.34
   4  -4   3   78.73   14.49
  -4   4  -3   57.62   10.39
   4   4   4  129.21   15.55
  -4   4   4  147.81   14.35
  -4   4  -4  138.37   16.32
   4   4  -4  117.18   13.31
   4   4   4  136.05    7.41
   4  -4   4  133.65   18.27
   4   4   4  126.66   12.72
  -4  -4   4  154.83   13.75
   4   4   5  807.57   39.97
  -4   4   5  835.22   41.63
  -4   4   5  835.28   34.43
   4   4   5  798.13   22.55
   4   4  -5  860.00   37.53
  -4   4  -5  908.00   42.43
  -4   4  -5 1277.55   46.29
   4   4   5  893.30   35.15
   4  -4   5 1282.46   56.84
  -4  -4   5  909.33   36.05
   4   4   6  134.30   10.16
   4   4  -6   89.43   12.69
   4  -4   6  159.39   19.98
   4   4   6  147.45   14.81
  -4   4  -6   74.41   11.84
  -4  -4   6  135.78   14.78
  -4   4   6  122.24   16.08
   4   4   6  147.38   16.74
  -4   4   6  119.72   13.16
   4   4   7  268.68   15.89
   4   4  -7  300.49   22.94
   4  -4   7  288.27   26.94
  -4   4  -7  355.08   27.15
   4   4   7  201.63   18.96
  -4   4   7  256.97   24.34
  -4  -4   7  289.09   22.54
   4   4   7  279.64   24.67
  -4   4   7  313.06   21.67
   4   4   8   -0.84    2.55
   4  -4   8   -0.95    2.72
  -4   4   8    5.14    3.49
   4   4   8    3.51    3.32
  -4  -4   8    0.51    0.54
  -4   4   8    1.30    2.54
   4   4  -8    1.55    1.13
  -4   4  -8    3.51    0.38
   4  -4   8    4.75    5.34
   4   4   8    3.14    0.95
  -4  -4   8    1.22    1.81
  -4   4   9    1.04    3.25
   4   4   9    0.85    3.49
  -4  -4   9    0.97    3.68
  -4   4   9    0.42    3.65
   4   4   9    0.10    1.86
   4   4  -9   -0.01    1.64
   4  -4   9    3.17    3.89
  -4   4  -9    0.01    0.51
   4   4   9    0.40    2.04
   4  -4   9    0.26    1.70
  -4  -4   9   -0.39    0.61
   4   4  10   39.32    9.27
   4   4  10   45.44    8.05
  -4   4  10   27.26    8.44
   4   4 -10   36.45    9.17
   4   4  10   45.12    9.72
   4  -4  10   47.45   10.66
   4  -4  10   29.51    8.54
  -4  -4  10   45.43   10.00
  -4  -4  10   37.69    7.90
  -4   4  10   53.18   10.28
   4   4  11   22.96    9.84
  -4   4  11   10.75    7.01
  -4  -4  11   19.71    6.94
   4   4 -11   10.21    4.97
   4  -4  11    8.98    1.85
   4   4  11   10.77    5.91
   4  -4  11    6.53    0.65
   4   4  11   12.89    4.28
  -4  -4  11   21.04    6.05
  -4   4  11    8.48    4.80
   4   4  12    7.60    4.23
  -4   4  12    0.05    2.82
  -4  -4  12    3.10    3.23
   4   4  12    4.86    3.69
   4   4 -12   -1.05    1.60
   4  -4  12    4.74    5.42
   4   4  12    2.82    4.46
   4  -4  12   -3.26    3.47
  -4  -4  12    4.01    3.14
  -4   4  13   -1.62    4.94
  -4  -4  13    6.50    6.08
   4   4  13    2.36    2.16
   4  -4  13    0.07    4.57
   4   4 -13    8.75    3.77
   4   4  13    3.87    2.63
  -4  -4  13    1.22    3.43
   4  -4  13    8.00    4.29
   4   4  13   10.61    4.96
   4   4  14  112.56   16.19
   4  -4  14   96.11   17.60
   4   4 -14  101.51   16.93
  -4   4  14  121.61   19.45
   4   4  14   86.00   16.01
   4  -4  14  123.21   18.73
  -4  -4  14  110.61   18.35
  -4  -4  15   16.17    8.30
   4   4  15   44.70   10.95
   4  -4  15   32.57    9.45
   4   4  15   24.84    8.67
  -4  -4  15   38.31    9.95
   4  -4  15   20.09    9.66
  -4   4  15   30.77   10.49
  -4  -4  16   19.30    8.51
   4   4  16   16.82    6.37
   4  -4  16    9.00    5.09
   4   4  16    9.08    7.08
  -4  -4  16   20.18    5.86
   4   4 -16   24.54   10.38
  -4   4  16   28.61   10.91
   4  -4  16   16.05    9.35
  -4  -4  17   25.37    9.84
   4   4  17   28.88    8.29
   4   4 -17    5.49    6.71
   4  -4  17   27.74    9.10
   4   4  17   27.30   11.57
  -4  -4  17   26.57    9.93
  -4   4  17   27.20    9.42
   4  -4  17   24.03    9.36
  -4  -4  18   37.28   11.99
   4   4  18   47.09   13.94
   4   4  18   68.94   15.22
   4   4 -18   54.04   14.49
   4  -4  18   66.92   14.02
  -4   4  18   51.38   13.47
  -4  -4  18   37.25    9.64
   4  -4  18   50.30   12.86
   4   4  19  113.53   18.52
  -4   4  19  108.92   19.97
   4   4 -19  109.29   20.37
   4  -4  19  106.34   19.94
  -4  -4  19   82.67   16.59
   4  -4  19   88.00   17.73
   4   4  19   74.65   15.91
  -4  -4  19  102.99   20.72
   4  -4  20   -0.19    1.51
  -4  -4  20   10.29    2.85
   4   4  20   -1.90    0.97
   4   4 -20    6.29    6.18
   4   4  20    2.27    3.57
  -4   4  20   -0.37    3.78
  -4  -4  20    2.42    2.83
  -4   4  20    3.50    4.70
   4  -4  20    6.23    6.34
  -4  -4  21   12.79    2.93
   4   4  21   12.17   10.79
   4   4 -21    5.88    5.98
   4  -4  21    6.89    6.53
  -4   4  21   14.53    8.33
   4   4  21    6.15    6.05
  -4  -4  21    1.80    4.11
  -4   4  21   13.45    7.88
   4  -4  21   19.08    8.39
  -4  -4  22   34.47   11.78
   4  -4  22   18.52    6.26
   4   4 -22   26.76    9.69
  -4   4  22   45.35   13.56
  -4   4  22   21.97    6.32
   4   4  22    8.11    1.69
  -4  -4  22   18.64    8.23
   4  -4  22   34.69   11.00
  -4  -4  23   -0.62    1.29
   4  -4  23   -3.51    8.38
   4   4 -23   -2.26    0.46
  -4   4  23    0.12    5.63
   4   4  23   -0.78    2.24
  -4  -4  23    2.72    0.86
  -4   4  23   -1.34    5.71
   4  -4  23   -3.14    2.63
  -4  -4  24   -1.00    5.93
   4  -4  24   -2.68    5.05
  -4   4  24    1.11    7.33
   4   4 -24   -1.34    3.05
   4   4  24    1.02    1.73
  -4  -4  24    3.92    1.58
  -4   4  24    5.43    9.07
   4  -4  24    5.19    5.45
  -4  -4  25    3.22    5.65
  -4   4  25    4.99    6.35
   4   4 -25    6.43    7.64
   4  -4  25   13.90    9.06
   4   4  25    9.81    9.58
  -4  -4  25    1.66    4.63
  -4   4  25    5.40    8.89
   4  -4  25   -0.30    3.20
  -4  -4  26    5.19    3.73
  -4   4  26   12.73   11.14
   4   4 -26    2.52    9.40
   4  -4  26    3.62    1.64
   4   4  26   -2.57    3.92
  -4  -4  26    2.26    3.50
  -4   4  26   -0.78    6.58
   4  -4  26    5.37    6.59
  -4  -4  27   -2.99    1.59
   4   4 -27   13.67   11.50
  -4   4  27    4.97    7.20
   4  -4  27    1.22    6.48
   4   4  27   -5.63    5.93
  -4  -4  27    5.45    6.73
  -4   4  27    7.93    7.84
   4  -4  27    1.74    1.95
  -4  -4  28   17.42   12.17
  -4   4  28   -2.22    9.00
   4   4 -28    7.23    6.69
   4  -4  28    1.83    0.92
   4   4  28    6.36    7.16
  -4  -4  28    3.19    4.21
  -4   4  28    3.74    3.64
   4  -4  28   18.41    7.60
  -4  -4  29    1.58    3.07
  -4   4  29   -5.19    6.26
   4   4 -29    2.24    4.75
   4  -4  29   -8.50    5.28
   4   4  29    1.77    3.64
  -4  -4  29   -5.32    1.62
  -4   4  29    0.10    2.90
   4  -4  29    3.65    5.89
  -4  -4  30    4.60    8.71
   4   4 -30    4.66    2.31
  -4   4  30   -3.96    7.51
   4  -4  30    3.38    5.53
   4   4  30   10.94    9.58
  -4  -4  30   12.67   10.74
  -4   4  30    7.15    9.12
   4  -4  30    3.15    1.93
   4   5   0  310.23   25.61
   4  -5   0  311.46   27.58
  -4   5   0  337.93   26.74
   4   5   0  265.40   14.85
   4   5  -1    3.01    2.46
  -4   5  -1    2.84    3.95
   4   5   1    2.91    3.26
   4   5  -1   -0.65    2.09
  -4   5   1    0.15    1.79
  -4   5  -1    0.03    1.45
   4  -5   1    3.00    3.51
   4   5   1    0.59    1.57
  -4   5   1    2.30    3.90
   4   5   1   -0.73    0.58
   4   5   2  182.78   19.83
  -4   5   2  156.63   16.53
   4   5   2  166.42   10.47
   4   5  -2  163.05   18.25
  -4   5   2  169.08   19.09
   4  -5   2  163.77   22.41
   4   5   2  139.27   11.11
  -4  -5   2  145.45   12.52
  -4   5  -2  156.73   18.35
   4   5   3  345.62   26.97
  -4   5   3  227.96   19.68
   4   5  -3  309.43   25.67
  -4   5   3  247.39   23.08
  -4   5  -3  392.29   25.62
   4   5   3  287.37   16.88
   4  -5   3  347.14   29.83
  -4  -5   3  304.16   19.66
   4   5   3  225.10   12.37
  -4   5  -3  290.62   25.44
  -4   5  -4  123.63   16.23
   4   5   4   98.75   14.64
  -4   5   4  121.02   14.51
  -4   5   4  100.87   14.95
   4   5  -4  106.70   14.31
  -4   5  -4   93.13   13.32
   4   5   4  132.32   12.18
   4  -5   4  109.52   17.03
   4   5   4   92.65    8.10
  -4  -5   4  126.63   13.34
  -4  -5   4  112.29    7.90
   4   5   5  107.30   15.08
   4   5   5  106.23   12.09
  -4   5   5   89.65   12.15
  -4   5   5   82.78   14.31
  -4   5  -5  119.40   16.34
   4   5  -5  104.01   14.18
  -4   5  -5  154.79   17.64
   4  -5   5  124.31   18.54
   4   5   5   77.34    7.54
  -4  -5   5   99.71   12.43
  -4  -5   5   86.13    7.93
  -4  -5   6    4.90    2.90
  -4   5  -6   16.80    5.95
   4   5   6    5.95    3.00
  -4   5   6   17.76    5.96
  -4   5  -6   16.14    6.05
   4   5   6    5.30    3.50
   4   5  -6   19.93    7.49
   4  -5   6   -0.12    1.31
  -4   5   6   10.32    4.85
  -4  -5   6   12.86    3.37
   4   5   6    9.65    3.18
   4   5   7    6.08    1.39
  -4   5   7    7.51    3.90
  -4  -5   7   12.37    5.76
   4   5  -7   10.54    5.82
   4  -5   7    2.59    4.18
  -4   5  -7    6.94    4.11
  -4   5   7    8.97    5.89
   4   5   7    0.14    1.67
   4   5   7    8.23    2.81
  -4  -5   7    7.17    3.09
   4   5   8  152.77   13.95
   4   5  -8  176.20   19.17
  -4   5  -8  173.96   19.67
   4  -5   8  208.91   24.02
   4   5   8  191.96   19.16
  -4  -5   8  215.12   17.19
  -4  -5   8  152.50   17.67
  -4   5   8  234.42   24.39
   4   5   8  160.36   19.95
  -4   5   8  227.78   20.60
   4   5   9  157.31   15.14
   4   5  -9  199.99   21.41
  -4   5  -9  149.62   20.31
   4   5   9  171.27   18.91
  -4   5   9  188.29   22.42
  -4  -5   9  169.23   19.24
   4  -5   9  155.42   19.31
   4  -5   9  150.91   20.41
  -4   5   9  112.91   15.03
   4   5   9  137.95   18.85
   4   5  10  314.19   23.03
   4   5 -10  261.02   25.71
   4  -5  10  383.16   32.74
  -4   5 -10  221.21   24.72
   4   5  10  427.41   31.75
  -4   5  10  347.96   30.77
  -4  -5  10  293.31   21.97
  -4  -5  10  354.43   29.26
   4  -5  10  252.29   25.17
  -4   5  10  218.83   21.52
   4   5  10  401.92   32.71
   4   5  11   39.57   10.60
  -4  -5  11   52.55   10.91
  -4   5  11   38.89   11.33
  -4   5 -11   52.74   12.64
   4   5  11   42.10    8.91
   4  -5  11   41.46   11.06
  -4  -5  11   39.59    8.85
   4   5  11   41.10   11.06
   4  -5  11   42.98   10.54
   4   5 -11   29.99    8.75
  -4   5  11   53.86   11.91
   4   5  12   95.31   18.56
   4   5  12  124.03   16.57
   4   5 -12  114.55   16.42
  -4   5 -12  107.01   17.95
  -4   5  12  104.08   18.09
   4  -5  12   62.12   13.16
   4   5  12   86.42   15.54
  -4  -5  12   91.00   13.32
  -4  -5  12  120.87   18.35
  -4   5  12   78.09   13.66
  -4   5  13   16.83    7.23
   4   5  13   36.53   11.44
  -4   5  13   25.07    8.02
  -4  -5  13   21.04    6.80
   4   5  13   23.23    7.03
   4   5 -13   20.29    7.73
   4  -5  13   27.36    9.03
  -4   5 -13   36.54   10.92
   4   5  13   28.58    9.22
   4  -5  13   31.18    8.60
  -4  -5  13   25.61    7.34
   4   5  14  466.36   32.93
   4   5 -14  396.98   34.34
  -4   5  14  421.70   36.65
   4  -5  14  412.84   34.69
   4   5  14  352.72   34.47
  -4  -5  14  435.52   35.57
   4   5  14  361.76   34.49
  -4   5  15    1.68    3.58
  -4  -5  15   -2.90    4.74
   4   5 -15    2.23    3.52
   4   5  15    7.41    6.47
   4  -5  15    8.94    5.15
   4   5  15   -1.42    3.47
  -4  -5  15   13.02    7.35
   4  -5  15   11.37    8.14
   4   5  15    2.07    2.59
   4   5  16  127.34   18.69
   4   5 -16   78.13   15.49
  -4   5  16  144.18   22.15
   4  -5  16  121.10   20.40
   4   5  16  123.55   20.93
  -4  -5  16  144.28   20.09
   4  -5  16  135.43   21.08
  -4  -5  16   80.03   16.31
  -4  -5  17   40.45   11.20
   4  -5  17   46.47   11.85
   4   5  17   43.43   12.66
  -4  -5  17   56.07   11.81
   4  -5  17   58.62   13.22
  -4   5  17   32.51   14.14
  -4   5  18   65.47   18.11
   4   5 -18   96.01   19.72
   4  -5  18   84.88   17.06
   4   5  18  117.97   23.12
  -4  -5  18  100.11   17.63
   4  -5  18   93.15   18.72
  -4  -5  18   85.08   17.64
  -4  -5  19   -3.51    3.55
   4   5 -19    5.13    6.98
   4  -5  19    4.55    5.71
   4   5  19    6.75    8.77
  -4  -5  19   -4.59    5.78
  -4   5  19   -3.89    7.72
   4  -5  19    1.97    4.36
  -4  -5  20   53.78   12.82
   4   5 -20   59.84   15.22
   4  -5  20   32.57   10.91
   4   5  20   72.24   17.25
  -4   5  20   59.91   15.31
  -4  -5  20   76.20   17.65
   4  -5  20   61.95   14.34
  -4   5  20   44.35   13.84
   4  -5  21    0.93    7.05
  -4  -5  21    4.42    4.04
   4   5 -21    3.02    6.09
   4   5  21   12.27   10.07
  -4   5  21    8.24    5.39
  -4  -5  21    3.04    7.49
   4  -5  21    5.05    6.52
  -4   5  21   -1.99    4.15
  -4   5  22  153.43   24.86
   4   5 -22   80.98   19.48
   4   5  22  120.12   22.16
   4  -5  22   87.94   16.98
  -4  -5  22  111.85   22.64
   4  -5  22  140.90   22.85
  -4   5  22  128.22   24.15
  -4  -5  22  100.31   20.62
  -4  -5  23   21.30    9.35
   4   5 -23   11.83    7.68
   4  -5  23   26.13   11.02
  -4   5  23   24.19    8.52
   4   5  23   15.90   11.31
  -4  -5  23   33.09   13.97
  -4   5  23   18.26    8.80
   4  -5  23    4.61    3.09
  -4  -5  24   58.18   15.20
   4  -5  24   60.03   14.60
  -4   5  24   38.79   10.78
   4   5  24   41.86   14.32
  -4  -5  24   49.71   12.65
   4   5 -24   35.84   14.09
  -4   5  24   43.58   15.50
   4  -5  24   22.03    9.91
  -4  -5  25    9.46    5.90
   4   5 -25   18.80    9.62
  -4   5  25   19.27    9.83
   4   5  25    5.79    5.65
   4  -5  25   18.50    8.39
  -4  -5  25   18.74    8.91
  -4   5  25   27.33    8.66
   4  -5  25    8.67    1.93
  -4  -5  26   11.79    7.88
  -4   5  26   13.10    7.69
   4   5 -26   -6.20    6.16
   4  -5  26   -1.40    4.12
   4   5  26    0.65    4.45
  -4  -5  26    1.42    2.07
  -4   5  26    2.49    4.33
   4  -5  26    2.45    7.07
  -4  -5  27    0.76    3.64
  -4   5  27   -1.33    5.11
   4   5 -27    0.36    4.88
   4  -5  27   -2.44    7.47
   4   5  27   -2.10    3.27
  -4  -5  27   -4.41    7.17
  -4   5  27   -2.18    5.54
   4  -5  27    0.41    4.94
  -4  -5  28   11.94    6.85
   4  -5  28   27.41    8.87
  -4   5  28   17.80   11.62
   4   5 -28    6.48    3.03
   4   5  28    8.64    7.86
  -4  -5  28   10.10   10.06
  -4   5  28    5.76    5.31
   4  -5  28    6.14    3.99
  -4  -5  29   13.47    8.40
   4   5 -29    7.47    6.43
   4  -5  29   -8.34    6.52
   4   5  29   16.42    7.63
  -4   5  29    8.88    5.50
   4  -5  29    7.69    6.74
   4   6   0  226.54   23.62
  -4   6   0  264.21   24.77
   4   6   0  213.50   15.76
   4   6  -1   43.88    7.53
   4   6   1   51.46   11.49
  -4   6   1   63.70   11.85
  -4   6  -1   47.76    9.87
   4   6  -1   45.20   10.63
   4  -6   1   44.09   11.38
   4   6   1   36.52    5.71
  -4   6   1   52.80   11.20
  -4   6  -1   56.11   11.83
   4   6   2  123.75   16.74
  -4   6   2  126.90   16.97
   4   6  -2  180.70   20.80
  -4   6  -2  111.93   15.17
   4   6   2  136.17   11.96
  -4   6   2  138.84   18.04
   4  -6   2  144.56   20.31
   4   6   2  147.58    9.41
  -4   6  -2  139.00   17.84
   4   6   3    3.98    4.68
  -4   6   3    6.60    4.62
  -4   6   3    9.52    5.23
   4   6  -3    3.03    2.08
  -4   6  -3   11.87    5.70
   4  -6   3    5.92    3.83
   4   6   3    5.51    2.69
  -4   6  -3    4.65    3.92
  -4  -6   3    7.28    3.66
   4   6   3    2.98    1.10
   4   6   4  199.88   22.43
  -4   6   4  223.85   21.46
   4   6  -4  236.62   23.72
  -4   6   4  214.48   22.63
  -4   6  -4  290.58   24.38
   4  -6   4  237.98   26.05
   4   6   4  172.45   13.60
  -4  -6   4  142.80   15.11
   4   6   4  192.19   14.62
  -4   6  -4  217.48   22.96
   4   6   5   32.30    9.81
  -4   6   5   12.80    6.10
   4   6  -5   22.27    6.66
   4   6   5   16.15    4.79
  -4   6  -5   22.43    7.20
   4  -6   5   32.47   10.96
  -4   6  -5   23.00    8.05
   4   6   5   31.96    6.05
  -4  -6   5   30.89    7.36
  -4   6   5   17.73    6.35
   4   6   6  265.29   26.33
  -4   6   6  219.42   21.89
  -4   6   6  198.47   22.20
  -4   6  -6  263.95   26.57
   4   6  -6  138.10   17.21
  -4   6  -6   97.30   16.12
   4  -6   6  261.72   27.98
   4   6   6  210.35   18.39
   4   6   6  180.90   15.01
  -4  -6   6  155.93    9.41
  -4  -6   6  129.44   16.56
  -4   6   7   40.00    9.90
   4   6   7   35.94    9.87
  -4   6  -7   31.63    8.07
   4   6  -7   31.20    7.77
   4   6   7   34.85    6.85
  -4   6  -7   39.60    9.85
   4  -6   7   41.66   11.69
  -4   6   7   45.47   11.35
   4   6   7   25.82    6.53
  -4  -6   7   22.92    4.34
  -4  -6   7   33.03    8.06
   4   6   8    1.10    1.43
  -4   6   8    3.75    5.48
   4   6  -8   -1.87    2.01
   4  -6   8    8.61    7.42
  -4   6  -8    3.45    3.90
  -4   6   8    2.65    3.43
   4   6   8   -1.92    2.63
  -4  -6   8   -0.91    2.15
   4   6   8    0.46    0.89
  -4  -6   8   -0.33    3.05
  -4  -6   9    9.17    5.38
   4   6   9   13.14    4.89
  -4   6   9    9.67    6.17
   4   6  -9   17.76    5.42
  -4   6   9   19.73    5.64
   4  -6   9   25.69   10.22
  -4   6  -9   24.03    7.62
   4   6   9   12.53    5.37
  -4  -6   9   12.23    4.94
   4   6   9    5.28    3.18
  -4  -6  10   31.14    8.29
   4   6  10   38.00    9.94
   4   6  10   35.26    8.43
  -4   6 -10   76.12   13.97
  -4   6  10   47.93   12.20
   4   6 -10   35.29   10.32
   4  -6  10   22.52    7.00
  -4  -6  10   38.17    8.42
   4   6  10   26.03    8.76
  -4   6  10   59.54   12.77
  -4  -6  11   16.98    6.90
  -4   6  11   15.18    7.35
   4   6  11   25.04   10.31
  -4   6 -11   20.46    8.37
   4   6  11   43.35   10.55
  -4   6  11   28.43    8.10
   4   6 -11   30.38    9.67
   4  -6  11   32.52   10.04
   4   6  11   31.43    8.95
   4  -6  11   28.16    9.04
  -4  -6  11   23.49    7.42
   4   6 -12  183.57   23.34
  -4   6 -12  210.21   25.22
   4  -6  12  178.79   23.64
   4   6  12  229.25   25.19
  -4   6  12  137.31   21.16
  -4  -6  12  147.03   17.41
   4  -6  12  191.24   23.61
  -4  -6  12  120.98   17.91
  -4   6  12  144.45   20.75
   4   6  12  241.95   26.69
  -4   6  13   -0.18    3.11
   4   6  13   -1.79    3.28
  -4  -6  13    3.29    3.70
  -4   6  13    1.47    2.91
  -4   6 -13    5.59    5.06
   4   6 -13   -0.36    3.51
   4  -6  13   -2.21    2.52
   4   6  13    1.36    2.32
   4  -6  13   -2.87    4.04
  -4  -6  13   -0.35    2.12
  -4   6  14    6.05    2.46
   4   6  14   22.78   10.01
  -4  -6  14   33.90   10.35
   4   6 -14   17.17    7.02
  -4   6  14   21.30    8.04
   4  -6  14   20.95    9.39
  -4   6 -14   17.70    7.61
   4   6  14   12.83    7.46
  -4  -6  14   16.55    7.12
   4  -6  14   20.10    9.25
   4   6 -15  218.07   26.98
  -4   6 -15  481.44   40.91
   4  -6  15  306.74   31.38
  -4   6  15  270.81   30.79
   4   6  15  189.36   25.64
  -4  -6  15  253.14   26.38
  -4  -6  15  350.18   32.67
  -4   6  15  188.44   25.60
   4   6  15  351.34   35.56
   4   6  16   14.61    6.91
  -4   6  16    7.93    6.20
  -4   6 -16    5.82    5.28
  -4  -6  16    3.80    6.05
   4   6 -16    6.61    5.73
   4  -6  16    3.63    4.00
   4   6  16    0.04    2.57
  -4  -6  16   -4.08    5.64
   4  -6  16   -2.79    3.53
  -4   6  17   -0.41    4.92
  -4  -6  17   24.09    8.03
   4   6 -17   45.65   12.32
   4  -6  17   25.28    8.44
  -4   6 -17   40.04   12.57
   4   6  17   31.60   10.22
  -4  -6  17   20.86    8.91
   4  -6  17   16.69    7.16
   4   6  17   23.77    9.48
  -4  -6  18   51.92   14.29
   4   6 -18   42.19   12.89
   4  -6  18   31.09   10.45
  -4   6 -18   49.17   13.11
   4   6  18   34.01   12.35
  -4  -6  18   62.83   14.88
   4  -6  18   34.96   10.77
  -4   6  18   48.93   14.96
  -4  -6  19   12.08    7.67
   4   6 -19   15.15    7.60
   4  -6  19   13.90    7.80
  -4   6 -19    3.85    6.91
   4   6  19   18.94    9.12
  -4  -6  19   20.68   10.75
   4  -6  19   23.31    9.08
  -4   6  19    9.94    5.04
  -4  -6  20   12.75    7.03
   4   6 -20    4.70    7.61
   4  -6  20   10.26    6.24
  -4   6 -20   15.44    7.07
   4   6  20   12.66    8.51
  -4  -6  20   11.63    6.06
  -4   6  20   15.83    9.64
   4  -6  20   15.06    8.45
  -4  -6  21   20.59   11.49
   4  -6  21   32.54   10.05
  -4   6 -21   34.07   11.97
   4   6  21   43.57   12.81
  -4  -6  21   48.52   14.73
  -4   6  21   57.74   14.90
   4  -6  21   64.74   15.63
  -4   6  21   42.71   12.79
   4   6 -21   51.44   13.96
  -4  -6  22   23.37    9.90
   4   6 -22   15.77    6.34
   4  -6  22   -4.86    4.48
  -4   6 -22    7.75    5.88
   4   6  22   23.78   11.02
  -4   6  22   13.67    3.81
   4  -6  22    5.08    6.23
  -4   6  22   29.60   12.26
  -4  -6  23    7.62    3.93
   4   6 -23   -3.22    5.81
   4  -6  23    8.09    6.03
  -4   6 -23    6.98    6.04
   4   6  23    4.52    4.17
  -4   6  23    6.74    2.62
   4  -6  23   14.44    6.40
  -4   6  23    8.82    7.65
  -4  -6  24   14.12    7.94
   4   6 -24    6.35    2.63
   4  -6  24   12.43    6.31
  -4   6 -24    5.48    6.41
  -4   6  24    9.11    4.00
   4   6  24    3.34    6.46
   4  -6  24    3.00    3.24
  -4   6  24    3.41    2.81
  -4  -6  25   -0.21    9.23
   4   6 -25    8.11    2.79
   4  -6  25   -4.02    6.11
  -4   6 -25    8.16    7.01
  -4   6  25   14.28    7.55
   4   6  25    8.31    6.11
  -4   6  25   14.95    8.87
   4  -6  25    9.45    9.34
  -4  -6  26   47.19   15.03
  -4   6  26   57.95   17.90
   4  -6  26   64.59   15.99
   4   6 -26   42.17   14.10
  -4   6 -26   31.37   12.85
   4   6  26   31.19   11.90
  -4   6  26   22.73    9.54
   4  -6  26   51.03   17.00
  -4  -6  27   17.25    9.08
  -4   6 -27    6.50    4.47
  -4   6  27    2.49    1.67
   4  -6  27    6.35    5.72
   4   6  27    9.31    8.44
   4   6 -27    7.43    5.91
  -4   6  27   12.56    8.70
   4  -6  27   10.62    7.86
  -4  -6  28    9.54    6.86
   4   6 -28    2.55    8.15
  -4   6  28   -0.15    3.61
   4  -6  28    6.12    5.87
  -4   6 -28    6.13    8.66
   4   6  28   -1.66    6.46
  -4   6  28    6.38    7.99
   4  -6  28    4.39    6.01
   4   7   0   62.53   13.98
  -4   7   0   90.16   14.56
  -4   7   0   71.09   13.48
   4   7   0   41.45    7.81
   4   7   1  121.78   18.99
   4   7  -1  178.80   21.74
  -4   7   1  108.42   16.30
  -4   7  -1  110.26   16.10
  -4   7   1  133.24   18.82
   4  -7   1   97.79   16.36
   4   7   1  130.07   13.86
   4   7  -1  160.12   16.01
  -4   7  -1  135.07   18.54
   4   7  -2   29.55    6.91
   4   7   2   19.20    5.63
  -4   7  -2   23.08    5.90
  -4   7   2   16.23    5.74
   4   7  -2   20.83    9.04
   4   7   2    8.99    4.21
  -4   7  -2    5.64    3.53
   4  -7   2   26.04    8.68
  -4   7   2   20.72    6.80
   4   7   3 1261.45   60.86
  -4   7   3 1190.81   55.06
   4   7   3 1265.07   41.57
   4   7  -3 1517.84   64.57
  -4   7  -3  882.64   46.08
  -4   7   3 1599.21   64.89
   4  -7   3  727.31   48.63
  -4   7  -3 1279.76   58.71
   4   7   4  439.77   35.81
  -4   7   4  319.83   27.60
   4   7  -4  447.31   35.16
  -4   7   4  348.91   30.36
  -4   7  -4  339.98   28.55
   4  -7   4  454.75   37.20
  -4   7  -4  369.89   31.75
   4   7   4  294.31   21.85
  -4   7   5   69.99   13.56
  -4   7   5   62.29   13.13
   4   7   5   40.20   10.55
  -4   7  -5   49.36   11.57
  -4   7  -5   58.33   11.87
   4   7  -5   42.71   10.77
   4  -7   5   71.82   14.79
  -4  -7   5   53.40    9.88
   4   7   5   57.76   10.10
   4   7   6   80.74   15.94
  -4   7   6   61.28   12.75
  -4   7   6   71.64   13.56
  -4   7  -6   75.63   14.66
  -4   7  -6   68.96   13.05
   4   7  -6   49.11   10.88
   4   7   6   67.71   10.58
  -4  -7   6   95.46   13.83
   4  -7   6   95.84   17.04
  -4   7   7  228.28   26.07
   4   7   7  201.43   24.16
  -4   7   7  196.08   22.58
  -4   7  -7  234.50   26.24
   4   7  -7  117.94   18.10
  -4   7  -7  178.64   22.14
   4  -7   7  286.82   30.75
  -4  -7   7  218.85   22.55
   4   7   8   -1.40    1.91
  -4   7   8   -0.84    1.68
  -4  -7   8   -1.07    1.89
  -4   7  -8    1.09    2.06
  -4   7  -8   -3.41    4.23
   4  -7   8    2.79    3.51
   4   7  -8    0.82    2.41
  -4   7   8    5.47    3.17
   4   7   8    6.79    6.90
   4   7   9    4.26    4.15
  -4   7   9    6.57    3.46
  -4   7   9   10.93    7.36
   4   7  -9    7.77    4.63
   4  -7   9    8.33    7.18
  -4   7  -9    2.07    1.53
   4   7   9   10.45    5.10
  -4  -7   9    6.53    3.86
   4   7  10   21.57    7.57
  -4   7  10   13.63    6.38
   4  -7  10   19.01    8.21
  -4   7  10   15.95    4.15
   4   7 -10   20.44    7.80
  -4   7 -10    6.52    3.71
   4   7  10   19.85    6.69
  -4  -7  10   12.85    6.69
   4  -7  11  524.45   41.29
   4   7 -11  458.06   35.54
  -4   7 -11  305.18   29.99
   4   7  11  285.69   29.13
  -4  -7  11  271.80   28.24
  -4   7  11  353.28   33.00
   4   7  11  396.28   35.88
  -4   7  11  264.18   27.16
  -4  -7  12    2.03    3.38
  -4   7  12    6.89    4.66
   4   7  12   19.69    7.82
  -4   7  12    9.15    7.40
  -4   7 -12   15.43   10.38
   4  -7  12   10.50    5.57
   4   7 -12   10.43    6.15
   4  -7  12   -2.69    2.62
   4   7  12    5.34    0.32
   4   7 -13  249.14   28.35
  -4   7 -13  155.93   22.59
   4  -7  13  250.44   29.26
   4   7  13  183.40   24.36
  -4   7  13  224.82   28.29
   4  -7  13  169.13   22.62
  -4  -7  13  186.52   25.30
  -4   7  13  209.05   25.84
   4   7  13  179.97   24.91
  -4  -7  14   43.37   12.69
  -4   7  14   31.16   10.45
   4   7  14   44.82   11.54
  -4   7  14   28.72   11.30
   4  -7  14   18.70    9.72
  -4   7 -14   12.10    7.49
   4   7 -14   15.07   10.35
   4   7  14   29.47   10.18
   4  -7  14    8.54    8.90
   4   7 -15  180.30   25.03
  -4   7 -15  343.10   34.71
   4  -7  15  244.85   28.99
  -4   7  15  274.05   31.12
   4   7  15  201.40   26.09
   4  -7  15  267.40   29.96
  -4  -7  15  294.81   32.24
  -4   7  15  275.83   31.18
   4   7  15  225.75   29.65
  -4   7  16   10.60    7.85
   4   7  16   14.56   10.34
  -4  -7  16   11.90    6.05
  -4   7  16   12.99    5.58
   4   7 -16   47.25   13.38
   4  -7  16   16.17    7.47
  -4   7 -16   10.54    6.68
   4   7  16    8.03    7.06
   4  -7  16   20.89    9.76
   4   7  17   14.02    7.14
  -4  -7  17   14.99    6.34
  -4   7  17    6.98    3.77
  -4   7 -17    8.37    7.30
   4   7 -17   13.23    8.74
   4  -7  17    8.24    5.38
   4  -7  17    5.22    2.30
   4   7  17   13.79    5.71
  -4   7  17    4.97    6.53
   4   7  18   36.13   12.91
  -4   7  18   26.49   10.44
  -4  -7  18   28.24   10.87
   4   7 -18   14.66    8.10
   4  -7  18   34.79   11.45
  -4   7 -18   28.73   10.87
   4   7  18   57.45   13.89
   4  -7  18   25.33    9.52
  -4  -7  19   43.43   13.53
   4   7 -19   12.78    9.00
   4  -7  19   31.95   11.65
  -4   7 -19   45.29   14.71
   4   7  19   41.04   13.22
   4  -7  19   45.82   12.39
  -4   7  19   23.67    7.07
  -4  -7  20    4.31    4.29
   4   7 -20    5.42    3.40
   4  -7  20   12.36    7.45
  -4   7 -20    4.35    5.80
   4   7  20    5.65    5.68
   4  -7  20    2.57    0.30
  -4   7  20    4.69    8.90
   4  -7  21  126.22   21.99
  -4   7  21  134.93   26.64
   4   7 -21  159.65   26.18
  -4   7 -21  141.62   24.63
   4  -7  21  129.05   22.62
   4   7  21   95.08   18.74
  -4  -7  21   97.90   18.72
  -4   7  21  146.85   26.59
  -4  -7  22   22.29    9.69
   4   7 -22    8.35    4.82
   4  -7  22    8.13    5.17
  -4   7 -22   -1.01    6.25
   4   7  22   19.60    8.24
  -4   7  22    5.85    5.19
   4  -7  22    7.14    5.03
  -4   7  22    2.66    4.76
  -4  -7  23   10.80    5.45
   4  -7  23   14.46    6.43
   4   7 -23    9.91    6.90
  -4   7 -23    6.48    6.25
   4   7  23   18.55    8.91
  -4   7  23   -3.67    8.13
   4  -7  23   12.18    8.96
  -4   7  23    9.25    7.41
  -4  -7  24   12.04    6.73
   4   7 -24   24.32   10.00
   4  -7  24   27.08   11.51
  -4   7 -24   30.02   12.53
   4   7  24   33.91   14.18
  -4   7  24   46.68   16.17
   4  -7  24   12.61    7.85
  -4   7  24   16.21    8.89
  -4  -7  25   33.51   11.84
   4   7 -25   66.65   17.66
   4  -7  25   70.51   17.88
  -4   7  25   66.93   18.80
   4   7  25   75.24   20.47
   4  -7  25   54.75   16.14
  -4   7 -25   46.48   16.01
  -4   7  25   40.57   13.71
  -4  -7  26   10.04    6.53
  -4   7 -26   -5.01    6.78
   4   7 -26   -3.50    1.71
   4  -7  26   -0.29    0.61
  -4   7  26    0.88    5.66
   4   7  26   -1.01    2.77
   4  -7  26    6.91    7.46
  -4   7  26   -0.54    4.56
  -4  -7  27    3.16    0.51
   4   7 -27    2.13    6.22
   4  -7  27    3.01    6.18
  -4   7 -27    6.58    4.47
  -4   7  27   -0.10    3.68
   4   7  27    3.31    6.51
   4  -7  27    1.65    4.74
  -4   7  27   -0.94    0.96
   4   8   0  190.75   24.31
  -4   8   0  203.21   23.45
  -4   8   0  183.63   23.34
   4   8   0  202.44   19.75
  -4   8  -1   12.51    7.08
   4   8   1   19.01    7.01
   4   8  -1    8.96    5.15
  -4   8   1    8.43    4.00
  -4   8  -1   12.83    7.33
   4   8  -1    9.98    3.87
   4   8   1   16.10    4.61
  -4   8   1   13.72    6.94
   4   8  -2   -0.59    0.91
  -4   8  -2   -4.31    5.80
   4   8   2   -1.03    3.89
  -4   8   2   -2.87    2.63
   4   8  -2    0.97    5.98
   4   8   2    4.02    4.38
  -4   8  -2   -0.16    1.54
   4  -8   2    1.46    4.32
  -4   8   2   -1.41    5.29
   4   8   3  252.80   28.02
  -4   8   3  286.85   28.52
   4   8  -3  314.88   31.32
   4   8  -3  275.33   24.06
  -4   8  -3  335.61   29.39
  -4   8   3  248.36   26.61
   4  -8   3  259.52   29.03
  -4   8  -3  253.44   26.70
   4   8   4   67.49   14.63
  -4   8   4   71.98   14.17
   4   8  -4  124.62   19.15
  -4   8  -4   93.70   15.45
  -4   8   4   79.38   15.19
   4  -8   4   56.88   13.84
  -4   8  -4   76.48   15.37
  -4   8   5    5.98    6.27
   4  -8   5    6.90    5.66
   4   8   5   -2.10    3.55
  -4   8   5    2.34    4.34
   4   8  -5   -0.62    0.73
  -4   8  -5   10.80    7.71
  -4   8  -5    4.95    5.29
  -4   8  -6   62.38   14.60
  -4   8   6   66.65   14.30
   4   8   6   57.84   13.27
   4   8  -6   33.54    9.85
  -4   8  -6   48.15   10.79
   4  -8   6   80.38   15.78
  -4  -8   6   67.10   12.47
  -4   8   6   52.39   12.64
   4   8   7  170.76   23.20
  -4   8   7  140.10   20.14
  -4   8   7  153.22   20.32
  -4   8  -7  188.11   23.11
   4   8  -7  123.53   18.85
  -4   8  -7  165.73   21.67
   4  -8   7  155.91   22.36
  -4  -8   7  159.26   19.68
   4   8   8  142.96   20.65
  -4   8   8  110.28   17.97
  -4   8  -8   96.51   17.18
   4  -8   8  112.58   18.95
   4   8  -8   96.19   16.78
  -4   8  -8  105.98   17.63
  -4  -8   8   79.02   14.06
  -4   8   8  150.82   21.53
   4   8  -9   21.61    8.30
   4   8   9   11.90    6.39
  -4   8   9   29.25   10.86
  -4   8  -9   26.62    9.06
  -4   8   9   21.51    9.86
  -4   8  -9   24.45   11.00
   4  -8   9   22.15    8.29
  -4  -8   9   23.45    8.07
   4   8  10    2.68    1.64
  -4   8  10    9.96    6.88
  -4   8 -10   14.23    6.43
  -4   8  10   13.91    5.06
  -4   8 -10    8.22    1.47
   4   8 -10    0.31    2.38
   4  -8  10    1.29    7.09
  -4  -8  10   -1.22    2.81
   4   8  11   37.80    9.28
  -4   8  11   24.96    8.47
  -4   8  11   30.33    8.79
   4   8 -11   31.07   10.66
  -4   8 -11   36.32   10.45
   4  -8  11   25.15   11.97
  -4  -8  11   27.64    9.69
   4   8  12    6.26    5.35
  -4   8  12   20.43    9.00
  -4   8 -12   13.51    6.63
  -4   8  12   18.06    7.40
   4   8 -12   12.08    6.50
   4  -8  12    7.75    5.38
  -4  -8  12    5.84    1.94
  -4   8  13   16.25    7.36
   4   8  13    3.11    1.95
  -4   8 -13   11.07    4.69
  -4   8  13    3.15    4.03
   4   8 -13    0.11    2.69
   4  -8  13   22.00   11.85
  -4  -8  13   14.60    7.46
  -4   8  14    1.37    2.78
   4   8  14    4.44    4.31
  -4   8  14    9.83    8.36
   4   8 -14   12.04    6.68
  -4   8 -14    8.96    7.16
   4  -8  14    8.34    7.40
   4  -8  14    3.50    2.85
  -4  -8  14    9.34    7.08
  -4   8  15   10.31    7.62
   4   8  15   14.80    7.32
  -4   8  15   25.30   10.17
   4   8 -15   31.31   10.08
  -4   8 -15   21.71    8.53
   4  -8  15   12.48   10.68
  -4  -8  15   40.44   13.58
   4  -8  15   27.83    9.13
  -4   8  16   16.39    9.01
   4   8  16    7.69    7.29
  -4   8  16   23.02   11.04
   4   8 -16   11.80    3.51
   4  -8  16   -0.51    5.70
  -4   8 -16    5.52    5.14
   4  -8  16   21.02    8.35
  -4  -8  16    6.93    2.23
  -4   8  17   66.75   16.94
   4   8  17   69.32   15.66
   4   8 -17   82.55   19.78
  -4   8  17   69.07   17.22
   4  -8  17   62.05   16.00
  -4   8 -17   76.20   16.09
   4  -8  17   71.78   16.44
  -4  -8  17   78.61   17.33
  -4  -8  18   13.24    7.97
  -4   8  18   11.68    5.71
   4   8  18    6.75    8.87
  -4   8  18   14.73    6.44
   4   8 -18   15.77    6.93
  -4   8 -18    5.14    0.61
   4  -8  18   13.70   10.53
   4  -8  18   17.71    8.66
  -4  -8  19   11.75    8.17
   4   8  19   25.47   11.40
  -4   8 -19   14.75    6.19
  -4   8  19   32.86   11.58
   4  -8  19   18.88    7.76
   4   8  19  -11.56    6.56
   4   8 -19   19.80    8.85
   4  -8  19   12.82    7.41
  -4  -8  20    3.45    3.48
   4   8 -20    0.75    1.77
   4  -8  20    4.43    6.22
  -4   8 -20   -5.80    3.14
   4   8  20   -8.55    1.94
   4  -8  20    3.48    4.59
   4   8  20    9.96    8.02
  -4   8  20    6.79    8.34
  -4  -8  21   63.59   16.55
   4   8 -21   83.68   20.05
   4  -8  21   61.64   16.34
  -4   8 -21   51.78   14.38
   4   8  21   23.47   12.20
   4  -8  21   83.15   17.72
  -4   8  21   22.62   15.54
  -4   8  21   32.21   12.63
  -4  -8  22    1.23    2.02
   4   8 -22    3.02    5.78
   4  -8  22   -2.12    4.35
   4  -8  22    0.67    4.44
  -4   8  22    6.76   11.13
  -4   8 -22    2.02    3.92
  -4   8  22    5.76    4.21
  -4  -8  23   12.80    7.69
   4   8 -23    8.36    5.58
   4  -8  23   -0.69    4.21
  -4   8 -23   19.17    8.50
   4  -8  23    1.72    4.91
  -4   8  23   10.36    5.41
  -4   8  23   16.48   11.14
  -4  -8  24    9.51    6.17
   4   8 -24    1.27    2.63
   4  -8  24   26.35   12.03
  -4   8 -24   -2.64    6.98
   4   8  24   15.37   15.46
  -4   8  24    5.47    2.59
   4  -8  24   16.23    9.09
  -4   8  24    2.50    3.03
  -4  -8  25   46.38   15.30
   4   8 -25   48.94   15.37
   4  -8  25   40.28   10.61
  -4   8 -25   26.89   11.33
  -4   8  25   70.04   18.24
   4  -8  25   29.84    8.16
  -4   8  25   52.64   15.61
  -4  -8  26    9.32    8.72
   4   8 -26   -7.53    9.45
   4  -8  26    6.52    5.22
  -4   8 -26   -0.68    0.96
  -4   8  26   -3.56    7.02
   4   8  26  -14.57    8.66
   4  -8  26    5.35    4.41
  -4   8  26    1.65    5.85
  -4   9   0  686.19   46.68
  -4   9   0  587.64   42.51
   4   9   1  227.00   28.34
   4   9  -1  216.67   28.07
  -4   9   1  232.78   27.99
  -4   9  -1  172.68   24.58
  -4   9  -1  198.66   24.42
  -4   9   1  131.56   19.72
   4   9  -1  181.28   20.82
   4   9   2  217.88   26.90
  -4   9   2  202.13   25.90
   4   9  -2  121.85   20.42
  -4   9  -2  160.60   22.60
  -4   9   2  191.62   24.09
  -4   9  -2  152.85   22.12
   4   9  -2  195.01   21.23
   4   9  -3  324.77   27.81
   4   9   3  268.00   30.22
  -4   9   3  304.80   31.87
   4   9  -3  283.61   31.85
  -4   9  -3  311.45   29.97
  -4   9   3  415.01   35.95
   4  -9   3  214.66   26.59
  -4   9  -3  377.78   34.01
   4   9   4  452.04   40.17
  -4   9   4  363.74   34.01
   4   9  -4  431.72   33.42
   4   9  -4  472.21   40.16
  -4   9  -4  371.80   32.93
  -4   9   4  417.62   36.50
   4  -9   4  375.47   35.78
  -4   9  -4  434.96   36.42
   4   9  -5    3.47    1.95
   4  -9   5    1.80    5.28
  -4   9   5   -1.80    3.30
   4   9   5    0.95    3.29
  -4   9   5    0.55    4.44
   4   9  -5   -0.41    3.23
  -4   9  -5   -3.12    3.81
  -4   9  -5   -1.82    2.91
   4   9   6  113.27   19.64
  -4   9   6  121.89   20.90
  -4   9   6  139.78   21.31
   4   9  -6  133.11   21.66
  -4   9  -6  105.24   18.20
   4  -9   6  156.55   24.08
  -4   9  -6  153.23   21.88
   4   9   7  482.48   41.47
  -4   9   7  471.30   39.11
  -4   9  -7  437.03   38.07
  -4   9   7  383.88   35.90
   4   9  -7  415.87   36.73
   4  -9   7  457.91   40.59
   4   9   8   43.10   12.81
  -4   9   8   55.33   14.28
  -4   9  -8   88.74   16.28
   4   9  -8   43.35   11.60
   4  -9   8   55.56   14.24
  -4   9  -8   46.91   12.47
  -4  -9   8   65.27   13.74
  -4   9   8   46.85   13.00
   4   9   9   49.70   13.60
  -4   9   9   56.89   13.64
  -4   9  -9   52.74   13.69
   4   9  -9   46.46   13.24
   4  -9   9   61.96   16.99
  -4   9  -9   41.26   11.02
  -4   9   9   58.32   14.58
  -4  -9   9   48.27   12.02
   4   9  10   15.34    7.44
  -4   9  10   10.42    5.84
   4   9 -10    9.12    5.31
  -4   9 -10   16.08    7.81
   4  -9  10    1.82    5.54
  -4   9  10    5.93    4.29
  -4   9 -10   20.96    9.48
  -4  -9  10    5.44    4.55
  -4   9  11   62.40   15.30
   4   9 -11   69.17   16.14
  -4   9  11   53.65   14.60
  -4   9 -11   65.89   14.53
   4  -9  11   79.46   17.92
  -4   9 -11   42.40   12.95
  -4  -9  11   68.52   14.39
   4   9  11   77.66   17.22
   4   9  12   10.44    7.22
  -4   9  12    6.12    2.40
  -4   9  12    5.41    3.77
   4   9 -12    5.65    4.08
  -4   9 -12   -3.93    6.33
  -4   9 -12    0.99    3.78
   4  -9  12   12.08    7.81
  -4  -9  12    6.58    5.33
   4   9  13    4.53    3.91
  -4   9  13    5.19    2.11
  -4   9  13    7.05    6.10
   4   9 -13   21.92    8.81
  -4   9 -13    0.55    3.70
   4  -9  13   22.98    8.47
  -4  -9  13    7.18    7.20
  -4   9  14   50.37   13.10
   4   9  14   47.99   15.27
  -4   9  14   54.56   15.80
  -4   9 -14   55.10   14.31
   4   9 -14   59.27   15.04
   4  -9  14   53.63   14.53
  -4  -9  14   57.64   14.24
  -4   9  15   81.46   17.57
   4   9  15   61.97   15.75
  -4   9  15   69.71   16.34
  -4   9 -15   73.51   16.90
   4   9 -15   53.32   13.63
   4  -9  15   56.54   15.93
  -4  -9  15   67.71   15.98
  -4   9  16    8.85    7.85
   4   9  16    3.43    4.53
  -4   9  16   15.65   11.47
  -4   9 -16   -3.70    8.06
   4   9 -16    2.57    0.93
   4  -9  16    1.21    0.32
  -4  -9  16   -1.05    3.67
   4  -9  17   96.81   19.75
  -4   9  17   62.64   16.69
   4   9 -17  112.30   21.48
  -4   9 -17  105.80   20.29
  -4   9  17  126.32   22.93
   4  -9  17  108.10   20.42
  -4  -9  17   98.45   19.42
   4   9  17   84.79   20.66
  -4   9  18   56.08   17.52
   4   9  18   67.86   16.62
  -4   9  18   30.00    8.79
   4   9 -18   27.10   10.00
  -4   9 -18   65.88   16.48
   4  -9  18   45.64   14.55
   4  -9  18   25.27    7.76
  -4  -9  18   20.92   10.61
  -4   9  19   -2.51    6.34
   4   9  19    1.24    3.85
  -4   9  19   -2.17    4.57
   4  -9  19   -0.23    4.33
   4   9 -19   -3.47    5.75
  -4   9 -19    4.20    7.85
   4  -9  19    2.54    4.60
  -4  -9  19    1.30    1.96
  -4   9  20    2.97    1.54
   4   9  20    4.82    5.17
   4  -9  20    4.85    4.58
   4   9 -20    2.89    5.41
  -4   9 -20   -3.87    4.65
   4  -9  20    6.06    2.31
  -4  -9  20   16.19    8.15
   4  -9  21   37.93   11.99
  -4   9  21   73.28   19.09
   4   9 -21   49.70   14.24
  -4   9 -21   51.61   14.66
   4  -9  21   58.08   16.34
  -4   9  21   41.49   14.47
   4   9  21   69.65   18.81
  -4  -9  21   29.72   10.97
   4  -9  22   51.69   14.21
   4   9 -22   33.55   13.86
  -4   9 -22   30.03   11.05
   4  -9  22   44.70   13.53
  -4   9  22   60.65   16.61
  -4   9  22   34.34   12.90
  -4  -9  22   53.91   15.35
  -4   9 -23    3.17    3.74
   4  -9  23    4.12    9.34
   4  -9  23   -4.50    5.25
   4   9 -23    5.04    7.10
  -4   9  23    6.71    7.78
  -4   9  23    7.01    6.51
  -4  -9  23    0.84    2.59
   4   9 -24   10.60    6.95
  -4   9 -24    3.58    6.45
   4  -9  24  -10.02   10.30
   4  -9  24    0.91    3.62
  -4   9  24    2.19    1.76
  -4   9  24    2.36    4.04
  -4  -9  24   -9.20    8.93
   4   9 -25    4.84    3.57
  -4   9 -25    3.90    5.18
   4  -9  25    4.77    4.45
  -4   9  25    9.64    4.16
   4  -9  25    0.89    2.94
  -4   9  25    9.56   10.39
  -4  -9  25   10.82    7.75
  -4  10   0   30.18    8.17
   4  10   0   33.45   11.47
  -4  10   0   40.97   12.42
   4  10   1    7.64    3.73
   4  10  -1    6.35    6.66
  -4  10   1    2.12    2.99
  -4  10  -1    5.99    5.42
  -4  10   1   10.94    4.86
  -4  10  -1   18.19    9.24
  -4  10  -2   15.94    3.79
  -4  10   2   12.99    5.53
   4  10   2    6.81    5.18
  -4  10   2   -2.74    6.40
   4  10  -2   17.96    7.17
  -4  10  -2    1.65    3.58
  -4  10  -3    1.05    6.98
   4  10   3   -0.84    2.96
  -4  10   3   -4.51    3.65
   4  10  -3    4.67    7.73
  -4  10   3    4.42    3.61
  -4  10  -3   -1.82    3.86
  -4  10   4    2.57    3.92
   4  10   4    4.53    6.04
  -4  10   4    5.87    2.37
  -4  10  -4   -5.61    6.76
   4  10  -4    5.60    7.39
  -4  10  -4   -0.30    2.87
   4 -10   4    2.29    3.50
  -4  10   5    3.27    4.80
   4  10   5    2.59    3.92
  -4  10   5    4.22    6.21
   4  10  -5   -1.48    5.79
  -4  10  -5    2.35    5.13
   4 -10   5   -0.17    3.96
  -4  10  -5    3.89    4.63
   4  10  -5    2.44    0.52
   4  10   6  136.87   22.62
  -4  10   6  133.24   22.76
  -4  10   6  145.06   22.49
   4  10  -6  160.85   24.55
  -4  10  -6  148.86   21.93
   4  10  -6  137.37   20.75
  -4  10  -6  145.99   22.42
   4 -10   6  134.41   21.98
  -4  10  -7    4.30    5.17
   4  10   7   -0.63    3.38
  -4  10   7    0.36    5.14
   4  10  -7    3.22    2.01
  -4  10  -7   -3.38    1.45
   4 -10   7    8.31   10.34
  -4  10   7    0.09    5.93
  -4  10   8  136.17   21.50
  -4  10  -8  121.96   20.78
   4  10   8  113.24   20.89
  -4  10   8  163.00   24.34
   4 -10   8  178.58   26.61
   4  10  -8  130.99   22.16
  -4  10  -8   73.42   16.14
   4  10   9    3.81    6.40
  -4  10  -9   -0.44    3.83
  -4  10   9   -3.20    3.81
   4  10  -9    7.85    3.66
   4 -10   9   -2.70    7.70
  -4  10  -9    0.23    4.16
  -4  10   9    1.70    3.52
   4  10  10   -0.69    6.54
  -4  10  10   -1.52    2.24
   4  10 -10   -3.96    5.07
  -4  10 -10    1.26    1.82
  -4  10  10   -2.71    5.59
  -4 -10  10    0.85    1.43
   4 -10  10    4.74    3.73
  -4  10 -10   -4.25    6.05
  -4  10 -11   85.59   18.89
   4  10 -11   75.12   16.97
   4 -10  11   58.55   16.85
  -4  10 -11   62.78   15.00
  -4 -10  11   53.73   13.93
  -4  10  11  103.16   20.20
   4  10  11   78.79   17.67
  -4  10  11   93.73   19.05
  -4  10 -12   14.63    8.01
   4 -10  12   26.60   11.87
   4  10  12   10.24    6.44
  -4  10  12    0.22    4.85
  -4  10  12   19.65    8.36
   4  10 -12   17.56    9.51
  -4  10 -12    9.23    4.76
  -4 -10  12   11.92    8.72
  -4  10 -13    7.69    4.99
   4  10  13    8.74    7.34
  -4  10  13    5.78    4.15
  -4  10  13   -1.93    4.24
   4  10 -13    2.77    2.74
  -4  10 -13    3.54    2.77
  -4 -10  13   12.28    8.01
   4 -10  13    1.07    1.12
  -4  10  14    9.72    4.17
   4  10  14   10.13    9.92
  -4  10  14    7.92    4.32
   4  10 -14    5.64    4.49
  -4  10 -14    1.43    4.75
   4 -10  14   25.28   12.64
  -4  10 -14    6.32    6.95
  -4 -10  14   13.47    3.74
  -4  10  15    8.08    7.55
   4  10  15    4.05    2.91
  -4  10  15    2.92    7.28
   4  10 -15    4.47    4.05
  -4  10 -15    4.39    5.33
   4 -10  15    0.15    4.30
  -4 -10  15    0.21    2.19
  -4  10  16    6.27    7.72
   4  10  16    1.70    3.73
  -4  10  16   16.48   10.89
   4  10 -16   18.26   10.32
  -4  10 -16    9.23    8.93
   4 -10  16   16.96    7.74
  -4 -10  16    6.37    4.28
  -4  10  17   -0.79    2.83
   4  10  17    7.95    6.14
   4 -10  17    6.03    5.31
  -4  10  17    3.93    7.89
  -4  10 -17    4.07    2.95
   4  10 -17   -1.67    6.87
  -4 -10  17    5.42    5.80
  -4  10  18   26.45   12.32
   4  10  18   12.61    9.78
  -4  10  18   35.80   13.44
   4 -10  18   22.34   10.80
  -4  10 -18   38.84   11.83
   4  10 -18   19.22    9.07
  -4 -10  18   13.98    6.17
  -4  10  19    2.59    1.64
   4  10  19   -2.29    5.09
  -4  10  19    1.33    3.08
  -4  10 -19   -3.15    4.64
   4  10 -19    6.31    3.22
  -4 -10  19   -0.96    4.29
  -4  10  20   18.32   10.53
   4  10  20   17.83   10.05
  -4  10  20   14.39    6.58
   4  10 -20    5.07    4.56
  -4  10 -20    6.71    2.48
   4 -10  20    9.04    6.18
   4 -10  20    8.44    5.02
  -4 -10  20   16.75   10.48
  -4  10  21   -0.87    5.02
   4  10  21    2.50    2.98
  -4  10 -21   13.37    9.83
   4 -10  21    0.24    5.46
   4 -10  21   -4.90    6.28
   4  10 -21    7.67    9.08
  -4 -10  21   10.77    8.43
  -4  10  21   13.66    9.35
   4  10 -22   40.20   13.10
  -4  10 -22   42.42   13.09
   4 -10  22   46.48   15.08
   4 -10  22   27.79   12.37
  -4 -10  22   42.63   12.92
  -4  10  22   51.83   18.19
  -4  10  22   18.55   18.74
   4  10  22   37.35   15.63
   4  10 -23   10.20    8.76
  -4  10 -23    3.80    4.73
   4 -10  23   -0.23    1.30
   4 -10  23    6.68    5.03
  -4  10  23   -1.81    3.32
  -4 -10  23    3.69    5.07
  -4  10  23   -0.41    4.13
   4 -10  24   11.45    6.55
  -4  10 -24   23.16    9.44
   4  10 -24   -0.36    6.59
   4 -10  24   -0.46    3.51
  -4  10  24   10.10    8.68
  -4  10  24    9.21    7.51
  -4 -10  24   -0.52    5.07
   4  11   0  263.32   33.46
  -4  11   0  249.69   31.47
  -4  11   0  291.23   32.44
   4  11   1    9.55    5.34
   4  11  -1   26.41    9.21
  -4  11   1   50.30   15.33
  -4  11  -1   39.14   11.69
  -4  11   1   32.97   10.42
  -4  11  -1   37.79   12.73
   4  11   2   -0.90    5.12
  -4  11   2    6.19    8.34
   4  11  -2    0.60    3.37
  -4  11  -2    2.33    3.44
  -4  11   2    5.37    4.72
  -4  11  -2   11.33    6.94
  -4  11  -3   29.19    8.64
   4  11   3   52.80   13.69
  -4  11   3   44.47   14.54
  -4  11   3   35.52   11.48
   4  11  -3   25.82   12.17
  -4  11  -3   59.54   15.86
   4  11   4  242.03   31.93
  -4  11   4  298.69   34.50
   4  11  -4  264.02   32.73
  -4  11  -4  286.16   32.55
  -4  11   4  349.62   34.97
  -4  11  -4  325.52   34.23
  -4  11   5   49.06   11.94
   4  11   5   48.65   12.61
  -4  11   5   70.20   17.47
   4  11  -5   54.94   16.14
  -4  11  -5   62.88   14.98
  -4  11  -5   62.34   15.63
   4  11   6  262.08   32.49
  -4  11   6  189.90   28.61
  -4  11   6  193.45   26.85
   4  11  -6  253.94   32.22
  -4  11  -6  192.46   25.83
   4 -11   6  209.20   28.94
  -4  11  -6  178.47   26.31
  -4  11  -7    7.49    8.89
   4  11   7   20.55   10.28
  -4  11   7   14.12    7.21
   4  11  -7   22.70   12.21
  -4  11  -7    5.68    1.03
   4 -11   7   21.53   10.03
  -4  11   7    9.04    5.66
   4  11   8    7.26    6.94
  -4  11   8    1.29    3.49
   4  11  -8    1.59    3.48
  -4  11  -8   -1.56    2.19
   4 -11   8    5.95    8.85
   4  11  -8    1.04    6.90
  -4  11   8    5.87    5.30
  -4  11  -8    9.65    9.25
   4  11   9   11.08    4.04
  -4  11  -9   13.80    7.98
  -4  11   9   22.60   10.06
   4  11  -9    9.74    1.55
   4 -11   9   10.46    9.69
  -4  11  -9   22.14    7.98
  -4  11   9   13.77    9.47
   4  11  10  173.89   27.84
  -4  11  10  145.26   23.72
  -4  11 -10  147.85   23.86
   4  11 -10  161.62   25.15
  -4  11 -10  142.72   22.53
   4 -11  10  161.81   27.50
  -4  11  10  180.57   26.80
   4  11  11    1.38    2.69
  -4  11  11    1.34    3.42
   4  11 -11   -1.14    1.26
  -4  11 -11   -3.59    6.31
   4 -11  11    9.60    8.88
  -4  11  11    9.01   10.01
  -4  11 -11    1.90    6.28
  -4  11 -12   14.64    8.00
   4  11  12   -2.57    6.75
  -4  11  12   16.76    7.63
   4 -11  12   24.90   10.48
   4  11 -12   19.98   10.30
  -4  11 -12   28.85   11.03
  -4 -11  12    6.37    4.49
  -4  11  12   36.42   13.01
   4  11  13    1.74    2.74
  -4  11  13    7.55    5.26
   4 -11  13   13.43    9.28
  -4  11  13    8.16    9.22
   4  11 -13    7.13    5.50
  -4  11 -13    7.84    7.63
  -4  11 -13   14.14    8.41
  -4 -11  13    9.44    7.58
  -4  11  14   91.22   19.07
  -4  11 -14   36.84   11.04
   4  11 -14   71.06   17.37
   4 -11  14   81.13   18.58
  -4  11  14   79.32   18.61
  -4 -11  14   61.45   14.06
  -4  11 -14   74.50   17.40
   4  11  14   78.03   18.66
  -4  11  15   -6.42    4.03
   4  11  15    3.04    7.24
  -4  11  15    2.05    4.19
   4  11 -15   -0.14    2.18
   4 -11  15   -2.19    5.41
  -4  11 -15    3.21    3.21
  -4 -11  15    4.48   11.29
  -4  11 -15    0.29    4.36
  -4  11 -16   -4.17    1.53
  -4  11  16   -5.35    6.39
   4  11  16   -0.42    2.04
  -4  11  16   -1.91    3.58
   4 -11  16    2.59    4.14
   4  11 -16    2.63    2.60
  -4  11 -16    2.42    5.03
   4  11 -17    5.99    7.51
  -4  11  17    0.72    4.14
   4  11  17   -0.93    6.67
  -4  11  17    5.62    5.54
  -4  11 -17   -2.93    6.52
   4 -11  17    5.95   10.34
  -4 -11  17    2.95    3.78
  -4  11  18   14.19    5.99
   4  11  18   13.90   10.85
  -4  11  18   12.36    9.01
   4  11 -18   19.60   10.21
  -4  11 -18   13.70   11.09
   4 -11  18    5.61    5.87
  -4 -11  18   11.80    8.35
  -4  11  19    6.31    5.21
   4  11  19    2.00    5.24
  -4  11  19    6.73    9.39
   4  11 -19    2.44    4.31
  -4  11 -19    1.87    5.38
   4 -11  19   22.64   14.90
  -4 -11  19    1.91    2.75
  -4  11  20    3.21    4.63
   4  11 -20   10.08    8.93
   4  11  20   19.31   10.95
  -4  11  20    2.16    5.97
   4 -11  20   12.58    8.73
  -4  11 -20    7.03    5.94
  -4 -11  20    1.09    4.22
  -4  11  20    0.14    4.74
   4  11  21   12.84    9.81
  -4  11  21    2.83    6.91
   4  11 -21    6.40    6.60
  -4  11 -21   11.32    5.79
   4 -11  21    4.00    7.76
  -4 -11  21    8.13    8.84
  -4  11  21    9.87    8.39
  -4  11  21   22.30   10.39
   4  11  22   -1.16    2.57
   4 -11  22    2.81    5.71
   4  11 -22    1.28    2.87
  -4  11 -22   -2.44    7.51
  -4 -11  22    7.22    7.58
  -4  11  22   19.89   10.69
  -4  11  22    2.56    5.58
   4  12   0   32.60   13.44
  -4  12   0   42.07   13.90
  -4  12   0   30.07   12.47
  -4  12   1    3.25    2.44
   4  12   1   -0.06    2.00
   4  12  -1    6.87    6.97
  -4  12   1    2.61    6.78
  -4  12  -1    1.92    6.97
  -4  12  -1   -4.54    3.41
   4  12   2    2.14    3.36
  -4  12   2    5.77    8.58
   4  12  -2   -0.47    1.69
  -4  12  -2   14.72    8.61
  -4  12   2   14.25    8.94
  -4  12  -2   -4.45    6.02
   4  12   3   45.90   15.34
  -4  12   3   45.51   13.20
  -4  12   3   45.05   15.41
   4  12  -3   17.57    6.75
  -4  12  -3   52.19   14.54
  -4  12  -3   50.37   13.60
  -4  12  -4    1.82    5.07
  -4  12   4   -0.74    4.71
   4  12   4   -2.10    3.06
  -4  12   4   14.17   10.67
   4  12  -4   12.43    8.26
  -4  12  -4    4.19    5.59
  -4  12   5   -2.37    8.55
   4  12   5   -2.80    6.63
  -4  12  -5   -5.40    7.04
  -4  12   5    1.71    3.12
   4  12  -5   -5.52    7.39
  -4  12  -5   -3.33    2.92
   4  12   6   33.26   13.32
  -4  12   6   15.02    4.98
   4  12  -6   30.70   13.20
  -4  12  -6   15.87    6.85
  -4  12  -6   29.73   10.32
  -4  12   6   12.58    5.76
   4  12   7    6.47    8.33
  -4  12   7   17.70   10.04
   4  12  -7   11.11    9.14
  -4  12  -7    6.23    5.41
   4 -12   7   27.47   10.48
  -4  12  -7    0.25    4.61
  -4  12   7   -0.28    3.37
   4  12   8   12.85    4.72
  -4  12   8    5.21    3.46
   4  12  -8    5.24    4.67
  -4  12  -8    9.04    9.37
   4 -12   8    5.41    6.02
  -4  12  -8    7.83    1.07
  -4  12   8    2.66    1.93
   4  12   9   20.71    9.60
  -4  12   9   22.32    8.84
   4  12  -9   11.16    8.92
  -4  12  -9   13.17    4.18
   4 -12   9   16.23    6.19
  -4  12   9    4.81    4.11
  -4  12  -9   32.93   12.22
  -4  12 -10   20.70    7.72
   4  12  10   26.04   11.37
  -4  12  10    0.81    2.49
   4 -12  10    5.70    5.19
   4  12 -10    8.10    6.07
  -4  12 -10   14.67    8.11
  -4  12  10   11.15    7.58
  -4  12 -11   20.85   11.35
   4  12  11   27.31   10.90
  -4  12  11   18.48   10.07
  -4  12 -11    4.98    5.32
   4  12 -11   30.12   11.38
   4 -12  11   34.93   14.78
  -4  12  11   23.40   10.08
   4  12  12    7.60    6.75
  -4  12  12    5.44    8.54
   4  12 -12    0.58    3.18
  -4  12  12    4.03    6.81
  -4  12 -12    2.51    3.91
   4 -12  12    4.24    5.12
  -4  12 -12    3.92    4.93
   4  12  13    0.66    2.59
  -4  12  13    2.59    5.59
  -4  12  13   16.43   11.09
   4  12 -13    6.94    4.76
  -4  12 -13    2.67    4.09
   4 -12  13   -1.04    3.95
  -4  12 -13   -0.25    2.19
  -4  12 -14   17.58    6.02
   4  12  14   39.22   13.75
  -4  12  14   49.81   15.72
  -4  12  14   19.42    9.90
   4  12 -14   13.08    8.63
  -4  12 -14   24.87   10.49
   4 -12  14   13.15    9.68
  -4  12  15    4.62    5.48
   4  12  15   -0.43    4.94
  -4  12  15   -1.62    6.00
  -4  12 -15    6.04    6.05
   4  12 -15   -2.22    2.84
  -4  12 -15   -4.48    6.23
   4 -12  15    7.78    9.50
  -4 -12  15    4.34    2.58
  -4  12  16   -2.15    2.84
   4  12  16   -0.60    3.70
  -4  12  16   -3.66    2.96
   4  12 -16   -2.59    0.69
  -4  12 -16    0.28    2.49
   4 -12  16   -2.97    4.33
  -4 -12  16    6.96    5.04
  -4  12 -16   -2.59    3.45
  -4  12  17   -0.06    3.68
   4  12  17    8.19    7.68
  -4  12 -17    4.56    5.23
  -4  12  17    0.63    6.72
  -4  12 -17   -4.26    7.84
   4  12 -17    6.80    7.76
   4 -12  17   13.99    9.54
  -4 -12  17   -4.26    5.42
  -4  12  18   21.16    9.32
   4  12  18   -0.68    3.72
  -4  12  18    4.06    2.03
   4  12 -18   -2.18    4.98
  -4  12 -18   -3.94    8.18
   4 -12  18   -2.44    6.78
  -4 -12  18   19.62   11.32
  -4  12 -18    7.92    3.76
  -4  12  19    7.19    8.50
   4  12  19   -0.44    4.75
  -4  12  19   -0.44    3.48
   4  12 -19    9.01    6.25
  -4  12 -19    3.27    5.71
   4 -12  19    4.50    2.61
  -4 -12  19    3.35    0.80
  -4  12 -19   -0.87    4.79
  -4  12  20    8.57    7.90
   4  12  20    1.37    4.39
  -4  12  20    0.95    3.08
  -4  12 -20    0.96    6.28
  -4  12 -20    2.66    3.32
   4  12 -20    4.16    0.53
  -4 -12  20    9.39    8.56
  -4  12  20    3.45    5.67
   4  13   0   12.30    8.92
  -4  13   0   13.56    7.15
  -4  13   0   22.39    8.12
   4  13   1   26.51    8.68
   4  13  -1   10.83    6.58
  -4  13   1   20.26    9.12
  -4  13  -1   28.23   10.43
  -4  13   1   15.09    8.77
  -4  13  -1   47.18   14.12
   4  13   2    1.54    4.46
  -4  13   2    9.25    8.84
   4  13  -2    2.96    3.54
  -4  13   2    0.74    5.02
  -4  13  -2    2.42    0.72
  -4  13  -2    3.61    6.86
  -4  13   3  102.53   21.90
   4  13  -3   91.71   21.25
  -4  13  -3  115.22   22.75
   4  13   3   97.91   20.82
  -4  13   3  100.25   19.54
  -4  13  -3  139.15   23.70
  -4  13   4    2.55    2.73
   4  13   4   -4.02    5.45
  -4  13   4   -3.46    5.23
   4  13  -4   10.62    4.70
  -4  13  -4    3.09    7.48
  -4  13  -4    4.32    2.87
  -4  13   5    3.58    1.66
  -4  13  -5    4.95    6.46
   4  13   5    1.84    6.13
  -4  13   5   10.77    8.19
   4  13  -5    2.66    1.74
  -4  13  -5    4.69    4.95
   4  13   6    0.54    2.87
  -4  13  -6    4.68    7.47
  -4  13   6   -0.35    6.04
   4  13  -6   -1.84    3.49
  -4  13  -6    5.05    3.45
  -4  13   6    0.92    7.54
   4  13   7   19.88    9.37
  -4  13   7   34.13   12.53
  -4  13  -7   50.25   13.54
   4  13  -7   35.17   14.53
  -4  13  -7   62.22   16.28
  -4  13   7   31.30   10.86
   4  13   8   48.89   14.36
  -4  13   8   33.66   11.60
   4  13  -8   23.90    8.01
  -4  13  -8   35.24   12.55
  -4  13  -8   36.15   10.38
  -4  13   8   31.30   12.59
   4  13   9   18.57   11.19
  -4  13   9    5.65    4.10
   4  13  -9   24.06   13.54
  -4  13  -9    2.61    1.27
   4 -13   9   -4.00    6.51
  -4  13  -9    1.87    7.52
  -4  13   9   -0.54    4.23
   4  13  10    4.42    1.34
  -4  13  10    0.96    5.19
   4  13 -10    2.53    4.44
  -4  13 -10    6.63    7.31
  -4  13  10    6.48    7.36
  -4  13 -10   -5.78    8.15
   4  13  11    4.03    6.05
  -4  13  11    2.53    4.37
   4  13 -11    3.72    4.88
  -4  13 -11    3.91    3.17
  -4  13  11    1.01    2.29
  -4  13 -11   -2.40    8.14
  -4  13 -12   25.34   10.29
   4  13  12   32.76   14.48
  -4  13  12   40.83   13.48
   4  13 -12   55.25   16.25
  -4  13 -12   30.84   10.91
  -4  13  12   53.78   16.25
   4  13  13    7.02    8.34
  -4  13  13    3.80    4.32
  -4  13 -13   16.58   10.21
   4  13 -13   23.96   12.02
  -4  13  13    8.65   10.34
  -4  13 -13   10.25    7.87
   4  13  14    5.77    8.74
  -4  13  14    1.18    3.61
  -4  13  14   -4.80    4.10
   4  13 -14   -0.63    3.85
  -4  13 -14   -1.33    2.76
  -4  13 -14   -2.73    6.87
  -4  13  15   13.54   10.19
   4  13  15   32.16   13.50
  -4  13  15   33.91   12.85
   4  13 -15   29.32   11.90
  -4  13 -15    9.46    1.57
  -4  13 -15   22.50   10.92
  -4  13  16    8.06    6.68
   4  13  16   16.67    9.67
  -4  13  16    3.82    5.45
   4  13 -16   -2.62    4.59
  -4  13 -16    5.17    7.66
  -4  13 -16   -0.12    2.18
  -4  13  17    6.93    7.18
   4  13  17    8.64    6.38
  -4  13 -17   16.03    8.94
  -4  13 -17    8.40    5.00
  -4  13  17   11.66    8.19
   4  13 -17   15.89    5.74
   4  14   0   42.45   13.31
  -4  14   0   52.83   17.38
  -4  14   0   76.07   17.57
  -4  14  -1    8.74    3.14
   4  14   1   10.99    5.29
   4  14  -1   17.36    8.13
  -4  14   1   19.91   10.29
  -4  14  -1   15.37    9.38
  -4  14   1    6.95    6.83
   4  14   2   14.07   12.58
  -4  14   2    3.46    7.03
  -4  14   2   10.00    7.24
   4  14  -2    9.31    8.05
  -4  14  -2   -1.01    5.46
  -4  14  -2   -0.67    1.20
  -4  14   3   -2.53    2.67
   4  14   3   14.19    9.51
  -4  14   3   13.40    7.32
   4  14  -3   -7.34    4.39
  -4  14  -3   -0.48    8.09
  -4  14  -3    6.98    8.20
  -4  14   4   -0.73    5.03
   4  14   4    9.54    7.23
  -4  14   4    1.42    4.83
   4  14  -4    7.42    6.89
  -4  14  -4    4.86    5.52
  -4  14  -4    4.05    6.28
   4  14   5    5.67    3.66
  -4  14   5   -2.91    3.12
   4  14  -5    4.47    6.96
  -4  14  -5    2.40    7.15
  -4  14  -5    9.92    9.67
  -4  14   5    6.81    4.11
  -4  14  -6   34.73   11.88
   4  14   6    8.91    2.74
  -4  14   6   36.17   12.96
   4  14  -6   14.61    9.73
  -4  14  -6   -2.40    3.11
  -4  14   6   28.09   11.44
  -4  14  -7   23.86    8.91
   4  14   7   20.40   11.07
  -4  14   7    4.74    3.29
   4  14  -7    0.36    4.98
  -4  14  -7   15.90    9.85
  -4  14   7   18.76    8.22
   4  14   8    3.10    7.79
  -4  14   8   13.73    6.41
  -4  14  -8    8.56    5.15
   4  14  -8    5.79    6.34
  -4  14  -8    7.93    7.43
  -4  14   8    9.56    5.66
   4  14   9    4.81    7.70
  -4  14   9    5.61    3.11
   4  14  -9    8.52    9.06
  -4  14  -9    4.98    3.51
  -4  14  -9    2.14    2.73
  -4  14   9    2.40    4.43
   4  14  10    0.58    5.67
  -4  14  10    4.39   11.27
   4  14 -10    8.34   10.19
  -4  14 -10   -0.55    6.17
  -4  14 -10    2.07    2.19
  -4  14  10   -4.29    7.47
   4  14  11   -5.14    7.06
  -4  14  11   -2.49    5.68
   4  14 -11    1.10    7.62
  -4  14 -11   -1.27    4.49
  -4  14  11    1.37    4.33
  -4  14 -11    3.91    7.05
   4  14  12   13.82   11.23
  -4  14  12    5.43    7.62
   4  14 -12    4.51    3.34
  -4  14 -12    4.89    7.07
  -4  14  12    0.32    5.13
  -4  14 -12   12.26    6.23
   4  14  13   16.27   10.29
  -4  14  13   19.90    9.03
   4  14 -13   16.73   12.39
  -4  14  13   14.98   11.19
  -4  14 -13   17.52   10.21
  -4  14 -13   25.42   10.89
  -4  14 -14    2.98    0.36
   4  14  14   -1.58    6.10
  -4  14  14    0.26    7.74
  -4  14  14   -0.26    4.73
   4  14 -14   -0.20    5.63
  -4  14 -14    6.22    7.93
   4  15   0    3.23    5.15
  -4  15   0   23.93   11.98
  -4  15   0   15.53   11.92
   4  15   1    6.90    6.09
   4  15  -1    7.98    6.95
  -4  15   1   -1.08    1.68
  -4  15   1    5.12    4.75
  -4  15  -1    2.42    4.86
  -4  15  -1    0.83    2.55
  -4  15   2    9.76    8.24
   4  15   2    3.80    2.70
  -4  15   2   12.65    8.32
   4  15  -2   11.80    7.21
  -4  15  -2    3.69    4.72
  -4  15  -2   -1.73    5.40
  -4  15   3    7.65    7.41
   4  15   3   13.46   12.13
  -4  15   3   -1.29    6.13
   4  15  -3   -2.27    6.46
  -4  15  -3   -4.02    5.69
  -4  15  -3    2.33    2.45
  -4  15   4   20.67   10.33
   4  15   4   53.25   16.94
  -4  15   4   40.08   14.22
   4  15  -4   42.81   15.92
  -4  15  -4   35.03   13.46
  -4  15  -4   26.42    9.60
   4  15   5   -3.89    3.86
  -4  15   5   -5.74    7.41
   4  15  -5   11.93    9.16
  -4  15  -5   -8.55    7.40
  -4  15  -5   -6.99    8.37
  -4  15   5   -3.85    7.02
   4  15   6   14.33    7.54
  -4  15   6   22.66   10.82
   4  15  -6   11.94   10.63
  -4  15  -6   -1.71    4.41
  -4  15   6    4.12    2.79
  -4  15  -6   18.31    8.78
  -4  15  -7    6.77    8.74
   4  15   7    5.66    8.11
  -4  15   7    2.89    6.33
   4  15  -7    9.13   10.04
  -4  15  -7    7.65    8.50
  -4  15   7    4.21    6.48
  -4  15  -8   19.47    8.69
   4  15   8   33.25   13.23
  -4  15   8   26.67   14.59
   4  15  -8   29.74   12.89
  -4  15  -8   17.11    7.03
  -4  15   8   65.31   18.29
   4  15   9    3.25    5.83
  -4  15   9    7.51    6.82
  -4  15  -9    6.26    6.85
   4  15  -9   -6.50    7.03
  -4  15  -9    0.20    6.88
  -4  15   9   -1.36    4.89
   4  15  10   -5.46    8.45
  -4  15  10    7.77    4.28
  -4  15 -10   -3.00    6.60
   4  15 -10    5.01   11.84
  -4  15 -10   11.34    9.52
  -4  15  10   -1.38    4.49
   5   0   0   -0.92    2.53
  -5   0   0    0.42    2.09
  -5   0   1    0.97    0.82
   5   0  -1    0.96    1.01
   5   0   1    1.06    0.33
  -5   0  -1   -0.11    0.39
   5   0   2 1348.43   52.95
  -5   0   2 1538.02   42.77
  -5   0   3    1.15    1.33
   5   0   3    0.38    4.02
  -5   0  -3   -0.69    1.51
   5   0   4 1467.77   57.30
  -5   0  -4 1397.58   36.04
  -5   0  -5    0.19    0.60
   5   0   5   -1.99    3.80
  -5   0   5    2.08    3.26
   5   0   6 1488.43   58.75
  -5   0   6 1579.26   52.43
   5   0   7    0.19    1.67
   5   0  -7   -0.76    1.71
   5   0   7   -1.09    1.87
  -5   0   7   -1.92    1.32
  -5   0   8  311.08   25.23
   5   0   8  265.26   24.06
   5   0   9   -2.24    1.49
  -5   0   9   -1.07    3.10
   5   0   9   -2.02    1.26
   5   0  10  118.16   16.94
  -5   0  10  104.68   15.82
   5   0  10  118.49   14.28
   5   0  11    0.61    2.15
  -5   0  11    0.80    2.24
   5   0  11   -0.63    1.49
  -5   0  12  578.49   40.13
   5   0  12  518.13   37.45
   5   0  12  559.45   33.17
   5   0  13    2.27    2.43
  -5   0  13    0.08    3.01
   5   0  13   -2.75    3.48
  -5   0  14  139.32   20.26
   5   0  14   92.58   16.18
   5   0  14  118.35   16.48
   5   0  15   -2.04    4.91
   5   0  15    1.46    2.61
  -5   0  15   -0.96    5.15
   5   0  16  565.93   43.30
   5   0  16  534.11   37.71
   5   0  17   -0.76    2.46
  -5   0  17   -1.74    4.37
   5   0  17   -2.61    3.54
   5   0  18   16.56    7.10
  -5   0  18   24.39    8.81
   5   0  18   18.38    8.33
  -5   0  18   34.07   10.38
   5   0  19   -0.66    1.21
  -5   0  19   -1.23    5.61
   5   0  19   -1.22    5.89
  -5   0  19   -1.02    5.66
  -5   0  20  121.28   21.20
   5   0  20  111.89   21.31
   5   0  20   95.44   17.96
  -5   0  20  117.53   20.18
   5   0  21   -3.22    4.24
  -5   0  21    2.51    3.03
   5   0  21   -4.10    4.02
  -5   0  21   -6.46    6.93
   5   0  22    9.41    6.42
  -5   0  22   13.37    9.28
   5   0  22    4.15    4.15
  -5   0  22   28.66    9.84
   5   0  23    0.71    2.65
  -5   0  23    0.56    1.67
   5   0  23   -4.35    4.10
  -5   0  23   -4.56    4.34
  -5   0  24  211.93   30.95
   5   0  24  194.19   29.98
  -5   0  24  175.38   27.53
   5   0  24  188.00   26.95
  -5   0  25    0.51    1.79
   5   0  25    2.75    5.90
  -5   0  25   -1.76    3.91
  -5   0  26  110.30   23.53
   5   0  26   63.23   18.37
  -5   0  26   61.57   21.42
  -5   0  27   -7.65   10.69
   5   0  27   -0.22    2.03
  -5   0  27    1.83    4.22
  -5   0  28   35.17   11.26
   5   0  28   31.17   13.79
  -5   0  28   32.92   11.17
  -5   0  29   -8.45   11.26
   5   0  29    4.83    5.58
  -5   0  29    5.69    8.23
   5   0  30   44.84   17.41
  -5   0  30   38.17   14.30
  -5   0  30   14.40    8.05
   5   1   0   -0.17    0.72
  -5  -1   0   -0.49    1.11
   5   1   0   -1.64    1.29
   5  -1   0    2.91    5.16
  -5   1   0    0.50    1.40
  -5   1  -1  123.14   12.04
  -5  -1   1  142.70   10.71
  -5   1  -1  130.81    8.14
   5  -1  -1  169.72   18.63
   5  -1   1  201.92   21.61
   5   1   1  152.92   17.39
   5   1  -1  153.74   16.29
  -5  -1  -1  156.72    9.40
  -5   1   1  134.69   13.41
   5   1  -1   88.33    6.50
   5   1  -2    7.26    1.71
  -5  -1  -2    7.06    1.73
   5  -1   2    7.20    4.76
  -5   1   2    9.90    3.99
  -5   1  -2    3.31    0.43
   5   1   2   10.56    4.37
  -5  -1   2    6.15    2.98
  -5   1  -3   10.79    3.57
   5   1  -3   14.14    2.40
  -5   1   3   10.26    3.90
   5  -1   3   19.08    6.15
   5   1   3    3.78    1.67
  -5  -1   3    8.41    3.80
  -5  -1  -3   10.39    2.16
  -5   1  -4   12.25    3.68
   5   1  -4   13.66    2.79
  -5   1   4   17.54    5.04
  -5  -1  -4   15.53    3.11
   5  -1   4   17.49    7.41
   5   1   4   15.04    4.99
  -5  -1   4   15.48    4.53
  -5   1   5   -0.35    2.09
  -5   1  -5    3.51    2.78
   5   1  -5    7.09    2.14
   5  -1   5    3.42    0.18
   5   1   5    7.79    3.79
  -5  -1  -5    5.78    2.11
  -5  -1   5    5.73    3.30
  -5  -1   6  430.04   27.43
   5   1  -6  230.90   13.89
  -5   1  -6  325.27   21.90
   5  -1   6  303.41   26.77
   5   1   6  368.53   28.24
  -5   1   6  380.33   26.66
  -5  -1   7   48.29    9.32
   5   1  -7   28.74    5.44
   5  -1   7   59.39   12.70
  -5   1   7   64.24   10.83
   5   1   7   53.67   11.03
  -5   1   8   13.49    5.67
   5   1  -8   12.16    4.19
   5   1   8   18.46    6.70
  -5  -1   8   11.35    3.96
   5  -1   8   18.02    5.04
   5  -1   8   23.48    7.43
   5   1   8   20.23    4.75
  -5  -1   9   71.55   13.05
   5   1  -9   78.72   10.78
  -5   1   9   53.12   11.22
   5   1   9   79.69   13.54
   5  -1   9   80.67   13.74
   5  -1   9   73.66   10.99
   5   1   9   57.33    8.57
  -5  -1  10  661.13   41.01
   5  -1  10  369.61   30.28
   5   1  10  434.51   32.47
   5  -1  10  562.05   32.45
   5   1  10  485.93   26.74
  -5  -1  11   27.60    8.01
   5  -1  11   54.25   11.98
   5   1  11   36.22   10.14
   5  -1  11   46.67   10.49
   5   1  11   55.19    9.58
  -5   1  11   18.12   10.50
  -5  -1  12  167.69   21.71
  -5   1  12  247.83   25.37
   5  -1  12  178.64   21.69
   5   1  12  177.25   22.11
   5  -1  12  203.12   21.09
   5   1  12  216.72   20.17
  -5  -1  13  325.28   30.35
  -5   1  13  290.00   29.26
   5  -1  13  255.79   27.15
   5  -1  13  313.15   26.34
   5   1  13  245.32   22.41
  -5  -1  14  154.27   21.31
   5  -1  14  112.76   18.48
   5   1  14  162.63   21.72
   5  -1  14  106.75   16.64
   5   1  14  121.65   16.22
   5   1  15   18.69    6.64
  -5  -1  15   17.94    8.15
   5  -1  15   20.56    7.09
   5   1  15   30.40    9.72
  -5   1  15   15.31    8.36
   5  -1  15   14.56    6.79
  -5  -1  16  157.17   21.65
  -5   1  16  167.07   24.08
   5  -1  16  135.12   19.96
   5   1  16  141.29   22.56
   5  -1  16  122.89   19.11
   5   1  16  179.63   21.66
  -5  -1  16  167.57   23.39
   5  -1  17   15.75    8.79
   5   1  17   28.01    9.01
  -5  -1  17   41.26   13.24
  -5   1  17   18.12    9.11
   5  -1  17   19.97    7.15
   5   1  17   34.83   12.79
  -5  -1  17   40.78   12.91
   5  -1  18   42.57   12.17
   5   1  18   26.45    8.86
   5  -1  18   27.64   11.77
  -5  -1  18   16.15    8.16
  -5   1  18   28.62   12.41
   5   1  18   10.73    6.73
  -5  -1  18   13.18    6.25
   5  -1  19   12.99    7.52
   5   1  19   10.56    6.37
  -5  -1  19   -2.24    5.31
   5  -1  19   18.97   12.34
   5   1  19    7.47    8.22
  -5  -1  19   12.52    6.35
  -5   1  19    5.37    5.67
  -5   1  19   13.82    7.69
   5   1  20   44.05   12.01
  -5   1  20   96.19   20.19
  -5  -1  20   73.37   16.75
   5  -1  20   93.86   18.48
   5   1  20   93.74   19.08
   5  -1  20   96.14   18.47
  -5   1  20   95.13   19.11
  -5  -1  20   87.10   17.18
   5  -1  21   40.63   11.11
   5   1  21   48.76   14.05
  -5  -1  21   36.43   12.32
  -5   1  21   37.44   12.38
   5  -1  21   45.29   12.75
   5   1  21   48.93   12.74
  -5  -1  21   46.43   12.09
  -5   1  21   30.99    8.91
   5  -1  22   -6.63    7.39
   5   1  22   12.96   10.52
  -5  -1  22   10.85    7.35
  -5   1  22    3.32    4.94
   5  -1  22    2.65    2.95
   5   1  22   -2.11    6.48
  -5  -1  22   -3.44    6.17
  -5   1  22   -1.38    6.25
   5  -1  23   72.89   15.96
  -5  -1  23   82.67   19.29
  -5   1  23   63.61   17.11
   5   1  23   75.36   18.46
   5  -1  23   71.20   17.29
  -5  -1  23   64.39   15.81
  -5   1  23   56.69   15.69
  -5  -1  24  114.11   22.92
  -5   1  24   67.08   16.03
   5  -1  24  101.61   19.94
   5   1  24   83.60   19.10
   5  -1  24  116.11   21.52
  -5   1  24  115.68   22.20
  -5  -1  24   87.04   19.06
   5  -1  25    7.93    7.80
  -5  -1  25    5.38    4.83
  -5   1  25   -1.03    2.45
   5  -1  25   -0.12    1.83
   5   1  25    0.82    7.61
  -5  -1  25   -3.17    3.61
  -5   1  25    8.01    5.38
   5  -1  26   21.69    9.51
  -5  -1  26   12.07    8.92
  -5   1  26   22.46   10.82
   5  -1  26   30.88   13.95
   5   1  26    8.21    7.96
  -5  -1  26   33.25   12.12
  -5   1  26   17.66    8.52
   5  -1  27    1.79    8.01
  -5  -1  27   -0.55    6.75
  -5   1  27    5.78    4.38
   5  -1  27   11.94    6.76
   5   1  27   16.93    7.12
  -5   1  27    8.21    2.79
   5  -1  28   -6.81    5.64
  -5  -1  28    0.69    4.58
  -5   1  28   -3.96    8.72
   5  -1  28   -9.22   10.36
   5   1  28   12.36   10.04
  -5  -1  28    2.23    5.30
  -5   1  28    4.65    7.20
  -5  -1  29   10.28    8.78
  -5   1  29    2.66    3.83
   5  -1  29   14.93    5.94
   5   1  29    3.65    7.41
  -5  -1  29    5.44    6.49
  -5   1  29    1.68    2.97
  -5  -1  30   40.16   14.27
  -5   1  30   43.93   17.79
   5  -1  30   18.78    8.27
   5   1  30   29.73   13.91
  -5  -1  30   11.39    5.33
  -5   1  30   16.17    9.96
   5   2   0    0.97    1.10
  -5   2   0   -0.38    0.56
  -5  -2   0   -0.72    0.77
  -5   2   0   -0.54    0.61
   5  -2   0    0.03    4.38
   5   2   0    1.20    2.56
   5   2  -1   72.87    8.42
  -5  -2   1   81.28    7.01
  -5   2   1  116.95   13.20
  -5   2  -1  115.53    8.47
  -5   2  -1   73.91   10.71
   5  -2   1   63.05   12.72
   5   2   1  132.98   15.34
   5  -2  -1   95.70   14.75
   5   2   1  157.99   12.73
  -5   2   2   59.22   10.02
   5   2  -2   55.42    7.28
  -5  -2   2  104.03    9.27
  -5   2  -2   82.16    8.16
   5  -2   2   84.26   13.83
   5   2   2   88.99   13.17
  -5   2  -2   83.28   11.20
   5   2   2   71.02    9.03
  -5  -2   3 1251.50   36.55
   5   2  -3  941.91   30.07
  -5   2  -3 1334.92   38.27
   5  -2   3 1235.65   55.71
   5   2   3  797.66   39.21
  -5   2  -3  909.38   37.45
  -5   2   3  978.56   41.85
   5   2   3 1387.07   42.90
  -5  -2   4  675.07   28.21
   5   2  -4  695.51   26.75
   5   2   4  653.26   35.06
  -5   2   4  635.00   34.22
  -5   2  -4  718.83   33.67
  -5   2  -5  646.39   32.32
  -5  -2   5  640.07   30.01
   5   2  -5  710.29   26.36
   5  -2   5  937.06   49.00
   5   2   5  957.49   43.51
  -5   2   5  913.80   41.89
   5   2   5  511.58   29.26
  -5  -2   6  677.36   33.00
  -5  -2  -6  648.56   16.67
   5   2  -6  788.41   29.35
  -5   2  -6  558.84   30.78
   5  -2   6  762.86   43.33
  -5   2   6  552.84   33.21
   5   2   6  804.63   40.65
   5   2   6  791.68   38.85
  -5  -2   7   83.96   11.72
   5   2   7   91.08   13.13
  -5   2   7   88.26   14.28
  -5   2   8    3.47    2.55
  -5  -2   8    4.46    3.60
   5   2  -8    1.51    1.95
   5  -2   8    0.69    3.37
   5   2   8    3.34    2.94
   5   2   8    0.50    1.74
  -5   2   9  481.92   33.62
  -5  -2   9  445.82   30.87
   5   2  -9  438.59   26.16
   5  -2   9  489.43   36.09
   5   2   9  524.19   34.10
   5  -2   9  427.42   29.09
   5   2   9  490.64   23.64
  -5  -2  10  193.62   20.92
   5   2 -10   81.49   11.63
  -5   2  10  182.58   21.70
   5  -2  10  111.51   16.46
   5   2  10  205.86   22.16
   5  -2  10  130.08   15.77
   5   2  10  143.09   13.58
  -5  -2  11   62.91   12.02
   5   2 -11   75.31   12.25
   5  -2  11   47.08   10.26
   5  -2  11   41.21   10.41
   5   2  11   37.81   10.24
   5   2  11   47.26    8.93
  -5   2  11   40.63   10.22
  -5  -2  12  155.71   20.67
  -5   2  12  149.96   20.70
   5   2 -12  135.72   17.56
   5  -2  12  102.19   17.67
   5   2  12  126.84   18.90
   5   2  12  137.31   15.25
  -5   2  13  517.18   38.49
   5   2 -13  453.60   32.59
   5  -2  13  507.25   38.86
   5   2  13  579.62   41.79
   5  -2  13  572.33   38.04
   5   2  13  549.39   33.54
  -5  -2  14   24.72    9.14
   5  -2  14   38.76   10.42
   5   2 -14   18.36    6.01
   5   2  14   15.66    6.57
   5   2  14   55.55   11.08
  -5   2  14   35.66   11.37
   5  -2  14   42.79   10.71
  -5  -2  14   36.07    9.47
  -5  -2  15  169.81   23.83
  -5   2  15  144.08   21.75
   5  -2  15  109.37   19.35
   5   2  15  208.94   26.30
   5   2 -15  112.28   16.02
   5  -2  15  150.84   20.22
  -5  -2  15  166.99   22.49
   5   2  15  142.07   18.84
  -5  -2  16  103.86   18.38
  -5   2  16  100.91   18.78
   5  -2  16   99.08   17.75
   5   2  16  109.49   19.24
   5  -2  16   69.21   13.36
  -5  -2  16   76.71   15.08
   5   2  16   68.71   14.39
  -5  -2  17  175.85   24.44
  -5   2  17  169.85   24.59
   5  -2  17  145.48   22.13
   5   2  17  195.85   26.41
   5  -2  17  178.68   22.44
  -5  -2  17  151.91   22.06
   5   2  17  142.91   19.96
  -5  -2  18   81.83   18.22
  -5   2  18   89.15   18.45
   5  -2  18  124.90   21.38
   5   2  18   91.23   18.17
   5  -2  18   70.35   15.58
  -5  -2  18  136.77   20.89
   5   2  18   99.26   18.37
  -5  -2  19   29.61   11.51
   5  -2  19   26.83   10.26
  -5   2  19   20.52    6.41
   5   2  19   39.20   12.09
  -5  -2  19   29.62    8.25
   5  -2  19   41.56   11.80
  -5  -2  20  178.82   25.81
  -5   2  20  148.61   24.51
   5  -2  20  123.10   22.78
   5   2  20  111.47   21.59
   5  -2  20   96.22   19.12
  -5  -2  20  132.12   21.83
  -5   2  20  160.17   24.67
   5  -2  21   18.17    8.57
  -5  -2  21   24.14   10.33
  -5   2  21   25.51   10.04
   5  -2  21   19.38    8.94
   5   2  21   13.52    6.04
  -5  -2  21   22.40    8.41
  -5   2  21   33.77   11.28
   5  -2  22   26.90   10.10
  -5   2  22   31.53   13.51
  -5  -2  22   15.22   10.12
   5  -2  22    8.02    3.34
   5   2  22   16.20    5.06
  -5  -2  22   34.99   12.25
  -5   2  22   10.85    4.80
   5  -2  23   24.09    6.68
  -5  -2  23   35.20   12.46
   5   2  23   25.09    9.64
  -5   2  23   19.83    9.23
   5  -2  23    8.19    6.13
  -5  -2  23    1.16    4.51
  -5   2  23   12.72    8.42
   5  -2  24    6.45    6.82
  -5  -2  24    6.67    6.41
  -5   2  24    1.53    3.96
   5  -2  24   21.01   10.47
   5   2  24   18.48   10.75
  -5  -2  24   18.26    7.00
  -5   2  24   21.78    9.27
   5  -2  25   -6.44    6.04
  -5  -2  25   -3.12    6.92
  -5   2  25   15.31   10.36
   5   2  25    7.34    6.11
   5  -2  25   -3.72    4.48
  -5  -2  25   -5.79    6.62
  -5   2  25   -4.05    3.21
   5  -2  26    8.32    6.93
  -5  -2  26    8.24    6.07
  -5   2  26    9.15    6.39
   5  -2  26   13.58    8.98
   5   2  26   12.36    7.98
  -5  -2  26    5.18    4.40
  -5   2  26    3.04    5.58
   5  -2  27   61.32   16.99
  -5  -2  27   57.29   15.76
  -5   2  27   73.66   17.89
   5   2  27  107.71   22.88
   5  -2  27   67.30   17.19
  -5  -2  27   82.88   21.29
  -5   2  27   71.94   18.70
   5  -2  28    5.29    9.15
  -5  -2  28    0.63    1.38
  -5   2  28   -5.36    5.90
   5  -2  28    3.84    7.01
   5   2  28   -0.74    5.43
  -5  -2  28   10.28    9.87
  -5   2  28   -3.06    4.31
   5  -2  29    4.65    5.44
  -5  -2  29    3.08    5.36
  -5   2  29   -0.59    7.29
   5  -2  29   10.75    6.76
  -5  -2  29   -4.84    4.69
  -5   2  29    5.46    3.79
   5   3   0    0.63    1.87
  -5   3   0   -0.61    1.20
   5   3   0   -1.31    3.04
   5  -3   0   -1.85    3.08
  -5   3   0   -0.25    1.89
   5   3   1   11.21    3.71
   5   3  -1   12.07    4.81
  -5   3   1    7.48    4.60
  -5   3  -1    5.24    2.37
  -5   3   1    4.98    2.48
   5  -3  -1    2.32    4.17
   5  -3   1    9.51    6.65
   5   3   1    4.35    2.99
  -5   3  -1   10.55    4.35
  -5  -3   1    8.04    1.95
   5   3   2  197.19   17.12
  -5   3   2  212.55   13.09
   5   3  -2  217.40   17.34
  -5   3   2  175.19   17.94
  -5   3  -2  195.04   14.73
   5   3   2  189.32   17.73
  -5   3  -2  205.21   19.17
  -5  -3   2  235.65   13.51
   5   3   3    6.97    3.88
  -5   3   3    0.07    0.48
  -5  -3   3    0.87    0.78
   5   3  -3   -0.49    0.84
  -5   3  -3    0.53    1.34
   5  -3   3   -0.57    2.87
   5   3   3    2.58    3.15
  -5   3  -3    1.86    1.38
  -5   3   3    3.79    2.87
  -5   3   4   -0.14    0.94
   5   3   4    0.05    2.41
  -5  -3   4   -0.66    1.04
   5   3  -4   -0.34    0.53
   5  -3   4   -0.64    3.45
   5   3   4   -0.73    0.91
  -5   3  -4   -0.47    0.57
  -5   3   4   -1.74    2.50
  -5   3  -4    2.11    2.58
  -5   3  -5  327.80   24.64
   5   3  -5  156.92   14.34
   5   3   5  186.31   18.29
  -5   3  -5  340.51   23.48
  -5   3   5  288.92   24.59
  -5  -3   5  229.32   18.40
  -5   3   5  325.52   17.48
   5   3   5  291.38   22.38
   5   3   6   36.11    7.98
  -5   3  -6   54.10   10.34
   5   3  -6   62.07    9.32
  -5   3   6   30.16    7.57
   5  -3   6   51.08   12.76
  -5   3  -6   55.89    9.88
  -5   3   6   42.15    6.20
   5   3   6   42.57    9.70
  -5  -3   6   34.34    7.70
  -5  -3   7  215.30   19.80
   5   3  -7  216.75   18.17
  -5   3  -7  227.52   21.80
   5  -3   7  202.31   23.11
   5   3   7  252.89   22.75
  -5   3   7  223.64   22.15
   5   3   7  238.91   23.05
   5   3   8   12.62    4.68
   5   3  -8    8.96    4.38
  -5   3   8   12.87    5.05
  -5  -3   8   11.10    5.46
   5  -3   8   13.49    5.98
   5   3   8    9.73    5.41
   5   3   8   10.66    3.57
   5   3   9   24.20    8.63
   5  -3   9   30.98    9.71
  -5   3   9   41.33    9.62
  -5  -3   9   25.28    7.87
   5   3  -9   27.27    7.50
   5   3   9   26.53    7.37
   5  -3   9   13.18    9.58
   5   3   9   35.96    6.39
  -5   3  10   20.98    7.99
  -5  -3  10   18.33    6.78
   5   3 -10   22.77    7.11
   5  -3  10   11.48    7.05
   5   3  10    8.10    3.76
   5  -3  10    0.55    3.76
   5   3  10   29.08    6.74
  -5   3  11    0.03    2.73
   5   3  11    8.77    4.09
  -5  -3  11   10.26    3.86
   5   3 -11    5.57    4.31
   5  -3  11    4.35    2.93
   5   3  11    4.55    3.28
   5  -3  11   -1.39    2.71
  -5   3  12    2.23    2.98
   5   3  12   -3.21    1.89
  -5  -3  12    0.66    1.98
   5  -3  12    3.86    5.16
   5   3 -12    6.14    3.79
   5   3  12   -0.09    5.30
   5  -3  12    0.85    3.23
  -5  -3  12    4.74    2.26
  -5  -3  13  168.58   22.02
  -5   3  13  160.94   21.87
   5   3 -13  156.18   19.54
   5  -3  13  178.29   22.81
   5   3  13  126.54   19.88
   5  -3  13  147.90   19.59
  -5  -3  13  140.71   19.20
   5   3 -14    2.34    2.89
  -5  -3  14    2.25    5.81
   5  -3  14    1.47    1.08
   5   3  14    0.22    4.25
   5  -3  14   -3.33    1.95
  -5  -3  14    0.89    2.12
  -5   3  14    5.17    6.21
  -5  -3  15  178.60   23.69
   5   3 -15  160.40   22.58
   5  -3  15  222.19   26.61
   5   3  15  150.46   22.07
   5  -3  15  187.31   23.72
  -5  -3  15  139.39   20.14
  -5  -3  16   24.48    9.50
   5   3 -16   10.39    6.94
   5  -3  16   12.42    5.90
   5   3  16   36.95   12.16
  -5   3  16    7.92    9.12
  -5  -3  16   33.05   10.02
   5  -3  16   33.36   11.02
  -5  -3  17    5.49    5.80
   5  -3  17   12.52    7.97
   5   3 -17   -0.02    3.44
   5   3  17    1.28    4.91
  -5   3  17   -1.31    4.31
  -5  -3  17    0.86    3.40
   5  -3  17    0.88    2.54
  -5  -3  18   -3.69    4.83
   5  -3  18   -0.09    1.91
   5   3 -18   -0.90    3.65
   5   3  18    0.88    5.07
  -5   3  18   -1.43    2.64
  -5  -3  18   -6.26    6.15
   5  -3  18   -4.26    6.54
  -5  -3  19   15.86    7.60
   5  -3  19   29.61   10.90
   5   3 -19    6.70    3.06
   5   3  19   25.27    9.62
  -5   3  19   17.15    8.21
  -5  -3  19   17.18    7.12
   5  -3  19   22.46    9.37
  -5  -3  20   18.01    7.10
   5  -3  20    9.48    2.62
   5   3 -20   15.38    8.66
  -5   3  20   17.45    6.13
   5   3  20   21.51    8.72
  -5  -3  20   12.73    7.04
   5  -3  20   19.59    7.16
  -5   3  20   19.33   10.31
  -5  -3  21   20.85    8.79
   5  -3  21    5.05    5.09
   5   3 -21    6.92    6.23
  -5   3  21   32.78   14.21
   5   3  21   16.38   11.05
  -5  -3  21    2.78    4.93
  -5   3  21   19.01    8.18
   5  -3  21   13.21    8.08
  -5  -3  22    5.92    6.45
  -5   3  22    7.60    4.78
   5  -3  22    6.12    1.23
   5   3 -22    9.49    8.81
   5   3  22   -4.19    6.08
  -5  -3  22    2.92    6.26
  -5   3  22    5.28    3.51
   5  -3  22    1.45    4.87
  -5  -3  23   25.38   11.59
   5  -3  23   21.62    8.99
  -5   3  23   26.86   14.05
   5   3 -23    8.67    3.78
   5   3  23   23.58   10.21
  -5  -3  23   36.85   13.45
  -5   3  23   45.54   12.81
   5  -3  23   26.25   11.68
  -5  -3  24   70.79   16.20
   5   3 -24   89.76   19.70
  -5   3  24   68.64   17.25
   5  -3  24   23.76    8.39
   5   3  24   53.77   16.12
  -5  -3  24   46.68   13.64
  -5   3  24   71.13   17.99
   5  -3  24   61.14   16.01
  -5  -3  25   -5.45    9.65
  -5   3  25   12.13    7.23
   5  -3  25   16.01   10.89
   5   3  25   13.69    9.09
  -5  -3  25   12.87   10.32
  -5   3  25    2.49    3.46
   5  -3  25   15.50    8.34
  -5  -3  26   -2.47    5.43
  -5   3  26    6.57    1.66
   5  -3  26    0.53    3.74
   5   3  26    3.26    6.77
  -5  -3  26    0.49    7.18
  -5   3  26    6.23    8.44
   5  -3  26    0.63    2.37
  -5  -3  27    8.86    6.70
  -5   3  27   33.52   14.15
   5  -3  27   35.39   15.37
   5   3  27   24.20    9.13
  -5  -3  27   21.38    9.72
  -5   3  27   29.61   11.93
   5  -3  27   35.17   13.73
  -5  -3  28    3.64    6.15
  -5   3  28   -3.22    3.34
   5  -3  28    0.62    5.64
   5   3  28    3.16    1.23
  -5  -3  28    8.67    9.73
  -5   3  28    1.67    4.00
   5  -3  28    0.18    4.82
  -5  -3  29    7.79    8.81
  -5   3  29    2.81    8.27
   5  -3  29    8.01    2.91
   5   3  29   19.80    9.81
  -5  -3  29   14.81   10.47
  -5   3  29   25.74   14.49
   5  -3  29   15.01   11.28
   5   4   0    2.01    2.49
  -5   4   0    0.24    1.17
   5  -4   0    1.08    4.48
  -5   4   0    2.75    3.99
   5   4   1  264.98   22.23
   5   4  -1  319.96   23.56
  -5   4   1  287.85   19.10
  -5   4   1  310.49   24.92
   5  -4   1  271.14   27.82
   5   4   1  313.09   21.78
  -5   4  -1  329.89   25.71
  -5   4  -2    8.31    4.31
   5   4   2    6.16    3.35
  -5   4   2    5.50    5.03
  -5   4   2    5.92    3.63
   5   4  -2    5.85    2.67
  -5   4  -2    3.12    4.02
   5   4   2    7.18    4.10
  -5  -4   2    6.37    2.52
   5  -4   2    8.18    4.15
   5   4   3    2.00    2.17
   5  -4   3   -0.11    0.96
  -5   4   3    0.80    1.51
   5   4  -3    5.24    4.82
  -5   4  -3    3.82    1.57
   5   4   3    2.97    1.39
  -5   4  -3    2.26    3.18
  -5   4   3   -0.84    3.14
  -5  -4   3    2.71    1.72
  -5   4   4   96.04   10.54
  -5   4   4   65.08   12.41
   5   4   4   75.56   11.21
   5   4  -4   98.93   13.44
   5  -4   4   67.58   13.20
  -5   4  -4   27.15    6.24
  -5  -4   4   93.41   10.63
  -5   4  -4   53.59   10.18
   5   4   4   66.57   11.15
  -5   4  -5   43.48   10.32
   5   4   5   15.30    4.85
  -5   4   5   20.03    5.27
   5   4  -5   20.04    5.71
   5  -4   5   30.88    9.83
  -5   4  -5   30.47    7.63
   5   4   5   33.42    7.48
  -5  -4   5   30.66    7.05
  -5   4   5   37.14    9.90
  -5   4  -6  516.91   34.42
   5   4  -6  388.28   25.81
   5   4   6  478.80   29.29
  -5   4  -6  272.52   23.23
   5  -4   6  428.04   35.93
  -5  -4   6  495.40   28.50
  -5   4   6  494.96   35.53
  -5   4   6  402.08   23.38
   5   4   6  212.64   21.85
   5   4  -7  299.34   23.41
  -5   4  -7  347.38   28.69
   5  -4   7  401.00   33.87
   5   4   7  299.55   24.11
  -5   4   7  427.43   33.33
  -5  -4   7  345.09   25.19
  -5   4   7  416.32   24.40
   5   4   7  303.05   26.35
   5   4  -8  114.94   14.91
   5  -4   8  107.77   16.12
  -5   4  -8  108.57   15.68
   5   4   8   95.32   14.35
  -5   4   8   86.90   15.44
  -5  -4   8   88.42   13.76
  -5   4   8  123.98   14.39
   5   4   8  103.15   16.07
   5   4   9   55.57   11.39
   5   4  -9   85.54   13.06
   5  -4   9  120.33   18.43
  -5   4  -9   75.16   13.28
   5   4   9   71.68   12.82
  -5   4   9   74.72   13.94
  -5  -4   9   54.25   10.98
  -5   4   9   96.28   13.22
   5   4  10    1.45    3.31
  -5  -4  10   -0.25    3.51
  -5   4  10    0.02    2.79
   5   4 -10   -1.73    2.42
   5  -4  10   -0.49    5.02
   5   4  10   -0.74    2.58
   5  -4  10   -0.63    2.53
  -5  -4  10   -0.51    2.75
   5   4  11    2.74    2.14
  -5   4  11    4.64    2.88
  -5  -4  11   15.20    6.04
   5   4 -11   -1.07    2.14
   5  -4  11    6.82    3.11
   5   4  11    2.35    2.64
   5  -4  11   10.06    6.07
  -5  -4  11   10.22    6.41
   5   4 -12  100.36   15.92
   5  -4  12  169.73   24.21
  -5   4  12  176.32   22.93
   5  -4  12  149.18   19.22
  -5  -4  12  130.59   17.20
  -5  -4  12  124.89   19.28
   5   4  12  134.42   22.09
  -5   4  13   11.63    5.04
  -5  -4  13   13.84    5.71
   5   4 -13    7.26    4.63
   5  -4  13   35.23   10.89
   5   4  13   13.15    5.97
   5  -4  13   28.76    8.05
  -5  -4  13   14.66    6.74
  -5   4  14   30.24   11.53
  -5  -4  14   40.48   11.18
   5   4 -14   37.71    8.98
   5  -4  14   34.37    9.93
   5   4  14   34.95   11.31
   5  -4  14   30.85    8.99
  -5  -4  14   27.42    7.81
  -5  -4  15    5.71    4.59
   5   4 -15    2.31    3.70
   5  -4  15    0.47    4.85
   5   4  15    7.67    5.92
   5  -4  15    1.23    3.67
  -5  -4  15    6.50    4.86
  -5   4  15    6.19    2.19
  -5   4  16  235.42   28.64
   5   4 -16  220.10   25.31
   5  -4  16  229.88   27.28
   5   4  16  174.50   23.54
   5  -4  16  180.02   24.11
  -5  -4  16  203.63   27.30
  -5   4  17  135.74   22.98
   5  -4  17   80.07   16.64
   5   4  17  132.83   21.99
   5   4 -17   66.97   14.18
   5  -4  17  105.56   19.42
  -5  -4  17   92.11   18.15
  -5  -4  17   91.04   18.14
  -5  -4  18    3.46    5.60
   5   4 -18    0.88    5.05
   5  -4  18    5.42    4.16
   5   4  18    2.59    3.94
  -5   4  18    4.65   10.21
  -5  -4  18   -0.02    1.85
   5  -4  18    9.54    6.67
  -5  -4  19   48.80   15.39
   5   4  19   75.14   17.06
   5   4 -19   58.31   14.87
   5  -4  19   68.71   14.84
  -5   4  19   63.54   15.41
  -5  -4  19   43.59   10.79
   5  -4  19   40.06   12.63
  -5  -4  20   -3.57    6.97
   5   4 -20   12.30   11.63
   5  -4  20    3.19    4.90
   5   4  20   -2.87    6.75
  -5   4  20    6.56    6.44
  -5  -4  20    7.11    8.62
   5  -4  20    1.56    3.93
  -5  -4  21   17.08    5.99
   5   4 -21    5.45    5.52
   5  -4  21    0.52    3.53
   5   4  21    8.15    7.11
  -5   4  21   -0.17    3.75
  -5  -4  21    9.08    1.30
   5  -4  21    3.44    3.99
  -5   4  21    4.67    6.53
  -5  -4  22    0.84    2.47
   5   4 -22   -1.04    3.40
   5  -4  22   -4.40    1.99
  -5   4  22   -3.10    4.85
   5   4  22    2.32    7.47
  -5  -4  22    2.78    7.85
   5  -4  22    5.93    7.65
  -5   4  22    0.15    3.56
  -5   4  23  261.82   34.77
   5   4 -23  245.11   32.04
   5  -4  23  203.13   28.54
   5   4  23  279.46   35.19
  -5   4  23  222.89   31.96
  -5  -4  23  257.69   33.03
  -5  -4  24   -0.17    5.29
   5   4 -24    1.73    4.62
  -5   4  24    1.84    3.47
   5  -4  24    2.91    4.21
   5   4  24    1.59    2.94
  -5  -4  24   -2.54    5.06
  -5   4  24   -2.35    5.38
   5  -4  24    5.20    4.56
  -5  -4  25    2.79    1.17
  -5   4  25    6.05    5.10
   5  -4  25   -3.45    5.72
   5   4  25   -4.23    5.97
  -5  -4  25    6.91    5.72
  -5   4  25    5.82    7.76
   5  -4  25    5.78    4.30
  -5  -4  26   18.09    9.16
   5  -4  26   25.17   10.30
  -5   4  26   17.95   11.45
   5   4  26   -1.24    3.91
  -5  -4  26   17.21    8.60
  -5   4  26    6.05    4.65
   5  -4  26    4.48    5.62
  -5  -4  27    4.44    4.70
  -5   4  27   -6.37   10.71
   5  -4  27    2.62    6.23
   5   4  27    3.16    4.43
  -5  -4  27    5.82    4.24
  -5   4  27    5.91    8.17
   5  -4  27    3.72    4.82
  -5  -4  28    2.08    3.35
  -5   4  28    4.03    6.68
   5  -4  28    1.35    5.81
   5   4  28    0.65    4.03
  -5  -4  28    1.38    5.71
  -5   4  28    4.29    4.79
   5  -4  28    0.67    1.38
  -5  -4  29    1.97    5.34
  -5   4  29    4.64    9.88
   5  -4  29    3.63    6.43
   5   4  29    1.97    2.98
  -5  -4  29    3.68    7.25
  -5   4  29   -2.46    5.91
   5  -4  29    0.09    6.68
   5   5   0    1.50    2.92
  -5   5   0   -1.13    1.74
   5  -5   0    0.76    2.06
  -5   5   0    0.98    2.31
   5   5   1  351.15   28.16
   5   5  -1  233.78   13.60
   5   5  -1  418.48   30.35
  -5   5   1  343.25   24.29
  -5   5  -1  421.60   26.00
  -5   5   1  323.01   27.24
   5   5   1  335.92   20.20
   5  -5   1  188.62   23.67
  -5   5  -1  412.00   30.83
   5   5   2  242.87   23.04
  -5   5   2  194.47   18.03
   5   5  -2  157.64   18.77
   5  -5   2  120.71   20.03
  -5   5  -2  222.74   19.82
  -5   5   2  194.92   21.13
   5   5   2  154.92   13.82
  -5   5  -2  172.12   20.03
  -5  -5   2  188.99   12.89
  -5   5   3    9.19    5.96
   5   5   3    5.55    3.74
  -5   5   3    2.65    1.82
   5   5  -3    3.65    2.81
  -5   5  -3   10.66    4.56
  -5   5  -3    5.93    4.13
   5  -5   3    5.12    6.75
   5   5   3    1.82    0.56
  -5  -5   3    6.60    2.57
   5   5   4   26.38    7.85
  -5   5   4   24.87    5.60
   5   5  -4   35.06    8.98
  -5   5  -4   14.81    4.75
   5  -5   4   33.46    9.14
   5   5   4   20.80    5.81
  -5   5  -4   22.58    7.00
  -5  -5   4   17.29    4.93
  -5   5   5   90.01   12.59
  -5   5   5   69.70   13.81
   5   5   5   28.51    7.61
   5   5  -5   76.08   13.21
  -5   5  -5   46.59    9.70
   5  -5   5   76.42   16.43
   5   5   5  101.35   12.58
  -5  -5   5   81.83   11.25
  -5   5  -5   68.04   12.66
  -5   5   6  111.16   14.18
  -5   5  -6  164.19   20.27
   5   5  -6  201.01   20.14
  -5   5  -6  178.46   19.13
   5   5   6  155.55   16.16
  -5  -5   6  175.90   18.11
  -5   5   6  221.66   24.05
   5   5   6  176.04   20.88
  -5   5  -7  166.00   20.49
   5   5  -7  183.69   20.09
  -5   5  -7  146.86   17.62
   5  -5   7  168.88   23.10
   5   5   7  176.95   17.90
  -5  -5   7  181.16   18.97
  -5  -5   7  134.31   14.15
  -5   5   7  214.15   24.68
   5   5   7  176.44   20.94
  -5   5   7  137.59   15.32
   5   5  -8   50.95   10.75
  -5   5  -8   92.91   16.01
  -5   5  -8  116.88   16.62
   5  -5   8   99.19   17.89
   5   5   8  112.17   15.66
  -5  -5   8   86.74   11.04
  -5  -5   8  112.64   15.33
  -5   5   8  139.76   19.69
  -5   5   8  155.84   17.08
   5   5   8   82.24   14.81
  -5   5   9    7.23    3.23
   5   5   9   18.27    6.88
  -5  -5   9    8.21    4.20
  -5   5   9    4.01    2.09
   5   5  -9    7.08    3.23
   5  -5   9    8.37    7.77
  -5   5  -9   12.48    6.04
   5   5   9    7.26    3.51
  -5  -5   9   13.92    4.83
  -5   5  10   10.26    5.34
   5   5  10    4.96    6.43
  -5  -5  10   13.31    5.59
  -5   5  10    7.70    6.18
   5   5 -10   11.62    6.09
   5  -5  10    5.51    6.84
  -5   5 -10    4.60    3.29
   5   5  10   11.33    6.51
  -5  -5  10   20.76    5.51
   5   5  11   53.96   12.95
  -5   5 -11   37.68   10.01
  -5   5  11   51.90   11.82
   5   5 -11   57.53   12.61
   5  -5  11   49.56   12.07
   5   5  11   58.79   12.10
  -5  -5  11   58.40   12.94
  -5  -5  11   46.30    9.22
  -5   5  11   50.26   11.46
   5   5 -12  139.23   19.91
   5  -5  12  190.52   24.56
  -5   5 -12  268.60   28.60
   5   5  12  257.49   27.07
  -5   5  12  233.63   27.22
   5  -5  12  207.58   24.11
  -5  -5  12  199.82   21.32
  -5  -5  12  205.27   23.98
  -5   5  12  293.24   28.39
   5   5  12  189.95   25.21
   5   5  13    4.46    5.56
  -5   5  13    5.91    6.17
  -5  -5  13    1.85    4.83
   5   5 -13    3.52    3.40
   5  -5  13    3.68    1.67
  -5   5 -13    2.26    2.33
   5   5  13    1.20    3.49
   5  -5  13    1.85    0.32
  -5  -5  13   -2.26    1.13
  -5   5  14   11.51    8.11
  -5  -5  14    3.26    4.91
   5   5 -14   -0.35    2.99
   5  -5  14    0.29    5.07
  -5   5 -14    5.78    5.18
   5   5  14    0.85    3.13
   5  -5  14    6.63    4.90
  -5  -5  14    0.56    3.40
   5   5  14    2.02    2.81
  -5   5  15    5.55    4.71
  -5  -5  15   24.37    8.06
   5   5 -15   19.94    6.82
   5  -5  15    9.55    2.92
  -5   5 -15    0.29    4.05
   5   5  15   17.01    7.92
   5  -5  15   13.64    6.77
  -5  -5  15   21.37    7.53
  -5   5  16   33.24   12.45
  -5  -5  16   24.81    8.01
   5   5 -16   19.61    7.37
   5  -5  16   31.86   11.65
   5   5  16   20.04    7.92
   5  -5  16   27.33    8.79
  -5  -5  16   21.00    7.99
  -5  -5  17    1.79    5.49
   5   5 -17    1.13    3.74
   5  -5  17   -2.46    4.73
   5   5  17    2.52    0.63
   5  -5  17    2.52    1.99
  -5  -5  17    4.81    6.97
  -5   5  17   -3.76    5.87
  -5  -5  18   27.29   10.53
   5   5 -18   14.22    6.01
   5  -5  18   15.21    7.64
   5   5  18    5.43    2.72
  -5  -5  18   13.99    4.56
   5  -5  18   15.61    7.67
  -5   5  18    9.47   12.78
  -5  -5  19    3.41    3.68
   5   5 -19   10.83    7.57
   5  -5  19   -1.15    6.11
   5   5  19    2.69    6.32
  -5  -5  19    0.55    4.06
   5  -5  19   -5.48    4.48
  -5   5  19    0.31    2.48
  -5  -5  20    0.95    3.68
   5   5 -20   -0.32    2.71
   5  -5  20    1.45    4.34
   5   5  20   -0.39    5.33
  -5   5  20   -2.16    6.14
  -5  -5  20   -8.86    6.43
   5  -5  20    6.57    8.80
   5   5 -21   48.26   13.66
  -5  -5  21   50.53   13.72
   5  -5  21   59.41   14.93
   5   5  21   88.45   16.71
  -5   5  21   54.06   14.28
  -5  -5  21   46.28   12.68
   5  -5  21   39.36   12.49
  -5  -5  22    6.52    5.07
   5   5 -22   13.71    6.71
   5  -5  22    5.79    4.59
   5   5  22    7.27    6.55
  -5   5  22   12.22    8.72
  -5  -5  22    7.12    4.22
   5  -5  22    9.67    5.43
  -5   5  22    1.68    5.33
  -5  -5  23   37.21   11.89
   5   5 -23    3.38    5.09
   5  -5  23   22.14    7.27
  -5   5  23   32.84   13.04
   5   5  23   46.58   15.07
  -5  -5  23   25.34    8.94
   5  -5  23   28.86   12.68
  -5   5  23   24.23   12.07
  -5  -5  24   33.78   12.90
   5   5 -24   46.93   14.62
   5  -5  24   33.18   11.25
  -5   5  24   62.25   16.80
   5   5  24   26.93   11.56
   5  -5  24   20.50    9.50
  -5   5  24   54.96   15.99
  -5  -5  25   -1.06    3.98
   5   5 -25    3.68    8.46
   5  -5  25    4.06    2.82
  -5   5  25   -4.63    5.17
   5   5  25    4.01    4.77
   5  -5  25    4.69    5.23
  -5   5  25   -0.45    3.56
  -5  -5  26   -3.39    7.33
  -5   5  26   36.71   13.50
   5  -5  26   26.20   12.00
   5   5  26   30.82   12.66
   5  -5  26   16.88    9.39
  -5   5  26   21.31   12.58
  -5  -5  27   -4.59    8.89
  -5   5  27    8.14    8.97
   5  -5  27   -0.41    6.54
   5   5  27  -12.52    6.65
   5  -5  27    2.58    5.64
  -5   5  27    0.54    1.85
  -5  -5  28    9.58    8.97
  -5   5  28    9.44   10.78
   5  -5  28   16.13    8.43
   5   5  28    1.10    6.70
  -5   5  28    3.55    2.17
   5  -5  28    4.44    7.65
   5   6   0   -0.88    1.02
  -5   6   0    2.29    2.90
  -5   6   0   -0.78    3.90
   5   6   1  609.83   39.30
   5   6  -1  412.75   32.50
  -5   6   1  642.91   36.23
  -5   6  -1  337.85   26.63
  -5   6   1  509.48   35.84
   5  -6   1  513.17   38.53
  -5   6  -1  444.85   33.84
   5   6   2  227.32   25.44
  -5   6   2  285.10   24.52
   5   6  -2  246.03   25.51
  -5   6  -2  177.25   19.12
  -5   6   2  236.21   24.70
  -5   6  -2  233.85   24.07
   5  -6   2  283.69   30.18
   5   6   3  338.35   29.71
  -5   6   3  276.47   24.25
   5   6  -3  250.39   25.61
  -5   6   3  302.21   27.80
   5  -6   3  321.52   32.88
  -5   6  -3  254.75   25.18
   5   6   4   77.62   14.48
  -5   6   4   66.59   11.57
  -5   6   4   89.81   14.87
   5   6  -4   92.53   15.34
  -5   6  -4   87.95   13.48
   5  -6   4  120.89   20.15
  -5  -6   4   81.92   11.39
   5   6   5  166.95   20.89
  -5   6   5  173.98   19.23
  -5   6   5  175.39   21.64
   5   6  -5  146.72   19.57
  -5   6  -5  151.97   18.45
   5  -6   5  155.33   21.23
  -5  -6   5  146.65   16.27
  -5   6  -5  131.41   19.30
   5   6   6    9.87    4.59
  -5   6   6    5.59    2.85
  -5   6  -6   12.61    6.05
   5   6  -6    7.72    5.61
   5   6   6   21.27    8.12
   5  -6   6   28.96    9.22
  -5   6  -6   15.98    6.06
  -5   6   6   11.66    7.12
  -5  -6   6    3.33    1.44
   5   6   7   30.22    9.13
  -5   6   7   13.67    5.55
   5   6  -7   23.54    8.70
   5  -6   7   33.11   11.84
  -5   6  -7   31.72    8.06
   5   6   7    5.76    3.05
  -5   6   7   25.55    8.66
  -5   6  -7   18.99    7.55
  -5  -6   7   27.86    7.96
   5   6   8   26.95    8.43
   5   6  -8   29.42    8.24
  -5   6  -8   62.46   12.94
   5   6   8   57.57   11.09
   5  -6   8   45.37   12.32
  -5   6  -8   43.27    9.96
  -5  -6   8   61.26   11.52
  -5   6   8   70.43   14.90
  -5   6   8   44.82    9.80
   5   6  -9  214.27   23.77
  -5   6  -9  230.43   26.63
  -5   6  -9  168.79   21.58
   5  -6   9  268.40   30.01
   5   6   9  302.80   26.10
  -5  -6   9  232.61   24.53
  -5   6   9  271.16   28.82
  -5   6   9  217.64   23.25
   5   6   9  274.82   27.95
  -5  -6  10    5.14    3.80
  -5   6  10    5.32    2.44
   5   6  10   15.81    6.46
  -5   6  10    2.90    6.42
   5   6 -10    9.07    6.79
   5  -6  10    2.52    2.65
  -5   6 -10    2.55    3.69
   5   6  10    0.77    3.54
   5   6 -11   60.36   13.09
  -5   6  11   43.52   12.32
   5  -6  11   52.63   14.13
  -5   6 -11   46.91   11.11
   5   6  11   52.57   11.55
  -5  -6  11   54.76   11.77
  -5   6  11   93.10   15.18
   5   6  11   59.80   14.11
  -5   6 -12  196.03   25.98
   5  -6  12  174.72   23.87
   5   6  12  158.52   22.43
  -5   6  12  152.43   22.63
  -5  -6  12  160.13   20.17
  -5   6  12  136.99   19.60
   5   6  12  216.77   26.98
  -5   6  13   37.09    9.43
   5   6  13   30.32   10.96
  -5   6  13   54.11   13.74
   5  -6  13   64.02   15.66
   5   6 -13   28.20   10.01
   5   6  13   51.84   13.80
  -5   6 -13   57.90   14.42
   5  -6  13   11.30   10.31
  -5  -6  13   66.71   14.61
   5   6  14    2.24    4.75
  -5  -6  14    6.21    4.17
  -5   6  14   19.16    9.05
   5   6 -14    7.71    7.25
   5  -6  14   10.59    6.98
  -5   6 -14    0.33    2.70
   5   6  14   10.64    5.12
   5  -6  14    3.88    4.75
  -5   6  14   12.24    5.97
   5   6 -15  221.05   27.53
  -5   6 -15  113.63   20.67
   5  -6  15  211.61   27.46
  -5   6  15  140.19   22.63
   5   6  15  121.30   20.21
   5  -6  15  140.41   22.02
  -5  -6  15  121.18   20.55
   5   6  15  153.60   25.00
  -5   6  16   -1.49    4.61
  -5  -6  16   -5.34    4.43
   5   6 -16    0.71    2.15
   5  -6  16   -4.76    4.96
  -5   6 -16   -1.39    4.44
   5   6  16    2.59    3.64
   5  -6  16   -1.30    2.64
   5   6  16    0.08    3.73
  -5   6  17    6.32    6.47
  -5  -6  17    2.91    6.46
   5   6 -17   -3.75    4.74
   5  -6  17   11.61    8.18
  -5   6 -17   16.70    8.26
   5   6  17    3.00    5.27
   5  -6  17    3.65    2.80
  -5  -6  18   -3.47    3.30
   5   6 -18   -0.48    2.06
   5  -6  18  -10.04    8.37
  -5   6 -18    4.91    7.55
   5   6  18   -0.05    4.02
   5  -6  18    0.12    5.57
  -5   6  18    1.78    2.17
  -5  -6  19   10.00    1.91
   5   6 -19    2.27    4.93
   5  -6  19    3.38    5.29
  -5   6 -19   -2.34    6.48
   5   6  19   11.74    9.25
   5  -6  19    5.77    5.13
  -5   6  19    6.13    7.14
  -5   6  20  150.40   26.00
   5   6 -20  126.67   21.76
   5  -6  20  183.54   27.10
   5   6  20  182.49   26.89
   5  -6  20  123.13   21.74
  -5  -6  20  105.30   20.67
  -5  -6  21    0.60    2.15
   5   6 -21    3.54    4.82
   5  -6  21    5.92    9.60
  -5   6 -21    1.41    4.67
   5   6  21    6.22    5.24
  -5   6  21   11.80   10.07
   5  -6  21   -0.49    1.37
  -5   6  22  160.02   26.83
   5   6 -22  111.74   23.34
  -5   6 -22  143.51   24.69
   5  -6  22  132.37   23.37
   5   6  22  125.00   24.19
   5  -6  22  129.16   22.77
  -5  -6  22  152.58   25.23
  -5   6  22  152.99   26.93
  -5  -6  23   30.32   10.86
   5   6 -23    5.48    7.37
   5  -6  23   16.49    8.02
  -5   6 -23   33.95   12.83
   5   6  23   19.45   10.26
  -5   6  23   10.95   10.52
   5  -6  23    6.54    2.62
  -5   6  23   21.42   10.15
  -5  -6  24   23.09   11.17
   5   6 -24    6.89    7.80
   5  -6  24   12.66    5.97
  -5   6 -24   20.08    9.84
   5   6  24   21.45   12.36
  -5   6  24   12.71    6.18
   5  -6  24   22.19   10.12
  -5   6  24   24.75   10.89
  -5  -6  25   -3.65    4.06
   5   6 -25   33.36   13.98
   5  -6  25    7.23    4.34
  -5   6 -25    6.48    8.14
  -5   6  25   29.61   12.25
   5   6  25   10.65    9.41
   5  -6  25   12.21    7.75
  -5   6  25    4.30    3.57
  -5  -6  26   11.04    7.54
   5  -6  26    0.91    9.66
  -5   6 -26    9.63    8.97
  -5   6  26    0.82    6.25
   5   6  26   14.38    8.75
   5  -6  26   12.57    7.50
  -5   6  26    5.78    2.67
  -5  -6  27   18.80    8.25
   5  -6  27   15.77    9.96
  -5   6  27   38.95   14.27
  -5   6 -27    7.32    3.72
   5   6  27    9.43    9.30
   5  -6  27   16.15   11.78
  -5   6  27   22.14   11.60
   5   7   0    2.66    4.79
  -5   7   0   -3.38    4.94
  -5   7   0   -1.70    1.53
   5   7  -1   66.81   14.21
  -5   7   1   48.24   11.38
   5   7   1   43.85   10.57
  -5   7  -1   44.92   10.74
  -5   7   1   42.17    9.86
  -5   7  -1   34.55    9.17
   5   7   2  489.25   38.33
  -5   7   2  344.12   29.72
   5   7  -2  462.23   37.17
  -5   7  -2  384.31   30.12
  -5   7   2  483.47   36.71
   5  -7   2  504.09   41.06
  -5   7  -2  525.71   38.91
   5   7   3  154.93   21.58
  -5   7   3  148.56   18.86
   5   7  -3  138.33   19.90
  -5   7   3  184.94   23.08
   5  -7   3  212.63   26.78
  -5   7  -3  155.23   21.08
   5   7   4  188.24   23.51
  -5   7   4  126.74   17.06
   5   7  -4  151.52   21.47
  -5   7   4  126.62   19.49
  -5   7  -4  104.47   16.63
   5  -7   4  112.35   20.59
  -5   7  -4  132.92   19.57
  -5   7   5   54.47   11.90
   5   7   5   58.00   12.60
   5   7  -5   46.66   11.81
  -5   7  -5   41.29   10.03
   5  -7   5   27.72   11.75
  -5   7  -5   47.69   12.03
  -5  -7   5   19.66    7.36
  -5   7   5   29.51    8.52
  -5   7  -6    2.28    1.76
  -5   7  -6    4.75    6.93
   5   7   6    3.06    3.74
  -5   7   6    8.26    4.88
   5   7  -6    3.27    3.09
   5  -7   6   10.69    8.80
  -5  -7   6   -1.49    1.71
  -5   7   6    4.14    2.77
   5   7   7   -3.36    4.74
  -5   7   7   -0.57    0.49
  -5   7  -7   -1.28    0.62
   5   7  -7    0.29    3.59
  -5   7  -7   -2.53    1.12
   5  -7   7    0.77    1.03
  -5   7   7   -3.93    4.74
  -5  -7   7    0.26    2.97
   5   7   8   46.00   11.68
  -5   7   8   28.11    9.26
  -5   7  -8   70.45   15.98
   5   7  -8   35.04   10.56
   5  -7   8   43.85   13.07
  -5   7   8   50.05   13.11
  -5  -7   8   55.16   12.04
  -5   7  -8   49.50   12.08
  -5   7  -9  179.61   23.23
   5   7  -9  137.56   19.48
  -5   7  -9  193.94   24.12
   5  -7   9  158.21   23.99
  -5  -7   9  213.44   23.43
  -5   7   9  241.95   28.69
   5   7   9  197.17   24.25
  -5   7   9  216.70   23.71
   5   7  10   -1.09    4.33
  -5   7  10    1.52    2.08
  -5   7 -10    0.69    3.35
  -5   7  10    2.69    2.73
   5   7 -10   -1.67    4.79
   5  -7  10    2.61    3.77
  -5   7 -10    0.77    1.57
  -5  -7  10    8.72    6.16
  -5   7  11   54.05   12.53
  -5   7 -11   72.21   14.54
   5   7 -11   65.37   14.40
  -5   7  11   65.07   14.81
   5  -7  11   53.97   15.15
  -5   7 -11   54.86   13.80
   5   7  11   80.49   16.06
  -5  -7  11   46.69   10.65
  -5  -7  12   20.95    8.23
  -5   7  12   29.98    9.43
   5   7  12   22.69    7.78
  -5   7  12   18.30    8.70
   5  -7  12   23.89    9.25
  -5   7 -12   17.35    7.82
   5   7 -12   18.71    6.57
  -5  -7  13   58.00   13.58
   5   7  13   69.94   14.97
  -5   7  13   69.82   16.71
   5   7 -13   68.67   14.49
   5  -7  13   93.01   19.26
  -5   7 -13   68.97   14.66
  -5   7  13   66.28   16.43
  -5   7  14   83.41   16.22
  -5  -7  14   65.94   14.78
   5   7  14   61.80   15.72
  -5   7  14   57.23   15.46
   5   7 -14   60.27   14.19
   5  -7  14   66.64   16.36
  -5   7 -14   73.32   15.87
  -5   7  15   18.27    8.73
   5   7  15   11.93    6.85
  -5  -7  15   22.57    9.98
   5  -7  15   -3.25    1.31
  -5   7  15   27.33   12.45
   5   7 -15   22.07    7.04
   5  -7  15   12.26    7.92
  -5   7 -15    7.80    3.96
   5   7  15  -10.79    5.96
   5   7  16   13.93    8.46
  -5  -7  16    5.79    5.67
  -5   7  16   16.29    7.94
   5   7 -16    2.69    3.07
   5  -7  16   20.74   10.01
  -5   7 -16   27.51   10.58
   5  -7  16    6.68    3.37
   5   7  17    9.24    7.30
  -5  -7  17   -2.61    0.97
  -5   7  17   -1.21    5.66
   5   7 -17    1.84    3.89
   5  -7  17   -1.83    3.43
  -5   7 -17    2.61    4.76
   5   7  17   12.20   11.17
   5  -7  17    3.16    3.98
  -5   7  18   -2.85    7.29
  -5  -7  18    0.37    4.97
   5   7 -18   -0.21    3.18
   5  -7  18   -0.51    3.13
  -5   7 -18    0.34    3.86
   5   7  18    3.48    7.21
   5  -7  18   -2.21    4.57
   5   7  18    8.39    6.93
  -5  -7  19   -1.55    5.22
   5   7 -19    1.58    3.68
   5  -7  19    0.24    3.01
  -5   7 -19    7.94    7.12
   5   7  19   16.85   13.42
   5  -7  19   -1.77    4.77
  -5   7  19    6.92    2.92
  -5  -7  20    1.28    4.29
   5   7 -20   -1.72    1.46
   5  -7  20    6.00    6.21
  -5   7 -20    1.14    4.61
   5   7  20    8.47    8.26
   5  -7  20    4.51    3.93
  -5   7  20   -4.31    4.55
  -5  -7  21    4.70    7.21
   5   7 -21    3.53    3.46
   5  -7  21   18.88    9.47
  -5   7 -21   10.81    9.64
   5   7  21   13.44   10.81
   5  -7  21    4.67    3.57
  -5   7  21    3.18    8.40
  -5  -7  22    1.83    2.00
   5   7 -22   -0.64    1.84
   5  -7  22    3.98    5.92
  -5   7 -22   -0.57    3.69
   5   7  22   11.90   12.11
   5  -7  22   -1.58    1.37
  -5   7  22    7.02    6.70
  -5   7  22   -0.65    7.05
  -5  -7  23   -7.15    9.94
   5   7 -23    4.50    6.12
   5  -7  23    6.24    7.29
  -5   7 -23   -0.79    3.89
   5   7  23   21.09   10.42
  -5   7  23    3.34    1.27
   5  -7  23    4.85    5.75
  -5   7  23   15.78    9.76
  -5  -7  24   16.72    8.52
   5   7 -24   10.57    7.23
   5  -7  24   18.52    8.99
  -5   7 -24   33.75   12.89
   5   7  24    8.39    8.26
  -5   7  24   10.89   10.21
   5  -7  24    7.24    5.37
  -5   7  24    9.03    6.76
  -5  -7  25   16.36    6.22
   5   7 -25   18.60   12.33
   5  -7  25    4.18    5.31
  -5   7 -25    6.70    5.18
   5   7  25   14.02   11.14
  -5   7  25   10.11    8.36
   5  -7  25    6.36    5.44
  -5   7  25    2.30    7.39
  -5  -7  26   -5.38    2.12
   5  -7  26    8.79    9.73
  -5   7 -26    3.09    4.89
  -5   7  26   -4.54    3.83
   5   7  26    5.43    7.75
   5  -7  26    9.04    7.93
  -5   7  26   13.23    7.97
   5   8   0   -3.04    2.31
  -5   8   0    6.75    4.68
  -5   8   0   -0.99    3.53
   5   8   1  638.20   45.67
   5   8  -1  682.78   47.43
  -5   8   1  651.92   43.82
  -5   8  -1  640.00   42.85
  -5   8   1  528.43   40.29
  -5   8  -1  648.11   44.28
   5   8   2  101.04   17.41
  -5   8   2  108.77   18.06
   5   8  -2  110.32   19.82
  -5   8  -2  125.07   18.66
  -5   8   2   97.33   17.43
   5  -8   2  127.78   20.69
  -5   8  -2  134.29   20.51
  -5   8  -3    0.16    2.83
   5   8   3    5.43    5.03
  -5   8   3   -0.91    6.15
  -5   8   3    4.14    3.04
   5   8  -3    5.64    5.32
  -5   8  -3    3.15    3.65
   5  -8   3   -0.74    4.98
  -5   8   4   18.63    8.90
   5   8   4   13.80    6.33
  -5   8   4   21.74    7.70
   5   8  -4   30.64   10.21
  -5   8  -4   24.42    8.45
  -5   8  -4    8.19    2.08
   5  -8   4   18.31    9.03
   5   8   5 1010.05   58.25
  -5   8   5 1210.65   61.09
  -5   8   5  924.24   53.49
   5   8  -5 1113.23   60.84
   5  -8   5 1050.83   63.72
  -5   8  -5 1041.65   57.50
   5   8   6   26.69    8.49
  -5   8   6   18.81    8.75
  -5   8  -6   18.43    6.56
   5   8  -6   20.85    8.36
   5  -8   6   32.16   12.10
  -5  -8   6   21.97    7.03
  -5   8  -6   10.36    4.83
  -5   8   6   26.64   10.43
  -5   8  -7    1.91    4.18
   5   8   7    3.65    2.11
  -5   8   7    1.11    3.31
   5   8  -7    7.66    4.84
  -5   8  -7    3.34    4.58
   5  -8   7    0.54    3.54
  -5   8   7    5.72    6.86
  -5  -8   7   -0.21    3.86
   5  -8   8   25.22    8.72
   5   8   8   14.53    6.90
  -5   8   8    9.15    6.89
   5   8  -8   20.56    8.43
  -5   8  -8   17.55    8.34
  -5   8  -8   13.26    5.70
  -5   8   8   18.94    9.06
  -5  -8   8   10.42    4.73
  -5   8  -9  457.16   39.49
   5   8  -9  355.21   33.39
  -5  -8   9  605.28   41.19
   5  -8   9  488.26   42.98
  -5   8   9  599.63   45.28
   5   8   9  548.66   43.32
  -5   8   9  503.98   41.41
   5   8  10   52.70   12.60
  -5   8 -10   86.67   17.26
   5   8 -10   76.30   15.64
  -5   8  10   58.21   13.50
   5  -8  10   99.31   19.57
  -5   8 -10   55.92   14.98
  -5  -8  10   75.21   15.43
  -5   8  10  102.30   18.42
  -5   8 -11   34.26   10.46
   5   8  11   25.59   11.46
  -5   8  11   42.36   12.07
  -5   8  11   37.53   11.71
   5   8 -11   52.02   12.79
  -5   8 -11   32.45   12.10
   5  -8  11    1.26   11.39
  -5  -8  11   21.78    8.05
  -5   8  12   33.86   10.17
   5   8  12   39.77   10.50
  -5   8  12   33.21   10.52
  -5   8 -12   38.10   12.50
   5   8 -12   32.87   11.50
  -5   8 -12   24.90   11.38
   5  -8  12   48.20   13.77
  -5  -8  12   41.92   11.67
   5   8 -13  140.14   21.74
  -5   8 -13  123.40   20.59
  -5   8  13  181.12   25.38
  -5  -8  13  148.24   22.27
   5  -8  13  158.59   25.49
  -5   8  13  159.24   22.82
   5   8  13  189.90   26.33
  -5   8  14   -4.29    8.15
   5   8  14    9.36    5.55
  -5   8  14    6.55   10.93
   5   8 -14    1.51    4.33
   5  -8  14   -1.40    7.40
  -5   8 -14    4.42    5.34
  -5  -8  14    2.84    6.66
  -5   8  15    3.46    5.18
   5   8  15   11.28    2.91
  -5   8  15    2.66    4.40
   5   8 -15   11.46    6.46
  -5   8 -15    3.26    4.41
   5  -8  15    6.74    8.32
  -5  -8  15    5.49    4.92
  -5   8  16   -1.70    3.15
   5   8  16    7.15    8.25
   5   8 -16   -3.63    6.70
  -5   8  16    9.94    9.78
  -5   8 -16    9.16    7.34
   5  -8  16   -1.80    4.07
  -5  -8  16    1.46    1.57
  -5   8  17   66.36   17.17
   5   8 -17  124.69   22.52
   5  -8  17   95.18   19.35
  -5   8 -17   68.06   16.03
   5  -8  17  101.97   20.18
  -5  -8  17  154.29   24.63
  -5   8  17  143.09   24.78
   5   8  17  143.22   24.40
  -5  -8  18    4.05    6.70
   5   8  18   -0.83    4.81
  -5   8  18    1.40    4.38
   5   8 -18    2.54    2.81
   5  -8  18    0.98    3.46
  -5   8 -18   -1.01    4.77
   5  -8  18   -0.17    5.42
   5   8 -19   97.37   20.52
  -5   8 -19  108.96   22.22
  -5   8  19   95.21   20.86
   5  -8  19   77.02   21.50
   5  -8  19   84.71   17.83
  -5  -8  19   97.50   20.61
   5   8  19   81.98   19.61
  -5  -8  20   -0.03    2.39
   5   8 -20    0.48    3.12
   5  -8  20    8.33    8.71
  -5   8 -20    6.64    5.42
   5  -8  20   15.23    7.56
  -5   8  20    4.89    9.04
  -5  -8  21   13.34    8.67
   5   8 -21   29.27   11.64
   5  -8  21   13.94    7.83
  -5   8 -21    9.11    7.82
   5  -8  21    2.13    5.62
  -5   8  21    5.53   10.31
  -5  -8  22    1.00    2.34
   5   8 -22    9.85   10.41
   5  -8  22    4.05    4.63
   5  -8  22    7.39    8.79
  -5   8  22    6.72    9.30
  -5   8  22   16.65   10.07
  -5   8 -22    5.23    2.54
  -5  -8  23   65.05   17.79
   5   8 -23   97.94   20.44
   5  -8  23   68.55   19.37
  -5   8 -23   65.65   17.02
   5  -8  23   90.53   19.96
  -5   8  23   75.97   19.65
  -5   8  23   42.65   14.80
  -5  -8  24   -2.76    4.62
   5   8 -24   -6.17    6.65
   5  -8  24   -5.47    6.76
  -5   8 -24    1.84    4.03
   5  -8  24   -1.63    3.10
  -5   8  24    7.09    3.34
  -5   8  24    2.39    2.72
  -5  -8  25    6.72    6.52
   5  -8  25    1.64    4.89
  -5   8 -25   10.06    8.26
  -5   8  25    8.90   10.79
   5  -8  25   -2.27    7.42
   5   8 -25   19.36   16.04
  -5   8  25   -2.63    6.39
   5   9   0   -1.64    2.11
  -5   9   0   -0.17    1.28
  -5   9   0   -1.94    4.14
   5   9   1  231.63   29.00
   5   9  -1  208.29   27.54
  -5   9   1  270.68   30.11
  -5   9  -1  230.83   27.25
  -5   9   1  237.87   28.13
  -5   9  -1  317.18   31.33
   5   9   2   18.45    8.82
  -5   9   2    6.73    4.06
   5   9  -2    2.52    3.92
  -5   9  -2    9.42    5.61
  -5   9   2   18.61    8.94
  -5   9  -2   16.20    9.79
  -5   9  -3   -3.01    5.44
   5   9   3    8.89    5.52
  -5   9   3    2.83    5.67
  -5   9   3    0.54    3.54
   5   9  -3   18.71    8.93
  -5   9  -3   13.27    7.32
   5  -9   3    1.10    3.67
  -5   9   4   39.65   10.19
   5   9   4   44.57   12.24
  -5   9   4   32.84   10.48
  -5   9  -4   31.54   10.64
   5   9  -4   40.93   13.60
  -5   9  -4   66.86   14.26
   5  -9   4   39.33   12.11
  -5   9   5   48.47   13.07
   5   9   5   62.14   15.23
  -5   9   5   56.95   14.34
   5   9  -5   52.30   14.32
  -5   9  -5   41.84   11.04
  -5   9  -5   58.90   14.65
   5  -9   5   41.68   12.71
   5   9   6   94.25   17.34
  -5   9   6  116.96   20.22
  -5   9   6  132.44   21.38
   5   9  -6  137.22   22.63
  -5   9  -6   29.91   10.96
   5  -9   6  195.10   28.20
  -5   9  -6  116.31   20.73
   5   9   7   -0.70    3.07
  -5   9   7   -3.94    5.77
   5   9  -7   -3.21    0.82
   5  -9   7    3.40    3.57
  -5   9  -7   -5.82    5.36
  -5   9   7   -3.76    5.10
  -5   9  -7   -1.82    4.97
  -5   9  -8   14.20    5.36
   5   9   8   34.34   11.50
  -5   9   8    9.19    7.53
   5   9  -8    7.39    7.04
  -5   9  -8    9.70    7.74
  -5   9   8   19.42    9.08
  -5  -9   8   13.73    5.52
   5  -9   8   28.29    9.92
   5   9   9   35.51   13.61
  -5   9   9   26.34    8.59
  -5   9  -9   22.57    7.86
   5   9  -9    7.67    4.10
   5  -9   9   20.11    9.28
  -5   9  -9   32.98   11.69
  -5   9   9   16.90    7.81
  -5  -9   9   23.80    9.08
  -5   9 -10   -1.75    4.17
   5   9  10    0.89    1.86
  -5   9  10   20.39    8.42
   5   9 -10    3.69    6.00
   5  -9  10    6.79    2.58
  -5   9  10   11.02   10.70
  -5   9 -10   21.98    7.39
  -5  -9  10   15.91    7.46
   5   9  11   35.04   10.67
  -5   9  11   13.64    5.38
  -5   9 -11   25.02   10.73
   5   9 -11   32.52    9.78
  -5   9  11   40.05   13.45
  -5   9 -11   47.76   13.60
   5  -9  11   10.66    7.28
  -5  -9  11   24.90    8.80
  -5   9  12   78.74   16.57
  -5   9  12   59.56   16.18
   5   9 -12   44.40   12.77
  -5   9 -12   63.91   16.63
   5  -9  12   66.35   16.20
  -5   9 -12   69.87   16.11
  -5  -9  12   89.65   17.78
   5   9  12   86.88   18.77
  -5   9  13   -2.57    5.01
   5   9  13   -0.72    5.80
  -5   9  13   -4.11    4.26
  -5   9 -13   -0.70    3.54
   5   9 -13   -4.00    6.74
  -5   9 -13    3.85    4.50
   5  -9  13    5.28    7.72
  -5  -9  13    0.12    5.12
  -5   9  14    2.93    1.44
   5   9  14    2.23    0.55
  -5   9  14    1.14    4.28
   5   9 -14    9.23    6.87
  -5   9 -14    5.49    6.35
   5  -9  14    3.91    6.44
  -5  -9  14    1.71    1.18
  -5   9 -14   -1.15    3.44
  -5   9  15   13.93    6.40
   5   9  15   24.39   12.64
  -5   9  15   23.82    9.79
   5   9 -15   46.21   14.38
  -5   9 -15   34.26   12.16
   5  -9  15   32.89   12.34
  -5  -9  15   37.73   11.62
  -5   9  16   26.39   12.02
   5   9  16   31.88   12.51
  -5   9  16    4.31    4.32
   5   9 -16   26.63   11.04
  -5   9 -16   18.89    8.34
   5  -9  16   22.96    9.67
  -5  -9  16   53.44   12.83
  -5   9  17   18.08   11.32
   5   9  17    7.95    4.81
  -5   9  17    7.22    3.34
   5   9 -17    5.05    2.89
  -5   9 -17   14.48    4.73
   5  -9  17   18.43    9.76
  -5  -9  17   13.68    7.22
   5   9  18    2.46    6.01
  -5   9  18    3.23    2.93
   5   9 -18   -7.93    8.60
   5  -9  18   -1.07    5.14
  -5   9 -18    5.85    5.58
  -5  -9  18    2.15    2.26
  -5   9  18   -5.08    4.97
   5   9  19    0.66    5.42
  -5   9  19    2.89    2.61
   5  -9  19   -5.67    7.86
   5   9 -19   -1.56    4.13
  -5   9 -19    1.67    0.34
  -5  -9  19   -2.10    5.15
  -5   9  20   14.63    9.33
   5   9 -20   12.15    7.31
   5  -9  20   13.28    8.74
  -5   9 -20   13.66    6.26
   5   9  20   23.62   11.59
  -5  -9  20    6.54    4.98
   5   9 -21    1.53    5.87
   5  -9  21   -1.58    2.25
  -5   9 -21    2.27    6.35
   5  -9  21   -0.05    3.54
  -5  -9  21    5.78    7.12
  -5   9  21    1.34    3.63
   5   9 -22    4.82    4.21
   5  -9  22    3.72    7.25
  -5   9 -22   -0.32    4.78
   5  -9  22   -0.33    2.17
  -5   9  22   -1.96    5.36
  -5   9  22   -0.10    5.25
  -5  -9  22    9.34    8.90
   5   9 -23   15.70   11.85
   5  -9  23   10.35   10.57
  -5   9 -23    4.12    7.74
   5  -9  23    5.00    5.26
  -5   9  23   -1.42    5.45
  -5   9  23    3.21    3.41
  -5  -9  23    9.86    7.60
   5   9 -24    5.41    3.41
   5  -9  24   -1.95    4.33
  -5   9 -24   15.42   11.61
   5  -9  24    1.86    6.20
  -5   9  24    1.36    6.68
  -5   9  24   -1.08    7.01
  -5  -9  24    6.93   10.14
   5  10   0    2.17    3.74
  -5  10   0    5.52    6.95
  -5  10   0   -2.16    3.31
   5  10  -1  101.23   19.96
  -5  10  -1   89.72   18.34
   5  10   1   54.46   14.90
  -5  10   1   65.04   16.62
  -5  10   1   59.82   14.49
  -5  10  -1   61.86   15.67
   5  10   2  166.71   25.46
  -5  10   2  179.81   25.86
   5  10  -2  124.72   23.00
  -5  10  -2  127.39   21.15
  -5  10   2  136.07   21.57
  -5  10  -2  131.76   21.86
   5  10   3  108.39   21.55
  -5  10   3   98.67   19.20
   5  10  -3  160.64   24.43
  -5  10  -3  154.65   23.48
  -5  10   3  146.08   23.72
  -5  10  -3  128.96   20.30
   5  10   4  299.74   34.88
  -5  10   4  292.59   32.58
   5  10  -4  305.76   34.96
  -5  10  -4  257.46   29.59
  -5  10   4  293.97   32.22
  -5  10  -4  304.16   32.67
   5  10   5  266.11   32.60
  -5  10   5  226.30   28.88
   5  10  -5  274.62   32.61
  -5  10   5  237.46   29.24
  -5  10  -5  130.46   21.52
   5 -10   5  170.28   25.11
  -5  10  -5  194.92   26.07
   5  10   6  142.97   24.32
  -5  10   6  168.12   25.59
  -5  10   6  148.01   23.99
   5  10  -6  127.65   23.38
  -5  10  -6  147.44   21.89
   5 -10   6  140.12   23.34
  -5  10  -6  195.57   26.60
   5  10   7   -1.91    1.36
  -5  10   7   -4.49    5.94
   5  10  -7   -1.93    5.78
  -5  10  -7    5.41    2.87
   5 -10   7    0.43    4.40
  -5  10  -7    3.14    4.80
  -5  10   7    1.51    3.13
   5  10   8    8.72    6.89
  -5  10   8   10.88    7.99
   5  10  -8   17.23    7.87
  -5  10  -8    4.55    4.77
   5 -10   8   23.70    8.03
  -5  10   8   34.71   10.37
  -5  10  -8    8.63    9.59
  -5  10  -9    1.13    1.81
   5  10   9    9.58    6.37
  -5  10   9    3.66    4.81
   5  10  -9    6.18    8.71
  -5  10  -9    3.85    4.82
   5 -10   9    7.94    7.73
  -5  10   9   -0.10    7.53
   5  10  10    1.72    4.22
  -5  10  10   12.77    7.24
  -5  10 -10   10.73    5.55
   5  10 -10    4.79    4.77
  -5  10 -10   11.17    7.98
   5 -10  10    6.45    4.18
  -5  10  10   -0.10    4.88
  -5 -10  10    7.09    5.55
   5  10  11   31.57   10.99
  -5  10  11   44.78   14.19
   5  10 -11   46.67   13.98
  -5  10  11   33.94   10.19
   5 -10  11   39.06   13.70
  -5  10 -11    8.84    4.98
  -5  10 -11   39.20   12.09
  -5 -10  11   18.81    8.92
   5  10  12   26.80   11.38
  -5  10  12   26.30   10.02
   5  10 -12    8.49    6.54
  -5  10  12    8.11    6.09
  -5  10 -12    8.50    5.21
   5 -10  12   12.84    8.05
  -5 -10  12    9.99    6.48
  -5  10 -12   27.37   12.89
  -5  10  13   68.75   16.92
  -5  10 -13   49.52   15.10
   5  10 -13   51.02   12.25
  -5  10 -13   54.82   13.77
   5 -10  13   88.79   20.47
  -5  10  13   83.52   18.77
  -5 -10  13   29.96   10.17
   5  10  13  100.14   20.18
  -5  10  14   -2.59    4.05
   5  10  14    8.76    8.29
  -5  10  14   -1.24    5.37
   5  10 -14    2.09    2.04
  -5  10 -14   14.15    8.49
   5 -10  14    2.57    1.25
  -5  10 -14   -0.05    2.56
  -5 -10  14    4.23    5.35
  -5  10  15    1.99    7.59
   5  10  15    5.31    4.71
   5  10 -15   -0.95    1.31
  -5  10  15   -1.54    2.06
  -5  10 -15    5.59    3.03
  -5  10 -15   -2.72    7.86
   5 -10  15   -4.61    7.57
  -5 -10  15    0.13    4.99
  -5  10  16   70.90   20.13
   5  10  16   64.06   16.80
  -5  10 -16   72.20   17.17
   5  10 -16   49.61   15.10
  -5  10 -16   46.49   15.54
   5 -10  16   90.16   21.34
  -5  10  16   68.31   18.05
  -5 -10  16   52.33   14.37
  -5  10  17   -4.87    5.30
   5  10  17   -1.72    9.24
  -5  10  17   -1.66    5.18
   5  10 -17   15.35   10.08
  -5  10 -17    9.51    6.99
  -5  10 -17   -1.58    5.16
   5 -10  17    3.28    5.78
  -5 -10  17    7.81    6.58
   5  10  18   11.64    7.98
  -5  10  18    8.37    6.71
   5  10 -18    0.35    3.23
  -5  10 -18    0.56    1.93
   5 -10  18    1.21    6.84
  -5 -10  18   -2.91    4.46
   5  10  19   -5.18    3.40
  -5  10  19    0.39    6.43
   5  10 -19    6.66    5.21
  -5  10 -19   10.31    8.31
   5 -10  19   -4.10    5.03
  -5 -10  19    2.10    5.26
   5  10  20   49.12   15.12
  -5  10  20   64.41   18.13
   5  10 -20   28.41   12.74
  -5  10 -20   31.48   13.25
   5 -10  20   26.25   12.82
  -5 -10  20   22.91    9.31
  -5  10  21    1.08    7.37
   5  10 -21    2.80    5.92
  -5  10 -21    3.46    2.39
   5 -10  21    4.55    3.91
  -5 -10  21   10.90    7.82
   5  10  21   -3.61    7.22
   5  10 -22   21.04    9.54
  -5  10 -22   43.24   13.64
   5 -10  22   13.19    8.14
  -5 -10  22   38.30   15.82
  -5  10  22   32.59   11.69
  -5  10  22   22.65   10.80
  -5  11   0   -1.83    3.54
   5  11   0    2.26    2.76
  -5  11   0   -2.37    5.70
   5  11   1   -3.33    7.98
   5  11  -1   -4.12    4.59
  -5  11   1   -1.36    3.60
  -5  11  -1   -1.11    3.33
  -5  11   1    1.01    3.22
  -5  11  -1    6.27    5.82
   5  11  -2   88.95   19.92
  -5  11  -2   70.71   18.67
   5  11   2   64.96   14.41
  -5  11   2   85.74   18.90
  -5  11   2   75.32   16.33
  -5  11  -2   64.63   15.68
   5  11   3   22.52   11.01
  -5  11   3    9.41    7.31
  -5  11   3   12.77    9.79
   5  11  -3   13.31    8.12
  -5  11  -3   19.95    8.23
  -5  11  -3   24.47    9.31
  -5  11  -4   -0.86    2.78
  -5  11   4    4.32    5.78
   5  11   4   -1.10    3.73
  -5  11   4    5.83    5.52
   5  11  -4   -6.79    7.05
  -5  11  -4   -1.67    6.47
  -5  11   5   -5.75    8.04
  -5  11  -5    3.72    6.29
   5  11   5   -1.39    2.11
  -5  11   5   -1.50    0.46
   5  11  -5    0.79    3.26
  -5  11  -5    2.49    1.59
   5  11   6    2.47    3.44
  -5  11   6   -3.73    4.79
  -5  11  -6    1.78    3.51
   5  11  -6    9.58    9.47
  -5  11  -6   -0.02    2.91
   5 -11   6    6.29    6.23
  -5  11   6    7.63    7.85
   5  11   7   22.54   10.41
  -5  11   7   44.74   13.39
   5  11  -7   26.67    9.48
  -5  11  -7   38.76   12.62
  -5  11  -7   31.88   11.94
   5 -11   7   31.85   11.51
  -5  11   7   43.23   13.84
   5  11   8    8.54    8.06
  -5  11   8   18.87   10.38
   5  11  -8   12.11    6.58
  -5  11  -8    8.68    3.86
   5 -11   8   21.63    8.70
  -5  11  -8   12.10    7.07
  -5  11   8   10.20    5.78
   5  11   9   49.63   15.37
  -5  11   9   62.22   16.02
  -5  11  -9   79.64   18.31
   5  11  -9   47.95   12.51
   5 -11   9   45.12   14.90
  -5  11   9   56.31   14.81
  -5  11  -9   43.41   12.44
   5  11  10   48.00   15.48
  -5  11  10   39.63   13.78
   5  11 -10   22.91    9.33
  -5  11 -10   32.62   10.89
   5 -11  10   52.68   16.24
  -5  11  10   52.11   14.83
  -5  11 -10   23.39    9.65
   5  11  11   20.87    9.97
  -5  11  11   36.09   11.03
  -5  11 -11   19.32    9.81
   5  11 -11   45.40   13.77
   5 -11  11   35.73   13.46
  -5  11 -11   17.33    9.30
  -5  11  11   55.79   14.46
   5 -11  12   23.11    6.35
   5  11  12   16.86    6.56
  -5  11  12   36.74   13.78
   5  11 -12   26.48   10.74
  -5  11 -12   33.87   10.27
  -5  11  12   56.72   15.69
  -5  11 -12   54.85   14.16
   5  11  13    8.98    6.59
  -5  11  13    7.58    7.55
  -5  11  13    6.17    7.29
   5  11 -13   -2.18    2.00
  -5  11 -13    1.67    6.99
   5 -11  13    2.70    5.55
  -5  11 -13    2.78    2.85
  -5  11 -14   -2.42    4.39
  -5  11  14    2.59    5.14
   5  11  14   -1.20    5.75
  -5  11  14    2.08    3.60
   5  11 -14    1.11    3.72
   5 -11  14   -3.63    4.65
  -5 -11  14    2.21    3.61
  -5  11 -14   -4.45    6.05
  -5  11  15    1.19    7.42
   5  11  15   -0.37    8.39
  -5  11  15    4.08    4.47
  -5  11 -15    4.32    5.94
   5  11 -15    1.40    4.79
  -5  11 -15   18.20    7.48
   5 -11  15    8.42    3.75
  -5 -11  15    9.29    6.59
   5  11  16   18.01    6.95
  -5  11 -16   50.83   15.81
  -5  11  16   35.88   12.56
   5  11 -16   17.11    6.99
   5 -11  16   18.93    9.11
  -5  11 -16   24.32   10.12
  -5 -11  16   10.97    9.51
   5  11  17   -1.71    2.06
  -5  11 -17   -1.96    4.11
  -5  11  17    5.46    4.32
   5  11 -17    5.07    0.79
  -5  11 -17    1.78    1.75
   5 -11  17    1.26    7.52
  -5 -11  17    9.76    7.69
   5  11  18   -0.98    3.96
  -5  11  18    6.29    7.84
   5  11 -18    0.88    3.08
  -5  11 -18   -1.17    5.62
   5 -11  18    8.94    7.91
  -5  11 -18   -4.50    6.68
  -5 -11  18   -5.32    7.90
   5  11  19   10.37    9.30
  -5  11  19   -0.37    1.05
   5  11 -19    3.08    5.13
   5 -11  19   10.18    6.42
  -5  11 -19    1.40    2.88
  -5  11 -19    2.50    4.58
  -5 -11  19   -0.06    4.09
   5  11  20   14.28    8.58
  -5  11  20    3.47    1.83
  -5  11 -20    9.91    7.89
   5  11 -20   10.88    6.71
  -5  11 -20   -6.40    8.17
   5 -11  20   13.19    9.90
  -5 -11  20   20.86    9.21
   5  11  21   11.80   11.13
  -5  11  21    3.21    7.74
   5  11 -21    2.21    4.41
  -5  11 -21    7.58    8.89
   5 -11  21   -0.25    6.93
  -5 -11  21    6.16    5.87
   5  12   0   -1.38    7.88
  -5  12   0   -0.97    5.79
  -5  12   0    3.08    3.60
   5  12   1   15.63    6.74
   5  12  -1    8.06    7.81
  -5  12   1   10.16   10.56
  -5  12  -1   26.26   10.77
  -5  12   1   18.84    9.19
  -5  12  -1    7.92    7.38
  -5  12  -2   16.56   10.08
   5  12   2   26.53   10.44
  -5  12   2    6.12    0.79
   5  12  -2   27.88   11.45
  -5  12   2   11.32    8.49
  -5  12  -2   30.45    9.50
  -5  12   3   -0.94    3.89
   5  12   3   -0.21    1.10
  -5  12   3   -1.04    5.11
   5  12  -3    4.36    6.31
  -5  12  -3    6.94    5.68
  -5  12  -3   -0.39    5.93
  -5  12   4   -2.02    6.06
   5  12   4    3.76    3.41
  -5  12   4   -5.94    9.59
   5  12  -4   10.33    9.74
  -5  12  -4    7.64    7.13
  -5  12  -4   11.31    7.25
  -5  12  -5   47.73   14.51
   5  12   5   36.94   13.98
  -5  12   5   43.08   12.71
   5  12  -5   48.95   14.49
  -5  12  -5   32.67   12.22
  -5  12   5   31.16   14.08
  -5  12  -6   13.41    8.13
   5  12   6    8.66    7.61
  -5  12   6    6.10    6.63
   5  12  -6   -4.66    5.58
  -5  12  -6    4.81    4.37
  -5  12   6   21.86    9.74
   5  12   7    4.76    5.34
  -5  12   7    0.67    1.68
  -5  12  -7    0.74    0.55
   5  12  -7    4.03    6.65
  -5  12  -7   -0.94    6.52
   5 -12   7   -1.57    5.38
  -5  12   7    2.03    2.38
   5  12   8   32.07   13.98
  -5  12   8   32.56   14.04
   5  12  -8   36.03   13.51
  -5  12  -8   54.81   14.43
  -5  12  -8   26.83   10.05
  -5  12   8   26.71   10.79
   5 -12   8   29.11   10.87
   5  12   9   -1.05    5.89
  -5  12   9    5.55    9.87
   5  12  -9    7.37    7.79
  -5  12  -9    1.44    6.44
   5 -12   9   -2.35    5.97
  -5  12  -9    4.23    6.34
  -5  12   9   -2.00    4.94
   5  12  10   14.95    7.85
  -5  12  10   26.41   13.63
   5  12 -10    7.84    4.71
  -5  12 -10    9.01    8.51
   5 -12  10    5.33    3.96
  -5  12  10   18.64    9.24
  -5  12 -10   11.82    6.14
   5  12  11   18.35   10.00
  -5  12  11    2.22    1.92
   5  12 -11    8.76    7.25
   5 -12  11    4.28    5.95
  -5  12 -11    1.04    3.64
  -5  12  11   -2.25    4.88
  -5  12 -11    3.77    6.43
  -5  12 -12   39.25   13.21
   5  12  12   45.85   14.86
  -5  12  12   22.94   12.66
   5  12 -12   49.70   16.30
  -5  12  12   33.20   13.51
  -5  12 -12   59.02   14.59
   5 -12  12   36.73   12.99
   5  12  13   32.03   12.33
  -5  12  13   41.36   14.27
  -5  12 -13   26.21   11.84
   5  12 -13   32.61   12.71
  -5  12  13   38.27   14.12
  -5  12 -13   23.30    8.37
   5 -12  13   38.94   13.16
  -5  12  14    6.22    8.09
   5  12  14   -2.29    4.30
  -5  12  14    9.70    9.06
   5  12 -14    6.12    4.69
  -5  12 -14    1.68    1.06
  -5  12 -14   13.71    7.11
   5 -12  14    8.55    8.19
   5  12  15    2.69    4.14
  -5  12  15    1.14    4.75
   5  12 -15    4.44    7.94
  -5  12 -15  -10.04    7.92
   5 -12  15   -0.70    3.53
  -5  12 -15   -2.13    5.88
   5  12  16    9.59    6.25
  -5  12  16   12.59    7.94
   5  12 -16    7.13    9.84
  -5  12 -16    8.29    7.89
   5 -12  16   -1.73    6.65
  -5  12 -16    8.02    6.73
   5  12  17    9.52    7.14
  -5  12 -17    9.31    8.23
  -5  12  17   20.90   11.35
   5  12 -17    5.75    4.71
  -5  12 -17   -5.82    4.15
   5 -12  17   15.90    8.97
   5  12  18    1.55    2.62
  -5  12  18   14.02   11.64
  -5  12 -18    5.22    5.16
   5  12 -18    3.53    5.76
  -5  12 -18    9.38    6.12
   5 -12  18    8.25   10.71
   5  13   0    1.86    4.90
  -5  13   0   -6.47    7.12
  -5  13   0    1.74    7.90
   5  13   1    5.02    4.27
   5  13  -1   27.03   11.68
  -5  13   1   20.48   10.42
  -5  13  -1   16.54    9.25
  -5  13   1   36.67   13.49
  -5  13  -1   18.84    9.02
   5  13   2    3.51    6.48
  -5  13   2    3.82    2.78
  -5  13   2   12.54    8.62
   5  13  -2   14.34    9.52
  -5  13  -2    8.69    4.22
  -5  13  -2   19.59   12.39
  -5  13   3    3.52    7.46
   5  13   3    2.88    1.51
  -5  13   3   17.23   11.31
   5  13  -3   19.07   11.05
  -5  13  -3    4.87    8.73
  -5  13  -3    9.42    6.83
  -5  13   4   15.21    7.76
   5  13   4    6.08    5.05
  -5  13   4   26.89   14.35
   5  13  -4    3.21    2.46
  -5  13  -4   16.45   10.46
  -5  13  -4   14.31    7.29
   5  13   5    4.93    1.62
  -5  13   5   -0.52    7.58
   5  13  -5    1.17    5.09
  -5  13  -5    0.80    6.62
  -5  13  -5    0.96    5.43
  -5  13   5   -2.17    7.22
  -5  13  -6   -5.58    6.20
   5  13   6    7.25    8.53
  -5  13   6   -2.53    3.81
   5  13  -6    4.20    7.36
  -5  13  -6    2.02    4.45
  -5  13   6    2.05    2.77
  -5  13  -7    3.21    5.10
   5  13   7   -0.22    3.10
  -5  13   7    5.07    8.47
   5  13  -7    2.58    6.21
  -5  13  -7    2.11    5.45
  -5  13   7    0.28    1.68
   5  13   8   19.86   12.16
  -5  13   8    2.26    3.82
  -5  13  -8    1.41    1.83
   5  13  -8   11.62   10.44
  -5  13  -8   -4.81    8.42
  -5  13   8    2.92    3.29
   5  13   9   35.83   13.19
  -5  13   9   40.64   13.11
   5  13  -9   29.72   13.21
  -5  13  -9   34.37   11.45
  -5  13  -9   37.82   13.34
   5 -13   9   36.94   11.99
  -5  13   9   43.47   13.83
   5  13  10   -0.06    4.01
  -5  13  10    3.09    6.88
   5  13 -10    2.02    4.12
  -5  13 -10   -2.10    2.37
   5 -13  10    4.83    8.45
  -5  13 -10    4.91    8.08
  -5  13  10    7.34    8.20
   5  13  11    0.37    6.84
  -5  13  11   11.85   10.70
   5  13 -11   -4.09    6.66
  -5  13 -11    3.84    5.57
   5 -13  11    1.05    5.18
  -5  13  11   -3.21    4.47
  -5  13 -11   -2.60    1.98
   5  13  12    4.91    2.54
  -5  13  12   20.82   13.21
   5  13 -12   16.16    6.91
  -5  13 -12   21.59   11.00
  -5  13  12    6.02    2.19
   5 -13  12    7.53    6.50
  -5  13 -12    6.26    1.23
   5  13  13   -2.37    5.65
   5  13 -13   -0.40    2.80
  -5  13  13   -0.28    5.08
  -5  13 -13    3.79    1.56
   5 -13  13   14.44    9.84
  -5  13 -13   12.33    7.50
  -5  13 -14   22.69   11.90
   5  13  14    6.18    3.19
  -5  13  14   19.18   10.61
   5  13 -14   38.83   15.82
  -5  13 -14    2.87    4.02
   5 -13  14   18.82   10.62
   5  13  15    9.54    6.75
  -5  13 -15   16.51   10.25
  -5  13  15    6.79    7.54
   5  13 -15   -8.11    7.22
   5 -13  15   -1.19    4.63
  -5  13 -15    7.45    5.95
   5  13  16    5.11    4.66
  -5  13  16    2.22    2.96
  -5  13 -16   13.73   10.23
   5  13 -16   10.49    9.85
  -5  13 -16    1.31    2.81
   5  14   0   -4.05    6.70
  -5  14   0   -3.18    6.58
  -5  14   0    1.94    8.17
   5  14   1   -1.43    0.57
   5  14  -1    5.41    3.57
  -5  14   1   -4.10    8.88
  -5  14   1    3.21    1.64
  -5  14  -1   11.22    8.32
  -5  14  -1    9.08    8.03
  -5  14   2   24.11   11.73
   5  14   2   22.43   11.30
  -5  14   2    7.41    6.59
   5  14  -2   13.78    7.80
  -5  14  -2    3.25    3.63
  -5  14  -2   33.32   11.99
  -5  14   3   15.00    9.24
   5  14   3    6.78    5.24
  -5  14   3    9.37    6.06
   5  14  -3    1.15    3.39
  -5  14  -3   21.92   12.24
  -5  14  -3    0.43    4.43
  -5  14   4   -0.94    3.35
   5  14   4   -1.25    6.59
  -5  14   4    1.44    5.43
   5  14  -4    4.20    5.38
  -5  14  -4   10.53    7.14
  -5  14  -4    0.26    3.98
   5  14   5   44.59   13.57
  -5  14   5   57.33   19.29
   5  14  -5   32.97   13.53
  -5  14  -5   19.48   11.55
  -5  14  -5   51.51   13.06
  -5  14   5   37.67   12.03
   5  14   6    3.25    4.20
  -5  14   6    2.77    5.18
   5  14  -6   -2.42    3.65
  -5  14  -6    9.30    6.37
  -5  14   6    3.18    4.77
  -5  14  -6    5.45    6.13
  -5  14  -7   -0.66    3.13
   5  14   7    6.79    6.03
  -5  14   7   14.15    7.18
   5  14  -7   -0.41    5.08
  -5  14  -7    4.08    1.94
  -5  14   7    3.01    1.42
  -5  14  -8    0.29    4.71
   5  14   8    6.44    4.47
  -5  14   8   12.44    9.41
   5  14  -8   12.76    9.56
  -5  14  -8    0.33    2.68
  -5  14   8    9.30    5.75
   5  14   9   11.39   11.05
  -5  14   9    1.73    2.72
  -5  14  -9    7.67    7.83
   5  14  -9    1.36    6.50
  -5  14  -9    1.62    4.15
  -5  14   9    7.20    6.85
   5  14  10    3.41    7.31
  -5  14  10   19.41   10.97
  -5  14 -10   10.56   10.02
   5  14 -10   18.97   13.82
  -5  14 -10   14.17    7.27
  -5  14  10    4.02    5.56
   5  14  11    0.26    5.99
   5  14 -11    9.33   10.67
  -5  14 -11   -0.91    0.37
  -5  14 -11   -6.40    6.32
  -5  14  11   -5.25    6.71
   5  14  12   -2.96    4.39
   5  14 -12   -2.19    5.40
  -5  14 -12   -0.54    5.78
  -5  14  12   -0.16    6.37
  -5  14 -12   -3.60    2.07
   5  15   0    1.15    4.52
  -5  15   0    8.31   10.05
  -5  15   0    2.48    6.08
  -5  15   1    2.63    0.88
   5  15   1   14.77    9.54
   5  15  -1    6.26    9.35
  -5  15   1   -3.52    2.33
  -5  15  -1    2.15    0.61
  -5  15  -1   10.46    8.40
  -5  15   2    9.92    8.49
   5  15   2    8.64    7.73
  -5  15   2   24.86   15.12
   5  15  -2    3.55    8.15
  -5  15  -2    3.95    5.16
  -5  15  -2   26.19   11.46
  -5  15   3    0.36    6.08
   5  15   3   15.30   11.26
  -5  15   3    6.61    8.21
   5  15  -3    5.64    4.42
  -5  15  -3   11.05    9.83
  -5  15  -3    8.42    6.40
   5  15   4    6.68    7.94
  -5  15   4   -2.13    3.60
   5  15  -4   -0.61    5.19
  -5  15  -4   -5.62    7.34
  -5  15  -4    9.81    7.87
  -5  15   4   -0.48    2.57
   5  15   5   -4.18    6.02
  -5  15   5   -7.64    3.06
   5  15  -5   -7.59    7.55
  -5  15  -5    2.32    9.68
  -5  15  -5    2.71    7.88
  -5  15   5   -1.53    2.53
   5  15   6    0.51    6.43
  -5  15   6   19.22   11.13
   5  15  -6    2.88    3.08
  -5  15  -6   16.61    9.46
  -5  15  -6   -1.64    5.07
  -5  15   6    8.37    7.98
   5  15   7    4.77    3.91
  -5  15   7   -5.27    4.53
   5  15  -7   -3.10    6.05
  -5  15  -7    6.31    7.01
  -5  15   7    7.13    7.46
  -5  15  -7    2.34    7.77
   6   0   0 4992.23  110.75
  -6   0   0 5150.78   78.82
  -6   0   1   -0.78    2.78
   6   0   1    5.46    6.17
  -6   0  -1    3.73    2.62
   6   0   2   97.52   15.76
  -6   0   2  121.85   13.29
  -6   0   3   -1.34    2.14
  -6   0  -3   -1.61    1.91
   6   0   3    3.10    3.49
  -6   0  -4  880.78   31.57
   6   0   4  900.55   49.21
   6   0   5   -1.74    0.76
  -6   0  -5    1.62    2.40
  -6   0   5    1.77    1.57
   6   0   6  225.80   23.99
  -6   0  -6  195.80   15.49
  -6   0  -7   -0.64    1.02
   6   0   7    0.43    2.39
  -6   0   7    0.74    3.81
  -6   0  -8 1571.35   48.22
  -6   0   8 1627.51   60.53
   6   0   9   -1.27    2.76
  -6   0   9   -3.16    3.72
  -6   0  10 1734.82   66.62
   6   0  10 1545.49   50.97
   6   0  11    2.52    2.74
  -6   0  11    1.17    4.19
   6   0  11    0.85    3.25
   6   0  12   53.52   12.83
  -6   0  12   50.42   11.45
   6   0  12   35.06    8.29
   6   0  13   -0.32    2.47
  -6   0  13   -0.54    4.23
   6   0  13   -2.30    4.66
  -6   0  14  828.68   54.23
   6   0  14  825.15   51.49
   6   0  14  817.51   44.95
  -6   0  15    9.66    8.15
   6   0  15    0.73    3.13
  -6   0  16   22.10    7.63
   6   0  16    3.27    2.66
  -6   0  17   -2.67    4.01
   6   0  17    1.84    4.28
  -6   0  18   48.91   14.60
   6   0  18   44.42   12.10
  -6   0  19   -0.55    5.62
   6   0  19    3.66    5.21
  -6   0  19  -10.50    5.75
  -6   0  20    3.81    3.94
   6   0  20    8.66    5.43
  -6   0  20    7.58    4.27
  -6   0  21    0.32    3.77
   6   0  21   -0.69    4.78
  -6   0  21    2.71    4.53
  -6   0  22   58.12   15.98
   6   0  22   91.13   18.88
  -6   0  22  107.38   20.28
  -6   0  23   10.05   11.74
   6   0  23   -4.95    6.13
  -6   0  23   -5.42    6.36
  -6   0  24   47.64   14.48
   6   0  24   42.85   14.21
  -6   0  24   40.14   10.05
  -6   0  25    5.85    6.17
   6   0  25   -1.28    2.42
  -6   0  25    0.09    7.46
  -6   0  26   64.20   17.70
   6   0  26   46.28   14.55
  -6   0  26   51.41   16.87
  -6   0  27   -0.10    5.04
   6   0  27    3.06    5.78
  -6   0  27   11.69    8.98
  -6   0  28   16.10    7.16
   6   0  28    6.58    6.68
  -6   0  28   10.24    8.34
  -6   0  29   -4.47    2.39
   6   0  29   -3.03    2.66
  -6   0  29   -6.30    6.94
  -6  -1   0   22.18    4.37
   6   1   0   33.66    9.24
   6  -1   0   20.75    4.51
  -6   1   0   23.88    6.47
  -6   1  -1   35.50    7.57
  -6  -1   1   24.88    5.83
  -6  -1  -1   42.99    5.47
   6  -1   1   48.14   11.90
   6   1   1   35.28   10.42
  -6   1   1   42.70    8.08
  -6   1  -2    1.60    1.61
  -6  -1  -2    1.19    1.25
  -6   1   2    0.59    2.56
   6  -1   2    1.65    3.12
   6   1   2   -0.31    3.18
  -6   1  -2   -0.08    0.75
  -6  -1   2    1.25    1.98
  -6   1   3    6.08    3.80
  -6  -1  -3    4.71    1.44
  -6   1  -3    7.00    3.75
   6  -1   3    5.26    3.81
   6   1   3    3.42    3.15
  -6  -1   3    5.22    2.36
  -6  -1  -4  229.19   11.84
  -6  -1   4  273.73   20.71
   6  -1   4  219.75   24.97
  -6   1  -4  278.31   20.24
  -6   1   4  244.36   21.41
  -6   1   5    3.80    1.76
  -6   1  -5    6.48    2.74
  -6  -1  -5    2.86    1.46
   6  -1   5   10.12    6.27
   6   1   5    6.25    3.57
  -6  -1   5    7.63    4.38
  -6  -1   6  202.03   19.71
   6  -1   6  162.87   21.68
   6   1   6  208.28   23.36
  -6   1   6  192.57   20.20
  -6  -1  -6  159.75   11.44
  -6   1  -6  161.71   16.06
  -6   1   7   38.83    9.12
  -6   1  -7   39.76    8.49
  -6  -1   7   48.73   10.54
   6   1   7   64.46   13.20
   6  -1   7   22.11    8.07
  -6  -1  -7   39.59    6.06
   6  -1   8   18.40    6.35
   6   1   8   11.42    1.26
  -6  -1   8   15.45    5.61
  -6  -1  -8   18.93    4.75
  -6   1  -8   13.82    4.71
  -6   1   8   24.88    7.57
   6  -1   9   14.22    6.48
   6   1   9   13.58    5.19
  -6  -1   9   20.71    8.56
  -6  -1  10    1.58    2.67
   6  -1  10    1.23    1.68
   6   1  10   -1.95    3.17
   6  -1  10    1.47    2.67
  -6   1  10   -0.44    5.14
  -6  -1  11    8.46    6.53
   6  -1  11    3.02    4.40
   6   1  11   -2.46    2.83
   6  -1  11    1.98    1.32
  -6   1  11    0.75    2.31
  -6  -1  12   51.58   12.08
   6  -1  12   47.46   12.54
   6   1  12   47.30   11.62
  -6   1  12   39.67   10.72
   6  -1  12   39.83    8.81
  -6  -1  13  374.98   33.15
  -6   1  13  301.70   31.17
   6  -1  13  331.98   31.62
   6   1  13  359.52   33.23
   6  -1  13  332.53   27.37
  -6  -1  14  343.51   33.33
  -6   1  14  326.17   32.49
   6  -1  14  289.51   30.07
   6   1  14  363.41   33.84
   6  -1  14  255.53   25.89
  -6   1  15  101.07   18.74
  -6  -1  15   62.80   14.32
   6  -1  15   74.63   15.77
   6   1  15   84.16   16.03
   6  -1  15   84.64   15.14
  -6  -1  16   -1.83    2.00
   6  -1  16    1.92    1.49
   6   1  16    7.79    6.66
  -6   1  16    3.28    3.87
   6  -1  16    5.45    5.93
  -6  -1  17   42.30   11.45
  -6   1  17   35.35   11.86
   6  -1  17   41.76   11.82
   6   1  17   32.94   10.71
   6  -1  17   31.43    9.88
  -6  -1  18   14.53    8.80
  -6   1  18    7.49    4.66
   6  -1  18    4.49    8.58
   6   1  18    1.39    3.24
   6  -1  18   13.38    6.24
  -6  -1  18    5.66    4.16
  -6  -1  19  166.35   25.50
  -6   1  19  170.94   26.95
   6  -1  19  132.71   22.40
   6   1  19  124.88   21.55
   6  -1  19  183.79   25.29
  -6  -1  19  159.42   24.83
  -6  -1  20   -8.35    6.54
  -6   1  20    2.30    4.75
   6  -1  20    6.67    5.56
   6   1  20    6.54    7.95
  -6  -1  20   -3.30    7.21
  -6   1  20   -0.56    0.91
   6  -1  20   -2.53    2.97
  -6  -1  21   80.90   19.61
   6  -1  21   87.49   18.85
  -6   1  21   86.46   18.36
   6   1  21   88.03   18.71
  -6  -1  21   72.82   16.17
  -6   1  21   88.46   19.48
  -6  -1  22   -5.37    4.23
  -6   1  22    2.38    5.54
   6  -1  22    2.99    5.37
   6   1  22    6.99    7.32
  -6  -1  22   -2.33    6.74
  -6   1  22   -5.76    6.49
  -6  -1  23    0.53    3.56
  -6   1  23   -2.34    7.21
   6  -1  23   -3.05    1.13
   6   1  23    1.73    3.82
  -6  -1  23   -3.68    7.39
  -6   1  23   -2.61    5.35
  -6  -1  24    0.09    4.91
   6  -1  24    5.00    6.46
   6   1  24    6.52    7.38
  -6   1  24    0.76    6.37
  -6  -1  24    2.82    4.82
  -6   1  24    7.20    8.45
  -6  -1  25   -0.99    4.20
  -6   1  25    5.28    7.51
   6  -1  25   13.46    8.39
   6   1  25   -2.62    2.38
  -6  -1  25    7.55    5.80
  -6   1  25   -2.31    6.06
  -6  -1  26    8.95    8.09
  -6   1  26   20.46    8.36
   6  -1  26   13.93    8.84
   6   1  26    3.64    2.99
  -6  -1  26    2.27    6.81
  -6   1  26    6.62    5.38
  -6  -1  27    4.11    2.36
  -6   1  27   16.32   10.78
   6  -1  27    3.07    3.10
   6   1  27   -3.66    3.17
  -6  -1  27   -9.93   11.12
  -6   1  27    8.54   11.51
  -6  -1  28    1.89    7.04
  -6   1  28    8.41    7.65
   6  -1  28   -7.45    4.58
   6   1  28   -5.51    0.37
  -6  -1  28    0.43    3.27
  -6   1  28   -7.65    5.79
   6   2   0  184.24   20.13
   6  -2   0  149.94   20.05
   6   2   0  151.06   12.20
  -6   2   1  191.29   18.38
  -6  -2   1  164.68   11.27
  -6   2  -1  108.71    7.68
  -6   2  -1  141.15   15.54
   6  -2   1  192.95   23.73
   6   2   1  204.45   21.93
   6   2   1  199.10   15.25
   6   2  -1  226.38   14.08
   6   2   2    9.53    3.64
   6   2  -2   12.62    3.64
  -6  -2   2    9.84    3.43
  -6   2  -2   17.13    5.17
   6  -2   2    8.05    7.13
   6   2   2   11.24    3.86
  -6   2  -2    3.91    1.18
  -6   2   2    3.43    2.14
   6   2  -3  589.88   22.82
  -6  -2   3  424.96   21.95
  -6   2  -3  229.15   15.47
   6  -2   3  760.49   45.65
   6   2   3  433.95   31.75
  -6   2  -3  500.82   29.11
  -6   2   3  460.22   30.21
   6   2   3  581.79   29.76
  -6  -2   4  982.08   36.41
   6  -2   4  983.32   53.89
   6   2   4  889.68   47.16
  -6   2  -4  900.83   39.48
  -6   2   4  851.39   42.31
   6   2  -5   76.96    9.02
  -6  -2   5   61.24    9.67
   6  -2   5   70.00   14.49
  -6   2   5   69.64   11.24
  -6   2  -5   66.99   10.87
  -6  -2   6  441.28   27.72
   6   2   6  414.85   31.47
   6  -2   6  475.25   37.39
  -6   2   6  462.29   32.74
  -6   2  -6  459.63   28.80
  -6   2  -7  637.87   36.32
  -6  -2   7  674.69   36.75
   6  -2   7  722.28   46.12
   6   2   7  722.15   42.71
  -6   2   7  600.06   37.11
  -6  -2   8   63.45   11.34
  -6  -2  -8   47.58    5.65
  -6   2  -8   79.91   13.21
   6   2   8   73.56   13.98
  -6   2   8   59.86   11.36
   6  -2   8   57.93   12.56
  -6   2   9    6.03    3.48
  -6  -2   9   12.03    5.38
   6  -2   9   15.84    7.21
   6   2   9    2.70    4.77
   6  -2  10   80.37   17.34
  -6  -2  10   74.48   13.60
  -6   2  10   57.75   14.76
   6   2  10  119.50   17.53
  -6  -2  11  707.04   44.25
  -6   2  11  756.30   46.61
   6  -2  11  455.35   38.72
   6   2  11  475.78   36.81
   6  -2  11  666.16   38.13
  -6  -2  12   83.04   14.97
  -6   2  12   96.90   16.74
   6  -2  12   89.66   16.53
   6   2  12   71.11   14.16
   6  -2  12   78.96   14.01
  -6  -2  13  449.04   38.05
   6  -2  13  448.57   37.02
   6   2  13  384.30   33.77
  -6  -2  14   23.78    9.04
   6  -2  14   11.48    6.34
   6   2  14   22.06    9.08
  -6   2  14   29.22    8.96
   6  -2  14   15.80    9.58
  -6  -2  15   11.94    6.66
   6  -2  15   12.70    5.79
   6   2  15   14.76    8.13
  -6   2  15   10.42    6.24
   6  -2  15   10.03    6.37
  -6  -2  16   47.26   14.13
   6  -2  16   23.57    7.43
   6   2  16   31.33    8.67
  -6   2  16   30.99   11.49
   6  -2  16   18.85    5.23
  -6  -2  16   38.82   10.10
  -6  -2  17   66.41   15.55
   6  -2  17   47.07   13.28
   6   2  17   57.69   13.79
   6  -2  17   66.66   15.58
  -6   2  17   54.94   14.50
  -6  -2  17   57.04   14.51
  -6  -2  18   64.84   16.31
   6  -2  18   28.36   10.47
   6   2  18   38.73   11.51
  -6   2  18   99.30   18.07
   6  -2  18   66.87   14.74
  -6  -2  18   70.56   15.58
  -6  -2  19   74.61   19.21
   6  -2  19   55.37   14.22
  -6   2  19   64.72   16.89
   6   2  19   47.28   12.77
   6  -2  19   43.98   13.34
  -6  -2  19   74.03   16.41
  -6  -2  20   -0.84    2.18
  -6   2  20    1.29    4.51
   6  -2  20   -2.81    2.09
   6   2  20    5.43    5.67
  -6  -2  20    8.30    7.85
   6  -2  20   -1.32    4.25
  -6  -2  21   72.22   17.15
  -6   2  21   53.61   17.92
   6  -2  21   58.91   15.96
   6   2  21   75.62   17.60
  -6  -2  21   66.21   15.50
   6  -2  21   52.15   14.78
  -6   2  21   61.47   16.68
  -6  -2  22   24.68   10.69
  -6   2  22   25.88   11.44
   6  -2  22   30.66   10.50
   6   2  22   36.22    9.62
  -6  -2  22   15.56    8.17
   6  -2  22   27.02   12.57
  -6   2  22   24.29   11.65
  -6  -2  23    0.23    4.76
  -6   2  23    1.53    4.47
   6  -2  23   -3.25    6.00
   6   2  23   -0.09    4.96
  -6  -2  23    3.78    6.23
  -6   2  23    3.96    6.75
  -6  -2  24    3.91    2.80
  -6   2  24   -8.12    8.14
   6  -2  24    6.93    7.85
   6   2  24    4.85    5.15
  -6  -2  24    4.86    7.31
  -6   2  24   -0.38    4.46
  -6  -2  25   35.62   11.91
  -6   2  25   33.77   16.42
   6  -2  25   47.88   14.81
   6   2  25   65.80   16.58
  -6  -2  25   38.39   14.08
  -6   2  25   41.45   13.27
  -6  -2  26    4.23    6.99
  -6   2  26   14.52    9.43
   6  -2  26   10.35    7.44
   6   2  26    9.90    6.59
  -6  -2  26    5.18    8.95
  -6   2  26   -0.87    6.31
  -6  -2  27   -0.58    4.20
  -6   2  27   -6.08    9.86
   6  -2  27    8.13    2.00
   6   2  27    3.65    2.99
  -6  -2  27    7.78    4.00
  -6   2  27   -6.55   10.28
  -6  -2  28   21.37   11.08
  -6   2  28   37.79   15.42
   6  -2  28   29.58    8.95
   6   2  28   14.87    7.29
  -6  -2  28   21.90   10.90
  -6   2  28    5.96   10.33
   6   3   0    0.24    1.92
  -6   3   0    1.37    0.78
  -6   3   0    0.16    1.18
   6   3   0   -0.74    2.07
   6  -3   0   -1.95    3.27
  -6   3   1   24.09    7.54
  -6   3   1   25.21    3.87
   6   3   1   21.86    5.65
   6   3  -1   31.60    6.66
  -6   3  -1   25.44    4.84
  -6   3  -1   33.39    8.25
   6  -3   1   31.16    9.37
   6   3   1   31.38    8.04
   6   3   2    7.57    4.39
  -6   3   2    6.86    1.73
  -6  -3   2    7.38    1.98
   6   3  -2   13.87    4.64
  -6   3  -2   23.92    4.68
   6  -3   2    8.41    4.15
   6   3   2   13.20    5.80
  -6   3  -2    4.16    3.35
  -6   3   2   10.08    3.95
   6   3   3   -0.65    1.30
  -6  -3   3   -0.45    1.55
   6   3  -3    0.05    1.56
   6  -3   3   -1.26    2.23
   6   3   3    0.92    3.03
  -6   3  -3   -1.24    1.23
  -6   3   3    0.10    3.33
  -6   3  -3    2.30    3.23
   6  -3   4  552.29   40.19
   6   3   4  538.99   35.68
  -6   3  -4  520.64   32.78
  -6   3   4  596.34   37.53
  -6  -3   4  582.98   27.71
   6   3   5   25.76    7.83
   6   3  -5   57.62    9.45
   6  -3   5   56.73   11.70
   6   3   5   40.29    9.24
  -6   3   5   65.49   12.27
  -6   3  -5   59.75   11.36
  -6  -3   5   45.00    8.24
   6   3   6    7.87    4.01
  -6  -3   6    3.96    3.54
   6   3  -6    3.98    2.85
  -6   3   6    1.50    4.32
   6  -3   6    9.66    7.46
   6   3   6    0.35    3.34
  -6   3  -6    0.05    1.33
  -6   3  -6    3.28    2.72
  -6  -3   7  183.44   19.23
  -6   3  -7  181.31   20.52
   6   3  -7  254.49   19.43
   6   3   7  186.57   21.27
  -6   3  -7  207.18   20.21
  -6   3   7  209.64   22.73
   6   3   7  242.39   24.14
  -6  -3   8  130.67   16.45
  -6   3  -8  140.67   17.87
   6   3  -8   59.49   10.08
   6  -3   8  113.20   18.68
   6   3   8  178.77   21.10
  -6   3   8   96.80   15.98
  -6   3   9   -3.06    0.30
  -6  -3   9    1.10    0.48
   6   3  -9    4.76    4.35
   6  -3   9    4.07    5.64
   6   3   9    4.17    4.18
  -6   3  -9    1.41    2.51
   6   3 -10  187.06   18.72
   6  -3  10  107.96   18.46
  -6   3  10  148.18   20.14
   6   3  10  147.67   19.50
  -6   3  11   -1.65    4.55
  -6  -3  11    3.81    4.34
   6   3 -11   -6.70    3.73
   6  -3  11   -0.04    3.99
   6   3  11    1.25    4.26
  -6   3  12  217.16   25.71
   6  -3  12  226.28   27.87
   6   3  12  187.32   23.01
   6  -3  12  189.69   21.39
  -6  -3  13   11.53    5.53
   6  -3  13   15.12    4.64
   6   3  13   13.55    5.81
   6  -3  13   22.01    9.17
  -6   3  13    7.17    8.64
  -6  -3  14   22.81    8.20
   6  -3  14   24.57    7.48
   6   3  14   25.28    8.36
   6  -3  14   35.35   10.01
  -6   3  14   34.95   11.47
  -6  -3  14   24.41    6.55
  -6  -3  15   19.87    8.08
   6  -3  15    9.78    6.73
   6   3  15   21.48    8.79
   6  -3  15   21.26    6.29
  -6   3  15   18.10    8.35
  -6  -3  15   11.73    5.76
  -6  -3  16  206.21   26.47
  -6   3  16  201.88   27.72
   6  -3  16  180.33   23.94
   6   3  16  225.33   27.90
   6  -3  16  282.69   29.72
  -6  -3  16  207.68   25.86
  -6  -3  17    2.55    5.01
   6  -3  17    2.46    4.56
   6   3  17    5.78    4.96
  -6   3  17    4.29    5.97
   6  -3  17    7.32    4.96
  -6  -3  17   -4.50    2.05
  -6  -3  18  154.66   24.33
  -6   3  18  122.95   22.52
   6  -3  18  125.34   21.01
   6   3  18  135.21   22.01
   6  -3  18  129.25   21.03
  -6  -3  18  144.25   21.64
  -6   3  19  102.96   21.01
  -6  -3  19   67.10   17.61
   6  -3  19   77.24   17.17
   6   3  19   77.54   18.87
   6  -3  19   82.21   17.63
  -6  -3  19   68.07   15.45
  -6  -3  20   20.07    7.75
   6  -3  20   39.48   12.87
   6   3  20   16.60    9.27
  -6   3  20   26.43   10.10
   6  -3  20   16.59    9.43
  -6  -3  20    4.62    5.56
  -6  -3  21    0.03    5.16
   6  -3  21    5.83    6.17
  -6   3  21   12.16    9.49
   6   3  21    5.00    4.91
  -6  -3  21   -9.09    9.50
   6  -3  21    1.36    1.70
  -6  -3  22   28.88   11.84
   6  -3  22   40.11   13.66
  -6   3  22   62.89   16.83
   6   3  22   22.02   11.22
  -6  -3  22    0.94    7.38
   6  -3  22   41.16   11.79
  -6   3  22   30.66   12.49
  -6  -3  23    3.85    2.90
  -6   3  23    3.38    7.16
   6  -3  23   -3.05    4.43
   6   3  23    9.62    6.57
  -6  -3  23    8.92    4.88
   6  -3  23    5.41    4.79
  -6   3  23    4.28    4.51
  -6  -3  24   11.00    7.99
  -6   3  24   11.39   11.15
   6  -3  24   12.82    9.62
   6   3  24   -0.09    4.14
  -6  -3  24    6.34    6.43
   6  -3  24   14.99    7.96
  -6   3  24   21.84    9.84
  -6  -3  25   -3.19    2.01
  -6   3  25    5.53    2.01
   6  -3  25   -5.30    5.22
   6   3  25    8.30   10.14
  -6  -3  25    8.72    7.66
  -6   3  25  -14.77   12.77
  -6  -3  26   -2.47    2.18
  -6   3  26   -2.45    7.55
   6  -3  26   -3.29    6.60
   6   3  26   -0.72    5.86
  -6  -3  26    4.84    7.68
  -6   3  26    2.88    2.27
  -6  -3  27   -1.15    6.83
  -6   3  27    3.42    8.15
   6  -3  27    6.68    6.32
   6   3  27    7.22   10.13
  -6  -3  27   16.89   10.15
  -6   3  27    7.78    4.79
  -6  -3  28   14.30    9.25
  -6   3  28    1.72    1.03
   6  -3  28   -1.21    3.13
   6   3  28    8.69    8.68
  -6   3  28    5.21    4.92
   6   4   0  116.33   14.64
  -6   4   0   88.49   14.52
   6  -4   0  131.05   19.68
   6   4   1  142.16   16.53
   6   4  -1   77.26   12.17
  -6   4   1  140.91   12.89
  -6   4  -1   84.66   10.41
  -6   4   1  104.08   15.83
  -6   4  -1   97.31   14.17
   6   4   1  115.93   15.00
   6  -4   1   46.77   12.72
  -6   4   2    3.74    1.57
   6   4   2    3.11    3.31
  -6   4   2    2.83    2.56
   6   4  -2    8.18    4.18
   6  -4   2   11.10    6.24
   6   4   2    3.41    4.20
  -6   4  -2   12.88    4.72
  -6   4  -2    2.79    3.79
  -6  -4   2    2.64    1.32
  -6   4   3   90.37    9.57
  -6   4   3   97.21   15.14
   6   4  -3   95.31   12.84
  -6   4  -3   81.53   10.96
   6  -4   3   84.20   17.14
   6   4   3   94.15   14.00
  -6   4  -3   90.95   14.73
  -6  -4   3   79.93    8.60
   6   4   3  100.91   13.96
  -6  -4   4   25.68    4.99
   6   4   4   13.09    4.89
  -6   4   4   20.24    4.62
  -6   4  -4   15.47    6.27
   6   4  -4   23.45    7.27
   6  -4   4   22.86    7.81
  -6   4  -4   16.21    6.39
   6   4   4   18.56    5.83
  -6   4   4   28.32    8.48
  -6   4   5    5.71    2.51
   6   4   5   15.29    6.86
  -6  -4   5   21.86    5.46
   6   4  -5   11.07    3.14
  -6   4  -5   14.31    5.87
   6  -4   5   12.44    7.90
  -6   4  -5    4.06    3.63
   6   4   5    6.58    3.00
  -6   4   5   14.24    6.44
  -6   4   6    7.40    2.96
   6   4   6    7.92    4.86
  -6  -4   6    9.03    4.52
   6   4  -6    6.91    3.18
  -6   4   6    5.92    3.85
   6  -4   6    8.41    7.49
   6   4   6   10.83    4.43
  -6   4  -6    6.03    3.43
  -6   4  -6   13.46    5.59
  -6   4  -7  237.61   23.63
   6   4  -7  150.84   17.18
  -6   4  -7  244.76   22.95
   6  -4   7  289.11   33.08
   6   4   7  161.02   19.21
  -6   4   7  263.03   27.02
  -6  -4   7  242.97   21.49
  -6   4   7  312.09   21.29
   6   4   7  403.20   32.05
  -6   4  -8  698.29   42.42
   6   4  -8  840.49   40.33
   6  -4   8  657.58   47.33
   6   4   8  450.61   32.47
  -6   4  -8  578.69   40.36
  -6   4   8  591.21   40.93
  -6  -4   8  679.03   38.20
   6   4   8  510.95   36.56
   6   4  -9   74.41   12.56
  -6   4  -9  140.47   19.07
   6  -4   9  178.74   24.25
  -6   4  -9  111.81   16.63
   6   4   9  131.54   17.11
  -6   4   9  113.98   18.25
  -6  -4   9  111.79   16.74
   6   4   9   52.40   12.75
   6   4 -10  281.60   25.41
  -6   4 -10  219.83   25.09
   6  -4  10  228.38   27.20
  -6   4 -10  245.66   25.58
   6   4  10  210.47   23.42
  -6   4  10  198.52   24.45
  -6  -4  10  222.01   23.99
  -6   4  11   20.72    7.64
  -6  -4  11    5.53    3.42
   6   4 -11    5.24    4.30
   6  -4  11   15.88    9.20
   6   4  11    7.30    4.88
  -6   4 -11   12.48    6.57
  -6   4  12   15.45    8.11
  -6  -4  12   26.01    9.60
   6   4 -12   38.78   11.67
   6  -4  12   16.07    6.90
   6   4  12    7.82    5.32
  -6  -4  12   14.22    6.55
  -6   4  13   15.89    6.93
  -6  -4  13   46.17   13.09
   6   4 -13    2.17    3.52
   6  -4  13   40.33   11.77
   6   4  13   34.02   10.23
   6  -4  13    3.03    6.62
  -6  -4  13   21.94    8.15
  -6   4  14   30.96   10.20
  -6  -4  14   41.00   11.30
   6  -4  14   21.69    9.19
   6   4  14   27.47    8.72
   6  -4  14   11.85   10.46
  -6  -4  14   28.46    9.00
  -6   4  15  171.23   25.43
   6   4  15  130.60   21.14
   6  -4  15  130.77   19.98
  -6  -4  15  135.13   19.00
  -6  -4  15  135.48   22.02
  -6  -4  16   30.00   10.04
   6  -4  16   32.89    9.50
   6   4  16   27.05   10.27
   6  -4  16   39.76   12.01
  -6  -4  16   32.02   10.81
  -6   4  16   25.02   11.38
  -6  -4  17   55.71   13.84
   6  -4  17   64.42   15.60
   6   4  17   53.61   12.91
   6  -4  17   38.30   11.66
  -6   4  17   59.70   16.17
  -6  -4  17   43.16   11.17
  -6  -4  18   84.05   18.81
  -6   4  18   87.92   19.22
   6  -4  18  121.62   20.44
   6   4  18  116.33   22.19
   6  -4  18   76.39   16.12
  -6  -4  18  103.79   19.90
  -6  -4  19   12.66    3.78
   6  -4  19   18.61    8.82
   6   4  19   16.81    9.61
  -6   4  19   11.51    5.69
   6  -4  19    4.62    2.27
  -6  -4  19   17.28    6.16
  -6  -4  20    3.78    4.71
   6  -4  20    0.25    3.71
   6   4  20    4.30    4.80
  -6   4  20    3.87    8.40
   6  -4  20   -2.40    3.19
  -6  -4  20    1.50    5.15
  -6  -4  21   19.34    9.13
   6  -4  21   19.07    8.56
   6   4  21   16.83    7.33
  -6   4  21   33.75   14.99
   6  -4  21   19.12    7.51
  -6  -4  21   17.53    5.49
  -6  -4  22   55.75   16.37
   6  -4  22   41.70   12.41
   6   4  22   32.64   11.26
  -6   4  22   50.21   16.01
  -6  -4  22   44.38   12.52
   6  -4  22   62.30   16.39
  -6   4  22   66.55   17.15
  -6  -4  23   18.17    6.76
   6  -4  23   24.55   10.49
  -6   4  23   42.23   14.77
   6   4  23   43.96   15.12
  -6  -4  23    8.45    4.74
   6  -4  23   22.84   10.42
  -6   4  23   35.36   12.13
  -6  -4  24   -0.06    3.59
   6  -4  24    3.86    5.75
  -6   4  24    0.59    4.89
   6   4  24   -0.41    4.80
  -6  -4  24    2.94    5.05
   6  -4  24    0.24    6.31
  -6   4  24    5.09    8.74
  -6  -4  25   33.08   13.03
  -6   4  25   23.75   13.48
   6  -4  25   23.46   11.56
   6   4  25   13.27    2.29
   6  -4  25   11.57    6.42
  -6   4  25   17.66   10.02
  -6  -4  26    7.51    3.03
  -6   4  26    4.68    1.64
   6  -4  26   16.47   11.34
   6   4  26   17.75    6.89
   6  -4  26    8.31    6.91
  -6   4  26    6.14    5.55
  -6  -4  27   15.98    9.54
  -6   4  27    7.50    5.41
   6  -4  27   16.64    9.19
   6   4  27    1.55    1.63
  -6   4  27    5.09    4.52
   6   5   0    7.53    4.86
  -6   5   0    2.63    3.38
  -6   5   0    0.55    2.22
   6   5   1  158.40   19.18
   6   5  -1  213.48   21.98
  -6   5   1  218.70   19.25
  -6   5  -1  183.58   17.50
  -6   5   1  188.45   21.68
  -6   5  -1  190.36   21.73
  -6   5   2   38.01    9.80
   6   5   2   38.43    9.83
  -6   5   2   25.15    5.92
   6   5  -2   21.61    7.46
  -6   5  -2   31.08    7.32
   6  -5   2   54.99   14.74
  -6   5  -2   33.59    9.11
   6   5   3   -2.13    2.49
  -6   5   3   -0.60    1.71
   6   5  -3    0.99    3.11
  -6   5  -3   -0.24    0.25
  -6  -5   3    2.33    2.78
   6  -5   3    0.97    5.61
  -6   5   3    1.94    2.74
  -6   5  -3    0.30    2.07
   6   5   4    1.52    2.14
  -6   5   4    0.30    1.28
  -6   5  -4   -1.65    2.21
   6   5  -4    0.45    1.68
  -6   5  -4    2.37    0.96
   6  -5   4   -0.40    3.73
   6   5   4    3.55    2.95
  -6   5   4    0.41    2.60
  -6  -5   4   -0.56    1.15
   6   5  -5  182.48   20.80
  -6   5  -5  194.41   20.29
   6  -5   5  193.82   24.55
   6   5   5  202.89   20.96
  -6  -5   5  125.83   15.34
  -6   5  -5  188.04   21.93
  -6   5   5  205.48   24.07
   6   5   5  158.61   19.92
  -6   5   5  149.88   14.86
   6   5  -6  160.25   19.96
  -6   5  -6  100.33   15.78
   6  -5   6   99.09   16.97
   6   5   6  108.87   15.70
  -6  -5   6  105.77   13.91
  -6   5  -6  111.54   17.32
  -6   5   6  136.04   20.03
   6   5   6   94.60   15.69
  -6   5   6  157.29   15.48
   6   5  -7  125.08   16.95
  -6   5  -7  254.56   24.01
   6  -5   7  143.36   21.04
   6   5   7  233.88   23.07
  -6  -5   7  127.30   16.31
  -6   5   7   92.37   17.07
  -6   5  -7  112.59   17.05
  -6   5   7  110.36   14.74
   6   5   7  110.25   17.72
  -6   5   8   16.75    6.36
   6   5   8    6.06    4.97
  -6  -5   8   15.82    6.13
   6   5  -8   19.89    6.78
  -6   5   8   19.52    6.94
   6  -5   8   15.80    7.67
  -6   5  -8   15.28    6.50
  -6   5  -8   14.49    6.61
   6   5   8   16.86    7.04
  -6   5  -9  149.22   20.52
   6   5  -9  183.27   20.06
  -6   5  -9  165.21   20.39
   6  -5   9  159.88   24.66
   6   5   9  133.52   18.30
  -6   5   9  134.18   21.27
  -6  -5   9  107.58   14.36
  -6  -5   9  154.94   19.99
  -6   5   9  151.03   17.89
   6   5   9  132.40   20.75
  -6   5 -10   10.93    6.10
   6   5  10    2.31    4.41
  -6  -5  10   14.55    7.03
  -6   5  10    9.55    2.20
   6   5 -10   10.53    3.07
   6  -5  10   15.73    8.20
  -6   5 -10    7.92    7.42
   6   5  10   12.07    6.39
  -6  -5  10    8.73    2.50
   6   5  11    7.61    7.22
  -6  -5  11    3.34    3.82
  -6   5  11    7.45    3.90
  -6   5 -11   10.81    7.03
   6   5 -11    2.47    3.67
   6  -5  11   13.70    5.29
  -6   5 -11    3.90    6.50
   6   5  11    3.51    4.81
  -6  -5  11   13.76    5.63
   6   5  12   27.76   10.00
  -6  -5  12   10.49    4.72
  -6   5  12   31.89   10.48
   6   5 -12   18.56    6.06
   6  -5  12   31.20   10.09
  -6   5 -12   21.86    9.62
   6   5  12   28.10    8.43
  -6  -5  12   26.03    7.59
   6   5 -13   76.61   15.03
   6  -5  13  118.37   20.46
  -6   5 -13  139.60   21.57
  -6   5  13  121.10   21.26
   6   5  13  136.65   20.59
  -6  -5  13  140.45   18.42
  -6  -5  13  149.11   22.20
   6   5  13  136.05   22.67
  -6   5  14   20.94    9.35
  -6  -5  14   30.41   11.31
   6   5 -14   43.11   12.50
   6  -5  14   37.97   10.74
  -6   5 -14   45.31   12.83
   6   5  14   20.83   11.42
  -6  -5  14   28.02    8.67
  -6   5  15   22.27   12.16
  -6  -5  15    7.51    5.47
   6  -5  15   19.59   10.48
  -6   5 -15   23.00   10.89
   6   5  15    8.73    5.33
   6  -5  15   13.13    5.72
  -6  -5  16    1.83    7.19
   6  -5  16    8.52    6.97
  -6   5 -16    4.85    6.62
   6   5  16    3.83    3.98
   6  -5  16    9.60    7.08
  -6   5  16    2.78    4.40
  -6  -5  17    1.11    4.85
   6  -5  17   -0.82    3.47
  -6   5 -17    5.64    4.25
   6   5  17   -2.01    5.12
   6  -5  17    5.11    6.29
  -6   5  17   -2.03    5.47
  -6   5  18  121.98   22.13
   6   5  18  104.88   21.22
   6  -5  18   49.20   13.54
   6  -5  18   78.14   17.95
  -6  -5  18   89.81   19.01
  -6  -5  19   37.23   10.96
   6  -5  19   19.17    9.92
   6   5  19   13.32    7.73
   6  -5  19   16.91    8.89
  -6   5  19   18.37    8.92
  -6  -5  20   -4.01    3.00
   6  -5  20    0.95    5.47
   6   5  20   -3.89    3.16
  -6   5  20    2.34    1.11
   6  -5  20    2.18    5.12
  -6  -5  21   57.43   15.70
   6  -5  21   22.98   12.34
   6   5  21   21.22   10.18
  -6   5  21   30.56   12.80
   6  -5  21   21.61   10.33
  -6  -5  22    1.03    0.84
   6  -5  22   -0.23    0.94
   6   5  22   -5.44    6.67
  -6   5  22   -2.25    6.89
   6  -5  22   -0.32    3.20
  -6  -5  23    7.76    7.29
   6  -5  23    9.62    8.25
   6   5  23    7.91    5.72
  -6   5  23    7.97    5.15
   6  -5  23    5.95    3.81
  -6   5  23   -1.62    8.16
  -6  -5  24   29.20    9.51
   6  -5  24   25.36   10.91
  -6   5  24   38.35   13.34
   6   5  24   17.39    8.67
   6  -5  24    8.04    5.46
  -6   5  24   42.74   14.87
  -6  -5  25    2.62    7.81
   6  -5  25   24.81   10.83
  -6   5  25   41.80   16.26
   6   5  25   31.21   13.63
   6  -5  25    2.73    5.25
  -6   5  25    4.90    8.31
  -6  -5  26    4.12    3.94
   6  -5  26    7.68    7.40
  -6   5  26   -9.71    8.29
   6   5  26   -3.79    5.25
   6  -5  26   -3.48    4.09
  -6   5  26   -3.21    5.56
  -6  -5  27   -0.19    3.30
  -6   5  27    0.88    5.47
   6  -5  27   -2.41    2.29
   6   5  27    6.16    5.02
   6  -5  27    1.83    5.14
  -6   5  27   -1.79    5.13
   6   6   0    0.92    2.94
  -6   6   0    0.17    1.90
  -6   6   0   -2.41    6.04
   6   6   1  172.56   21.63
   6   6  -1  133.91   19.30
  -6   6   1  155.16   17.98
  -6   6  -1  163.06   18.93
  -6   6   1  110.55   18.00
   6  -6   1  109.95   18.81
  -6   6  -1  123.58   18.64
   6   6   2   17.84    7.35
  -6   6   2   14.89    7.58
  -6   6   2   15.39    5.83
   6   6  -2   15.66    6.62
  -6   6  -2   12.42    4.94
   6  -6   2   15.22    8.50
  -6   6  -2   14.06    6.50
  -6   6   3   22.71    8.25
   6   6   3    7.36    5.61
  -6   6   3    8.45    4.22
   6   6  -3   12.26    6.90
  -6   6  -3   11.64    5.83
   6  -6   3    7.43    2.05
  -6   6  -3   14.13    5.08
   6   6   4  514.86   37.91
  -6   6   4  733.85   39.91
  -6   6   4  594.76   42.17
   6   6  -4  599.64   40.42
  -6   6  -4  764.04   41.07
   6  -6   4  611.77   48.42
  -6   6  -4  689.92   44.45
  -6   6   5   45.14    9.66
  -6   6   5   70.02   14.88
   6   6  -5  106.12   16.33
  -6   6  -5   66.23   12.26
   6  -6   5   81.36   16.16
  -6  -6   5   60.39   10.46
  -6   6  -5   82.14   14.87
   6   6   5   62.96   14.27
   6   6   6   19.52    7.14
  -6   6   6   25.01    6.50
   6   6  -6   31.34    8.30
  -6   6  -6   40.80    9.84
   6  -6   6    8.79    2.86
  -6   6  -6   16.85    4.45
  -6   6   6   27.43    9.30
  -6  -6   6   24.55    7.24
   6   6  -7  249.01   25.56
  -6   6  -7  186.36   22.25
   6  -6   7  225.79   28.82
  -6  -6   7  158.57   18.01
  -6   6   7  238.13   27.71
  -6   6  -7  175.63   23.07
   6   6   7  219.88   25.50
  -6   6   7  196.83   20.00
  -6   6   8   12.90    6.46
   6   6   8    9.65    5.25
  -6   6  -8    8.81    4.99
   6   6  -8    4.55    4.49
  -6   6   8   15.25    7.40
   6  -6   8   13.73    7.47
  -6   6  -8   13.00    7.08
  -6  -6   8   12.27    6.54
  -6  -6   9    6.32    3.25
  -6   6   9   11.00    5.67
   6   6   9   14.87    6.80
   6   6  -9    6.76    4.39
  -6   6   9    2.07    5.66
   6  -6   9    4.03    4.14
  -6   6  -9    9.19    3.98
  -6   6  -9   16.53    7.62
  -6   6 -10   62.25   15.20
   6   6 -10   79.28   14.69
  -6   6  10   28.63   13.58
   6  -6  10   56.25   14.86
  -6   6 -10   55.07   11.44
  -6  -6  10   72.07   14.30
   6   6  10   74.37   16.00
   6   6 -11  396.32   33.28
  -6   6 -11  188.34   24.09
  -6   6 -11  134.05   20.09
   6  -6  11  159.97   23.84
  -6   6  11  229.29   28.31
  -6  -6  11  173.77   22.34
   6   6  11  321.55   33.53
   6   6  12   60.92   14.38
  -6  -6  12   58.44   13.38
  -6   6  12   66.41   15.58
   6   6 -12   65.41   13.80
  -6   6 -12   83.67   17.33
   6  -6  12   71.80   16.46
  -6   6 -12   25.79    9.08
   6   6  13   28.17    9.28
  -6  -6  13   24.98    9.30
  -6   6  13   21.54    8.07
   6  -6  13   19.22    9.04
  -6   6 -13   17.35    8.26
   6   6  13   19.72   11.11
   6   6 -13    8.49    5.62
   6   6 -14  234.42   26.54
  -6   6 -14  170.30   25.45
   6  -6  14  315.78   33.63
  -6   6  14  259.98   30.84
   6   6  14  273.59   30.70
  -6  -6  14  306.96   31.83
   6   6  14  231.38   31.67
  -6  -6  15   80.94   16.36
   6   6 -15  137.23   22.24
  -6   6  15   89.46   19.07
   6  -6  15   78.91   17.60
  -6   6 -15   81.71   17.70
   6   6  15   81.05   16.33
   6   6  15  113.69   23.15
  -6   6  16   12.52    4.76
  -6  -6  16   19.61    8.64
   6  -6  16    9.84    4.38
  -6   6 -16   13.61    8.84
   6  -6  16   19.83    8.12
   6   6  16   19.62   10.86
  -6   6  17   21.58   10.16
  -6  -6  17   12.09    7.35
  -6   6 -17   13.72    7.11
   6   6  17   15.56    8.01
   6  -6  17    6.91    5.50
   6  -6  17   21.61   10.92
  -6  -6  18   50.63   14.32
   6  -6  18   58.04   15.14
  -6   6 -18   81.29   18.04
   6   6  18   63.22   16.18
   6  -6  18   42.48   13.41
  -6   6  18   54.87   16.02
  -6  -6  19   12.58    7.21
   6  -6  19   12.94   11.35
  -6   6 -19   15.47    5.99
   6   6  19   14.76    9.79
   6  -6  19   15.23    9.47
  -6   6  19    2.10    4.60
  -6  -6  20    5.68    5.15
   6  -6  20   11.10    9.94
  -6   6 -20   10.37    7.16
   6   6  20    1.32    4.13
   6  -6  20   -1.40    4.79
  -6   6  20    6.43    3.56
  -6  -6  21   17.87   10.38
   6  -6  21   12.92    7.88
  -6   6 -21    9.31    5.81
   6   6  21   -0.76    7.08
   6  -6  21    4.28    2.64
  -6   6  21   15.39   10.16
  -6  -6  22   20.35    9.67
   6  -6  22   24.04   10.21
  -6   6 -22   67.49   16.70
   6   6  22   43.03   13.80
  -6   6  22   20.12   10.36
   6  -6  22   34.25   12.43
  -6  -6  23   20.63   11.05
   6  -6  23   11.80   11.83
  -6   6 -23   34.46   12.55
   6   6  23   36.44   12.47
  -6   6  23    7.53    5.82
   6  -6  23   10.95    8.44
  -6   6  23   18.66   12.20
  -6  -6  24   36.01   13.00
   6  -6  24   36.02   12.57
  -6   6 -24   28.74   11.07
   6   6  24   23.10   10.36
  -6   6  24   23.97    9.33
   6  -6  24   31.52   11.27
  -6   6  24   28.65   13.19
  -6  -6  25   52.86   15.95
   6  -6  25   36.45   11.62
  -6   6 -25   37.09   12.11
   6   6  25   43.57   12.75
  -6   6  25   35.67   11.79
   6  -6  25   44.41   15.13
  -6   6  25   30.45   10.17
  -6  -6  26   21.01    9.29
   6  -6  26    5.90    3.74
  -6   6 -26   37.73   17.02
  -6   6  26   57.97   16.44
   6   6  26   30.58   12.63
   6  -6  26   49.99   16.04
  -6   6  26   49.15   14.42
   6   7   0  167.24   23.00
  -6   7   0  198.80   23.00
  -6   7   0  143.78   20.48
   6   7   1  119.24   19.11
   6   7  -1   83.08   15.27
  -6   7   1   98.05   15.76
  -6   7   1   84.04   15.72
  -6   7  -1   51.22   11.24
  -6   7  -1   85.27   15.71
   6   7   2  230.04   25.98
  -6   7   2  168.07   20.98
   6   7  -2  257.92   27.84
  -6   7  -2  256.09   26.36
  -6   7   2  209.87   25.11
   6  -7   2  198.91   26.21
  -6   7  -2  208.64   25.53
   6   7   3  135.29   19.74
  -6   7   3  111.81   16.76
   6   7  -3   87.77   16.91
  -6   7   3  128.84   19.45
  -6   7  -3   86.28   14.69
   6  -7   3  149.33   22.35
  -6   7  -3  125.67   20.63
  -6   7  -4   -3.26    5.47
   6   7   4    0.38    2.18
  -6   7   4   -0.54    1.70
   6   7  -4   -2.54    4.39
  -6   7  -4    0.07    0.65
   6  -7   4    2.20    2.17
  -6   7   4    4.25    4.53
   6   7   5   26.02    9.47
  -6   7   5   42.35   10.26
  -6   7  -5   27.24    7.87
   6   7  -5   36.58   11.49
  -6   7  -5   24.74    8.53
   6  -7   5   34.93   11.48
  -6   7   5   34.74   11.85
   6   7   6    0.93    3.16
  -6   7   6   -0.41    3.32
   6   7  -6   -1.07    3.23
  -6   7  -6    0.77    2.97
   6  -7   6    3.20    5.15
  -6   7  -6    3.30    2.18
  -6   7   6    0.91    1.14
   6   7   7    1.80    3.37
  -6   7   7    0.87    2.12
   6   7  -7    2.82    3.32
  -6   7  -7   -3.25    2.10
   6  -7   7   -0.46    4.61
  -6   7   7   10.77    6.24
  -6   7  -7   -2.68    3.00
  -6   7  -8    2.25    2.10
   6   7   8   -3.07    3.71
  -6   7   8    1.29    2.74
   6   7  -8    0.29    2.18
  -6   7  -8   -1.35    4.64
   6  -7   8   -0.78    2.37
  -6   7   8    1.28    3.47
  -6  -7   8   -0.12    3.81
   6   7   9    6.52    4.73
  -6   7  -9    4.21    3.94
   6   7  -9    9.57    8.31
  -6   7   9   24.37   10.82
   6  -7   9    7.36    7.81
  -6   7  -9    9.06    6.21
  -6  -7   9    2.11    3.34
   6   7  10   24.09    8.54
   6   7 -10   48.63   11.52
  -6   7  10   57.40   14.55
   6  -7  10   60.06   15.64
  -6   7 -10   59.00   13.88
  -6  -7  10   66.60   13.82
  -6   7 -10   36.33   11.07
   6   7  11    1.17    2.67
  -6   7 -11   -1.77    5.14
  -6   7  11   -0.02    1.98
   6   7 -11   -2.76    1.74
   6  -7  11   -2.10    3.26
  -6   7 -11   -2.86    1.91
  -6  -7  11    1.27    3.73
  -6  -7  12   14.38    6.69
   6   7  12   14.13    7.97
  -6   7  12   12.75    7.62
   6   7 -12   15.60    8.55
   6  -7  12   39.28   12.81
  -6   7 -12    5.29    5.22
  -6   7 -12    6.17    7.54
  -6  -7  13   10.97    5.00
   6   7  13    1.21    4.63
  -6   7 -13    6.27    6.46
  -6   7  13    4.97    3.54
   6   7 -13    4.89    6.03
   6  -7  13   11.34    8.13
  -6   7 -13    9.10    9.10
   6   7  14   38.42    8.80
  -6  -7  14   13.18    8.60
  -6   7  14   45.60   13.89
   6   7 -14   17.24    8.88
   6  -7  14   24.86    8.77
  -6   7 -14    7.64    2.50
   6   7  15   -5.14    7.02
  -6  -7  15   -3.66    6.76
  -6   7  15    8.67    4.68
   6   7 -15    8.39   10.44
   6  -7  15    8.24    4.71
  -6   7 -15    5.41    4.61
   6   7  16    8.37    3.62
  -6  -7  16   -0.98    5.98
  -6   7  16   13.91   10.18
   6   7 -16    9.67    6.72
   6  -7  16    2.26    1.02
  -6   7 -16    1.26    4.61
  -6  -7  17   10.15    7.73
  -6   7  17   19.77   11.15
   6  -7  17   11.76    9.18
  -6   7 -17    6.65    1.95
  -6   7  18   18.58   10.90
  -6  -7  18   23.32    9.71
   6  -7  18   20.60   10.17
  -6   7 -18   17.45    9.14
  -6  -7  19   -6.23    5.89
   6  -7  19   -1.18    4.25
  -6   7 -19   -4.85    7.10
   6  -7  19    3.15    3.53
  -6   7  19   -2.59    7.72
  -6  -7  20   11.54    6.36
   6  -7  20    5.80    5.94
  -6   7 -20    3.25    2.72
   6  -7  20    1.00    5.21
  -6   7  20    5.95    5.31
  -6  -7  21    4.61    4.79
   6  -7  21   -1.69    3.22
  -6   7 -21    2.62    5.11
   6  -7  21    9.29    8.59
  -6   7  21    6.45    5.38
  -6  -7  22    3.24    1.54
   6  -7  22    5.48    7.21
  -6   7 -22    6.83    4.96
   6  -7  22    5.18    6.47
  -6   7  22   22.63   10.94
  -6  -7  23   -7.27    9.69
   6  -7  23   -2.54    4.18
  -6   7 -23   -6.08    7.68
   6  -7  23   -1.55    4.17
  -6   7  23    3.73    6.87
  -6   7  23   -1.31    3.70
  -6  -7  24    6.42    7.68
   6  -7  24   -6.67    7.76
  -6   7 -24   -4.70    7.24
  -6   7  24    8.56    7.35
   6  -7  24   -2.02    4.26
  -6   7  24   -2.24    1.80
  -6  -7  25   14.18    9.34
   6  -7  25    3.31    7.03
  -6   7 -25    4.01    3.79
  -6   7  25   -3.33    6.91
   6  -7  25   -7.00    7.51
  -6   7  25    0.99    5.62
   6   8   0    4.23    1.45
  -6   8   0    8.48    6.14
  -6   8   0   15.92    8.66
   6   8   1    5.18    1.22
   6   8  -1   14.97    5.95
  -6   8   1   17.44    7.42
  -6   8  -1    8.88    6.51
  -6   8   1    8.05    4.27
  -6   8  -1   12.54    7.21
   6   8   2   40.46   12.26
  -6   8   2   37.36   10.32
  -6   8   2   36.78   10.83
   6   8  -2   24.45    8.18
  -6   8  -2   18.19    8.37
  -6   8  -2   39.53   11.67
   6   8   3  164.15   23.08
  -6   8   3  129.71   19.36
   6   8  -3  187.79   26.48
  -6   8  -3  112.28   17.77
  -6   8   3  169.21   23.38
   6  -8   3  143.95   23.37
  -6   8  -3  148.38   21.14
   6   8   4   66.64   15.75
  -6   8   4   54.65   13.41
  -6   8   4   70.63   15.14
  -6   8  -4   53.69   13.73
   6   8  -4   55.64   14.74
  -6   8  -4   47.48   11.85
   6  -8   4   33.74   10.81
   6   8   5  118.85   20.76
  -6   8   5  156.72   21.75
  -6   8   5  173.40   24.18
   6   8  -5  193.77   26.01
  -6   8  -5  209.42   24.65
   6  -8   5  180.98   28.22
  -6   8  -5  148.57   22.44
   6   8   6    1.20    5.91
  -6   8   6    2.68    3.61
   6   8  -6    2.35    6.86
  -6   8  -6   -0.32    3.45
  -6   8  -6   -0.69    5.40
   6  -8   6   -1.74    5.75
  -6   8   6   -3.11    3.46
  -6   8   7  261.29   27.98
   6   8  -7  313.66   33.13
  -6   8  -7  305.24   32.24
   6  -8   7  218.87   28.94
  -6   8  -7  258.50   29.98
  -6   8   7  256.19   30.34
   6   8   7  245.01   29.54
   6   8   8    8.92    3.95
  -6   8   8   10.33    6.87
   6   8  -8    4.74    1.26
  -6   8  -8   10.47    6.00
   6  -8   8   -2.47    9.36
  -6   8   8   18.87    7.80
  -6   8  -8    5.23    4.61
   6   8   9   12.46    5.20
  -6   8  -9   16.57    8.62
   6   8  -9   15.52    7.18
  -6   8  -9   13.80    7.81
   6  -8   9   10.25    3.70
  -6   8   9   10.18    8.49
   6   8  10    6.79    3.17
  -6   8 -10   12.67    5.11
   6   8 -10   14.53    8.52
  -6   8  10    9.58    5.34
  -6   8 -10   23.66    8.54
   6  -8  10   22.62   10.91
  -6   8 -11  184.00   24.70
   6   8 -11   87.77   17.11
  -6   8 -11  128.64   21.75
   6  -8  11  131.73   24.12
  -6  -8  11  182.43   24.28
  -6   8  11  125.85   22.01
   6   8  11   86.04   18.43
   6   8  12   15.36    9.03
  -6   8 -12    4.77    6.13
  -6   8  12    7.53    7.05
   6   8 -12    2.97    2.41
   6  -8  12   11.77    7.37
  -6   8 -12    5.12    0.66
  -6  -8  12    9.25    5.59
   6   8  13   12.55    7.37
  -6   8  13    2.31    8.03
   6   8 -13   10.50    7.42
   6  -8  13   -1.60    4.81
  -6   8 -13    3.47    2.57
  -6   8 -13    0.51    1.77
  -6  -8  13    3.64    1.30
   6   8  14    9.62    7.17
  -6   8  14   14.39   10.16
  -6   8 -14   24.60   10.16
   6   8 -14   27.20   10.79
   6  -8  14   40.41   13.52
  -6   8 -14    7.43    3.91
  -6  -8  14   21.16    7.17
   6   8 -15  304.09   34.28
  -6   8 -15  330.01   35.88
  -6   8 -15  233.04   31.51
   6  -8  15  200.80   31.57
  -6   8  15  258.15   32.30
  -6  -8  15  258.08   31.29
   6   8  15  337.47   37.63
   6   8  16   -2.20    4.62
  -6   8  16    2.88    4.32
   6  -8  16    0.32    5.54
  -6   8 -16   -0.81    1.97
  -6  -8  16   -3.22    4.46
  -6  -8  17   90.57   19.69
   6   8  17   65.90   17.37
  -6   8  17   64.87   13.69
   6  -8  17   75.08   18.00
  -6   8 -17   53.80   15.97
  -6  -8  18   -3.98    6.65
  -6   8  18    8.17    8.28
   6  -8  18    0.61    3.71
  -6   8 -18    4.57    5.11
   6   8  18    4.93    5.54
  -6   8  19   38.22   13.20
  -6  -8  19   33.15   13.75
   6  -8  19   55.80   16.23
  -6   8 -19   14.21    7.65
  -6  -8  20    7.48    7.22
   6  -8  20    6.90    4.60
  -6   8 -20   -0.03    5.83
  -6   8  20   16.55    9.35
  -6  -8  21   89.32   20.44
  -6   8  21   90.62   21.83
   6  -8  21   75.18   19.27
  -6   8 -21   97.80   20.03
  -6  -8  22    4.24    9.46
   6  -8  22   -6.58    7.41
  -6   8 -22   13.43    7.68
   6  -8  22    8.67    8.28
  -6   8  22   -0.41    3.51
  -6  -8  23   15.29    9.62
   6  -8  23   19.56    8.31
  -6   8 -23   40.85   11.57
   6  -8  23   31.06   12.73
  -6   8  23    7.51   11.41
  -6   8  23   28.68   13.46
  -6  -8  24    6.72    5.10
   6  -8  24  -18.33   11.91
  -6   8 -24   13.82   10.90
   6  -8  24    5.18    4.03
  -6   8  24    7.08    9.03
  -6   8  24   -0.89    5.14
  -6   9   0   92.25   18.17
   6   9   0   63.42   14.83
  -6   9   0   85.34   17.12
   6   9   1   24.86   11.67
   6   9  -1    7.74    6.57
  -6   9   1   19.74    7.09
  -6   9  -1    6.89    4.11
  -6   9   1    4.15    7.11
  -6   9  -1    2.85    2.68
   6   9   2    6.67    6.53
  -6   9   2    6.15    4.45
  -6   9   2    3.61    5.49
   6   9  -2   -1.02    3.08
  -6   9  -2   -2.79    1.88
  -6   9  -2    1.78    4.84
  -6   9   3    7.31    6.82
   6   9   3    0.30    2.16
  -6   9   3   17.91    8.95
   6   9  -3   15.56    7.85
  -6   9  -3    0.36    2.15
  -6   9  -3    8.30    3.07
  -6   9  -4   -0.59    1.48
  -6   9   4   -0.20    2.26
   6   9   4   11.77    2.94
  -6   9   4   11.12    8.80
   6   9  -4    9.25    7.35
  -6   9  -4    3.11    4.13
   6  -9   4    2.36    5.10
   6   9   5  124.33   21.72
  -6   9   5  155.99   23.39
  -6   9   5  135.86   21.92
   6   9  -5  152.87   23.85
  -6   9  -5  141.00   21.47
   6  -9   5  144.55   23.54
  -6   9  -5  113.98   20.02
   6   9   6   43.52   12.41
  -6   9   6   42.00   11.93
  -6   9  -6   42.75   12.22
   6   9  -6   27.38    9.77
  -6   9  -6   13.45    4.64
   6  -9   6   31.46   10.74
  -6   9   6   47.31   12.70
   6   9   7    0.32    3.12
  -6   9   7    1.90    3.17
   6   9  -7    2.97    3.90
  -6   9  -7   -1.95    4.16
  -6   9  -7    4.07    1.77
   6  -9   7    2.81    3.78
  -6   9   7    0.51    6.66
   6   9   8   15.09    8.26
   6   9  -8   23.24    9.77
  -6   9  -8   28.30   11.01
   6  -9   8   23.01   10.75
  -6   9   8   30.14   10.61
  -6   9  -8   19.45    6.67
   6   9   9    5.59    3.16
   6   9  -9   12.47    7.71
  -6   9  -9    9.30    5.89
   6  -9   9   13.94    7.62
  -6   9   9    5.58    7.41
  -6   9  -9    4.95    6.63
   6   9  10    9.16    7.73
  -6   9 -10   13.35    6.35
   6   9 -10   17.48    8.96
  -6   9  10   12.24    2.93
  -6   9 -10    5.16    3.75
   6  -9  10    3.82    6.66
   6   9  11   10.88    7.61
  -6   9 -11    2.09    4.73
   6   9 -11    8.87    5.28
  -6   9  11    1.37    1.79
  -6   9 -11    2.73    1.28
   6  -9  11    5.40    6.93
   6   9  12   16.63    9.82
  -6   9  12    8.47    2.99
   6   9 -12    5.17    6.20
  -6   9 -12    3.73    4.71
   6  -9  12   10.25    6.78
  -6   9 -12   13.99    7.87
   6   9  13    2.74    1.92
  -6   9  13    8.96    3.30
   6   9 -13    5.55    6.63
  -6   9 -13   10.45    7.58
   6  -9  13   14.26    6.03
  -6   9 -13    9.44    4.52
   6   9  14   27.66   11.27
  -6   9  14   15.57    8.62
  -6   9 -14   17.33    9.99
   6   9 -14    9.91    4.51
  -6   9 -14   12.95    8.13
   6  -9  14    9.42    6.43
   6   9  15    6.55    9.02
  -6   9  15   -2.50    5.04
   6   9 -15   -4.65    4.22
  -6   9 -15   -2.13    5.20
   6  -9  15   -2.22    6.59
  -6   9 -15   -2.15    0.55
   6   9  16    0.24    4.03
  -6   9  16   -1.15    5.75
  -6   9 -16    1.88    4.23
   6   9 -16    3.60    8.09
   6  -9  16   -1.47    3.62
  -6   9 -16   -1.34    4.64
   6   9  17    3.63    1.77
  -6   9  17   -2.12    4.01
   6   9 -17   -3.94    4.04
  -6   9 -17    2.55    5.10
   6  -9  17    8.88    8.04
  -6   9 -17   15.79   10.29
  -6  -9  17    2.62    6.33
   6   9  18   21.90   12.43
  -6   9  18   -3.86    6.70
   6  -9  18    0.66    4.20
  -6   9 -18    9.82    7.86
  -6   9 -18   -0.22    4.47
  -6  -9  18    8.28    6.94
  -6   9  19    0.06    3.61
   6  -9  19   11.29    7.60
  -6   9 -19   -1.60    4.26
  -6  -9  19  -10.57    8.85
   6   9  19    4.21    1.96
  -6   9  20    1.58    5.26
   6  -9  20   -0.91    4.73
  -6   9 -20    2.46    3.15
  -6  -9  20    4.80    6.41
   6  -9  21   14.61    9.22
  -6   9 -21   30.32   11.43
  -6   9  21   -3.16    7.06
  -6  -9  21   18.77   11.48
   6  -9  22   21.25   11.94
  -6   9 -22   17.42    9.03
  -6   9  22    7.40    1.84
  -6  -9  22   24.32    9.56
   6  -9  23    1.80    4.14
  -6   9 -23   -4.40    3.60
  -6   9  23   -3.50    6.44
  -6   9  23   10.95    8.70
  -6  -9  23    4.71    7.41
   6  10   0   73.22   17.40
  -6  10   0   82.40   18.66
  -6  10   0   81.70   17.38
   6  10   1    5.93    3.45
   6  10  -1    1.06    3.41
  -6  10   1    6.51    4.09
  -6  10  -1    8.61    6.95
  -6  10  -1    6.29    0.64
   6  10   2    1.24    4.70
  -6  10   2    0.75    3.88
  -6  10   2   -0.25    5.51
   6  10  -2   11.93    8.61
  -6  10  -2    1.46    4.84
  -6  10  -2    8.37    5.83
  -6  10   3   44.79   12.87
   6  10   3   48.41   14.11
  -6  10   3   27.68   11.25
   6  10  -3   41.10   13.02
  -6  10  -3   33.42   10.87
  -6  10  -3   47.98   13.70
   6  10   4  122.80   22.50
  -6  10   4  129.21   22.23
   6  10  -4  102.42   21.07
  -6  10   4  117.11   20.38
  -6  10  -4  168.39   24.45
  -6  10  -4  105.19   20.48
  -6  10  -5   -0.12    1.92
   6  10   5   -3.49    5.21
  -6  10   5   12.99    6.20
   6  10  -5    3.71    6.72
  -6  10  -5    1.31    5.91
   6 -10   5    1.74    8.25
  -6  10   5    4.44    5.19
   6  10   6   21.11    9.54
  -6  10  -6   26.22    9.43
   6  10  -6   24.33    8.35
  -6  10  -6   22.51    9.66
   6 -10   6   10.05    7.93
  -6  10   6   28.79   12.54
   6  10   7    3.78    6.83
   6  10  -7    6.63    2.89
  -6  10  -7    0.91    4.76
  -6  10  -7   -3.71    6.94
   6 -10   7    8.25    6.48
  -6  10   7    8.82    4.80
   6  10   8  111.89   21.57
   6  10  -8  105.75   21.36
  -6  10  -8  111.93   18.90
   6 -10   8  105.59   22.18
  -6  10  -8  104.03   19.93
  -6  10   8  104.25   21.29
   6  10   9   -0.35    4.03
   6  10  -9   -3.80    4.40
  -6  10  -9   -2.25    4.19
   6 -10   9    5.62    8.00
  -6  10   9   -0.11    1.12
  -6  10  -9    4.96    5.53
   6  10  10   50.58   13.73
   6  10 -10   36.05   12.72
  -6  10 -10   44.17   13.17
   6 -10  10   49.67   16.92
  -6  10  10   63.93   16.16
  -6  10 -10   59.54   16.18
  -6  10 -11   70.79   15.58
   6  10  11   63.88   16.27
   6  10 -11   58.57   15.30
  -6  10  11   67.40   18.08
   6 -10  11   56.08   15.27
  -6  10 -11   60.28   14.64
   6  10  12   73.42   17.45
  -6  10 -12   55.34   16.05
   6  10 -12   50.04   15.29
  -6  10  12   51.48   15.80
  -6  10 -12   38.46   12.93
   6 -10  12   38.78   11.97
   6  10  13    4.87    7.03
  -6  10  13   -0.94    1.73
   6  10 -13    0.62    5.82
  -6  10 -13    4.90    5.08
  -6  10 -13    1.82    3.64
   6 -10  13    2.80    3.94
   6  10  14   61.87   15.84
  -6  10  14   34.06   12.71
   6  10 -14   54.61   14.30
  -6  10 -14   51.31   15.13
   6 -10  14   90.97   19.59
  -6  10 -14   95.80   19.40
  -6  10 -15   31.01   11.91
   6  10  15   47.64   15.68
  -6  10  15   28.71   11.10
   6  10 -15   29.55   11.47
  -6  10 -15   30.68   11.59
   6 -10  15   22.75   10.00
   6  10  16    6.98    3.28
  -6  10  16    9.15    6.78
  -6  10 -16    8.44    2.83
   6  10 -16    0.98    4.21
  -6  10 -16   -1.64    6.24
   6 -10  16    3.60    5.26
   6  10  17    1.78    6.88
  -6  10  17    1.22    3.79
   6  10 -17   -5.87    8.02
  -6  10 -17   10.90    4.59
   6 -10  17    2.42    6.08
  -6  10 -17    2.12    2.81
   6  10  18   64.20   20.26
  -6  10  18   45.40   14.65
  -6  10 -18   31.85   13.28
  -6  10 -18   52.38   16.58
   6 -10  18   45.69   18.88
   6  10  19   15.35   11.10
  -6  10  19    2.24    2.34
  -6  10 -19   -0.12    5.70
   6 -10  19    7.78    5.36
  -6  10 -19    6.63    5.61
  -6  10  20    0.29    4.92
  -6  10 -20   -7.61    6.84
   6 -10  20   -2.98    5.34
  -6  10 -20    7.95    8.68
   6  10  20   -1.89    5.98
  -6  10 -21   36.76    9.74
  -6  10 -21   38.85   12.73
   6 -10  21   58.26   16.50
  -6  10  21   59.09   18.18
   6  11   0   11.14    9.35
  -6  11   0    4.64    6.91
  -6  11   0    1.41    3.84
   6  11   1    7.04    2.39
   6  11  -1   33.38   11.77
  -6  11   1   33.41   11.66
  -6  11  -1   18.86    9.69
  -6  11   1   11.45    5.62
  -6  11  -1   10.81    5.36
   6  11   2   23.58    8.70
  -6  11   2    2.62    3.74
  -6  11   2   29.42    9.30
   6  11  -2   30.72   12.51
  -6  11  -2   35.28   13.36
  -6  11  -2   19.42    8.58
  -6  11   3   40.01   13.45
   6  11   3   40.00   13.66
  -6  11   3   24.61    7.35
   6  11  -3   36.04   12.80
  -6  11  -3   69.39   16.91
  -6  11  -3   37.07   13.97
  -6  11   4   10.64    5.89
   6  11   4   -2.29    0.69
  -6  11   4    4.40    2.07
   6  11  -4   -1.09    5.30
  -6  11  -4   -3.16    1.16
  -6  11  -4    4.51    4.62
   6  11   5    0.92    4.41
   6  11  -5    1.08    4.90
  -6  11  -5   -2.23    4.72
  -6  11   5    3.78    5.82
  -6  11  -5    6.67    8.69
  -6  11  -6    0.36    4.12
   6  11   6   11.87    4.99
   6  11  -6   -2.53    4.54
  -6  11  -6   -4.78    3.77
   6 -11   6    8.73    7.41
  -6  11   6   -3.16    5.64
   6  11   7    2.41    6.79
  -6  11  -7   -4.65    7.75
   6  11  -7    7.55    5.53
  -6  11  -7   -0.03    2.30
   6 -11   7    4.35    6.21
  -6  11   7   15.59   11.39
   6  11   8    3.92    4.00
   6  11  -8    1.19    2.85
  -6  11  -8    4.75    5.47
  -6  11  -8    2.71    4.06
   6 -11   8   -1.21    4.53
  -6  11   8    2.33    4.39
   6  11   9    6.04    5.21
   6  11  -9    2.45    4.78
  -6  11  -9   12.83    7.92
  -6  11  -9   11.28    9.36
   6 -11   9    2.70    3.54
  -6  11   9    8.96    9.32
   6  11  10    2.90    3.71
   6  11 -10    9.51   10.97
  -6  11 -10    1.09    2.91
   6 -11  10    9.81    9.51
  -6  11  10   -0.09    2.11
  -6  11 -10    2.21    6.07
   6  11  11   -3.74    4.18
   6  11 -11    3.81    5.00
  -6  11 -11    0.96    4.08
  -6  11  11    1.26    2.68
   6 -11  11   -6.02    3.55
  -6  11 -11    3.21    5.03
   6  11  12   32.06   12.54
   6  11 -12   30.63   13.27
  -6  11  12   32.29   14.79
  -6  11 -12   37.81   13.19
   6 -11  12    6.09   11.30
  -6  11 -12    9.46    3.18
   6  11  13   13.37    6.79
  -6  11 -13   17.80    9.45
  -6  11  13   10.24    8.44
   6  11 -13   15.73    9.46
  -6  11 -13   34.00   11.78
   6 -11  13    7.72    5.69
   6  11  14   -5.58    7.20
  -6  11 -14    3.29    7.03
  -6  11  14  -12.32    9.19
   6  11 -14    3.94    5.06
  -6  11 -14   -0.40    2.97
   6 -11  14   11.50   12.03
   6  11  15    0.88    1.13
  -6  11  15   -2.49    4.39
   6  11 -15   -2.25    1.01
  -6  11 -15   -0.42    4.76
   6 -11  15    2.73    6.23
  -6  11 -15    5.21    8.77
   6  11  16   -0.50    5.49
  -6  11  16   13.09    9.14
   6  11 -16   28.07   13.74
  -6  11 -16    7.72    6.65
   6 -11  16    6.36    5.63
  -6  11 -16    1.56    4.75
   6  11  17   30.39   13.90
  -6  11  17   14.60    7.73
  -6  11 -17   16.59    9.35
   6 -11  17    2.43    0.91
  -6  11 -17   16.09    7.73
   6  11  18   18.90   10.29
  -6  11  18    7.79    6.23
  -6  11 -18    7.64    5.80
  -6  11 -18   10.61   10.99
   6 -11  18   10.93    7.83
   6  11  19   -3.17    4.73
  -6  11  19   -3.34    6.24
  -6  11 -19   -3.59    4.86
  -6  11 -19   13.44   10.60
   6 -11  19    2.17    1.93
   6  12   0   23.72    9.69
  -6  12   0   15.45    8.69
  -6  12   0    7.72    5.61
   6  12   1   21.24    6.46
   6  12  -1   31.66   12.38
  -6  12   1   26.98   11.79
  -6  12   1   21.44    6.23
  -6  12  -1   34.71   14.32
  -6  12  -1   29.66   11.55
  -6  12   2   24.96   10.35
   6  12   2   20.23   10.49
  -6  12   2   12.93    8.95
   6  12  -2   39.13   14.44
  -6  12  -2   26.30   10.80
  -6  12  -2   36.88   11.86
  -6  12   3   39.28   13.35
   6  12   3   44.26   12.85
   6  12  -3   14.86    5.62
  -6  12  -3   35.07   12.29
  -6  12  -3   23.12    7.52
  -6  12   4    5.58    3.77
   6  12   4   16.39   10.40
   6  12  -4    4.50    9.05
  -6  12  -4   11.42   10.27
  -6  12  -4    1.99    5.41
   6  12   5   11.91    4.19
   6  12  -5    9.35    4.44
  -6  12  -5   16.09    8.56
  -6  12  -5   12.89    5.03
  -6  12   5   12.21    8.11
   6  12   6    0.76    2.67
   6  12  -6    6.13    6.49
  -6  12  -6    3.35    1.37
  -6  12   6    5.95    4.48
  -6  12  -6    2.48    2.20
  -6  12  -7    3.64    3.20
   6  12   7    2.30    3.07
   6  12  -7   -3.21    4.36
  -6  12  -7    8.02    9.10
  -6  12   7    0.11    2.56
   6  12   8   15.08    7.90
  -6  12  -8    8.59    8.23
   6  12  -8   17.46   10.27
  -6  12  -8    7.59    5.13
   6 -12   8    0.91    3.79
  -6  12   8   15.62    8.96
  -6  12  -9   18.80   11.73
   6  12  -9   17.21    9.43
  -6  12  -9    2.29    3.42
   6 -12   9    0.72    4.12
  -6  12   9   11.94    7.89
   6  12  10   17.23    7.64
   6  12 -10   -0.67    3.86
  -6  12 -10    4.88    6.81
  -6  12 -10    1.30    4.23
  -6  12  10    4.39    6.66
   6 -12  10    5.57    7.19
   6  12  11   63.03   14.96
   6  12 -11   37.45   15.20
  -6  12 -11   67.37   16.45
  -6  12  11   40.62   15.14
   6 -12  11   44.70   15.04
  -6  12 -11   38.03   12.70
   6  12  12   -4.04    4.67
   6  12 -12   10.71    6.46
  -6  12  12    8.78    6.41
  -6  12 -12    3.62    6.52
   6 -12  12    1.55    5.14
  -6  12 -12    2.65    6.00
   6  12  13    6.14    5.05
   6  12 -13   13.88    8.44
  -6  12  13    1.80    3.22
  -6  12 -13   -2.01    7.45
   6 -12  13   10.51    8.46
  -6  12 -13   11.32    7.33
   6  12  14   13.91   10.95
  -6  12  14    4.50    7.62
   6  12 -14    2.70    6.19
  -6  12 -14    4.03    4.97
   6 -12  14   -0.61    7.94
  -6  12 -14   11.77    9.08
   6  12  15   18.24   12.97
  -6  12 -15    0.87    0.60
  -6  12  15    9.95    7.09
   6  12 -15   12.22    9.15
  -6  12 -15   10.17    7.61
   6 -12  15    7.13    7.47
   6  12  16   18.64    5.90
  -6  12  16   25.41   11.60
  -6  12 -16   16.56   10.17
   6  12 -16   28.56   14.03
  -6  12 -16    9.75    1.48
   6 -12  16   29.06   10.01
   6  12  17   -2.49    1.27
  -6  12  17    0.66    3.40
  -6  12 -17   -0.53    3.39
  -6  12 -17    3.39    4.32
   6 -12  17   -5.71    6.70
   6  13   0   20.27   12.08
  -6  13   0   17.55    9.26
  -6  13   0   21.74    8.84
   6  13   1    6.10    5.88
   6  13  -1    1.60    6.49
  -6  13   1    5.20    6.43
  -6  13  -1    5.51    5.38
  -6  13  -1   -6.58    8.01
  -6  13   2    4.69    6.49
   6  13   2    5.10    4.31
   6  13  -2    1.69    3.80
  -6  13  -2    0.57    7.05
  -6  13  -2    0.55    5.82
  -6  13   3    2.71    5.85
   6  13   3    4.45    6.91
   6  13  -3    9.29    9.16
  -6  13  -3    6.92    7.06
  -6  13  -3    0.06    7.38
   6  13   4    2.87    1.82
   6  13  -4    4.95    3.89
  -6  13  -4    7.87    7.81
  -6  13  -4    1.88    3.25
  -6  13   4   -0.17    3.44
   6  13   5    9.87    8.61
   6  13  -5    2.63    2.57
  -6  13  -5    2.16    3.28
  -6  13  -5   -0.25    4.18
  -6  13   5    1.50    4.47
   6  13   6    4.37    7.07
   6  13  -6   -1.58    5.27
  -6  13  -6   -0.58    5.33
  -6  13   6   -1.69    3.89
  -6  13  -6    4.67    8.27
   6  13   7   -1.29    4.27
   6  13  -7   12.80    5.05
  -6  13  -7    2.09    7.14
  -6  13   7    4.18    3.61
  -6  13  -7    3.45    4.45
  -6  13  -8   -1.95    6.45
   6  13   8    1.24    3.15
   6  13  -8    1.63    5.05
  -6  13  -8    3.81    6.76
  -6  13   8    2.97    4.85
   6  13   9    1.65    4.60
  -6  13  -9   13.89    8.75
   6  13  -9   15.80    9.39
  -6  13  -9    6.63    5.21
  -6  13   9    2.67    3.99
   6  13  10   -1.88    5.33
  -6  13 -10    3.89    5.30
   6  13 -10    4.00    0.85
  -6  13 -10   -4.08    4.05
   6 -13  10    7.52    1.41
  -6  13  10   14.77   10.59
   6  13  11    4.20    6.68
   6  13 -11    0.64    5.60
  -6  13 -11    7.82    6.74
  -6  13 -11    1.83    3.27
   6 -13  11   19.88   12.90
  -6  13  11   -2.00    2.51
   6  13  12    1.20    2.79
   6  13 -12   -6.15    9.15
  -6  13 -12   -1.91    5.47
  -6  13  12    1.64    6.30
   6 -13  12   -4.86    8.29
  -6  13 -12   -2.15    3.09
   6  13  13    6.71    4.21
   6  13 -13    7.25    9.64
  -6  13  13   -2.21    5.43
  -6  13 -13    3.69    4.37
   6 -13  13   13.76    9.77
  -6  13 -13   -9.52    7.13
   6  14   0   29.19   14.05
  -6  14   0   35.48   11.67
  -6  14   1    0.50    5.17
   6  14   1    8.55   10.06
   6  14  -1    0.52    2.32
  -6  14  -1   -0.40    7.99
  -6  14   2    5.28    4.41
   6  14   2    5.60    5.73
   6  14  -2    5.59    5.75
  -6  14  -2   11.97    6.86
  -6  14   3   36.63   12.20
   6  14   3   21.48   10.91
   6  14  -3   27.94   13.63
  -6  14  -3   27.63   13.81
  -6  14  -3   14.49    9.43
   6  14   4   15.04    8.66
   6  14  -4    7.21    6.75
  -6  14  -4   24.42   14.21
  -6  14  -4   28.10   10.69
  -6  14   4   -0.65    6.79
   6  14   5   -1.56    5.18
   6  14  -5    4.60    2.68
  -6  14  -5    8.97    5.49
  -6  14  -5   -0.06    2.03
  -6  14   5    2.92    3.10
   6  14   6   -4.62    6.66
  -6  14  -6    3.33    3.33
  -6  14  -6   -6.23    5.27
  -6  14   6    5.03    5.70
   6  14   7    6.58    2.27
   6  14  -7   24.92   13.75
  -6  14  -7   18.56   10.83
  -6  14   7   23.33   11.26
  -6  14  -7   27.66   12.10
   6  14   8   12.23    9.29
   6  14  -8   31.25   15.11
  -6  14  -8    4.03    3.90
  -6  14   8   14.91    3.80
  -6  14  -8   44.26   13.27
  -6  14  -9   -1.10    5.59
   6  14   9    9.38    7.74
   6  14  -9   -0.51    6.62
  -6  14  -9    7.14    5.79
  -6  14   9   -2.23    9.15
  -7   0   0    1.33    4.09
   7   0   0   -1.43    4.88
  -7   0   1    0.02    1.33
  -7   0  -1   -0.87    1.48
   7   0   1   -0.74    2.64
  -7   0   2  774.24   37.05
  -7   0  -2  772.48   31.71
  -7   0   3   -1.42    2.28
   7   0   3   -0.16    4.33
  -7   0  -3    1.57    1.96
  -7   0  -4  474.46   23.73
  -7   0   4  497.89   31.28
  -7   0  -5    0.46    1.70
   7   0   5    6.32    7.75
  -7   0   5    0.25    2.39
  -7   0   6  124.74   16.97
  -7   0  -6  120.16   12.76
   7   0   6  137.49   21.23
   7   0   7    0.61    2.71
  -7   0   7    1.41    0.84
  -7   0  -7    1.70    2.23
  -7   0   8  590.02   37.72
   7   0   8  590.52   43.15
  -7   0  -9    2.19    2.50
   7   0   9    5.26    2.76
  -7   0   9    0.15    3.15
  -7   0  10   65.23   13.33
   7   0  10   48.74   12.25
   7   0  11   -3.65    5.32
  -7   0  11   -5.03    6.15
  -7   0  12  100.08   19.05
   7   0  12  119.67   19.20
   7   0  13    3.32    6.72
  -7   0  13   13.56    9.26
  -7   0  14  526.99   44.45
   7   0  14  496.39   41.41
  -7   0  15    3.90    5.71
   7   0  15    0.13    4.52
  -7   0  16  539.50   46.85
   7   0  16  513.24   42.37
  -7   0  17   -0.66    3.57
   7   0  17    9.96    7.44
  -7   0  18   52.01   13.74
   7   0  18   61.32   15.66
  -7   0  19    7.56    6.71
   7   0  19    1.52    6.62
  -7   0  20   63.62   16.17
   7   0  20   61.31   15.04
  -7   0  20   69.01   19.20
  -7   0  21    1.01    4.43
   7   0  21    4.41    6.52
  -7   0  21   -2.44    6.17
  -7   0  22   37.64   12.94
   7   0  22   39.33   12.63
  -7   0  22   43.23   13.63
   7   0  23   -3.80    5.39
  -7   0  23    2.88    5.16
  -7   0  24   83.16   18.62
   7   0  24   83.45   19.61
  -7   0  24   71.88   16.95
  -7   0  25    2.43    4.27
   7   0  25   -1.86    3.29
  -7   0  25   -6.08    5.99
  -7   0  26   52.75   16.37
   7   0  26   36.19   12.96
  -7   0  26   54.70   15.46
  -7   0  27   -3.91    3.30
   7   0  27    7.54    8.65
   7   1   0   -1.67    2.99
   7  -1   0    0.11    3.46
  -7   1   0    0.27    1.79
  -7  -1   0    0.09    2.01
  -7  -1   1  172.28   15.10
  -7  -1  -1  217.09   14.02
   7   1   1  199.91   24.32
   7  -1   1  264.58   28.10
  -7   1   1  196.25   19.07
  -7   1  -1  264.43   21.12
  -7   1  -2  373.68   24.73
  -7  -1   2  295.31   21.09
   7  -1   2  329.17   33.56
   7   1   2  388.53   34.76
  -7   1   2  389.41   27.53
  -7   1  -3  144.28   15.17
  -7  -1   3  160.53   15.62
   7  -1   3  168.46   23.05
   7   1   3  145.24   20.07
  -7   1   3  122.30   15.70
  -7  -1   4   98.77   13.29
  -7   1  -4   98.75   12.56
   7  -1   4  120.62   19.06
   7   1   4  119.89   18.34
  -7   1   4   81.52   13.03
  -7   1   5   -1.39    0.89
   7  -1   5    3.26    2.91
   7   1   5   -1.02    2.31
  -7   1  -5    0.58    2.46
  -7  -1   5   -1.53    2.38
   7  -1   6  295.22   31.26
   7   1   6  392.42   34.91
  -7   1   6  305.64   26.98
  -7   1  -6  324.33   23.49
  -7   1  -7   10.75    4.67
   7  -1   7    7.76    5.75
   7   1   7   15.29    7.36
  -7  -1   7   12.70    5.62
  -7   1   7    9.45    4.35
  -7  -1   8  338.99   29.82
  -7   1   8  377.50   32.15
   7  -1   8  389.82   35.61
  -7   1  -8  289.90   25.47
  -7   1  -9  234.18   21.55
  -7  -1   9  315.77   29.70
  -7   1   9  286.89   27.92
   7  -1   9  323.21   32.62
   7   1   9  194.81   25.50
  -7   1 -10   17.38    5.98
   7  -1  10   18.28    8.99
  -7  -1  10   33.23    9.92
   7   1  10   34.22   10.20
  -7   1  10    4.01    4.67
  -7  -1  11  275.77   30.09
  -7   1  11  280.91   29.17
  -7   1 -11  224.09   23.15
   7  -1  11  234.41   28.45
   7   1  11  203.87   25.53
  -7  -1  12  437.19   37.75
  -7   1  12  346.43   33.17
   7  -1  12  461.56   40.55
   7   1  12  359.53   34.56
  -7  -1  13   10.57    7.18
   7  -1  13    7.69    5.71
   7   1  13    7.74    3.27
  -7   1  13    6.80    5.72
  -7  -1  14   80.53   17.04
  -7   1  14   97.21   18.10
   7   1  14   96.50   18.79
   7  -1  14   65.86   15.37
  -7  -1  15   -0.59    4.22
   7  -1  15   -1.80    6.73
   7   1  15   -2.44    3.85
  -7   1  15    0.37    1.94
  -7  -1  16   -0.57    4.35
   7  -1  16    1.69    7.57
   7   1  16   -5.55    7.11
  -7   1  16    9.39    8.89
  -7  -1  17   15.06    6.96
   7  -1  17   -6.21    6.64
  -7   1  17    9.29    7.35
   7   1  17   11.82    9.79
  -7  -1  18    0.86    3.53
  -7   1  18    8.95    9.59
   7  -1  18    6.45    6.92
   7   1  18   -2.39    4.86
  -7  -1  19   -4.62    1.15
  -7   1  19    4.20    8.98
   7  -1  19    0.23    5.92
   7   1  19   -4.89    8.78
  -7  -1  19    7.03    5.20
  -7  -1  20   -9.20   10.89
  -7   1  20    4.13    9.02
   7  -1  20    1.45    2.04
   7   1  20    8.86    7.31
  -7  -1  20   -0.94    4.07
  -7  -1  21    3.24    7.89
  -7   1  21   -1.19    2.06
   7  -1  21   -2.92    3.07
   7   1  21    0.99    3.53
  -7  -1  21    2.21    3.65
  -7   1  21    0.76    1.76
  -7  -1  22    0.79    3.18
  -7   1  22   -6.68    3.55
   7  -1  22    0.83    5.00
   7   1  22    5.27    6.90
  -7  -1  22    4.48    7.16
  -7   1  22   -5.41    5.47
  -7  -1  23   -1.75    4.25
  -7   1  23    2.20    5.14
   7  -1  23    0.20    2.43
   7   1  23   -2.92    3.31
  -7  -1  23   -1.77    5.05
  -7   1  23    1.33    2.73
  -7  -1  24   -3.84    6.56
  -7   1  24    1.16    4.18
   7  -1  24    2.51    4.64
   7   1  24   -0.84    4.07
  -7  -1  24    3.54    2.94
  -7   1  24   11.74    9.26
  -7  -1  25   -4.08    4.63
  -7   1  25    0.03    5.13
   7  -1  25    8.22    6.19
   7   1  25    1.10    6.42
  -7  -1  25   -8.09    8.18
  -7   1  25   -2.05    1.40
  -7  -1  26   -0.36    2.51
  -7   1  26    1.36    6.13
   7  -1  26    7.75    5.57
   7   1  26    4.69    4.94
  -7  -1  26   19.77   10.07
  -7   1  26   -0.32    4.37
  -7  -1  27   13.55    9.09
  -7   1  27    9.67    8.88
   7  -1  27    1.68    6.38
   7   1  27    6.29    9.13
  -7  -1  27    3.92    7.60
  -7   1  27   -2.73    7.43
   7   2   0    1.53    3.24
   7  -2   0   -4.48    6.43
  -7   2   0    0.14    2.04
  -7   2  -1  362.17   26.84
   7  -2   1  412.79   36.68
  -7   2   1  361.76   27.38
  -7  -2   2   88.72   10.07
  -7   2  -2   80.04   12.15
   7  -2   2  117.16   20.28
   7   2   2   60.78   13.76
  -7   2   2   98.41   14.87
  -7  -2   3  101.49   11.13
   7  -2   3   66.16   15.55
  -7   2  -3   63.96   10.97
   7   2   3   58.50   13.30
  -7   2   3   67.75   11.73
  -7   2   4    5.86    4.89
  -7  -2   4    6.27    3.05
   7  -2   4   16.07    7.71
   7   2   4    7.41    4.59
  -7   2  -4    6.31    4.60
  -7   2  -4    3.70    2.11
  -7  -2   5  952.28   40.39
  -7   2  -5  893.39   37.50
  -7   2  -5  969.37   44.54
  -7   2   5  875.92   46.63
  -7   2  -6   31.43    7.51
  -7   2   6   23.43    7.55
  -7  -2   6   37.90    7.89
   7   2   6   25.58    8.15
  -7  -2   7  217.60   21.50
   7   2   7  260.00   27.55
  -7   2   7  187.03   23.36
  -7   2  -7  209.65   20.74
  -7  -2   8   26.84    7.57
  -7   2   8   51.03   11.84
   7  -2   8   32.52   10.17
   7   2   8   50.65   12.25
  -7   2  -8   40.02    8.95
  -7   2   9    0.17    4.95
  -7   2  -9    1.25    2.30
  -7  -2   9    3.88    0.93
   7  -2   9    7.95    4.19
   7   2   9   -0.12    1.76
  -7  -2  10  184.58   22.70
  -7   2 -10  202.57   22.25
  -7   2  10  253.13   28.12
   7   2  10  217.56   26.39
   7  -2  10  236.59   28.51
  -7  -2  11   89.31   14.83
  -7   2 -11   89.80   15.74
  -7   2  11   74.05   15.35
   7  -2  11   91.09   17.75
   7   2  11   74.34   14.63
  -7  -2  12   21.52    7.35
   7  -2  12   13.20    3.53
   7   2  12   21.11    6.45
  -7   2  12   18.33    7.44
  -7  -2  13  218.05   27.25
  -7   2  13  179.42   24.51
   7  -2  13  183.96   27.20
   7   2  13  200.49   24.48
  -7  -2  14    1.55    2.95
   7  -2  14   10.12    7.81
   7   2  14    9.11    5.47
  -7   2  14   11.70    3.89
  -7  -2  15   47.59   12.62
   7  -2  15   62.84   15.15
   7   2  15   32.36   10.21
  -7   2  15   51.90   14.49
  -7  -2  16  101.44   20.07
  -7   2  16   93.40   17.69
   7  -2  16   77.68   18.31
   7   2  16   93.60   17.89
  -7  -2  17   35.88   12.18
   7  -2  17   33.35   11.99
   7   2  17   24.39   12.14
  -7   2  17   13.97   12.90
  -7  -2  17   46.71   13.80
  -7  -2  18   10.47    7.28
   7  -2  18   -7.24    6.97
   7   2  18    0.96    1.70
  -7   2  18    4.47    7.04
  -7  -2  18    8.53   10.07
  -7  -2  19  184.44   28.75
  -7   2  19  160.12   26.47
   7  -2  19  187.29   25.65
   7   2  19  136.47   23.60
  -7  -2  19  174.97   26.73
  -7  -2  20  106.64   22.21
   7  -2  20  130.02   23.60
  -7   2  20  100.31   19.45
   7   2  20   68.34   16.28
  -7  -2  20  103.81   18.92
  -7  -2  21    7.70    7.68
  -7   2  21   -2.08    4.43
   7  -2  21   -0.32    1.96
   7   2  21    3.44    4.03
  -7  -2  21   14.33    7.87
  -7  -2  22   -8.66    6.59
  -7   2  22    8.28    7.07
   7  -2  22    0.65    2.35
   7   2  22    2.45    6.97
  -7  -2  22   -4.53    7.40
  -7   2  22   -0.85    4.28
  -7  -2  23   43.80   11.89
   7  -2  23  114.76   21.44
   7   2  23   98.63   20.31
  -7   2  23   60.77   17.37
  -7  -2  23   68.68   17.37
  -7   2  23   59.98   17.31
  -7  -2  24    4.09    4.89
  -7   2  24   -5.72    7.01
   7  -2  24    3.23    8.54
   7   2  24    8.52    6.75
  -7  -2  24   16.28    9.18
  -7   2  24    4.55    2.63
  -7  -2  25   -0.90    4.94
  -7   2  25   -3.50    3.38
   7  -2  25   -5.45    6.18
   7   2  25   -5.93    6.57
  -7  -2  25    1.16    4.30
  -7   2  25   -7.11    8.82
  -7  -2  26    4.64    5.01
  -7   2  26    8.65    6.32
   7  -2  26   10.24    8.40
   7   2  26    8.49    6.90
  -7  -2  26    9.37    9.59
  -7   2  26   -3.06    4.60
  -7  -2  27    4.69    3.79
  -7   2  27    0.40    7.16
   7  -2  27   -0.95    3.67
   7   2  27   -0.32    3.24
  -7  -2  27    2.57    2.33
  -7   2  27   -0.29    7.09
   7  -3   0    0.12    1.66
  -7   3   0    2.64    3.00
  -7   3   1   46.30   10.22
  -7   3  -1   32.72    8.83
   7   3   1   34.01    9.24
   7  -3   1   53.46   14.23
  -7   3  -2   14.10    5.54
   7  -3   2   13.38    9.16
   7   3   2   32.76   10.11
  -7   3   2   26.62    9.06
   7   3   3   -3.52    2.47
   7  -3   3   18.42    9.41
   7   3   3    2.06    4.72
  -7   3  -3   11.69    4.94
  -7   3   3   23.28    7.61
  -7   3   4   47.90   11.07
  -7   3  -4   43.76   10.65
   7  -3   4   56.54   13.58
   7   3   4   37.69    9.82
  -7   3  -4   24.91    5.12
   7   3   4   68.59   11.81
  -7   3  -5  698.82   34.59
   7  -3   5  778.39   50.89
   7   3   5  592.66   41.38
  -7   3  -5  545.47   35.41
  -7   3   5  528.31   37.42
  -7  -3   5  649.50   33.36
  -7   3  -6   -1.02    2.56
  -7  -3   6    3.08    3.75
  -7   3   6    4.74    4.44
   7  -3   6   -0.16    2.36
   7   3   6    6.98    5.92
  -7   3  -6    0.70    3.08
   7  -3   7  108.63   19.62
   7   3   7   80.48   15.41
  -7   3   7   84.02   15.06
  -7   3  -7   69.99   12.73
  -7  -3   7  104.99   15.51
  -7  -3   8   56.19   11.40
   7  -3   8   41.14   12.92
  -7   3   8   75.30   14.68
   7   3   8   46.39   11.54
  -7   3  -8   42.20    9.54
  -7   3  -8   69.39   13.33
  -7   3  -9   95.04   15.14
  -7  -3   9  132.68   18.14
   7  -3   9  120.58   21.28
   7   3   9   83.00   16.77
  -7   3  -9   57.25   11.68
  -7   3   9   87.47   16.71
  -7   3  10    1.71    3.19
  -7  -3  10    5.26    6.11
   7  -3  10    4.65    6.02
   7   3  10    3.85    4.04
  -7   3 -10    2.44    2.93
  -7  -3  11  144.11   20.75
  -7   3 -11  153.14   20.86
  -7   3  11  162.81   22.34
   7  -3  11  107.37   19.86
   7   3  11  158.03   22.29
  -7  -3  12   75.31   15.71
  -7   3 -12  118.91   18.76
  -7   3  12   83.18   17.69
   7  -3  12  112.78   21.31
   7   3  12  101.86   17.62
  -7  -3  13   17.19    6.10
   7  -3  13   26.73   11.39
   7   3  13    7.21    2.77
  -7   3  13   31.84    9.26
  -7  -3  14    4.70    3.94
   7  -3  14    4.83    4.75
   7   3  14    3.13    4.16
  -7  -3  15   30.04    9.40
   7  -3  15   33.54   12.14
   7   3  15   40.78   12.30
   7  -3  15   35.01   11.09
  -7   3  15   28.31    9.67
  -7  -3  15   44.36   12.06
  -7  -3  16    5.28    6.14
   7  -3  16    1.33    3.91
   7   3  16    2.50    5.15
  -7   3  16    2.61    8.66
  -7  -3  16    2.87    4.96
  -7  -3  17    5.38    5.35
   7  -3  17    1.31    0.78
   7   3  17    1.76    3.24
  -7   3  17    9.30    7.11
  -7  -3  18    0.88    2.82
   7  -3  18   20.10   10.50
   7   3  18   -2.83    3.78
  -7   3  18    6.79    7.61
  -7  -3  18    6.95    6.86
  -7  -3  19   -3.11    5.68
   7  -3  19   -1.58    1.41
   7   3  19    2.52    4.82
  -7   3  19   10.33    7.68
  -7  -3  19    4.56    3.38
  -7  -3  20   11.18    8.69
   7  -3  20    1.20    3.94
   7   3  20    2.98    6.11
  -7   3  20   10.87    2.74
  -7  -3  20    0.65    6.80
  -7  -3  21    5.91    6.68
   7  -3  21    1.98    5.85
   7   3  21    7.71    5.59
  -7   3  21    2.51    5.09
  -7  -3  21    3.02    6.79
  -7  -3  22   -0.24    6.39
   7  -3  22    4.27    4.20
  -7   3  22   -7.14    7.57
   7   3  22   -5.01    3.38
  -7  -3  22    6.37    9.27
  -7  -3  23   -0.90    5.30
  -7   3  23   12.61   10.82
   7  -3  23    8.01    2.79
   7   3  23    4.49    7.79
  -7  -3  23   -7.05    8.86
  -7   3  23   11.59    9.69
  -7  -3  24   21.71    9.83
  -7   3  24   19.73   11.63
   7  -3  24   11.87    8.02
   7   3  24   29.62   13.30
  -7  -3  24    8.34   11.34
  -7   3  24   17.10    6.71
  -7  -3  25    2.81    7.35
  -7   3  25   16.80   10.64
   7  -3  25   -2.43    3.72
   7   3  25   15.11   10.28
  -7  -3  25   -1.70    3.55
  -7   3  25    1.08    5.10
  -7  -3  26   -3.30    4.48
  -7   3  26   -7.20   10.52
   7  -3  26    9.02    7.86
   7   3  26   -0.06    6.71
  -7   3  26    4.79    3.35
  -7   4   0    1.01    3.16
  -7   4   1  123.78   18.01
  -7   4  -1  112.51   16.36
   7   4   1  137.19   16.98
   7  -4   1  146.42   22.26
  -7   4   2  442.17   34.08
  -7   4  -2  455.54   33.77
   7   4   2  338.79   29.67
   7  -4   2  361.31   35.67
   7   4   3    1.07    2.65
   7  -4   3    6.14    4.53
   7   4   3    5.05    3.43
  -7   4  -3   13.16    3.23
  -7   4   3    3.62    3.37
   7  -4   4  574.50   46.19
   7   4   4  413.57   32.45
  -7   4  -4  555.97   38.05
  -7   4   4  511.47   37.41
   7   4   4  352.71   28.06
  -7   4  -5   61.46   11.41
   7  -4   5   95.57   17.85
   7   4   5  130.51   18.73
  -7   4  -5  122.58   17.53
  -7   4   5  133.76   19.99
   7   4   5   98.84   15.85
   7  -4   6   69.26   16.74
   7   4   6   87.87   15.92
  -7   4  -6   60.79   12.54
  -7   4   6   87.97   16.04
   7   4   6   68.47   12.66
   7   4   7   36.80   10.52
  -7  -4   7   22.34    6.07
  -7   4   7   27.90   10.29
  -7   4  -7   49.89   11.19
  -7   4  -7   41.73   10.30
   7  -4   7   37.90   10.64
   7   4   7   31.26    9.84
  -7   4  -8  146.35   18.80
   7  -4   8  187.74   26.67
   7   4   8  122.00   18.31
  -7   4   8  137.18   19.98
  -7  -4   8  102.81   15.69
  -7   4  -8  145.20   19.96
  -7   4  -9  145.96   20.53
   7  -4   9  145.48   24.83
   7   4   9  162.19   22.22
  -7   4   9  192.66   24.92
  -7  -4   9  132.27   18.38
  -7   4  -9  135.42   19.04
  -7   4  10    3.05    2.89
  -7  -4  10   -4.63    3.89
   7  -4  10   -1.17    4.62
   7   4  10   -0.37    3.02
  -7   4 -10    0.68    5.08
  -7   4 -10    3.86    5.61
  -7   4  11    7.47    6.75
  -7  -4  11   -0.14    3.07
  -7   4 -11    5.54    6.55
   7  -4  11   -0.37    3.87
   7   4  11   -3.58    3.97
  -7   4 -11   -4.18    6.07
  -7   4 -12    7.37    3.10
  -7   4  12    2.24    3.41
  -7  -4  12    9.53    4.88
   7  -4  12    4.56    7.30
   7   4  12    5.89    4.44
  -7   4 -12    6.16    6.28
  -7   4 -13  136.26   20.70
  -7   4  13  149.91   23.80
   7  -4  13  131.43   22.10
   7   4  13  137.52   20.62
  -7   4 -13  164.22   22.83
  -7  -4  13  175.94   23.91
  -7  -4  14    6.82    2.83
   7  -4  14    7.47    7.89
   7   4  14    3.25    4.14
  -7  -4  14    9.94    5.07
  -7   4  14    6.67    8.10
  -7  -4  15   18.44    8.05
   7  -4  15   12.65    4.78
   7   4  15    4.41    4.23
  -7  -4  15   17.38    7.24
  -7   4  15    2.67    3.25
  -7  -4  16   75.42   15.61
  -7   4  16   83.37   18.04
   7  -4  16   58.37   16.57
   7   4  16   75.69   16.06
  -7  -4  16   53.77   12.48
  -7  -4  17   41.97   12.65
   7  -4  17   45.79   13.26
   7   4  17   41.51   13.60
   7  -4  17   49.41   12.99
  -7   4  17   40.48   14.32
  -7  -4  17   33.54   11.20
  -7  -4  18   60.95   14.98
   7  -4  18   40.51   12.99
   7   4  18   58.00   14.61
   7  -4  18   36.29   10.86
  -7   4  18   56.97   16.06
  -7  -4  19   29.57   12.33
   7  -4  19   18.01    8.88
   7   4  19   17.81    8.52
   7  -4  19   38.33   14.49
  -7   4  19   34.47   12.70
  -7  -4  20   74.48   17.32
   7   4  20   98.03   20.61
   7  -4  20   50.13   13.85
  -7   4  20   66.35   17.91
  -7  -4  21   -0.36    3.25
   7  -4  21   -0.49    1.42
  -7  -4  22    2.30    1.45
   7  -4  22    1.41    4.18
   7   4  22   10.84    8.31
  -7   4  22   10.27    6.78
  -7  -4  23   -1.16    6.17
   7  -4  23    6.57    6.25
   7   4  23    8.03    7.29
  -7   4  23    5.24    7.26
  -7   4  23    2.07    9.77
  -7  -4  24    3.82    6.51
   7  -4  24    4.97    5.93
  -7   4  24    9.34    2.22
   7   4  24   10.96    3.00
  -7  -4  25   13.82    6.99
  -7   4  25   25.15   13.27
   7  -4  25   13.86    7.66
   7   4  25    5.90    8.12
  -7   4  25    3.14    8.36
  -7  -4  26    6.89    2.79
  -7   4  26    6.48    6.53
   7  -4  26   11.16    7.92
   7   4  26   13.26    9.10
  -7   4  26   -0.30    7.58
   7   5   0    0.86    5.30
  -7   5   0    0.86    4.00
  -7   5   1    4.68    1.66
   7   5   1    7.38    5.46
  -7   5  -1    1.09    2.60
   7  -5   1    7.44    5.84
   7   5   2    6.86    3.78
   7  -5   2    0.45    3.68
  -7   5  -2    9.55    5.48
  -7   5   2    5.02    4.11
   7  -5   3   44.29   13.19
  -7   5  -3   53.15   12.23
  -7   5   3   60.33   13.27
   7   5   3   59.23   11.31
   7   5   4   20.46    7.87
  -7   5  -4   12.36    5.85
   7  -5   4   17.82   11.68
  -7   5   4   33.52   10.77
  -7   5  -4   19.77    7.30
  -7   5  -5    7.06    6.06
   7   5   5    8.69    6.84
  -7   5  -5   10.31    2.77
   7  -5   5   14.75   10.51
  -7   5   5   15.31    7.13
  -7   5  -6   70.11   13.68
  -7   5  -6   64.84   12.93
   7  -5   6   95.40   19.40
  -7   5   6   74.41   15.10
   7   5   6   66.33   14.08
  -7   5  -7  108.24   16.54
   7  -5   7  105.80   19.21
  -7   5   7  104.01   18.73
  -7   5  -7  107.39   18.02
   7   5   7  121.61   19.03
   7   5   8    3.53    2.96
  -7   5   8    0.47    5.22
   7  -5   8   -4.32    5.59
  -7   5  -8   -1.07    2.83
  -7   5  -8    1.66    1.68
   7   5   9    0.89    0.92
  -7   5  -9   -1.03    1.45
  -7   5   9    1.11    4.38
   7  -5   9   -1.54    3.22
  -7   5  -9   -1.15    0.22
   7   5  10   -2.08    3.54
  -7  -5  10   13.00    8.46
  -7   5  10    3.29    1.37
  -7   5 -10    9.51    6.70
   7  -5  10    2.47    5.42
  -7   5 -10    0.81    0.64
   7   5  10   18.35   11.49
  -7  -5  11   26.99    8.82
  -7   5  11   40.09   12.03
   7  -5  11   47.31   14.37
  -7   5 -11   33.32    9.64
   7   5  11   29.03   10.66
  -7   5 -11   38.09   10.57
   7   5  11   30.25   11.31
  -7   5  12   27.05   10.02
  -7  -5  12   25.26    7.33
  -7   5 -12   15.79    6.12
   7  -5  12    8.90    6.50
   7   5  12   36.75   11.04
  -7   5 -12   25.96    8.60
  -7   5  13    0.33    1.26
  -7  -5  13    6.74    8.34
  -7   5 -13    2.69    1.88
   7  -5  13    1.87    2.60
   7   5  13   -2.03    3.74
  -7   5 -13    1.93    3.30
  -7   5  14   12.37    7.45
  -7   5 -14    5.63    5.42
  -7  -5  14    7.07    4.74
   7  -5  14    7.97    4.95
   7   5  14    1.91    3.24
  -7   5 -14   16.44    9.14
  -7   5  15    6.69    8.44
  -7  -5  15    2.92    5.22
   7  -5  15   -0.74    6.05
   7   5  15    5.43    6.06
  -7   5 -15   14.40    8.97
  -7  -5  16   37.08   12.25
   7  -5  16   12.03    8.02
   7   5  16   10.40    6.06
  -7   5 -16   42.04   12.63
  -7   5  16   26.64   12.33
  -7  -5  17   -0.80    3.19
   7  -5  17   21.36   10.16
   7   5  17    5.66    6.31
  -7   5 -17   -0.10    5.10
  -7   5  17   11.94    8.90
  -7  -5  18   11.44    3.67
   7  -5  18   -4.04    5.39
   7   5  18   -3.19    5.46
  -7   5 -18    3.09    7.04
  -7   5  18    4.14    8.11
  -7  -5  19    5.01    6.24
   7  -5  19    6.54   11.08
   7   5  19    6.61    4.97
  -7   5 -19    6.34    6.76
   7  -5  19   -0.08    4.46
  -7   5  19   -3.40    7.67
  -7  -5  20    2.77    5.00
   7  -5  20   13.26    7.73
   7   5  20    4.91    2.24
  -7   5 -20    9.73    8.41
   7  -5  20   -4.03    7.60
  -7   5  20   -3.41    2.53
  -7  -5  21   13.06    8.72
   7  -5  21    6.84    5.35
   7   5  21   -0.29    2.51
  -7   5 -21   -2.71    3.43
   7  -5  21    6.28    8.48
  -7   5  21   -0.71    3.09
  -7  -5  22    2.94    2.37
   7  -5  22    9.58    5.22
   7   5  22    7.17    6.77
  -7  -5  23    7.70    6.90
   7  -5  23    0.55    2.52
   7   5  23    4.18    5.83
  -7   5 -23    5.06    4.78
  -7   5  23    2.84    6.78
  -7  -5  24   18.05    9.07
   7  -5  24   15.53    7.35
   7   5  24    7.29    3.66
  -7   5 -24   16.99    8.72
  -7   5  24   28.88   13.63
  -7   5  24   16.26    6.10
  -7  -5  25    8.40    7.85
   7  -5  25   -1.06    3.18
  -7   5  25    3.81    2.31
   7   5  25   -6.72    8.32
  -7   5 -25   -0.09    4.19
  -7   5  25   -1.22    6.54
   7   6   0   -0.11    3.07
  -7   6   0   -1.96    3.69
   7   6   1  276.97   27.32
   7   6  -1  351.50   32.40
  -7   6   1  315.52   31.76
  -7   6  -1  249.17   27.94
   7   6   2  249.18   26.31
  -7   6   2  293.74   29.74
  -7   6  -2  242.76   27.07
   7  -6   2  216.12   28.68
   7   6   3    2.86    2.60
   7  -6   3   -2.22    4.31
  -7   6  -3    6.17    6.68
  -7   6   3    5.98    2.74
   7   6   4    4.18    3.85
  -7   6  -4    4.80    4.22
   7  -6   4   -2.21    4.27
  -7   6   4   -1.12    3.31
  -7   6  -4    1.94    3.42
  -7   6  -5  315.20   27.69
   7  -6   5  337.18   38.04
  -7   6  -5  313.68   30.38
  -7   6   5  292.27   30.78
   7   6   5  218.05   25.15
   7   6   6    1.73    0.59
  -7   6  -6   -1.42    3.29
  -7   6  -6   -0.83    1.49
   7  -6   6    7.28    8.03
  -7   6   6    0.09    4.08
   7  -6   7   62.54   16.92
  -7   6  -7   42.95   10.28
  -7   6  -7   81.49   15.86
  -7   6   7   98.88   18.36
   7   6   7  100.56   18.66
   7   6   8    9.33    6.17
  -7   6   8    4.63    4.04
   7  -6   8    7.79    8.24
  -7   6  -8    2.66    1.97
  -7   6  -8   13.51    5.69
   7   6   9   44.47   13.05
  -7   6   9   62.30   15.42
   7  -6   9   29.88   11.12
  -7   6  -9   37.41    9.61
  -7   6  -9   52.51   14.14
  -7   6 -10   84.43   15.65
  -7   6  10  104.37   19.64
  -7   6 -10  121.93   20.72
   7   6  11   15.60    6.93
  -7   6  11   18.19    8.20
  -7   6 -11    3.02    2.60
   7  -6  11   13.88   10.71
  -7   6 -11   15.63    6.26
  -7   6 -12  246.15   29.24
  -7   6 -12  171.46   23.49
   7  -6  12  214.03   31.93
  -7   6  12  198.99   28.03
   7   6  12  186.34   27.17
  -7   6 -13   81.13   16.01
  -7   6  13   78.22   17.95
   7  -6  13   43.24   15.47
  -7   6 -13   69.89   15.47
  -7   6 -14    0.05    4.45
  -7  -6  14    2.25    3.46
  -7   6  14   -7.58    6.13
   7  -6  14    3.65    2.81
  -7   6 -14   -0.95    3.33
  -7   6  15   -0.56    3.12
  -7  -6  15   11.57    6.56
  -7   6 -15   13.72    8.53
   7  -6  15   16.41   10.19
  -7   6 -15    2.76    1.36
  -7   6  16   49.66   14.47
  -7  -6  16   58.76   13.50
   7  -6  16   72.64   19.27
  -7   6 -16   66.46   16.17
  -7  -6  17   14.63    6.54
   7  -6  17   25.02   10.08
  -7   6 -17   13.65    7.56
  -7   6  17   26.77   11.65
  -7  -6  18    0.34    1.08
  -7   6 -18    0.12    1.55
  -7   6  18   -2.14    5.79
  -7  -6  19    7.33    4.18
   7  -6  19    6.08    6.17
  -7   6 -19   13.55    9.90
  -7   6  19   22.48   10.00
  -7  -6  20   48.03   16.69
   7  -6  20   56.87   17.55
  -7   6 -20   31.34   10.62
  -7   6  20   24.18   12.84
  -7  -6  21   -2.17    7.45
   7  -6  21   -6.71    7.36
  -7   6 -21    3.33    7.32
   7  -6  21   -0.35    5.07
  -7   6  21   -2.86    6.23
  -7  -6  22   12.20    5.38
   7  -6  22    7.69    6.04
  -7   6 -22    3.72    3.63
   7  -6  22   11.75    8.38
  -7   6  22   22.70   11.52
  -7  -6  23    8.68    1.72
   7  -6  23   16.61    7.24
  -7   6 -23   20.73    7.20
  -7   6  23    5.58    1.71
   7  -6  23   11.27    8.92
  -7  -6  24   -3.08    8.57
   7  -6  24   -2.80    7.73
  -7   6 -24    6.70    5.52
  -7   6  24    9.73    6.03
   7  -6  24   11.43   11.11
  -7   6  24    4.70   13.19
   7   7   0    0.06    3.61
  -7   7   0   -1.32    5.88
   7   7   1   -3.15    4.24
  -7   7   1    1.64    4.84
   7   7  -1   -2.17    2.67
  -7   7  -1    4.23    4.39
  -7   7   2   51.48   12.90
   7   7   2   36.17   10.67
   7   7  -2   36.47   12.88
   7  -7   2   34.34   10.19
  -7   7  -2   44.53   12.44
   7   7   3   75.38   16.52
  -7   7   3   98.37   16.77
   7   7  -3   36.07   11.16
  -7   7  -3   73.98   15.51
   7  -7   3   95.17   18.24
   7   7   4    0.44    2.91
   7  -7   4    3.50    3.95
  -7   7   4    3.00    5.82
  -7   7  -4    1.63    2.16
  -7   7  -5   17.23    8.93
   7   7   5   26.59    8.13
  -7   7  -5   17.13    8.02
   7  -7   5   15.92    8.96
  -7   7   5   11.56    5.01
   7   7   6   -2.50    5.77
  -7   7  -6    4.10    4.68
  -7   7  -6   -1.00    0.59
   7  -7   6   -6.88    4.22
  -7   7   6    0.50    4.13
   7   7   7    2.06    3.86
  -7   7  -7    6.25    3.20
  -7   7  -7    4.58    4.38
   7  -7   7    8.79    9.64
  -7   7   7    0.71    3.12
   7   7   8   -2.81    5.82
  -7   7   8   -2.84    2.96
  -7   7  -8    0.95    3.82
   7  -7   8    1.30    1.94
  -7   7  -8   -0.58    5.40
   7   7   9   70.16   14.98
  -7   7  -9  108.56   18.41
  -7   7   9   72.25   15.37
   7  -7   9   93.07   18.89
  -7   7  -9   66.32   15.73
  -7   7 -10    5.37    4.81
   7   7  10    2.06    5.13
  -7   7  10    0.44    3.62
   7  -7  10    0.74    5.85
  -7   7 -10    5.75    4.96
   7   7  11   -2.97    3.68
  -7   7 -11    5.85    3.93
  -7   7  11    8.13    4.80
   7  -7  11   17.24   10.88
  -7   7 -11   13.89    8.88
   7   7  12    8.61    3.21
  -7   7  12    9.84   10.20
   7  -7  12   14.24    7.93
  -7   7 -12    0.51    5.06
  -7   7 -12    6.21    4.24
  -7   7 -13  110.46   20.30
  -7   7 -13  125.69   22.10
   7  -7  13  160.62   26.95
  -7   7  13  156.81   24.55
   7   7  13  162.06   26.64
   7   7  14   18.33    9.47
  -7   7  14   20.85   10.87
  -7   7 -14    9.15    7.28
   7  -7  14   14.81    7.36
  -7   7 -14   22.94    9.57
  -7   7  15   -8.27    5.45
   7  -7  15    1.33    8.28
  -7   7 -15   11.39    8.85
  -7   7 -15    0.44    1.84
   7   7  15   -3.68    3.67
  -7   7  16   33.47   14.39
   7  -7  16   14.01    6.55
  -7   7 -16   29.76   11.67
  -7   7 -16   12.13    3.38
  -7   7 -17   -0.99    6.68
  -7   7  17   10.68   10.38
   7  -7  17    8.18    4.75
  -7   7 -17    4.37    7.22
  -7   7  18   -5.49    6.51
   7  -7  18   -5.51    5.00
  -7   7 -18    8.52    9.27
   7  -7  19   37.85   12.34
  -7   7 -19   28.48   10.82
  -7   7  19    4.32   13.50
   7  -7  20   47.64   15.16
  -7   7 -20   35.10   15.00
  -7   7  20   11.62   12.86
   7  -7  21    9.18    6.42
  -7   7  21   22.94   10.44
  -7  -7  22   -3.61    9.04
   7  -7  22   12.11    8.04
  -7   7 -22   22.73   14.03
  -7   7  22   34.45   13.75
  -7  -7  23    4.20    7.72
   7  -7  23    3.09    6.42
  -7   7 -23    2.70    3.90
  -7   7  23   16.18    7.72
   7   8   0    6.37    6.60
  -7   8   0   -1.19    4.39
   7   8   1  280.68   31.70
   7   8  -1  277.25   30.87
  -7   8   1  298.21   32.21
  -7   8  -1  297.29   31.31
  -7   8   2   40.11   12.02
   7   8   2   30.70   10.39
   7   8  -2   25.70    9.68
  -7   8  -2   28.38   10.27
  -7   8   3   37.09   10.89
   7   8   3   45.30   13.48
   7   8  -3   59.07   14.68
   7  -8   3   38.78   10.80
  -7   8  -3   33.20   12.09
   7   8   4    9.34    6.26
   7  -8   4    7.44    4.33
  -7   8  -4   17.64    8.83
  -7   8   4   28.45   10.63
   7   8   5   43.28   13.04
   7  -8   5   54.17   16.62
  -7   8   5   57.53   14.61
  -7   8  -5   42.04   11.32
  -7   8  -6   -1.40    2.79
   7   8   6   -0.78    3.01
  -7   8  -6   -1.22    4.68
   7  -8   6    3.94    6.20
  -7   8   6   -0.24    3.82
   7   8   7   75.11   16.00
  -7   8  -7   53.26   13.96
  -7   8  -7   74.52   14.49
   7  -8   7   47.14   14.12
  -7   8   7   44.81   12.97
   7   8   8    3.39    5.90
  -7   8  -8   -2.38    3.64
  -7   8  -8    3.11    5.95
   7  -8   8    4.12    9.29
  -7   8   8    0.28    5.39
  -7   8  -9  234.56   27.75
   7  -8   9  156.88   25.56
  -7   8   9  165.77   26.62
  -7   8  -9  169.84   24.43
   7   8  10    0.37    5.04
  -7   8  10   12.66    9.30
  -7   8 -10    3.17    2.38
   7  -8  10    6.73    5.70
  -7   8 -10   10.86    6.31
  -7   8 -11   13.08    7.91
   7   8  11   12.17    6.25
  -7   8  11    7.80    5.64
  -7   8 -11   -3.85    5.02
   7  -8  11    3.96    2.25
   7   8  12   10.13    5.81
  -7   8 -12    2.24    3.82
  -7   8  12   15.34    7.96
   7  -8  12   18.25   10.77
  -7   8 -12    8.78    6.52
   7   8  13   73.22   18.72
  -7   8  13   40.37   14.23
  -7   8 -13   39.71   12.85
   7  -8  13   35.65   13.21
  -7   8 -13   27.14   10.70
   7   8  14   -0.74    7.77
  -7   8  14   11.12    7.86
   7  -8  14    8.72    6.76
  -7   8 -14    2.87    3.81
  -7   8 -14    2.78    3.81
   7   8  15   82.47   21.36
  -7   8 -15   55.97   14.56
  -7   8  15   71.15   17.61
   7  -8  15   41.07   14.07
  -7   8 -15   89.34   19.37
  -7   8  16   -6.43    3.46
  -7   8 -16    0.81    3.37
   7  -8  16    3.69    7.60
  -7   8 -16    0.25    2.52
   7   8  16    0.81    3.89
  -7   8  17   67.15   15.97
   7  -8  17   23.11    9.45
  -7   8 -17   34.33   11.10
  -7   8 -17   35.14   12.72
  -7   8  18    9.01    8.06
   7  -8  18   21.11   11.79
  -7   8 -18   10.45    8.21
  -7   8 -18    0.70    2.01
   7  -8  19   50.56   14.79
  -7   8 -19   59.94   17.56
  -7   8 -19   59.02   16.42
  -7   8  19   57.80   15.99
  -7   8 -20   14.11    8.70
   7  -8  20   23.88   11.45
  -7   8 -20    3.68    3.86
  -7   8  20    3.46    7.01
   7  -8  21   24.34   11.57
  -7   8 -21   11.82    8.38
  -7   8  21    1.65    5.08
   7  -8  22   14.06    6.96
  -7   8 -22   20.58    8.33
  -7   8  22   32.11   13.61
   7   9   0    2.19    3.77
  -7   9   0   -2.76    6.08
   7   9   1    9.41    8.16
   7   9  -1   -0.39    3.93
  -7   9   1   11.11    5.53
  -7   9  -1    7.98    7.78
  -7   9   2   -4.59    7.11
   7   9   2   -5.18    7.01
   7   9  -2    3.92    2.13
  -7   9  -2    8.39    6.82
  -7   9   3   -0.98    2.52
   7   9   3    2.44    6.40
   7   9  -3   -2.81    5.16
  -7   9  -3    1.23    2.06
   7   9   4    0.77    5.59
   7  -9   4   13.41    8.59
  -7   9  -4    0.53    0.58
  -7   9   4    8.02    6.22
   7   9   5   65.67   16.94
   7   9  -5   19.31   11.31
   7  -9   5   66.06   17.03
  -7   9   5   97.24   17.47
  -7   9  -5   59.50   16.26
  -7   9  -6    0.47    4.11
   7   9   6    3.58    4.14
   7  -9   6    2.69    4.97
  -7   9   6    7.33    6.14
   7   9   7   21.18    9.46
  -7   9  -7   50.77   15.26
  -7   9  -7   37.19   10.97
   7  -9   7   57.42   17.50
  -7   9   7   32.38   10.48
   7   9   8    0.03    4.20
  -7   9  -8   11.42    5.61
  -7   9  -8   -1.10    6.77
   7  -9   8   16.25    8.86
  -7   9   8   13.16    6.39
   7   9   9    9.82    7.18
  -7   9  -9   15.48    7.78
  -7   9  -9   20.66    7.85
   7  -9   9   27.11   10.59
  -7   9   9   18.62    9.61
   7   9  10   17.69    9.75
  -7   9  10    4.34    3.97
  -7   9 -10    0.89    3.65
   7  -9  10   15.24    9.49
  -7   9 -10   14.41    9.80
   7   9  11   33.95   12.23
  -7   9  11   24.39    8.29
  -7   9 -11   17.81    7.66
   7  -9  11   23.26   10.25
  -7   9 -11   47.15   14.95
  -7   9 -12   -1.21    4.40
   7   9  12   -1.03    7.82
  -7   9  12    5.08    6.67
  -7   9 -12    1.03    2.95
   7  -9  12   -4.82    8.40
  -7   9 -13   46.01   16.37
  -7   9  13   50.21   13.58
  -7   9 -13   42.20   12.26
   7  -9  13   44.25   13.63
   7   9  14   10.76    9.97
  -7   9  14    7.15    9.44
  -7   9 -14    5.61    6.91
  -7   9 -14    3.52    1.81
   7  -9  14    5.81    2.62
   7   9  15    6.81    3.91
  -7   9  15   -2.36    2.95
  -7   9 -15    6.04    2.89
   7  -9  15   -4.20   11.04
  -7   9 -15    1.27    3.87
   7   9  16    2.84    8.48
  -7   9  16   -3.45    2.58
   7  -9  16    0.29    3.88
  -7   9 -16    3.28    4.99
  -7   9 -16   -0.25    2.10
   7   9  17   55.10   17.22
  -7   9  17   77.57   18.54
  -7   9 -17   74.19   18.28
   7  -9  17   97.19   20.25
  -7   9 -17   71.53   18.16
  -7   9  18    7.52    7.12
  -7   9 -18    3.17    4.57
   7  -9  18   -2.04    1.29
  -7   9 -18    2.87    2.68
   7   9  18    3.04    1.11
  -7   9  19    2.87    6.50
  -7   9 -19    1.92    1.64
  -7   9 -19    6.10    4.70
  -7   9 -20   -3.52    7.55
   7  -9  20   -5.93    7.27
  -7   9 -20    8.69    9.77
  -7   9  20    4.53    3.84
   7  -9  21   14.62    7.96
  -7   9 -21    2.43    6.75
  -7   9  21   12.01    8.21
  -7   9 -21   -2.30    6.56
   7  10   0    4.30    8.48
  -7  10   0    3.95    4.72
   7  10   1   -1.50    2.86
   7  10  -1    2.78    3.15
  -7  10   1    1.89    3.80
  -7  10  -1    1.00    2.63
  -7  10   2   71.91   15.84
   7  10   2   68.06   17.10
   7  10  -2   66.22   16.65
  -7  10  -2   71.32   16.07
  -7  10   3   23.74    9.69
   7  10   3   25.15    9.41
   7  10  -3   14.10    9.22
  -7  10  -3   14.19    7.74
   7  10   4    2.23    8.53
   7  10  -4    3.77    8.39
  -7  10  -4    0.36    5.53
  -7  10   4    2.13    3.41
   7  10   5    3.71    5.59
  -7  10  -5    7.39    7.51
  -7  10   5    3.08    4.00
   7  10   6   43.20   13.02
   7 -10   6   40.49   13.82
  -7  10   6   47.32   14.40
  -7  10  -6   34.06   10.83
  -7  10  -7   27.40   11.45
   7  10   7   28.13   10.30
   7 -10   7   35.77   11.67
  -7  10   7   31.59   13.29
   7  10   8   32.43   11.36
  -7  10  -8   42.15   12.87
   7 -10   8   42.86   12.91
  -7  10   8   33.89   12.52
   7  10   9   24.66   11.97
  -7  10  -9   26.10   11.25
  -7  10  -9    4.30    1.04
   7 -10   9   20.04   10.10
   7  10  10   44.81   14.20
  -7  10 -10   92.97   19.05
  -7  10 -10   55.49   15.77
  -7  10  10   50.13   15.34
   7 -10  10   62.10   19.77
   7  10  11    0.21    3.45
  -7  10  11   -0.43    6.92
  -7  10 -11   -5.68    3.73
   7 -10  11   -5.09    4.70
  -7  10 -11    0.51    5.39
   7  10  12   40.99   12.75
  -7  10  12   28.84   12.57
  -7  10 -12   69.92   17.81
   7 -10  12   83.05   19.91
  -7  10 -12   55.11   16.98
   7  10  13   -7.07    4.63
  -7  10  13    3.86    2.94
  -7  10 -13   10.88    9.01
   7 -10  13    6.17    4.81
  -7  10 -13    6.93    4.91
   7  10  14    5.58    9.23
  -7  10 -14   -2.65    4.34
  -7  10  14   -1.24    3.48
  -7  10 -14   12.94    6.52
   7 -10  14    2.61    5.63
   7  10  15    8.58    6.79
  -7  10  15    6.22    5.64
  -7  10 -15    7.00    7.25
  -7  10 -15    9.97    8.45
   7 -10  15    4.66    5.54
   7  10  16   81.08   20.77
  -7  10  16   87.22   19.50
  -7  10 -16   60.15   15.82
  -7  10 -16   72.62   17.30
   7 -10  16   72.64   21.15
   7  10  17    2.12    4.13
  -7  10  17    1.52    3.88
  -7  10 -17    4.28    4.82
   7 -10  17   17.07   11.25
  -7  10 -17   17.86   10.18
   7  10  18    1.49    2.86
  -7  10  18    3.32    3.95
  -7  10 -18   -6.88    9.15
   7 -10  18    8.11    8.72
  -7  10 -18   -3.66    3.25
  -7  10  19   -1.14    3.59
  -7  10 -19    9.28    5.85
  -7  10 -19   -3.73    4.79
   7  10  19    4.45    5.42
   7  11   0   -5.29    8.26
  -7  11   0    2.60    0.71
   7  11   1    8.53    3.75
  -7  11   1   10.61    8.81
   7  11  -1    6.10    6.84
  -7  11  -1    8.06    7.67
  -7  11   2   14.72    8.20
   7  11   2    6.30    6.49
   7  11  -2    2.46    4.04
  -7  11  -2   12.12    8.64
  -7  11   3    5.17    5.02
   7  11  -3    1.40    3.00
  -7  11  -3    2.94    0.45
   7  11   4    9.24    8.80
   7  11  -4    7.15    5.84
  -7  11  -4   -0.54    1.25
  -7  11   4   -0.08    4.13
   7  11   5   -8.39    9.66
  -7  11  -5    0.70    1.68
   7  11   6   10.04    8.76
  -7  11   6   -2.45    4.12
  -7  11  -6    4.45    2.07
   7  11   7    6.73    6.45
   7 -11   7   -2.14    6.40
  -7  11   7   11.87    9.95
  -7  11  -7    3.01    4.77
  -7  11  -8   -3.91    5.65
   7  11   8    8.09    5.70
   7 -11   8    5.84    9.90
  -7  11   8    2.04    7.00
   7  11   9   -1.80    3.96
  -7  11  -9   -1.32    1.75
   7 -11   9    6.33    5.30
   7  11  10   12.37    8.30
  -7  11 -10    3.16    6.73
  -7  11  10    7.92    8.03
   7 -11  10   -2.06    4.17
   7  11  11   -2.77    6.29
  -7  11  11   -1.17    4.95
  -7  11 -11    0.06    2.76
   7 -11  11    2.35    7.14
   7  11  12    4.32    5.75
  -7  11  12   -0.69    1.14
  -7  11 -12    7.64    7.34
   7 -11  12    6.89    5.77
  -7  11 -12   -3.02    3.35
   7  11  13   -0.19    3.47
  -7  11  13    9.83    9.35
  -7  11 -13    0.42    7.79
   7 -11  13   15.03    8.95
  -7  11 -13   13.87   10.18
   7  11  14    1.20    5.01
  -7  11  14   -0.83    4.14
  -7  11 -14   -7.31    6.59
  -7  11 -14    5.25    3.12
   7  11  15    7.73    6.97
  -7  11  15    4.83    5.12
  -7  11 -15   -2.37    5.51
   7 -11  15   -2.24    7.42
  -7  11 -15    0.15    3.15
   7  11  16    1.98    3.07
  -7  11 -16   -2.74    4.58
  -7  11  16    8.05    3.75
  -7  11 -16   13.84    9.77
   7 -11  16   -1.62    6.39
   7  11  17   13.94    7.94
  -7  11  17    0.67    5.51
  -7  11 -17   17.21   10.58
  -7  11 -17    4.82    9.66
   7 -11  17   15.04    9.49
   7  12   0   -0.13    0.99
  -7  12   0    6.56    8.02
  -7  12   1   -2.07    6.16
   7  12   1   -2.02    5.28
   7  12  -1    0.99    2.58
  -7  12  -1    1.98    2.67
  -7  12   2   34.85   13.77
   7  12   2   12.71    8.51
   7  12  -2   27.06   12.68
  -7  12  -2   29.09   10.83
  -7  12   3   50.03   16.20
   7  12   3   51.66   16.93
   7  12  -3   29.61   13.78
  -7  12  -3   23.40   10.47
   7  12   4   -3.80    7.92
   7  12  -4   -0.29    7.36
  -7  12  -4   -0.61    3.63
  -7  12   4   10.96   10.38
   7  12   5    9.33    6.80
   7  12  -5   19.88   16.37
  -7  12  -5   11.03    7.80
  -7  12   5   -4.10    6.13
   7  12   6    7.60    5.44
  -7  12   6    9.78    7.46
  -7  12  -6   10.58    4.02
   7  12   7   -2.81    1.20
  -7  12   7   -1.79    2.37
  -7  12  -7    4.77    7.72
   7  12   8   33.22   12.77
  -7  12   8   25.11   11.93
  -7  12  -8   46.50   14.79
  -7  12  -9   54.03   16.22
   7  12   9   27.12    9.00
   7 -12   9   38.41   13.33
  -7  12   9   54.16   17.63
   7  12  10    7.86   10.80
  -7  12 -10    5.33    2.43
   7 -12  10   18.46   10.05
  -7  12  10    0.89    5.02
   7  12  11   -3.47    4.13
  -7  12 -11    3.88    3.82
  -7  12  11   -2.29    0.93
   7 -12  11    2.26    3.82
   7  12  12    0.64    7.11
  -7  12  12   10.12   10.78
  -7  12 -12    9.90    6.53
   7 -12  12    3.07    5.87
   7  12  13   37.20   13.87
  -7  12  13   20.42    9.71
   7 -12  13   39.85   12.91
  -7  12 -13   47.40   14.37
   7  12  14    5.30    6.51
  -7  12  14    2.92    3.97
   7 -12  14    3.87    6.39
  -7  12 -14   -0.59    6.72
   7  13   0   -5.35   10.54
  -7  13   0    3.20    7.05
  -7  13   1   27.46   11.45
   7  13   1   26.66   13.48
   7  13  -1   29.79   12.71
  -7  13  -1   27.61   11.94
  -7  13   2   11.14    8.05
   7  13   2   -2.98    7.19
   7  13  -2    4.18    9.86
  -7  13  -2    0.54    4.18
   7  13   3   -0.27    0.71
   7  13  -3   -3.87    8.04
  -7  13  -3    1.31    3.91
  -7  13   3   -0.96    4.40
   7  13   4    1.35    7.45
   7  13  -4    5.06    9.46
  -7  13  -4    2.47    5.17
  -7  13   4   10.93    6.74
   7  13   5   -1.31    0.81
   7  13  -5    3.28    7.06
  -7  13  -5    9.41    5.46
  -7  13   5    3.47    6.62
   7  13   6    3.73    9.08
  -7  13  -6    1.88    4.15
  -7  13   6    5.07    8.42
   7  13   7    0.17    2.40
  -7  13   7   11.65    6.30
  -7  13  -7   11.20    7.24
   7  13   8   -2.41    5.69
  -7  13   8   12.85   10.82
  -7  13  -8    3.96   10.28
   7  13   9    2.19    5.08
  -7  13   9   12.14    8.50
  -7  13  -9    9.07    7.72
  -7  13 -10   -6.82    6.76
   7  13  10    5.65    6.45
  -7  13  10    9.87    6.32
  -7  14   0    3.11    7.28
   7  14   0   10.24   10.60
  -7  14   1    0.91    6.73
   7  14   1   -5.24    6.42
   7  14  -1   -0.52    3.28
  -7  14  -1    2.09    4.20
  -7  14   2    9.61    7.95
   7  14   2   -3.45    7.54
   7  14  -2   -1.48    7.15
  -7  14  -2    7.28    6.12
   7  14   3    0.46    2.71
   7  14  -3   -1.35    3.05
  -7  14  -3   -0.86    5.66
  -7  14   3   -1.42    5.14
   8   0   1    6.75    4.85
  -8   0   2   72.49   12.28
   8   0   2  114.36   19.61
   8   0   3    9.70    9.69
  -8   0   3    3.14    2.99
   8   0   4   43.74   12.56
  -8   0   4   31.07    9.48
   8   0   5    5.72    6.13
  -8   0   5   -1.51    3.46
  -8   0   6   91.59   15.37
   8   0   6   77.38   15.79
   8   0   7   -0.76    3.90
  -8   0   7    6.83    5.69
   8   0   8    4.91    4.45
  -8   0   8    9.03    3.54
   8   0   9   -1.73    4.75
  -8   0   9    0.10    1.57
  -8   0  10  419.18   37.27
   8   0  10  446.05   40.53
   8   0  11    0.59    4.41
  -8   0  11   -0.34    2.80
   8   0  12    3.32    2.91
  -8   0  12    6.39    5.86
   8   0  13    1.08    2.50
  -8   0  13   -1.39    1.39
  -8   0  14  159.23   25.45
   8   0  14  136.57   24.01
  -8   0  15   -2.84    6.80
   8   0  15    3.03    2.72
  -8   0  16   15.15    6.63
   8   0  16   35.67   14.77
  -8   0  17   -0.71    6.75
   8   0  17   -4.08    6.93
  -8   0  18   17.30    9.04
   8   0  18   23.13    9.72
  -8   0  19    8.67    5.92
   8   0  19    3.14    1.86
  -8   0  20   14.06    7.19
   8   0  20   13.57    1.32
  -8   0  21    2.36    4.40
   8   0  21   -5.26    4.64
  -8   0  21    8.99    9.44
  -8   0  22   32.02   11.26
   8   0  22   31.14   11.40
  -8   0  22   18.64    8.45
  -8   0  23    0.48    4.90
   8   0  23    1.04    5.68
  -8   0  23   10.60    9.81
  -8   0  24    2.07    7.61
   8   0  24   10.95    4.50
  -8   0  24   -5.12    7.78
  -8   0  25   -4.96    8.98
   8   0  25    5.55    8.01
  -8   0  25  -12.81    6.72
  -8   1   0  345.79   26.12
   8   1   1  274.03   29.31
  -8   1   1  308.06   25.31
  -8   1  -1  309.48   25.07
  -8   1   2    3.47    0.38
   8   1   2    0.92    3.99
   8  -1   2    3.47    3.10
  -8   1  -2   -2.14    2.94
  -8   1   3   39.04    9.74
   8  -1   3   28.67   10.47
   8   1   3   43.66   13.06
   8  -1   4  269.71   32.10
   8   1   4  274.53   30.54
  -8   1   4  187.02   21.46
  -8   1   5    2.11    0.97
   8  -1   5    6.06    4.45
   8   1   5    7.35    6.65
  -8  -1   6  119.54   17.14
  -8   1   6  111.13   17.58
   8  -1   6  115.51   20.39
   8   1   6   86.95   17.47
  -8  -1   7   76.96   14.20
   8  -1   7   94.20   18.41
   8   1   7   38.29   11.69
  -8   1   7   41.09   11.54
  -8  -1   8   71.02   13.94
  -8   1   8   74.45   14.60
   8  -1   8   99.20   19.81
   8   1   8  106.28   18.94
   8  -1   9   19.78   10.49
   8   1   9   36.95   13.19
  -8  -1   9   52.61   12.87
  -8   1   9   54.59   12.33
   8  -1  10   29.91    8.93
  -8  -1  10   21.22    6.57
   8   1  10   17.24    9.39
  -8   1  10   33.30   10.44
  -8  -1  11   11.55    7.96
   8  -1  11   -4.10    5.70
   8   1  11    6.56    3.91
  -8   1  11    7.38    4.30
  -8  -1  12  249.92   28.90
   8  -1  12  196.23   27.21
   8   1  12  218.41   29.48
  -8  -1  13    2.53    2.39
   8  -1  13    4.76    2.97
   8   1  13    5.81    6.96
  -8   1  13   -0.24    3.87
  -8   1  14  107.44   20.85
   8   1  14   94.72   18.81
  -8  -1  14   72.60   15.75
   8  -1  14   51.33   15.21
   8   1  15   86.09   18.72
  -8  -1  15   58.96   14.43
   8  -1  15   53.72   16.32
  -8   1  15   75.40   18.08
  -8  -1  16   25.26    9.27
   8  -1  16   33.63   13.48
   8   1  16   16.87    9.83
  -8   1  16   35.41   13.04
  -8  -1  17   36.40   11.81
   8  -1  17   77.85   18.75
   8   1  17   47.61   14.38
  -8   1  17   30.29   13.24
  -8  -1  18  294.51   36.86
  -8   1  18  257.53   35.05
   8  -1  18  214.22   31.00
   8   1  18  254.91   33.82
  -8  -1  19    4.07    2.85
  -8   1  19    9.77    9.09
   8  -1  19    0.03    5.53
   8   1  19    4.60    4.69
  -8  -1  20    8.43    9.07
  -8   1  20   -7.48    8.40
   8  -1  20   -0.52    4.20
   8   1  20    5.74    7.68
  -8  -1  20   -3.05    4.71
  -8  -1  21   25.45   11.89
  -8   1  21   21.65   11.45
   8  -1  21   22.13    9.72
   8   1  21   31.18   10.64
  -8  -1  21   30.69   12.49
  -8   1  22   78.76   20.52
  -8  -1  22   74.10   19.07
   8  -1  22   62.39   17.42
   8   1  22   41.61   12.90
  -8  -1  22   85.13   17.67
  -8   1  22   51.84   15.60
  -8  -1  23   -1.79    6.74
  -8   1  23    1.48    1.94
   8  -1  23    0.96    4.78
   8   1  23   -5.60    5.89
  -8  -1  23    4.53    8.86
  -8   1  23   -4.30    6.61
  -8  -1  24   49.17   16.35
  -8   1  24   51.71   15.66
   8  -1  24   37.37   13.83
   8   1  24   61.18   16.90
  -8  -1  24   16.46    8.00
  -8   1  24   57.39   17.62
  -8  -1  25   17.89   10.42
  -8   1  25   34.17   14.23
   8  -1  25   39.78   13.40
   8   1  25   30.48   12.23
  -8  -1  25   44.39   14.95
  -8   1  25   24.15   11.20
  -8   2   0   52.64   10.65
   8   2   1   92.85   16.52
   8  -2   1   62.80   15.62
  -8   2  -1   70.16   13.08
  -8   2   2   15.81    6.96
   8   2   2   16.75    7.98
   8  -2   2   18.87    8.90
  -8   2  -2   14.75    6.47
  -8   2  -3  247.56   23.47
   8  -2   3  232.10   29.89
   8   2   3  253.94   29.55
  -8   2   3  263.76   25.48
  -8   2  -4    9.12    4.90
  -8   2   4   15.66    6.27
   8  -2   4   13.84    2.57
   8   2   4    9.89    7.07
  -8   2   5   18.23    7.75
  -8   2  -5   25.29    7.96
   8  -2   5   24.99   10.45
   8   2   5   52.09   12.94
  -8   2   6   25.50    9.81
   8  -2   6   49.09   13.37
   8   2   6   28.81   10.41
  -8   2  -6   36.79    9.26
   8  -2   7  380.30   38.51
   8   2   7  322.55   34.52
  -8   2   7  413.72   34.65
  -8   2  -7  354.50   28.73
  -8   2   8   -1.80    5.69
   8  -2   8    6.05    7.88
   8   2   8   -4.42    2.70
  -8  -2   9    9.46    4.53
   8  -2   9    7.88    7.01
   8   2   9    3.86    3.37
  -8   2   9    9.04    5.65
  -8  -2  10   -0.12    3.07
   8  -2  10   -0.13    4.52
   8   2  10    4.15    6.28
  -8   2  10   -2.49    4.87
  -8   2  11  112.49   20.04
  -8  -2  11   78.94   15.47
   8  -2  11   95.25   19.32
   8   2  11   86.98   18.25
  -8  -2  12   29.11   10.77
   8  -2  12   32.89   11.15
   8   2  12   33.73   12.29
  -8   2  12   41.63   12.77
  -8  -2  13   26.99   11.00
   8  -2  13   27.37   10.97
   8   2  13   14.42    7.67
  -8   2  13   17.92    8.12
  -8  -2  14   12.24    7.09
   8  -2  14   11.33    3.32
  -8   2  14   21.90    9.22
  -8  -2  15   13.65    7.75
   8  -2  15    3.02    7.23
   8   2  15    0.34    2.28
  -8  -2  16    4.86    4.68
   8  -2  16   -0.03    3.10
   8   2  16    8.67    7.70
  -8   2  16   11.56    8.76
  -8  -2  17   -1.26    7.23
   8  -2  17   -6.24    4.54
   8   2  17    0.31    6.07
  -8   2  17    0.99    2.79
  -8  -2  18   -1.66    2.58
   8  -2  18    1.38    5.87
   8   2  18    7.30    9.21
  -8   2  18   -6.96   10.43
  -8  -2  18   -4.19    1.96
  -8  -2  19   53.76   14.87
   8  -2  19   33.65   10.64
   8   2  19   28.44   11.17
  -8   2  19   31.17   12.65
  -8  -2  19   22.16   11.51
  -8  -2  20   17.37   10.57
   8  -2  20    9.58    7.97
  -8   2  20   23.04   11.79
   8   2  20    6.33    8.66
  -8  -2  20   16.46    8.02
  -8  -2  21   88.74   19.77
   8  -2  21  113.82   22.17
  -8   2  21   92.81   21.04
   8   2  21   59.74   14.83
  -8  -2  21   78.31   18.04
  -8  -2  22   -6.01    1.48
  -8   2  22    9.73    6.47
   8  -2  22    2.65    3.40
   8   2  22    4.45    6.36
  -8  -2  22    6.98    8.35
  -8  -2  23   -1.34    3.38
  -8   2  23   -7.13    8.61
   8  -2  23    0.61    3.27
   8   2  23    6.05    4.88
  -8  -2  23    2.53    6.61
  -8   2  23    0.42    3.98
  -8  -2  24    1.67    5.39
  -8   2  24    1.38    4.67
   8  -2  24    2.22    4.43
   8   2  24    0.19    3.86
  -8  -2  24   -7.52    7.93
  -8   2  24    4.88    6.70
  -8  -2  25    7.68    8.51
  -8   2  25    8.82    7.28
   8  -2  25    0.99    2.13
   8   2  25    5.40    6.05
  -8  -2  25   16.11   13.26
  -8   2  25   13.21    9.13
  -8   3   0   28.52    9.37
   8  -3   1   54.32   13.99
  -8   3   1   45.53   10.98
  -8   3  -1   31.02    9.03
  -8   3  -2   17.97    6.37
   8   3   2   18.17    9.17
   8  -3   2   33.88   12.39
  -8   3   2   10.82    5.90
  -8   3  -3  120.48   18.07
   8   3   3   83.20   16.81
  -8   3   3  104.45   16.83
  -8   3  -4   78.93   14.19
   8   3   4  105.87   19.00
   8  -3   4   73.31   16.61
  -8   3   4   93.64   15.63
  -8   3   5   21.65    8.91
   8  -3   5   14.60    7.91
   8   3   5    4.75    3.85
  -8   3  -5   26.53    8.57
   8  -3   6  220.42   30.15
   8   3   6  281.81   30.71
  -8   3  -6  306.43   28.47
  -8   3   6  269.87   29.40
   8  -3   7  102.51   19.67
   8   3   7  111.71   19.98
  -8   3   7  141.13   20.35
  -8   3  -7   97.08   16.25
   8  -3   8  117.05   21.05
   8   3   8  129.56   22.06
  -8   3   8   94.48   17.05
  -8   3  -8  133.54   19.18
  -8   3   9   -3.66    5.04
  -8   3  -9    1.47    3.08
   8  -3   9   -0.42    4.43
   8   3   9    3.01    4.64
  -8   3  10   -2.05    3.17
   8  -3  10   -0.69    5.32
   8   3  10    1.37    2.81
  -8   3 -10    6.03    5.42
  -8   3  11  119.28   20.19
   8  -3  11   77.66   19.66
   8   3  11  145.48   22.77
  -8   3 -11  114.39   17.85
  -8   3 -12   -0.42    3.64
   8  -3  12    2.98    9.00
   8   3  12    2.13    5.32
  -8   3  12    6.52    5.31
  -8  -3  13    5.25    6.22
   8   3  13   -2.10    4.38
  -8   3  13    1.29    3.45
  -8  -3  14    2.54    0.71
   8  -3  14   18.03   10.51
   8   3  14   17.08    7.08
  -8   3  14    4.99    3.69
  -8  -3  15   53.00   14.89
   8  -3  15   28.89    7.00
   8   3  15   36.58   12.57
  -8   3  15   18.39   11.70
  -8  -3  16   42.41   12.11
   8  -3  16   36.41   13.98
   8   3  16   12.60   10.04
  -8   3  16   22.44    8.19
  -8  -3  16   19.38    8.94
  -8   3  17   91.41   21.99
  -8  -3  17   38.29   14.62
   8  -3  17   67.36   17.04
   8   3  17   42.67   13.49
  -8  -3  17   75.96   18.52
  -8  -3  18   -3.54    7.72
   8  -3  18   -3.36    5.08
   8   3  18    2.72    2.01
  -8   3  18    1.26    1.89
  -8  -3  18    6.38    8.40
  -8   3  19  116.54   23.34
  -8  -3  19   61.67   16.60
   8  -3  19   68.03   19.96
   8   3  19   60.77   16.29
  -8  -3  20    3.89    4.27
   8  -3  20    7.90    6.89
   8   3  20    4.06    4.19
  -8   3  20   -6.93    8.39
  -8  -3  21   51.37   13.57
   8  -3  21   90.42   20.27
   8   3  21   62.94   16.57
  -8   3  21   71.56   18.50
  -8  -3  22   21.36   11.37
   8  -3  22   23.27    9.74
  -8   3  22   12.75    8.00
   8   3  22   13.75    8.43
  -8  -3  23    1.96    2.36
  -8   3  23   -4.90    9.15
   8  -3  23    9.50   10.82
   8   3  23   -1.21    6.38
  -8   3  23    7.79    7.51
  -8  -3  24   -4.38    8.91
  -8   3  24    2.15    6.65
   8  -3  24   -4.78    3.05
   8   3  24   -0.95    2.78
  -8   3  24   -5.41    7.56
  -8  -3  25   11.68    7.95
  -8   3  25   18.98   10.93
   8  -3  25   16.66    8.88
   8   3  25    7.35    8.77
  -8   3  25   15.93    9.20
  -8   4   0   10.15    6.28
  -8   4  -1   17.19    4.47
   8  -4   1   35.29   10.86
  -8   4   1   26.39    9.74
  -8   4  -2  157.28   20.56
   8  -4   2  120.84   21.13
  -8   4   2  157.58   21.17
  -8   4  -3   -3.13    1.68
   8  -4   3    0.13    5.65
  -8   4   3    2.89    2.71
  -8   4  -4   20.77    6.08
  -8   4   4   52.74   13.38
   8  -4   4   43.40   11.80
   8  -4   5  171.19   26.70
  -8   4  -5  187.60   23.04
  -8   4   5  150.65   22.65
  -8   4   6   42.48   10.76
   8  -4   6   46.01   13.73
  -8   4  -6   37.46   10.60
  -8   4  -7   24.68    8.35
  -8   4   7   47.56   11.59
   8   4   7   78.72   18.08
   8  -4   7   57.58   14.33
   8  -4   8  109.25   21.07
   8   4   8  118.15   20.73
  -8   4   8  134.86   21.63
  -8   4  -8  122.06   20.11
  -8   4   9   33.81   11.95
  -8   4  -9   24.20   10.35
   8  -4   9   13.27    8.42
   8   4   9   33.60   10.41
  -8   4  10   13.42    6.44
   8  -4  10   41.93   11.40
   8   4  10   32.10   10.07
  -8   4 -10   40.52   11.73
  -8   4  11   11.67    5.79
   8  -4  11   30.02   11.60
   8   4  11   16.62    7.88
  -8   4 -11   19.73    9.15
  -8   4  12   15.19    8.71
  -8   4 -12   10.69    5.98
   8  -4  12   14.60    8.94
   8   4  12    4.56    6.10
  -8   4  13   -3.28    3.47
   8  -4  13    2.70    5.33
   8   4  13    4.33    7.11
  -8   4 -13   10.53    7.50
  -8   4 -14   -3.07    3.08
   8  -4  14    3.69    2.20
   8   4  14    7.62    4.84
  -8   4  14    8.51    3.73
   8  -4  15   25.55   11.86
  -8   4 -15   27.86   11.31
   8   4  15    6.31    0.32
  -8   4 -15    2.84    2.34
  -8   4  15    2.87    1.58
  -8   4 -16   -3.98    5.33
   8  -4  16   -5.86    6.54
   8   4  16    1.14    7.00
  -8   4 -16    2.13    4.77
  -8   4  16    1.41    6.68
   8  -4  17    2.50    4.56
   8   4  17   22.72    9.34
  -8   4  17   16.66   11.81
   8  -4  18   40.66   13.39
   8   4  18   33.49   12.10
  -8   4  18   20.52    9.37
  -8  -4  19   28.60   12.00
   8  -4  19   22.21   13.92
   8   4  19   20.34    9.55
  -8   4  19   11.03   12.46
  -8  -4  20   16.85    7.06
   8  -4  20   11.88    6.60
   8   4  20    9.16    7.16
  -8   4  20   12.64    6.82
  -8  -4  21   -3.27    8.51
   8  -4  21    6.35   10.44
   8   4  21    3.47    2.72
  -8   4  21   -0.99    5.73
  -8  -4  22   -1.37    2.57
   8  -4  22    3.03    2.96
   8   4  22    1.25    9.04
  -8   4  22   10.40    7.84
  -8  -4  23    3.65    5.38
   8  -4  23    2.22    2.62
   8   4  23    3.66    6.64
  -8   4  23    1.28    9.04
  -8  -4  24   17.41   10.56
   8  -4  24    5.25    4.29
  -8   4  24    2.23    4.27
   8   4  24   10.86    8.59
  -8   4  24   14.96    9.00
  -8   5   0  882.00   51.47
  -8   5  -1   22.53    9.68
  -8   5   1   41.29   10.39
  -8   5  -2    6.18    6.01
   8  -5   2   14.78   10.94
  -8   5   2   21.04    9.83
  -8   5  -3   61.15   13.42
   8  -5   3  104.30   20.59
  -8   5   3   78.15   16.10
  -8   5  -4   93.15   17.23
   8  -5   4  125.52   23.89
  -8   5   4   82.89   17.05
   8  -5   5   69.16   17.34
  -8   5   5   61.54   15.05
  -8   5  -5   54.64   13.94
  -8   5   6   73.67   15.77
  -8   5  -6   92.04   16.53
  -8   5  -7   53.76   11.73
  -8   5   7   65.16   15.79
   8  -5   7   58.14   16.31
  -8   5  -8   44.17   12.31
  -8   5   8   49.38   14.83
   8  -5   8   56.78   14.86
  -8   5   9   25.01    9.30
  -8   5  -9   17.75    8.74
   8  -5   9    7.16    7.37
   8  -5  10   73.57   17.65
  -8   5  10   87.58   17.58
  -8   5 -10   47.29   12.55
  -8   5  11   25.40   12.24
   8  -5  11   26.76   10.50
  -8   5 -11   37.13   11.67
  -8   5  12    1.03    4.65
  -8   5 -12   -2.49    4.34
   8  -5  12    0.70    6.44
  -8   5  13    4.51    2.91
  -8   5 -13    8.26    5.83
   8  -5  13   17.80    7.49
  -8   5  14   52.41   13.94
   8  -5  14   27.27   11.96
  -8   5 -14   53.49   15.35
  -8   5 -15   -2.29    5.77
   8  -5  15    1.77    6.11
  -8   5  15   10.13    5.28
   8  -5  16    7.10    8.84
  -8   5 -16    0.77    4.76
  -8   5  16   -3.51    1.68
  -8   5 -17   12.94    5.99
   8  -5  17   15.78    8.81
  -8   5 -17   -2.40    2.33
  -8   5  17   12.44    7.61
   8  -5  18   65.27   17.54
  -8   5 -18   56.71   16.07
  -8   5 -18   56.63   16.08
  -8   5  18   37.00   11.28
   8  -5  19    2.72    4.46
  -8   5 -19   -5.64    8.10
  -8   5  19   -0.99    5.19
   8  -5  20   10.19    8.07
  -8   5 -20    7.03    4.42
  -8   5  20   16.11   11.87
   8  -5  21   12.85    8.80
  -8   5 -21    8.63    6.63
  -8   5  21   19.07   12.37
   8  -5  22   22.99   11.24
  -8   5 -22   16.57    9.86
  -8   5  22   21.13    8.98
   8  -5  23    3.96    3.57
  -8   5 -23    2.01    7.28
  -8   5  23   -5.53    6.07
  -8   6   0    6.93    7.40
  -8   6  -1    0.69    3.25
  -8   6   1   -1.22    4.54
  -8   6   2  369.38   35.69
  -8   6  -2  359.89   33.79
   8  -6   2  264.80   31.04
  -8   6   3   97.50   18.22
  -8   6  -3   96.93   18.42
   8  -6   3  135.36   21.89
   8  -6   4    5.36    6.34
  -8   6  -4    2.34    3.56
  -8   6   4    8.63    6.85
   8  -6   5    8.95    6.97
  -8   6   5   -0.73    5.03
  -8   6  -5    7.80    4.82
   8  -6   6   -5.16    7.32
  -8   6   6    2.29    4.65
  -8   6  -6    0.76    5.30
  -8   6  -7    3.19    2.31
  -8   6   7    6.00    4.73
   8  -6   7    6.59    7.54
  -8   6  -8    2.44    1.49
  -8   6   8    7.74    7.89
   8  -6   8   10.24    2.30
  -8   6   9   -1.26    4.16
  -8   6  -9    4.90    4.26
   8  -6   9   12.88   11.31
  -8   6  10    6.83    6.08
   8  -6  10   14.12    7.99
  -8   6 -10    2.18    2.68
  -8   6  11    5.45    3.99
   8  -6  11   23.74    9.49
  -8   6 -11   17.51    7.52
  -8   6  12   22.26   10.24
   8  -6  12   24.36   10.60
  -8   6 -12   18.15    7.85
  -8   6  13   -0.48    3.74
  -8   6 -13   -1.31    3.33
   8  -6  13   -0.06    4.55
  -8   6  14   23.81    9.01
  -8   6 -14   21.18   10.50
   8  -6  14   12.73    7.45
  -8   6  15    1.58    4.27
   8  -6  15    3.14    4.15
  -8   6 -15    0.85    3.07
  -8   6  16    4.63    6.99
  -8   6 -16   -3.00    6.84
   8  -6  16    6.94   10.10
  -8   6 -17    0.38    5.66
   8  -6  17    2.65    2.12
  -8   6  17    6.25    7.44
  -8   6 -18    8.70    4.09
   8  -6  18   18.64    8.52
  -8   6  18   14.95    5.53
   8  -6  19    2.02    8.58
  -8   6 -19   11.95    8.03
  -8   6  19   10.33   10.44
  -8   6 -20    7.51    8.07
   8  -6  20    1.71    4.26
  -8   6 -20    0.48    1.75
  -8   6  20    7.20    8.12
   8  -6  21   17.55    9.08
  -8   6 -21   -9.51    8.78
  -8   6  21    5.69    9.71
   8  -6  22    2.45    2.51
  -8   6 -22    0.98    2.33
  -8   6  22    9.28    8.55
  -8   6 -23   -1.28    2.18
  -8   6  23   -6.86    8.71
  -8   7   0    3.25    5.83
  -8   7   1  164.30   23.93
  -8   7  -1  162.49   24.08
  -8   7  -2    3.07    3.99
  -8   7   2    4.43    1.39
  -8   7   3  249.98   29.88
  -8   7  -3  256.86   29.38
   8  -7   4    2.95    4.22
  -8   7  -4   18.78    8.23
  -8   7   4   13.27    6.69
   8  -7   5    1.61    4.74
  -8   7   5    2.80    4.39
  -8   7  -5    3.35    5.13
   8  -7   6    6.80    7.67
  -8   7   6    0.58    3.95
  -8   7  -6    5.17    6.08
  -8   7  -7   74.80   15.80
   8  -7   7   94.21   21.84
  -8   7   7   77.32   15.63
  -8   7  -8   49.33   14.59
  -8   7   8   79.35   16.70
   8  -7   8   69.04   18.12
  -8   7  -9   10.07    2.32
  -8   7   9   16.75    9.76
   8  -7   9   23.25   10.90
  -8   7  10   41.05   11.69
  -8   7 -10   32.68   11.26
   8  -7  11  152.78   26.23
  -8   7  11  134.86   23.49
  -8   7 -11  145.80   24.16
  -8   7  12   -0.38    3.05
   8  -7  12    7.62    8.63
  -8   7 -12   -8.94   10.11
  -8   7 -13   20.08    9.36
  -8   7  13    8.48    6.75
   8  -7  13   22.76    8.36
   8   7  13   12.14    8.72
  -8   7  14    2.26    1.52
  -8   7 -14    9.21    7.82
   8  -7  14    8.31    6.99
  -8   7  15    0.42    2.13
  -8   7 -15   13.43    8.81
   8  -7  15   10.80    8.97
  -8   7  16    0.09    2.80
   8  -7  16    5.92    6.39
  -8   7 -16    6.78    7.79
  -8   7  17   26.59   11.03
  -8   7 -17   33.75   12.47
   8  -7  17   15.00    6.97
  -8   7 -18   -0.29    1.45
   8  -7  18   -2.44    3.85
   8  -7  19   30.12   11.97
  -8   7 -19   26.85    9.40
  -8   7  19   23.89   11.20
   8  -7  20    0.65    5.30
  -8   7  20   -1.35    1.49
   8  -7  21   24.77    9.53
  -8   7 -21   18.05   10.83
  -8   7  21   24.09   13.58
  -8   8   0  116.89   21.90
  -8   8   1   50.12   13.58
  -8   8  -1   45.71   14.01
  -8   8  -2   -4.58    7.48
  -8   8   2   -0.51    3.81
  -8   8  -3   13.09    6.06
  -8   8   3   12.63    8.03
   8  -8   4    1.04    5.35
  -8   8  -4    6.64    4.90
  -8   8   4    3.37    3.89
   8  -8   5   49.19   15.01
  -8   8   5   38.72   13.12
  -8   8  -5   35.78   11.87
   8  -8   6   28.92   10.29
  -8   8   6   40.06   12.59
  -8   8  -6   43.60   13.91
   8  -8   7   20.72    9.77
  -8   8   7   57.21   16.00
  -8   8  -7   36.44   12.11
  -8   8  -8    1.56    4.06
  -8   8   8   -1.32    4.64
   8  -8   8   -1.06    3.05
  -8   8  -9   -1.73    4.39
  -8   8   9    1.69    4.28
   8  -8   9   -1.97    2.80
   8   8  10  -14.93    7.81
  -8   8  10    0.69    6.24
  -8   8 -10   -1.68    2.92
   8  -8  10    5.75    6.50
  -8   8  11   46.27   14.38
  -8   8 -11   40.49   12.43
   8  -8  11   59.27   15.85
   8   8  12   19.67   11.98
  -8   8  12   18.26    8.75
   8  -8  12   21.01   10.25
  -8   8 -12    9.01    5.83
   8   8  13   11.49    9.90
  -8   8  13    3.78    1.02
   8  -8  13   -0.15    5.51
  -8   8 -13    2.92    5.97
   8   8  14    9.73    4.25
  -8   8 -14   -1.53    6.55
  -8   8  14    4.28    4.73
   8  -8  14   17.71   10.92
  -8   8  15   65.57   17.18
  -8   8 -15   66.07   18.09
   8  -8  15   84.07   19.27
  -8   8  16   12.91   10.22
  -8   8 -16    0.14    5.09
   8  -8  16    7.24    7.96
  -8   8  17   31.39   12.04
   8  -8  17   31.07   12.96
  -8   8 -17   37.43   13.56
  -8   8  18   -2.62    4.11
   8  -8  18   -0.54    5.38
  -8   8 -18   -3.72    4.43
  -8   8 -19    6.98    0.52
   8  -8  19   18.77   13.20
  -8   8  19   19.46   11.71
  -8   8 -20   -3.48    9.13
   8  -8  20    1.00    2.00
  -8   8  20   13.91    9.14
  -8   9   0   82.98   19.26
  -8   9   1   28.31   12.09
  -8   9  -1   33.69   12.58
  -8   9  -2    7.69    5.37
  -8   9   2    8.35    7.86
  -8   9  -3   30.45   10.98
  -8   9   3   29.02   11.36
  -8   9  -4    4.18    5.47
  -8   9   4    7.54    6.56
   8  -9   5   32.12   12.99
  -8   9  -5   16.66    9.00
  -8   9   5   24.41    9.93
   8  -9   6    2.66    1.98
  -8   9   6   21.17    9.55
  -8   9  -6   22.56    8.27
   8  -9   7  101.96   22.99
  -8   9  -7  109.24   21.34
  -8   9   7  163.09   25.43
  -8   9  -8   61.89   15.38
   8  -9   8   22.90   12.62
  -8   9   8   31.58   12.63
  -8   9  -9    2.04    3.42
  -8   9   9    3.61    4.76
   8  -9   9    8.87    7.93
   8   9  10   -2.12    6.16
  -8   9 -10   23.85    9.61
  -8   9  10   24.29   10.66
   8  -9  10   16.07    8.58
   8   9  11   33.92   14.40
  -8   9  11   34.80   14.16
  -8   9 -11   24.60   10.24
   8  -9  11   31.10   11.68
   8   9  12   23.51    9.18
  -8   9  12   30.04   13.37
   8  -9  12   30.16   13.83
  -8   9 -12   23.43   11.20
   8   9  13   23.54   10.85
  -8   9  13   52.94   15.22
   8  -9  13   40.20   14.88
  -8   9 -13   32.39   12.11
   8   9  14   13.75    8.37
  -8   9  14    9.26    5.04
   8  -9  14   25.14   12.01
  -8   9 -14   17.67    8.23
   8   9  15   12.85    9.99
  -8   9  15    9.65    5.45
   8  -9  15   21.07    6.48
  -8   9 -15   10.07    8.45
  -8   9  16    0.34    2.35
  -8   9 -16   -0.35    4.31
   8  -9  16   -0.73    5.08
   8   9  16   -3.04    3.73
  -8   9  17   32.33   13.98
  -8   9 -17   37.83   13.84
   8  -9  17   10.53    3.34
  -8   9  18   41.73   13.96
  -8   9 -18   57.51   16.95
   8  -9  18   42.58   14.78
  -8  10   0   -4.88    5.16
  -8  10   1    5.37    5.53
  -8  10  -1   -7.08    7.88
  -8  10  -2    6.00    4.01
  -8  10   2   11.80    8.82
  -8  10  -3   -2.68    6.55
  -8  10   3   20.92   10.51
  -8  10  -4   35.82   11.50
  -8  10   4   53.46   14.72
  -8  10  -5   -7.13    7.75
  -8  10   5   -2.01    4.19
   8 -10   6   -2.61    2.70
  -8  10   6    7.23    6.65
  -8  10  -6    3.40    6.56
   8 -10   7    2.03    3.52
  -8  10   7    7.59    6.63
  -8  10  -7   15.79    8.79
   8 -10   8   -3.95    4.87
  -8  10   8    7.65    5.31
  -8  10  -9    1.17    5.01
  -8  10   9   11.98    6.95
   8 -10   9    7.71    4.71
  -8  10 -10    3.43    7.01
  -8  10  10    0.63    5.43
   8 -10  10   -0.24    3.82
   8  10  11   30.36   16.80
  -8  10 -11   19.71    8.76
  -8  10  11    1.91    1.97
   8 -10  11   10.38    6.06
   8  10  12    1.76    5.61
  -8  10  12    7.09    2.89
  -8  10 -12    3.71    2.46
   8 -10  12   11.17    9.97
   8  10  13   -7.88    8.32
  -8  10  13    4.95    8.34
  -8  10 -13    6.23    6.60
   8 -10  13    4.82    5.10
   8  10  14   22.25   10.43
  -8  10  14   41.78   15.82
   8 -10  14   19.17    6.53
  -8  10 -14   20.85    9.89
  -8  10  15    1.10    2.42
   8 -10  15    3.34    1.61
  -8  10 -15   -2.08    1.19
   8  10  16    7.11    8.98
  -8  10  16    4.23    2.55
   8 -10  16   -2.46    8.95
  -8  10 -16   -0.30    4.11
  -8  11   0   16.81   10.53
  -8  11   1    3.78    5.12
  -8  11  -1    3.72    4.77
  -8  11  -2    5.46    4.97
  -8  11   2    5.05    1.84
  -8  11  -3    1.52    4.56
  -8  11   3    1.12    5.21
  -8  11   4  112.35   21.45
  -8  11  -4   85.09   20.42
  -8  11  -5    0.92    3.39
  -8  11   5   -1.19    5.27
  -8  11   6   -8.43    9.91
  -8  11  -6   -2.53    3.96
  -8  11   7   -7.03    6.86
  -8  11  -7   -0.31    3.75
   8 -11   8    7.47    6.95
  -8  11   8   17.66    6.90
  -8  11  -8    0.72    5.31
   8 -11   9   28.52   10.64
  -8  11   9   15.97   11.57
  -8  11  -9   17.72   10.81
  -8  11 -10   47.96   13.53
  -8  11  10   59.57   16.54
   8 -11  10   35.95   14.65
  -8  11 -11   -4.17    3.47
  -8  11  11    3.92    4.52
   8 -11  11    9.48    8.90
   8  11  12   37.88   18.71
  -8  11 -12   10.52    7.11
  -8  11  12   11.98   12.05
   8 -11  12   12.45    6.62
   8  11  13   12.42    8.40
  -8  11  13    2.52    5.14
  -8  11 -13   12.12    7.27
   8 -11  13    6.54    3.80
   8  11  14   32.93   12.36
  -8  11  14   14.45    6.07
  -8  11 -14   12.40    9.24
   8 -11  14   37.10   10.08
  -8  12   0   13.79    9.45
  -8  12   1   10.51    7.27
  -8  12  -1   24.03   11.47
  -8  12  -2   -5.87    4.31
  -8  12   2    3.24    3.06
  -8  12  -3    4.31    6.69
  -8  12   3   -4.07    5.58
  -8  12  -4    9.46    2.24
  -8  12   4    6.60    6.33
  -8  12  -5   -1.27    4.18
  -8  12   5    0.21    4.03
  -8  12  -6    3.93    2.42
  -8  12   6   20.81   10.92
  -8  12   7    7.37    3.34
  -8  12  -7    2.63    5.96
  -8  12   8   13.69   10.10
  -8  12  -8   -0.71    0.36
  -8  12   9    4.82    7.86
  -8  12  -9   -5.21    8.93
   8 -12  10    6.06    5.65
  -8  12  10    8.04    9.11
  -8  12 -10    8.18    7.46
  -8  13   0    2.90    6.65
  -8  13   1   -1.40    2.50
  -8  13  -1   14.49    9.69
  -8  13  -2   -3.18    7.96
  -8  13   2   -2.40    3.91
  -8  13  -3   -0.54    4.43
  -8  13   3    4.69    8.07
  -8  13  -4   -2.17    2.06
  -8  13   4   -1.88    5.32
   9   0   2   -1.56    3.57
   9   0   3   -3.76    3.27
   9   0   4    2.58    3.66
   9   0   5   -0.27    1.59
   9   0   6   67.97   16.61
   9   0   7    0.05    1.66
   9   0   8    5.21    3.38
   9   0   9    3.00    7.42
   9   0  10    8.62    5.26
   9   0  11    0.03    6.13
   9   0  12    4.54    6.75
  -9   0  12   -5.21    6.62
   9   0  13   -1.41    4.15
  -9   0  13    1.92    2.13
  -9   0  14   44.30   14.47
   9   0  14   19.42    9.47
  -9   0  15   -6.53    3.40
   9   0  15    1.69    3.64
  -9   0  16    1.50    3.50
   9   0  16   16.14   10.77
  -9   0  17   -1.96    1.89
   9   0  17    4.33    0.72
  -9   0  18   70.62   17.31
   9   0  18   57.57   16.77
  -9   0  19    4.61    6.19
   9   0  19    2.99    2.76
  -9   0  20   19.48   10.20
   9   0  20    3.42    3.32
  -9   0  21    0.68    3.01
   9   0  21   -2.26    5.05
  -9   0  21   -0.10    1.13
  -9   0  22   -6.26    7.59
   9   0  22    8.09    3.90
  -9   0  22    2.54    4.82
  -9   0  23    5.48    8.89
   9   0  23    3.13    6.06
  -9   0  23   -5.64    4.80
   9   1   2  409.98   39.14
   9  -1   2  539.60   44.94
   9   1   3    7.45    6.89
   9  -1   3    4.39    8.34
   9  -1   4  143.70   24.98
   9   1   4  125.82   22.50
   9  -1   5   69.81   17.47
   9   1   5   48.33   14.42
   9  -1   6   99.46   20.63
   9   1   6   94.64   17.78
   9  -1   7    1.73    1.37
   9   1   7   -0.28    5.07
  -9   1   8  180.44   24.48
   9  -1   8  213.15   29.66
   9   1   8  241.60   30.86
   9  -1   9   78.01   18.72
   9   1   9   93.79   21.22
  -9   1   9   69.95   16.27
  -9   1  10  142.03   21.84
   9  -1  10  114.83   23.12
   9   1  10  173.72   27.23
   9  -1  11   15.45    9.21
  -9   1  11    6.75    6.02
   9  -1  12   72.13   18.54
   9   1  12   75.12   17.75
   9  -1  13   46.30   14.76
   9   1  13   21.34    8.43
  -9   1  13   57.78   15.83
   9  -1  14    5.75    5.12
   9   1  14   10.62    7.26
  -9   1  14   -1.15    2.23
   9  -1  15    5.15    6.50
   9   1  15   -0.54    0.76
  -9   1  15    5.86    4.55
   9  -1  16   57.80   15.78
   9   1  16   66.41   15.44
  -9   1  16   94.25   21.50
   9  -1  17   20.02   11.86
   9   1  17   19.26   11.13
  -9   1  17   16.99    8.90
  -9  -1  18    6.28    4.10
  -9   1  18    9.84    8.00
   9  -1  18   14.17   10.13
   9   1  18    8.42   11.65
  -9  -1  19    0.98    4.29
  -9   1  19   -9.87    5.75
   9  -1  19   -1.18    2.99
   9   1  19    3.60    3.79
  -9  -1  20   30.01   14.08
  -9   1  20   22.81   10.01
   9  -1  20   14.59    8.24
   9   1  20   30.27   11.35
  -9  -1  20   44.33   15.67
  -9  -1  21   12.62    6.89
  -9   1  21    2.54    2.11
   9  -1  21   -6.31    6.88
   9   1  21    3.76    4.33
  -9  -1  21   -5.89    6.25
  -9  -1  22   -4.04    4.51
  -9   1  22   -2.94    3.35
   9  -1  22   -0.07    3.08
   9   1  22    8.22    5.68
  -9  -1  22   11.01    7.37
  -9   1  22   -0.64    5.38
  -9  -1  23   22.50   10.37
  -9   1  23   23.29    7.57
   9  -1  23   28.48   10.07
   9   1  23   35.53   13.71
  -9  -1  23   28.66   12.13
  -9   1  23   29.93   13.61
   9   2   2   -3.24    3.12
   9  -2   2    0.65    3.82
   9   2   3    1.26    4.57
   9  -2   3   -1.21    1.07
  -9   2   4    7.95    5.08
   9  -2   4    6.04    5.26
   9   2   4   -3.79    6.26
  -9   2   5   32.86   11.09
   9  -2   5   53.80   17.52
   9   2   5   47.94   13.51
  -9   2   6    3.81    5.78
   9  -2   6   13.05    6.46
   9   2   6    7.41    7.79
  -9   2   7   19.15    8.55
   9  -2   7   33.92   11.96
   9   2   7   36.06   12.05
   9  -2   8    2.29    2.80
   9   2   8   -0.03    2.92
   9  -2   9   15.64    8.55
  -9   2   9    4.56    4.52
   9  -2  10   13.28    4.75
   9   2  10   12.23    8.91
  -9   2  10   -0.51    1.45
   9  -2  11   -5.59    7.14
   9   2  11    0.99    3.29
  -9   2  11    4.02    4.24
   9  -2  12    2.93    6.52
   9   2  12    8.87    7.28
  -9   2  12    4.75    2.36
   9  -2  13    4.75    7.67
   9   2  13    4.86    8.04
  -9   2  13    0.26    1.00
   9  -2  14   -4.78    8.01
   9   2  14    1.93    2.41
  -9   2  14    0.49    3.17
   9  -2  15   60.69   16.96
   9   2  15   40.54   13.91
  -9   2  15   33.78   12.17
   9  -2  16    0.41    3.96
   9   2  16   -5.53    8.35
  -9   2  16    5.04    6.96
   9  -2  17   53.63   15.63
   9   2  17   43.04   12.26
  -9   2  17   35.42   14.30
   9  -2  18   -3.25    4.95
   9   2  18    3.26    6.06
  -9   2  18   -4.37    4.04
   9  -2  19   12.36    9.85
   9   2  19    9.40    6.80
  -9   2  19    2.59    2.25
  -9  -2  19    8.41    3.21
   9  -2  20    2.68    5.43
  -9   2  20   -7.41    6.56
   9   2  20   -3.01    6.20
  -9   2  21   15.92   12.76
   9  -2  21    4.81    5.62
   9   2  21    1.74    1.45
  -9   2  22    1.38    3.39
   9  -2  22    2.15    1.41
   9   2  22   -2.89    4.42
  -9   2  23    7.94    7.88
   9  -2  23    2.84    7.23
   9   2  23    4.53    2.29
  -9   2  23   16.84   10.95
  -9   3   0    1.43    3.73
  -9   3  -1    4.57    5.53
  -9   3   1  207.59   25.48
  -9   3   2   -1.39    1.86
   9  -3   2    4.67    2.27
  -9   3   3   24.56    9.22
   9   3   3   17.56    9.02
  -9   3   4   16.10    7.01
   9  -3   4   25.67   11.24
   9  -3   5  138.56   25.29
  -9   3   5  160.31   23.39
  -9   3   6   -0.66    3.95
   9  -3   6   -0.78    2.08
   9   3   6   -5.01    6.87
  -9   3   7   10.04    4.86
   9  -3   7    7.02    3.36
   9   3   7   -0.42    5.98
  -9   3   8    8.18    4.91
   9  -3   8    9.32    8.68
   9   3   8    1.52    3.24
   9  -3   9  250.34   32.79
   9   3   9  201.92   28.43
  -9   3   9  233.34   28.98
   9  -3  10   11.77    5.90
   9   3  10   32.34   12.98
  -9   3  10   13.79    8.11
   9  -3  11   -3.64    4.63
   9   3  11   -6.64    6.85
  -9   3  11    5.88    6.51
   9  -3  12    6.56    6.25
   9   3  12   18.69    9.03
  -9   3  12    1.21    3.82
   9  -3  13   33.32   12.14
   9   3  13   36.95   13.47
  -9   3  13   38.18   11.13
   9  -3  14    7.30    3.21
   9   3  14    7.58    5.14
  -9   3  14    3.90    7.30
   9  -3  15   82.80   19.81
   9   3  15   87.42   19.42
  -9   3  15   85.16   18.57
   9  -3  16    0.09    4.06
   9   3  16    4.58    4.77
   9  -3  17    1.86    3.31
   9   3  17   -4.95    2.95
  -9   3  17    0.57    5.55
   9  -3  18    3.80    3.19
  -9   3  18    4.03    0.79
   9  -3  19   69.99   18.05
   9   3  19   49.20   15.14
  -9   3  19   90.70   21.24
   9  -3  20   22.43    9.93
   9   3  20   19.30   11.59
  -9   3  20   28.09   15.05
   9  -3  21    3.84    4.18
   9   3  21   13.97    9.36
  -9   3  21   14.79   10.79
   9  -3  22   13.06    8.85
  -9   3  22    5.56    3.51
   9   3  22    7.19    5.03
  -9   4   0    0.88    1.76
  -9   4   1   -0.98    2.94
  -9   4  -1    0.26    5.74
   9  -4   2    9.66    7.13
  -9   4   2    9.62    2.10
  -9   4  -2   15.45    5.75
  -9   4  -3   -2.49    2.20
  -9   4   3   -2.07    4.69
  -9   4  -4    3.08    3.99
  -9   4   4   -1.09    5.07
   9  -4   4    1.70    5.59
  -9   4   5   33.70   12.55
  -9   4  -5   20.44    9.40
   9  -4   5   36.12   13.46
  -9   4   6    8.48    6.69
   9  -4   6   16.79   12.15
  -9   4   7    5.96    2.71
   9  -4   7    7.62    7.66
   9  -4   8  112.95   22.34
  -9   4   8   84.54   18.20
  -9   4   9    0.60    2.98
   9  -4   9   13.03    8.09
  -9   4  10   -0.30    7.84
   9  -4  10    5.28    4.52
  -9   4  11    1.47    5.27
   9  -4  11    5.42    6.35
   9  -4  12    6.58    5.31
  -9   4  12    5.75    4.21
   9  -4  13   -3.08    7.28
  -9   4  13   -3.59    6.04
   9  -4  14    8.53    6.69
  -9   4  14   12.94    5.99
   9  -4  15   -1.97    5.23
  -9   4  15   -3.12    4.93
   9  -4  16    9.15    9.78
  -9   4  16    0.21    3.66
   9  -4  17   -3.72    7.76
  -9   4  17    4.17    2.77
   9  -4  18   12.63    6.26
  -9   4  18    8.78    9.19
   9  -4  19    3.36    6.68
  -9   4  19    6.14    7.09
   9  -4  20    7.59    6.80
  -9   4  20   16.93    7.69
   9  -4  21    1.57    7.09
  -9   4  21   -5.84    8.13
   9  -4  22    7.52    1.29
  -9   4  22   12.42    9.71
  -9   5   0   -1.53    4.01
  -9   5   1   -1.25    0.98
  -9   5  -1   -4.48    6.19
  -9   5  -2   92.86   17.81
  -9   5   2  132.14   21.61
  -9   5  -3   26.64   10.97
   9  -5   3   22.00    9.66
  -9   5   3   20.29    8.55
  -9   5  -4    1.77    2.40
  -9   5   4   -0.78    3.54
   9  -5   4    2.36    8.66
  -9   5   5    0.12    4.39
  -9   5  -5   -2.21    3.28
   9  -5   5    1.32    6.23
  -9   5   6   38.73   12.25
  -9   5  -6   45.39   12.12
  -9   5   7    3.24    3.81
  -9   5  -7    1.45    2.73
  -9   5   8   83.70   18.71
   9  -5   8  112.22   23.02
  -9   5  -8   82.98   17.31
  -9   5   9    3.90    7.95
   9  -5   9   12.50    6.41
  -9   5  -9   16.44    7.09
  -9   5  10   42.09   13.92
   9  -5  10   39.70   14.42
  -9   5  11   11.80    6.79
   9  -5  11   14.94    8.90
  -9   5  12   69.00   15.73
   9  -5  12   63.95   17.15
  -9   5  13    8.62    6.10
   9  -5  13   29.32   10.81
   9  -5  14   17.11   10.16
  -9   5  14   28.15   12.54
   9  -5  15   29.30   14.28
  -9   5  15   18.01    9.53
  -9   5  16  125.42   23.96
   9  -5  16  154.93   27.96
   9  -5  17   -0.91    6.71
  -9   5  17    1.03    4.10
   9  -5  18    8.65    4.68
  -9   5  18    5.57    4.37
   9  -5  19    0.63    6.65
  -9   5  19   -0.70    1.83
   9  -5  20   24.83   13.01
  -9   5  20   28.98   11.81
   9  -5  21    0.56    5.92
  -9   5  21   16.16   13.44
  -9   6   0    5.41    5.17
  -9   6  -1   19.37    9.66
  -9   6   1   14.20    7.73
  -9   6  -2    4.93    0.81
  -9   6   2    2.48    3.66
  -9   6  -3   12.63    6.26
   9  -6   3    8.67    4.08
  -9   6   3   17.42    5.87
  -9   6  -4   -2.96    1.02
   9  -6   4   -1.34    8.00
  -9   6   4   -3.53    4.38
  -9   6  -5    3.52    5.55
  -9   6   5    2.38    4.33
   9  -6   5   -3.13    9.57
  -9   6   6    4.50    6.46
   9  -6   6    0.68    8.32
  -9   6  -6    3.09    6.38
  -9   6   7    5.58    6.91
   9  -6   7   -3.33    5.89
  -9   6  -7    2.51    3.65
  -9   6   8   15.88    9.42
   9  -6   8   36.09   14.31
  -9   6  -8   23.17   10.74
  -9   6   9    5.16    4.72
   9  -6   9   12.63   10.86
  -9   6  -9   -3.55    6.82
  -9   6 -10    1.57    4.23
  -9   6  10   -2.40    5.95
   9  -6  10    4.69    6.00
  -9   6  11    1.07    4.59
  -9   6 -11   -1.86    6.12
   9  -6  11    3.21    1.02
  -9   6  12    4.68    6.10
  -9   6 -12    8.99    7.60
   9  -6  12   -6.48    9.07
  -9   6  13    1.65    3.32
   9  -6  13    6.40    7.21
  -9   6  14    4.17    6.86
   9  -6  14    0.86    5.79
  -9   6  15   -0.91    5.36
   9  -6  15   -2.75    5.12
   9  -6  16    1.95    1.95
  -9   6  16   -3.00    6.06
   9  -6  17   -1.30    2.43
  -9   6  17    8.74    5.61
   9  -6  18   31.44   13.65
  -9   6  18   21.35   11.57
   9  -6  19   11.15   12.76
  -9   6  19   13.62    9.46
   9  -6  20   -2.64    1.89
  -9   6  20   11.02   11.55
  -9   7   0    5.57    4.03
  -9   7  -1   17.39    6.78
  -9   7   1   24.82   10.22
  -9   7  -2   24.16    9.95
  -9   7   2    8.82    5.51
  -9   7  -3  108.76   19.86
  -9   7   3  140.97   23.54
  -9   7  -4    2.52    0.95
   9  -7   4    1.78    5.52
  -9   7   4   -1.98    4.55
  -9   7  -5   71.56   15.65
   9  -7   5   97.76   18.87
  -9   7   5   80.63   18.52
  -9   7   6   11.58    5.83
   9  -7   6    3.97    5.20
  -9   7  -6   17.87   12.10
  -9   7   7   17.89    7.99
   9  -7   7    9.34    6.76
  -9   7  -7    7.88    5.41
  -9   7   8    1.38    3.30
   9  -7   8   -2.98    6.23
  -9   7  -8    2.07    5.41
  -9   7   9   87.60   19.85
   9  -7   9   88.72   21.93
  -9   7  -9  116.67   20.83
  -9   7 -10   22.43   10.02
  -9   7  10   44.36   12.03
   9  -7  10   32.12   13.04
  -9   7 -11   -7.14    9.11
  -9   7  11   -2.10    6.54
   9  -7  11   -4.88    6.35
  -9   7  12   16.76    7.87
  -9   7 -12   10.72    6.98
   9  -7  12   17.48   10.31
   9  -7  13  100.72   23.04
  -9   7  13  100.66   21.54
  -9   7 -13   98.71   21.16
  -9   7  14   -0.21    2.02
   9  -7  14    2.61    6.70
  -9   7 -14   10.34    8.66
  -9   7  15   30.52   12.87
   9  -7  15   18.77    9.86
  -9   7  16   19.24   10.83
   9  -7  16   34.75   13.03
   9  -7  17   58.95   17.39
  -9   7  17   18.17   14.44
   9  -7  18   13.20    8.83
  -9   7  18    0.52    7.80
   9  -7  19   -1.58    1.20
  -9   7  19    3.36    3.57
  -9   8   0   -3.53    3.06
  -9   8  -1   -2.27    4.47
  -9   8   1    2.73    1.98
  -9   8  -2   -6.56    6.97
  -9   8   2    0.29    5.35
  -9   8  -3   13.27    8.56
  -9   8   3   26.83   11.62
  -9   8  -4    8.66    4.81
  -9   8   4    4.57    7.54
   9  -8   5   34.61   11.39
  -9   8  -5   36.76   11.64
  -9   8   5   20.90   11.07
   9  -8   6   17.00    9.59
  -9   8   6    1.78    6.75
  -9   8  -6   14.96    9.65
  -9   8   7   -2.73    5.00
   9  -8   7   -0.16    5.20
  -9   8  -7    6.23    7.69
  -9   8   8   13.43    6.66
   9  -8   8    2.61   11.85
  -9   8  -8   12.41   11.61
  -9   8   9   16.43    7.00
   9  -8   9    7.88    7.40
  -9   8  -9   13.08    6.90
  -9   8 -10    7.98    8.36
  -9   8  10   -3.02    8.60
   9  -8  10    3.46    7.03
  -9   8 -11   12.24    8.92
  -9   8  11    2.24    6.25
   9  -8  11    0.07    4.06
  -9   8  12    5.56    4.53
  -9   8 -12    8.69    6.30
   9  -8  12    4.91    6.81
  -9   8  13   -2.40    1.69
   9  -8  13    0.82    1.89
  -9   8  14    8.00    6.41
  -9   8 -14   14.30    9.84
   9  -8  14   21.30   10.72
  -9   8  15    4.77    4.98
   9  -8  15   14.57    5.56
  -9   8 -15    4.60    5.47
  -9   8  16    2.08    4.12
   9  -8  16    2.75    3.29
  -9   8 -16    2.33    7.27
  -9   8  17    9.79    2.55
   9  -8  17    3.75    3.23
  -9   9   0   -3.31    4.75
  -9   9  -1   13.33    7.81
  -9   9   1   34.80   12.20
  -9   9  -2    9.38    9.38
  -9   9   2   14.11    7.74
  -9   9  -3    4.35    5.27
  -9   9   3    4.75    3.54
  -9   9  -4   -1.65    5.27
  -9   9   4    4.67    4.28
  -9   9  -5   15.00    7.75
  -9   9   5    6.69    9.53
  -9   9  -6   97.50   20.24
   9  -9   6   77.59   20.34
  -9   9   6   58.49   16.38
   9  -9   7    7.34    8.93
  -9   9   7   14.03    8.47
  -9   9  -7    1.44    0.48
  -9   9   8   14.14    7.34
   9  -9   8   15.55    8.25
  -9   9  -8    8.17    7.51
  -9   9   9   29.61   12.32
   9  -9   9   76.94   20.78
  -9   9  -9   59.23   14.68
  -9   9  10    5.17    5.64
   9  -9  10    0.46    4.08
  -9   9 -10    2.05    5.46
  -9   9 -11    1.88    3.86
  -9   9  11    0.82    4.00
   9  -9  11   10.49   10.84
  -9   9 -12   15.40   10.39
  -9   9  12    5.94    3.80
   9  -9  12   13.61    8.40
  -9   9  13   67.47   17.98
  -9   9 -13   41.41   15.12
   9  -9  13   44.91   14.49
  -9   9  14    1.55    5.00
  -9   9 -14    4.25    5.05
   9  -9  14   -0.52    3.97
  -9   9  15   15.72    7.45
  -9   9 -15   16.41    8.07
   9  -9  15   24.83   12.95
  -9  10   0   -2.54    6.74
  -9  10  -1    5.17    6.92
  -9  10   1   -5.22    8.39
  -9  10  -2    0.75    4.68
  -9  10   2    5.69    6.32
  -9  10  -3   17.75    9.73
  -9  10   3    6.61    6.81
  -9  10  -4   15.97   12.03
  -9  10   4   29.00    9.88
  -9  10  -5    8.82    7.06
  -9  10   5    5.70   10.63
  -9  10  -6    0.03    5.80
  -9  10   6   -3.02    1.27
   9 -10   7   -1.37    3.05
  -9  10   7    7.52    7.26
  -9  10  -7    3.13    3.43
  -9  10   8    2.13    7.17
   9 -10   8   11.37    8.82
  -9  10  -8    1.57    3.99
  -9  10   9   31.39   13.85
   9 -10   9   19.37   11.39
  -9  10  -9   21.22   11.77
   9 -10  10   -4.62    1.38
  -9  10 -10   -2.48    4.15
  -9  10  11    1.81    4.82
   9 -10  11   12.36    8.17
  -9  10 -11    0.52    6.66
  -9  10 -12    5.25    1.34
  -9  10  12   11.05    4.97
  -9  10 -13   11.75    7.07
  -9  10  13   -4.20    6.33
   9 -10  13   11.54   10.51
  -9  11   0    4.79    5.77
  -9  11  -1    4.04    4.11
  -9  11   1    2.51    3.94
  -9  11  -2   31.18   10.52
  -9  11   2   65.69   17.45
  -9  11  -3    2.36    3.69
  -9  11   3   17.88    8.13
  -9  11  -4   -0.71    3.01
  -9  11   4   -5.04    3.74
  -9  11  -5   -5.17    4.19
  -9  11   5   -1.32    5.77
  -9  11  -6   -5.19    6.73
  -9  11   6   11.17    7.38
  -9  11   7   10.53    7.32
  -9  11  -7   11.56    6.61
  -9  11   8   16.13    9.31
  -9  11  -8   -0.18    7.78
  -9  11   9   20.03    9.46
   9 -11   9    5.20    8.73
  -9  11  -9   14.99    7.05
  -9  12   0    4.23    5.54
  -9  12  -1    1.90    5.11
  -9  12   1   -3.46    6.06
  -9  12  -2   -4.10    5.73
  -9  12   2   10.89    7.31
  -9  12  -3   -3.41    5.47
  -9  12   3   -2.03    5.11
  10   0   3    3.51    7.00
  10   0   4   31.35   13.57
  10   0   5   11.15    9.01
  10   0   6    2.13    6.56
  10   0   7   -0.25    3.20
  10   0   8   26.14    8.17
  10   0   9   -1.11    6.87
  10   0  10   31.48   10.89
  10   0  11    3.10    4.73
  10   0  12   76.04   18.18
  10   0  13    2.45    8.73
  10   0  14   34.07   11.67
  10   0  15   -3.59    4.17
  10   0  16    0.66    5.45
  10   0  17    0.66    4.34
  10   0  18    5.65    9.48
  10   0  19    4.68    4.97
  10   0  20   -6.45    5.73
  10   0  21  -10.32    8.83
  10   1   3   25.71   12.65
  10  -1   3   23.33    7.70
  10   1   4   47.89   14.04
  10  -1   4   58.01   16.24
  10  -1   5   48.41   17.07
  10   1   5   -2.01    4.25
  10  -1   6   34.53   12.40
  10   1   6   31.73   13.07
  10  -1   7   54.81   15.77
  10   1   7   20.94   11.16
  10  -1   8   55.84   15.96
  10   1   8   50.39   14.73
  10  -1   9   22.45    9.78
  10   1   9   11.60    8.58
  10  -1  10   23.04    9.16
  10   1  10   31.61   10.73
  10  -1  11   60.50   17.60
  10   1  11   84.64   18.02
  10  -1  12    2.53    4.39
  10   1  12    5.97    7.89
  10  -1  13   16.42    8.36
  10   1  13    7.32    5.32
  10  -1  14   23.73   10.27
  10   1  14    5.90    6.27
  10  -1  15   26.91   12.37
  10   1  15    9.91    3.83
  10  -1  16   -0.53    9.81
  10   1  16    4.18    0.97
  10  -1  17    1.00    1.39
  10   1  17    4.34    3.81
  10  -1  18   32.08   11.91
  10   1  18    9.41    7.96
  10  -1  19    0.50    6.21
  10   1  19   -5.36    4.53
  10  -1  20    8.34    4.74
  10   1  20    4.86    3.47
  10   2   3   -3.66    4.71
  10  -2   3   -2.81    6.92
  10   2   4   22.44   10.61
  10  -2   4   54.08   14.94
  10   2   5    0.92    3.40
  10  -2   5   14.37   10.01
  10  -2   6   14.74    7.67
  10   2   6   -3.25    7.46
  10  -2   7    3.88    4.32
  10   2   7    4.11    6.39
  10  -2   8   37.06   14.26
  10   2   8   34.06    8.86
  10  -2   9   -3.00    7.41
  10   2   9   -3.31    0.70
  10  -2  10   40.60   13.54
  10   2  10   42.28   14.59
  10  -2  11   11.25    9.11
  10   2  11   20.79    7.92
  10  -2  12   23.05   11.69
  10   2  12    1.36    4.83
  10  -2  13    9.32   10.20
  10   2  13    9.19    7.19
  10  -2  14    8.31    9.49
  10   2  14   35.20   14.89
  10  -2  15    6.34    6.92
  10   2  15   -5.15    7.10
  10  -2  16    3.79    6.12
  10   2  16   24.32   13.62
  10  -2  17    7.14    5.88
  10   2  17    7.21    4.47
  10  -2  18    0.74    5.04
  10   2  18   14.83   11.85
  10   2  19    8.67    2.66
 -10   2  19   15.32    8.17
 -10   2  20    2.04    2.58
  10  -2  20   -1.45    3.31
  10   2  20    8.55    2.74
  10  -3   3  118.29   22.35
  10  -3   4    6.60    5.98
  10  -3   5   47.54   16.01
  10  -3   6   14.59   11.90
  10  -3   7  173.68   30.07
  10  -3   8   15.70    9.09
  10  -3   9    4.48    8.17
  10  -3  10    9.22   10.12
  10  -3  11   19.41    8.05
  10  -3  12    2.24    5.46
 -10   3  12    1.73    0.35
  10  -3  13   35.62   13.63
 -10   3  13   14.98    8.33
  10  -3  14    1.31    5.96
 -10   3  14    6.90    3.79
  10  -3  15   33.32   12.23
 -10   3  15   32.14   14.32
  10  -3  16   -1.86    7.61
 -10   3  16   -5.15    9.12
  10  -3  17    9.06    9.71
 -10   3  17    3.13    9.74
  10  -3  18   -0.65    2.14
 -10   3  18   -9.38   10.96
  10  -3  19   36.97   16.90
 -10   3  19   52.42   17.40
  10  -3  20    4.16    7.58
 -10   3  20   11.46    4.73
  10  -4   4    6.30    7.32
  10  -4   5    2.02    7.19
  10  -4   6   14.44    7.25
 -10   4   7   46.94   13.57
  10  -4   7  104.56   22.50
 -10   4   8    4.84    7.12
  10  -4   8   -2.22    2.07
 -10   4   9    3.62    3.03
  10  -4   9   -5.24    7.45
 -10   4  10    0.74    5.46
  10  -4  10    3.07    3.02
  10  -4  11   -2.75    6.09
 -10   4  11   -0.29    8.00
  10  -4  12    8.81    5.56
 -10   4  12    5.55    6.54
  10  -4  13   30.35   11.66
 -10   4  13   25.51   12.04
  10  -4  14   -1.11    4.62
 -10   4  14   -1.66    4.59
  10  -4  15   -7.03    6.79
 -10   4  15   10.66    8.23
  10  -4  16   -2.10    1.00
 -10   4  16   -4.61    7.24
  10  -4  17    8.15    6.77
 -10   4  17   11.23    7.63
  10  -4  18    2.31    9.18
 -10   4  18   11.34    8.44
  10  -4  19   -4.45    6.43
 -10   4  19   -9.89   10.26
 -10   5   3   11.93    4.21
 -10   5   4   61.77   14.28
  10  -5   4   61.11   15.86
 -10   5   5    1.28    2.66
  10  -5   5    0.09    4.50
 -10   5   6    7.23    2.50
  10  -5   6    5.37    5.80
 -10   5   7    2.77    3.84
  10  -5   7    8.93    9.55
 -10   5   8   14.64    7.96
  10  -5   8   12.84    5.41
 -10   5   9   15.79   10.14
  10  -5   9   16.29    8.62
 -10   5  10   77.44   18.39
  10  -5  10  105.95   23.38
 -10   5  11    4.60    3.44
  10  -5  11    5.90    7.19
 -10   5  12   -3.57    5.12
  10  -5  12    3.52    8.29
  10  -5  13   -4.77    8.04
 -10   5  13   -7.44   10.14
  10  -5  14   20.20   11.80
 -10   5  14   10.33    7.27
  10  -5  15   -0.50    2.95
 -10   5  15    3.85    4.46
  10  -5  16    5.82    8.27
 -10   5  16   -4.50    6.14
  10  -5  17   -9.63    7.80
 -10   5  17    7.82    5.11
  10  -5  18    9.58    6.45
 -10   5  18   18.62   13.32
 -10   6   0   54.44   15.84
 -10   6   1    7.25    6.64
 -10   6  -1    2.92    4.17
 -10   6   2    4.10    3.48
 -10   6   3    2.53    4.61
 -10   6   4   44.09   13.33
 -10   6   5    9.82    5.22
  10  -6   5   11.05    4.07
 -10   6   6    8.12    3.46
  10  -6   6   -0.18    6.81
 -10   6   7   -2.10    5.71
  10  -6   7    1.20    8.00
 -10   6   8   18.62    8.61
  10  -6   8   23.77   11.86
 -10   6   9    9.22    6.86
  10  -6   9    5.40    2.89
 -10   6  10   38.35   12.27
  10  -6  10   84.34   20.66
 -10   6  11   -2.86    5.64
  10  -6  11   -2.05    3.44
 -10   6  12    0.18    7.29
  10  -6  12   -5.98    8.71
 -10   6  13   -1.27    2.85
  10  -6  13    4.16    5.13
  10  -6  14   -4.37    3.81
 -10   6  14    2.05    5.07
  10  -6  15   21.73   11.76
 -10   6  15    6.76    3.95
  10  -6  16   24.24    9.72
 -10   6  16   13.11    8.22
  10  -6  17  -11.45    8.53
 -10   6  17    4.85    5.10
 -10   7   0    2.60    4.36
 -10   7   1  104.05   20.84
 -10   7  -1   82.99   19.32
 -10   7   2   10.08    7.43
 -10   7  -2   23.65    8.66
 -10   7  -3   30.05   11.11
 -10   7   3   32.09   11.59
 -10   7  -4    5.00    6.13
 -10   7   4   11.02    9.70
  10  -7   5    8.90    7.44
 -10   7   5   -5.52    7.93
 -10   7   6    7.44    5.62
  10  -7   6   -4.07    6.26
 -10   7   7   36.67   16.49
  10  -7   7   23.77    9.50
 -10   7   8    3.42    3.01
  10  -7   8    7.81    9.54
 -10   7   9    9.89    9.11
  10  -7   9   -3.61    2.77
 -10   7  10    0.42    3.90
  10  -7  10    3.98    3.56
 -10   7  11   50.94   15.12
  10  -7  11  100.98   22.25
 -10   7  12   20.23    7.09
  10  -7  12    7.92    5.83
 -10   7  13   22.85    9.67
  10  -7  13   34.94   16.34
 -10   7  14    4.98    4.18
  10  -7  14   -5.51    7.20
 -10   7  15   23.83    9.52
  10  -7  15   14.16    7.45
 -10   8   0   44.52   14.20
 -10   8   1    8.90    5.25
 -10   8  -1   11.90    5.62
 -10   8  -2    8.26    4.77
 -10   8   2   12.11    8.84
 -10   8  -3    1.94    4.39
 -10   8   3   -1.30    3.46
 -10   8  -4    4.38    1.67
 -10   8   4   13.81   10.08
 -10   8  -5    4.89    5.39
 -10   8   5   -5.18    9.75
 -10   8  -6    0.84    5.66
 -10   8   6   13.86    7.89
  10  -8   6    8.65    3.42
 -10   8   7   42.47   15.86
 -10   8  -7   32.76   11.12
  10  -8   7   43.83   13.15
 -10   8   8   -2.39    3.42
  10  -8   8    5.54    7.43
 -10   8   9   -1.82    5.56
  10  -8   9    4.24    7.46
 -10   8  10    0.25    5.65
  10  -8  10   -1.77    6.90
 -10   8  11   32.41   10.76
  10  -8  11   44.64   15.78
 -10   8  12   11.07    6.34
  10  -8  12   19.59    6.06
 -10   8  13    7.36    3.40
  10  -8  13   15.52    5.32
 -10   8  14    0.03    3.27
  10  -8  14    9.60   12.65
 -10   9   0   45.09   14.83
 -10   9   1   19.34   10.40
 -10   9  -1   -0.39    5.61
 -10   9  -2    8.11    5.95
 -10   9   2   -1.46    4.39
 -10   9  -3   20.67   10.01
 -10   9   3   29.09   10.36
 -10   9  -4   10.86    6.30
 -10   9   4   49.25   16.19
 -10   9  -5   19.98    9.17
 -10   9   5   27.16   12.15
 -10   9  -6   -4.81    5.00
 -10   9   6   -7.62    8.58
 -10   9   7   30.54   17.05
 -10   9  -7   30.56   10.51
 -10   9   8   11.62    6.61
  10  -9   8   10.88    6.54
 -10   9  -8    5.91    5.26
 -10   9   9    2.04    6.52
  10  -9   9   17.34   11.20
 -10   9  -9    4.26    8.80
 -10   9  10    9.49    7.58
  10  -9  10    4.81    3.65
 -10   9  11    2.42    4.65
  10  -9  11   10.87    8.87
 -10  10   0   10.04   10.02
 -10  10   1    8.61    8.82
 -10  10  -1    4.87    6.80
 -10  10  -2    2.91    4.12
 -10  10   2   17.65   11.33
 -10  10  -3    0.56    3.44
 -10  10   3   18.63    7.30
 -10  10  -4    4.50    5.11
 -10  10   4    0.94    3.99
 -10  10  -5    8.30    6.67
 -10  10   5    1.75    7.68
 -10  10  -6    1.24    2.84
 -10  10   6   -5.47    3.29
 -10  10  -7    1.46    4.20
 -10  10   7   -6.40    4.92
  11   0   4   31.23   14.25
  11   0   5   -0.86    3.09
  11   0   6   12.83    6.58
  11   0   7   -4.04    7.86
  11   0   8    7.50    5.14
  11   0   9   -8.37   11.08
  11   0  10   39.78   15.19
  11   0  11   -1.56    2.86
  11   0  12   10.43   10.03
  11   0  13    0.71    2.48
  11   0  14   34.51   11.82
  11   0  15   -2.10    3.27
  11   0  16  103.76   23.66
  11   0  17    1.41    7.32
  11   1   4   15.35    6.92
  11  -1   4    8.54    8.29
  11   1   5    2.15    7.66
  11  -1   5    9.98   10.40
  11   1   6    2.61    1.42
  11  -1   6    4.15    3.90
  11  -1   7    3.94    8.78
  11   1   7   -1.42    3.41
  11  -1   8   -0.28    6.89
  11   1   8   -4.88    6.75
  11  -1   9    0.28    6.03
  11   1   9    3.43    5.14
  11  -1  10   21.75   11.81
  11   1  10   11.51    8.05
  11  -1  11    9.17    4.14
  11   1  11   -2.28    8.61
  11  -1  12    7.99    8.17
  11   1  12   -2.02    4.17
  11  -1  13   20.07    6.88
  11   1  13   36.26   15.36
  11  -1  14    5.65    5.93
  11   1  14   10.30    9.81
  11  -1  15   10.37    9.70
  11   1  15    3.03    6.66
  11  -1  16   17.70    9.29
  11   1  16    5.02    2.19
  11  -1  17   -5.81    5.05
  11   1  17    2.59    7.26
  11  -2   4    2.78    2.97
  11  -2   5   22.83   10.73
  11  -2   6    8.58   10.38
  11  -2   7    3.23    5.80
  11  -2   8    4.30    7.37
  11  -2   9   15.53    9.28
  11  -2  10   17.54    8.63
  11  -2  11   44.84   13.65
  11  -2  12    7.49    6.71
  11  -2  13   35.77   12.49
  11  -2  14    4.72    6.20
  11  -2  15    3.14    7.87
  11  -2  16    9.09    8.89
  11  -2  17   51.19   17.66
  11  -3   5   39.50   14.68
  11  -3   6    1.26    5.86
  11  -3   7    4.63    5.74
  11  -3   8    1.48    1.64
  11  -3   9   -3.97    3.57
  11  -3  10   16.73    5.01
  11  -3  11   -3.43    3.48
  11  -3  12    4.81    5.76
  11  -3  13   32.64   11.24
  11  -3  14    0.87    6.65
  11  -3  15    5.55    7.36
  11  -3  16   -1.90    8.92
  11  -4   5   -1.35    5.24
  11  -4   6   -3.98    4.92
  11  -4   7    2.72    7.70
  11  -4   8   -0.42    7.28
  11  -4   9    7.36    8.46
  11  -4  10   57.20   16.87
  11  -4  11    2.12    1.65
  11  -4  12    8.31   10.79
  11  -4  13   21.29   14.04
  11  -4  14    9.45    6.44
  11  -4  15   -1.25    1.15
  11  -5   6   13.86    8.60
  11  -5   7    4.37    3.48
  11  -5   8   16.06    9.96
  11  -5   9   -6.37    6.93
  11  -5  10    8.76    6.56
  11  -5  11   -5.35    5.66
  11  -5  12    5.03    3.40
  11  -5  13    4.59    6.60
  11  -5  14   -5.02   11.63
  11  -6   6    0.35    1.65
  11  -6   7    0.23    3.27
  11  -6   8    4.63    9.50
  11  -6   9   10.66    6.84
  11  -6  10    6.30    4.30
  11  -6  11   -0.48    1.18
  11  -6  12   34.41   10.19
  11  -6  13   10.48    4.17
  11  -7   7    8.68    9.29
  11  -7   8   -4.73    4.20
  11  -7   9   -6.07    9.19
  11  -7  10   -7.40    7.59
 -11   7  11   -0.50    8.71
  11  -7  11   -7.03    8.59
 -11   8   6    9.85    7.91
 -11   8   7   -8.23    8.44
 -11   8   8    8.81    8.25
  11  -8   8   -5.59    8.85
  12   0   6    2.51    2.10
  12   0   7   -3.54    5.04
  12   0   8   72.03   18.29
  12   0   9   -3.99    3.27
  12   0  10   90.11   23.65
  12   0  11   -9.03   10.49
  12   0  12   27.84   13.03
  12  -1   6   -6.37    9.75
  12  -1   7   -3.49    6.72
  12  -1   8    8.90    7.96
  12  -1   9    5.11    6.42
  12  -1  10    8.63   10.71
  12  -1  11    8.68   10.91
  12  -1  12   -0.27    5.49
  12  -2   6   14.71   10.13
  12  -2   7   67.86   16.76
  12  -2   8   -1.62    7.91
  12  -2   9   11.63    9.48
  12  -2  10   -1.83    4.58
  12  -2  11   53.60   17.74
  12  -2  12    4.13    7.44
  12  -3   6   14.65    4.88
  12  -3   7    4.72    4.56
  12  -3   8   13.09    6.48
  12  -3   9   -2.20    3.40
  12  -3  10    1.56    6.09
  12  -3  11   18.64   10.89
  12  -4   7   26.66   12.07
  12  -4   8   27.33   12.01
  12  -4   9   34.78   14.76
  12  -4  10    3.66    2.59
  12  -5   7   -4.71    3.77
  12  -5   8    2.47    8.75
   0   0   0    0.00    0.00

TITL 032_280K_SulfamerazineF2_ in Pbca
REM Pbca (#61 in standard setting)
CELL 0.68890   9.140508  11.692284  22.883767  90.0000  90.0000  90.0000
ZERR    8.00   0.000274   0.000249   0.000429   0.0000   0.0000   0.0000
LATT  1
SYMM -x+1/2,-y, z+1/2
SYMM -x, y+1/2,-z+1/2
SYMM  x+1/2,-y+1/2,-z
SFAC C H N O S
UNIT 88.00 96.00 32.00 16.00 8.00
TREF
HKLF 4
END
_computing_structure_solution     'SHELXT 2014/5 (Sheldrick, 2014)'
;
_shelx_hkl_checksum              28737
loop_
_space_group_symop_operation_xyz
'x, y, z'
'-x+1/2, -y, z+1/2'
'-x, y+1/2, -z+1/2'
'x+1/2, -y+1/2, -z'
'-x, -y, -z'
'x-1/2, y, -z-1/2'
'x, -y-1/2, z-1/2'
'-x-1/2, y-1/2, z'
loop_
_atom_site_label
_atom_site_type_symbol
_atom_site_fract_x
_atom_site_fract_y
_atom_site_fract_z
_atom_site_U_iso_or_equiv
_atom_site_adp_type
_atom_site_occupancy
_atom_site_site_symmetry_order
_atom_site_calc_flag
_atom_site_refinement_flags_posn
_atom_site_refinement_flags_adp
_atom_site_refinement_flags_occupancy
_atom_site_disorder_assembly
_atom_site_disorder_group
S1 S 0.33302(7) 0.34662(5) 0.38984(2) 0.03851(18) Uani 1 1 d . . . . .
O2 O 0.19808(19) 0.39698(15) 0.40962(7) 0.0470(4) Uani 1 1 d . . . . .
O1 O 0.3430(2) 0.22510(13) 0.38634(7) 0.0502(5) Uani 1 1 d . . . . .
N4 N 0.6663(2) 0.42620(17) 0.48550(8) 0.0424(5) Uani 1 1 d . . . . .
N3 N 0.6551(2) 0.28625(16) 0.40926(9) 0.0442(5) Uani 1 1 d . . . . .
N2 N 0.4518(2) 0.39486(18) 0.43786(9) 0.0422(5) Uani 1 1 d . . . . .
N1 N 0.4575(3) 0.5331(3) 0.15560(11) 0.0597(7) Uani 1 1 d . . . . .
C1 C 0.3764(3) 0.40446(19) 0.32194(9) 0.0388(5) Uani 1 1 d . . . . .
C2 C 0.4494(3) 0.3391(2) 0.28051(11) 0.0518(7) Uani 1 1 d . . . . .
H2 H 0.4786 0.2651 0.2896 0.067 Uiso 1 1 calc R U . . .
C3 C 0.4786(3) 0.3831(2) 0.22618(11) 0.0550(7) Uani 1 1 d . . . . .
H3 H 0.5291 0.3388 0.1991 0.071 Uiso 1 1 calc R U . . .
C4 C 0.4338(3) 0.4936(2) 0.21069(10) 0.0456(6) Uani 1 1 d . . . . .
C5 C 0.3614(3) 0.55896(19) 0.25337(12) 0.0481(6) Uani 1 1 d . . . . .
H5 H 0.3314 0.6329 0.2444 0.062 Uiso 1 1 calc R U . . .
C6 C 0.3339(3) 0.5153(2) 0.30828(10) 0.0438(6) Uani 1 1 d . . . . .
H6 H 0.2870 0.5601 0.3361 0.057 Uiso 1 1 calc R U . . .
C7 C 0.5975(3) 0.36662(18) 0.44353(9) 0.0375(5) Uani 1 1 d . . . . .
C8 C 0.8070(3) 0.4012(2) 0.49283(11) 0.0488(6) Uani 1 1 d . . . . .
H8 H 0.8592 0.4403 0.5215 0.063 Uiso 1 1 calc R U . . .
C9 C 0.8786(3) 0.3207(2) 0.46029(11) 0.0511(6) Uani 1 1 d . . . . .
H9 H 0.9774 0.3054 0.4660 0.066 Uiso 1 1 calc R U . . .
C10 C 0.7978(3) 0.2629(2) 0.41841(11) 0.0473(6) Uani 1 1 d . . . . .
C11 C 0.8661(4) 0.1704(3) 0.38201(15) 0.0674(9) Uani 1 1 d . . . . .
H11A H 0.8227 0.0981 0.3918 0.088 Uiso 1 1 calc R U . . .
H11B H 0.9693 0.1675 0.3896 0.088 Uiso 1 1 calc R U . . .
H11C H 0.8500 0.1864 0.3414 0.088 Uiso 1 1 calc R U . . .
H1N2 H 0.423(3) 0.447(2) 0.4587(12) 0.046(7) Uiso 1 1 d . . . . .
H1N1 H 0.511(4) 0.493(3) 0.1356(16) 0.071(11) Uiso 1 1 d . . . . .
H2N1 H 0.452(3) 0.605(3) 0.1490(14) 0.064(9) Uiso 1 1 d . . . . .
loop_
_atom_site_aniso_label
_atom_site_aniso_U_11
_atom_site_aniso_U_22
_atom_site_aniso_U_33
_atom_site_aniso_U_23
_atom_site_aniso_U_13
_atom_site_aniso_U_12
S1 0.0398(4) 0.0406(3) 0.0351(3) -0.0031(2) -0.0002(2) -0.0046(2)
O2 0.0360(10) 0.0633(11) 0.0417(9) -0.0010(7) 0.0007(7) -0.0028(8)
O1 0.0651(13) 0.0384(9) 0.0471(10) -0.0013(7) -0.0003(8) -0.0099(8)
N4 0.0397(13) 0.0480(11) 0.0394(9) -0.0032(8) -0.0026(8) 0.0020(9)
N3 0.0459(13) 0.0450(11) 0.0417(10) -0.0021(8) 0.0054(9) 0.0078(9)
N2 0.0398(13) 0.0439(10) 0.0428(10) -0.0103(8) -0.0048(8) 0.0063(9)
N1 0.079(2) 0.0528(14) 0.0477(13) 0.0046(10) 0.0180(12) 0.0014(13)
C1 0.0405(14) 0.0401(11) 0.0358(10) -0.0030(8) 0.0007(9) -0.0025(9)
C2 0.0642(19) 0.0446(13) 0.0468(13) 0.0001(10) 0.0099(12) 0.0133(12)
C3 0.070(2) 0.0492(14) 0.0458(13) -0.0033(10) 0.0173(13) 0.0116(13)
C4 0.0496(16) 0.0462(12) 0.0409(12) -0.0018(9) 0.0071(10) -0.0060(11)
C5 0.0568(17) 0.0354(11) 0.0520(13) 0.0014(10) 0.0060(12) -0.0011(11)
C6 0.0476(16) 0.0393(11) 0.0445(12) -0.0061(9) 0.0084(10) -0.0016(10)
C7 0.0390(14) 0.0399(11) 0.0337(10) 0.0018(8) 0.0016(9) 0.0022(10)
C8 0.0398(15) 0.0631(16) 0.0436(12) 0.0007(11) -0.0054(11) 0.0029(12)
C9 0.0379(15) 0.0638(16) 0.0514(14) 0.0091(12) 0.0017(11) 0.0082(12)
C10 0.0477(16) 0.0466(13) 0.0477(13) 0.0088(10) 0.0099(11) 0.0097(11)
C11 0.063(2) 0.0623(17) 0.077(2) -0.0074(14) 0.0169(16) 0.0185(15)
loop_
_atom_type_symbol
_atom_type_description
_atom_type_scat_dispersion_real
_atom_type_scat_dispersion_imag
_atom_type_scat_source
C C 0.0033 0.0016 'International Tables Vol C Tables 4.2.6.8 and 6.1.1.4'
H H 0.0000 0.0000 'International Tables Vol C Tables 4.2.6.8 and 6.1.1.4'
N N 0.0061 0.0033 'International Tables Vol C Tables 4.2.6.8 and 6.1.1.4'
O O 0.0106 0.0060 'International Tables Vol C Tables 4.2.6.8 and 6.1.1.4'
S S 0.1246 0.1234 'International Tables Vol C Tables 4.2.6.8 and 6.1.1.4'
loop_
_geom_angle_atom_site_label_1
_geom_angle_atom_site_label_2
_geom_angle_atom_site_label_3
_geom_angle
_geom_angle_site_symmetry_1
_geom_angle_site_symmetry_3
O1 S1 O2 118.69(11) . .
O1 S1 N2 109.68(11) . .
O2 S1 N2 102.42(11) . .
O1 S1 C1 108.81(10) . .
O2 S1 C1 108.49(11) . .
N2 S1 C1 108.24(11) . .
C8 N4 C7 115.4(2) . .
C7 N3 C10 115.7(2) . .
C7 N2 S1 128.22(17) . .
C7 N2 H1N2 116(2) . .
S1 N2 H1N2 116(2) . .
C4 N1 H1N1 115(2) . .
C4 N1 H2N1 119(2) . .
H1N1 N1 H2N1 120(3) . .
C2 C1 C6 119.6(2) . .
C2 C1 S1 120.35(18) . .
C6 C1 S1 120.00(17) . .
C3 C2 C1 120.4(2) . .
C3 C2 H2 119.8 . .
C1 C2 H2 119.8 . .
C2 C3 C4 121.2(2) . .
C2 C3 H3 119.4 . .
C4 C3 H3 119.4 . .
N1 C4 C3 120.1(2) . .
N1 C4 C5 122.3(2) . .
C3 C4 C5 117.6(2) . .
C6 C5 C4 121.2(2) . .
C6 C5 H5 119.4 . .
C4 C5 H5 119.4 . .
C5 C6 C1 120.0(2) . .
C5 C6 H6 120.0 . .
C1 C6 H6 120.0 . .
N3 C7 N4 127.0(2) . .
N3 C7 N2 119.7(2) . .
N4 C7 N2 113.3(2) . .
N4 C8 C9 123.1(3) . .
N4 C8 H8 118.5 . .
C9 C8 H8 118.5 . .
C8 C9 C10 117.2(3) . .
C8 C9 H9 121.4 . .
C10 C9 H9 121.4 . .
N3 C10 C9 121.6(2) . .
N3 C10 C11 117.5(3) . .
C9 C10 C11 120.9(3) . .
C10 C11 H11A 109.5 . .
C10 C11 H11B 109.5 . .
H11A C11 H11B 109.5 . .
C10 C11 H11C 109.5 . .
H11A C11 H11C 109.5 . .
H11B C11 H11C 109.5 . .
loop_
_geom_bond_atom_site_label_1
_geom_bond_atom_site_label_2
_geom_bond_distance
_geom_bond_site_symmetry_2
S1 O1 1.4261(17) .
S1 O2 1.4398(19) .
S1 N2 1.644(2) .
S1 C1 1.740(2) .
N4 C8 1.330(3) .
N4 C7 1.342(3) .
N3 C7 1.332(3) .
N3 C10 1.349(3) .
N2 C7 1.379(3) .
N2 H1N2 0.82(3) .
N1 C4 1.360(3) .
N1 H1N1 0.81(4) .
N1 H2N1 0.86(3) .
C1 C2 1.388(3) .
C1 C6 1.389(3) .
C2 C3 1.372(4) .
C2 H2 0.9300 .
C3 C4 1.401(4) .
C3 H3 0.9300 .
C4 C5 1.406(3) .
C5 C6 1.379(3) .
C5 H5 0.9300 .
C6 H6 0.9300 .
C8 C9 1.367(4) .
C8 H8 0.9300 .
C9 C10 1.386(4) .
C9 H9 0.9300 .
C10 C11 1.501(4) .
C11 H11A 0.9600 .
C11 H11B 0.9600 .
C11 H11C 0.9600 .
loop_
_geom_hbond_atom_site_label_D
_geom_hbond_atom_site_label_H
_geom_hbond_atom_site_label_A
_geom_hbond_distance_DH
_geom_hbond_distance_HA
_geom_hbond_distance_DA
_geom_hbond_angle_DHA
_geom_hbond_site_symmetry_A
C6 H6 O1 0.93 2.54 3.439(3) 162.4 8_665
C8 H8 O2 0.93 2.53 3.249(3) 134.7 5_666
C9 H9 O2 0.93 2.62 3.266(3) 126.8 1_655
N2 H1N2 N4 0.82(3) 2.12(3) 2.936(3) 175(3) 5_666
N1 H1N1 O2 0.81(4) 2.30(4) 3.098(4) 168(3) 6_656
N1 H2N1 O1 0.86(3) 2.47(3) 3.047(3) 125(3) 3_655
N1 H2N1 N3 0.86(3) 2.69(3) 3.468(4) 152(3) 3_655
loop_
_geom_torsion_atom_site_label_1
_geom_torsion_atom_site_label_2
_geom_torsion_atom_site_label_3
_geom_torsion_atom_site_label_4
_geom_torsion
_geom_torsion_site_symmetry_1
_geom_torsion_site_symmetry_2
_geom_torsion_site_symmetry_3
_geom_torsion_site_symmetry_4
O1 S1 N2 C7 47.1(2) . . . .
O2 S1 N2 C7 174.0(2) . . . .
C1 S1 N2 C7 -71.5(2) . . . .
O1 S1 C1 C2 -17.2(3) . . . .
O2 S1 C1 C2 -147.6(2) . . . .
N2 S1 C1 C2 102.0(2) . . . .
O1 S1 C1 C6 160.8(2) . . . .
O2 S1 C1 C6 30.3(2) . . . .
N2 S1 C1 C6 -80.1(2) . . . .
C6 C1 C2 C3 -0.5(4) . . . .
S1 C1 C2 C3 177.5(2) . . . .
C1 C2 C3 C4 -1.1(5) . . . .
C2 C3 C4 N1 -176.7(3) . . . .
C2 C3 C4 C5 1.8(4) . . . .
N1 C4 C5 C6 177.6(3) . . . .
C3 C4 C5 C6 -0.8(4) . . . .
C4 C5 C6 C1 -0.8(4) . . . .
C2 C1 C6 C5 1.5(4) . . . .
S1 C1 C6 C5 -176.5(2) . . . .
C10 N3 C7 N4 0.3(3) . . . .
C10 N3 C7 N2 -179.0(2) . . . .
C8 N4 C7 N3 0.2(3) . . . .
C8 N4 C7 N2 179.5(2) . . . .
S1 N2 C7 N3 -4.0(3) . . . .
S1 N2 C7 N4 176.60(17) . . . .
C7 N4 C8 C9 0.1(4) . . . .
N4 C8 C9 C10 -0.7(4) . . . .
C7 N3 C10 C9 -1.0(3) . . . .
C7 N3 C10 C11 178.2(2) . . . .
C8 C9 C10 N3 1.2(4) . . . .
C8 C9 C10 C11 -177.9(3) . . . .
