#------------------------------------------------------------------------------
#$Date: 2017-09-28 15:56:09 +0300 (Thu, 28 Sep 2017) $
#$Revision: 201423 $
#$URL: file:///home/coder/svn-repositories/cod/cif/1/54/74/1547421.cif $
#------------------------------------------------------------------------------
#
# This file is available in the Crystallography Open Database (COD),
# http://www.crystallography.net/
#
# All data on this site have been placed in the public domain by the
# contributors.
#
data_1547421
loop_
_publ_author_name
'Anuradha R. Pallipurath'
'Jonathan M. Skelton'
'Mark R. Warren'
'Naghmeh Kamali'
'Patrick McArdle'
'Andrea Erxleben'
_publ_section_title
;
 Sulfamerazine: Understanding the Influence of Slip Planes in the
 Polymorphic Phase Transformation through X-Ray Crystallographic Studies
 and ab Initio Lattice Dynamics
;
_journal_name_full               'Molecular Pharmaceutics'
_journal_page_first              3735
_journal_page_last               3748
_journal_paper_doi               10.1021/acs.molpharmaceut.5b00504
_journal_volume                  12
_journal_year                    2015
_chemical_absolute_configuration ad
_chemical_formula_moiety         'C11 H12 N4 O2 S'
_chemical_formula_sum            'C11 H12 N4 O2 S'
_chemical_formula_weight         264.31
_chemical_name_common            Sulfamerazine
_chemical_name_systematic        4-amino-N-(4-methylpyrimidin-2-yl)
_space_group_crystal_system      orthorhombic
_space_group_IT_number           33
_space_group_name_Hall           'P 2c -2n'
_space_group_name_H-M_alt        'P n a 21'
_symmetry_space_group_name_Hall  'P 2c -2n'
_symmetry_space_group_name_H-M   'P n a 21'
_atom_sites_solution_hydrogens   mixed
_cell_angle_alpha                90
_cell_angle_beta                 90
_cell_angle_gamma                90
_cell_formula_units_Z            8
_cell_length_a                   14.48140(10)
_cell_length_b                   8.19930(10)
_cell_length_c                   21.8844(3)
_cell_measurement_reflns_used    10946
_cell_measurement_temperature    230
_cell_measurement_theta_max      29.4930
_cell_measurement_theta_min      2.5600
_cell_volume                     2598.50(5)
_computing_cell_refinement
;
CrysAlisPro, Agilent Technologies,
Version 1.171.37.35 (release 13-08-2014 CrysAlis171 .NET)
(compiled Aug 13 2014,18:06:01)
;
_computing_data_collection
;
CrysAlisPro, Agilent Technologies,
Version 1.171.37.35 (release 13-08-2014 CrysAlis171 .NET)
(compiled Aug 13 2014,18:06:01)
;
_computing_data_reduction
;
CrysAlisPro, Agilent Technologies,
Version 1.171.37.35 (release 13-08-2014 CrysAlis171 .NET)
(compiled Aug 13 2014,18:06:01)
;
_computing_molecular_graphics    OSCAIL
_computing_structure_refinement  'SHELXL-2014/7 (Sheldrick, 2014)'
_computing_structure_solution    SHELXT
_diffrn_ambient_temperature      230
_diffrn_measured_fraction_theta_full 0.998
_diffrn_measured_fraction_theta_max 0.998
_diffrn_measurement_device       'CrystalLogic Kappa (3 circle)'
_diffrn_measurement_device_type  'Rigaku Saturn724+ (2x2 bin mode)'
_diffrn_measurement_method
;
omega rotation with 1 degree frames
;
_diffrn_measurement_specimen_support 'MiTeGen loop'
_diffrn_radiation_monochromator  'double crystal Silicon 111'
_diffrn_radiation_source         'Diamond Light Source Beamline I19'
_diffrn_radiation_type           Synchrotron
_diffrn_radiation_wavelength     0.68890
_diffrn_reflns_av_R_equivalents  0.0455
_diffrn_reflns_av_unetI/netI     0.0444
_diffrn_reflns_Laue_measured_fraction_full 0.998
_diffrn_reflns_Laue_measured_fraction_max 0.998
_diffrn_reflns_limit_h_max       20
_diffrn_reflns_limit_h_min       -13
_diffrn_reflns_limit_k_max       11
_diffrn_reflns_limit_k_min       -11
_diffrn_reflns_limit_l_max       27
_diffrn_reflns_limit_l_min       -31
_diffrn_reflns_number            23484
_diffrn_reflns_point_group_measured_fraction_full 0.988
_diffrn_reflns_point_group_measured_fraction_max 0.968
_diffrn_reflns_theta_full        24.415
_diffrn_reflns_theta_max         29.466
_diffrn_reflns_theta_min         1.804
_exptl_absorpt_coefficient_mu    0.249
_exptl_absorpt_correction_T_max  1.00000
_exptl_absorpt_correction_T_min  0.97876
_exptl_absorpt_correction_type   multi-scan
_exptl_absorpt_process_details
;
CrysAlisPro, Agilent Technologies,
Version 1.171.36.28 (release 01-02-2013 CrysAlis171 .NET)
Empirical absorption correction using spherical harmonics,
implemented in SCALE3 ABSPACK scaling algorithm.
;
_exptl_crystal_colour            Colourless
_exptl_crystal_density_diffrn    1.351
_exptl_crystal_description       Parallelepiped
_exptl_crystal_F_000             1104
_exptl_crystal_size_max          0.50
_exptl_crystal_size_mid          0.40
_exptl_crystal_size_min          0.20
_refine_diff_density_max         0.244
_refine_diff_density_min         -0.313
_refine_diff_density_rms         0.047
_refine_ls_abs_structure_details
;
 Flack x determined using 2307 quotients [(I+)-(I-)]/[(I+)+(I-)]
 (Parsons, Flack and Wagner, Acta Cryst. B69 (2013) 249-259).
;
_refine_ls_abs_structure_Flack   -0.02(5)
_refine_ls_extinction_coef       .
_refine_ls_extinction_method     none
_refine_ls_goodness_of_fit_ref   1.023
_refine_ls_hydrogen_treatment    mixed
_refine_ls_matrix_type           full
_refine_ls_number_parameters     344
_refine_ls_number_reflns         7671
_refine_ls_number_restraints     1
_refine_ls_restrained_S_all      1.022
_refine_ls_R_factor_all          0.0620
_refine_ls_R_factor_gt           0.0463
_refine_ls_shift/su_max          0.164
_refine_ls_shift/su_mean         0.004
_refine_ls_structure_factor_coef Fsqd
_refine_ls_weighting_details
'w=1/[\s^2^(Fo^2^)+(0.0541P)^2^+0.3587P] where P=(Fo^2^+2Fc^2^)/3'
_refine_ls_weighting_scheme      calc
_refine_ls_wR_factor_gt          0.1094
_refine_ls_wR_factor_ref         0.1215
_reflns_Friedel_coverage         0.895
_reflns_Friedel_fraction_full    0.977
_reflns_Friedel_fraction_max     0.937
_reflns_number_gt                6063
_reflns_number_total             7671
_reflns_threshold_expression     'I > 2\s(I)'
_cod_data_source_file            Exp_Form-I2FSynchrotron_Form-I_230K.cif
_cod_data_source_block           230k_smz-f1_a
_cod_database_code               1547421
_shelx_space_group_comment
;
The symmetry employed for this shelxl refinement is uniquely defined
by the following loop, which should always be used as a source of
symmetry information in preference to the above space-group names.
They are only intended as comments.
;
_shelx_estimated_absorpt_t_min   0.886
_shelx_estimated_absorpt_t_max   0.952
_shelx_res_file
;
    230k_smz-f1_a.res created by SHELXL-2014/7
TITL 230k_smz-f1_a.res in Pna2(1)
REM Old TITL 009_230K_SulfamerazineF1_ in Pna2(1)
REM SHELXT solution in Pna2(1)
REM R1 0.100,  Rweak 0.041,  Alpha 0.003,  Orientation as input
REM Flack x =  0.092 ( 0.040 ) from Parsons' quotients
REM Formula found by SHELXT:  C26 N4 O4 S2
CELL  0.68890  14.4814   8.1993  21.8844   90.000   90.000   90.000
ZERR    8.000   0.0001   0.0001   0.0003    0.000    0.000    0.000
REM SG 33 4 4 Pna21 PGmm2 Orthorhombic
LATT -1
REM SG  ASUN  1  .5 .5 1.
REM SG  ORGN  on 2(1)
SYMM -X,-Y,0.5+Z
SYMM 0.5+X,0.5-Y,Z
SYMM 0.5-X,0.5+Y,0.5+Z
SFAC C H N O S
UNIT 88.00 96.00 32.00 16.00 8.00
L.S. 10
SIZE    0.50  0.40  0.20
BOND $H
FMAP 2
PLAN 20
ACTA
CONF
EQIV $1 x, y-1, z
HTAB N5 O4_$1
EQIV $2 -x+3/2, y+1/2, z-1/2
HTAB N1 O4_$2
EQIV $3 x, y+1, z
HTAB N1 O1_$3
HTAB N2 N8
HTAB N6 N4
LIST 4
WGHT    0.054100    0.358700
FVAR       0.52336   0.35344
S1    5    0.645632    0.495278    0.344131    11.00000    0.02862    0.03270 =
         0.03055    0.00243   -0.00148   -0.00202
S2    5    0.577793    0.496243    0.652744    11.00000    0.02780    0.03258 =
         0.02978    0.00361   -0.00143   -0.00186
O1    4    0.688829    0.370880    0.308365    11.00000    0.04733    0.03340 =
         0.03941   -0.00561    0.00028   -0.00158
O2    4    0.548329    0.522268    0.337450    11.00000    0.03042    0.04866 =
         0.04034    0.00756   -0.00567   -0.00568
O3    4    0.675552    0.468902    0.659128    11.00000    0.02795    0.05099 =
         0.03671    0.00777   -0.00620   -0.00336
O4    4    0.535515    0.623319    0.687587    11.00000    0.04365    0.03161 =
         0.04066   -0.00319   -0.00119   -0.00171
N1    3    0.842317    1.116934    0.312144    11.00000    0.03995    0.03445 =
         0.06605   -0.00744    0.01868   -0.00554
N2    3    0.654909    0.448675    0.417167    11.00000    0.02543    0.04564 =
         0.03335    0.00718    0.00107    0.00105
N3    3    0.814393    0.409542    0.417174    11.00000    0.02890    0.03895 =
         0.03904    0.00394    0.00176    0.00161
N4    3    0.728144    0.429550    0.509518    11.00000    0.03470    0.07981 =
         0.03337    0.00569    0.00018    0.01221
N5    3    0.380188   -0.120079    0.695406    11.00000    0.05119    0.03249 =
         0.08756   -0.00535    0.01672   -0.00857
AFIX  93
H5A   2    0.323782   -0.118597    0.707688    11.00000   -1.30000
H5B   2    0.407483   -0.211637    0.688979    11.00000   -1.30000
AFIX   0
N6    3    0.568290    0.538320    0.579374    11.00000    0.02787    0.05143 =
         0.03038    0.00983    0.00184    0.00272
N7    3    0.409542    0.586631    0.580064    11.00000    0.02982    0.04229 =
         0.04098    0.00185    0.00137    0.00476
N8    3    0.496101    0.565844    0.487514    11.00000    0.03518    0.07842 =
         0.03562    0.00664   -0.00276    0.01336
C1    1    0.704634    0.677265    0.333857    11.00000    0.02702    0.03085 =
         0.02938    0.00302    0.00211   -0.00029
C2    1    0.794205    0.679339    0.310533    11.00000    0.02808    0.03272 =
         0.02847   -0.00108    0.00029    0.00347
AFIX  43
H2    2    0.823137    0.582196    0.299823    11.00000   -1.30000
AFIX   0
C3    1    0.839646    0.825166    0.303402    11.00000    0.02632    0.03743 =
         0.02696   -0.00188    0.00470   -0.00023
AFIX  43
H3    2    0.899600    0.826029    0.288175    11.00000   -1.30000
AFIX   0
C4    1    0.796708    0.972432    0.318800    11.00000    0.03540    0.03305 =
         0.02848   -0.00190    0.00093   -0.00133
C5    1    0.706227    0.969557    0.342392    11.00000    0.03531    0.03194 =
         0.03919   -0.00284    0.00629    0.00345
AFIX  43
H5    2    0.676911    1.066562    0.352817    11.00000   -1.30000
AFIX   0
C6    1    0.661220    0.823097    0.350009    11.00000    0.02928    0.03557 =
         0.03935   -0.00007    0.00739    0.00140
AFIX  43
H6    2    0.601706    0.821261    0.365964    11.00000   -1.30000
AFIX   0
C7    1    0.737000    0.428588    0.449105    11.00000    0.03010    0.03513 =
         0.03472    0.00481    0.00044    0.00290
C8    1    0.806457    0.404697    0.540408    11.00000    0.05068    0.11840 =
         0.03716   -0.00007   -0.00987    0.02638
AFIX  43
H8    2    0.804040    0.401893    0.582861    11.00000   -1.30000
AFIX   0
C9    1    0.889788    0.383252    0.512511    11.00000    0.03516    0.10464 =
         0.04929   -0.00422   -0.01228    0.01911
AFIX  43
H9    2    0.943240    0.365988    0.535161    11.00000   -1.30000
AFIX   0
C10   1    0.892001    0.388033    0.449928    11.00000    0.03152    0.04777 =
         0.05143   -0.00171    0.00011    0.00746
C11   1    0.978675    0.369835    0.414186    11.00000    0.03449    0.07671 =
         0.06869   -0.00305    0.00285    0.01104
AFIX 137
H11A  2    0.980226    0.263785    0.395625    11.00000   -1.30000
H11B  2    1.030813    0.382006    0.440892    11.00000   -1.30000
H11C  2    0.980962    0.451963    0.382958    11.00000   -1.30000
AFIX   0
C12   1    0.519091    0.315883    0.665896    11.00000    0.02867    0.03004 =
         0.02816    0.00029    0.00152    0.00155
C13   1    0.563607    0.168402    0.655577    11.00000    0.03163    0.03671 =
         0.05006    0.00096    0.00904    0.00447
AFIX  43
H13   2    0.624414    0.167402    0.641912    11.00000   -1.30000
AFIX   0
C14   1    0.517817    0.023686    0.665554    11.00000    0.03817    0.03136 =
         0.06309   -0.00296    0.00601    0.00415
AFIX  43
H14   2    0.548068   -0.074596    0.658533    11.00000   -1.30000
AFIX   0
C15   1    0.426305    0.022622    0.686133    11.00000    0.03943    0.03390 =
         0.04046   -0.00040    0.00091   -0.00174
C16   1    0.382334    0.172086    0.696498    11.00000    0.03366    0.03440 =
         0.03452   -0.00372    0.00373   -0.00230
AFIX  43
H16   2    0.321572    0.173449    0.710246    11.00000   -1.30000
AFIX   0
C17   1    0.427904    0.317305    0.686597    11.00000    0.03112    0.03108 =
         0.03164   -0.00212    0.00285    0.00145
AFIX  43
H17   2    0.398007    0.415890    0.693683    11.00000   -1.30000
AFIX   0
C18   1    0.486556    0.565317    0.548353    11.00000    0.03173    0.03792 =
         0.03353    0.00512   -0.00177    0.00212
C19   1    0.418273    0.598225    0.456542    11.00000    0.04441    0.12183 =
         0.03532    0.00247   -0.00681    0.02421
AFIX  43
H19   2    0.420644    0.602706    0.414108    11.00000   -1.30000
AFIX   0
C20   1    0.335266    0.624992    0.485142    11.00000    0.04291    0.10656 =
         0.05250   -0.00392   -0.01012    0.02905
AFIX  43
H20   2    0.282453    0.649139    0.462721    11.00000   -1.30000
AFIX   0
C21   1    0.332321    0.615092    0.548083    11.00000    0.03260    0.05151 =
         0.04963   -0.00025   -0.00171    0.00753
C22   1    0.245515    0.635660    0.584269    11.00000    0.03399    0.08363 =
         0.07334   -0.00594    0.00591    0.00936
AFIX 137
H22A  2    0.245019    0.741654    0.602900    11.00000   -1.30000
H22B  2    0.242672    0.553461    0.615451    11.00000   -1.30000
H22C  2    0.193121    0.625070    0.557688    11.00000   -1.30000
AFIX   0
H1N1  2    0.894604    1.120749    0.292587    11.00000    0.06469
H2N1  2    0.812353    1.202356    0.316374    11.00000    0.05299
H1N2  2    0.614309    0.483533    0.437928    11.00000    0.04289
H1N6  2    0.621525    0.498437    0.558591    11.00000    0.05974
HKLF 4
REM  230k_smz-f1_a.res in Pna2(1)
REM R1 =  0.0463 for    6063 Fo > 4sig(Fo)  and  0.0620 for all    7671 data
REM    344 parameters refined using      1 restraints
END
WGHT      0.0532      0.2362
REM Highest difference peak  0.244,  deepest hole -0.313,  1-sigma level  0.047
Q1    1   0.8091  0.7607  0.3090  11.00000  0.05    0.24
Q2    1   0.6801  0.6004  0.3402  11.00000  0.05    0.23
Q3    1   0.5468  0.3927  0.6581  11.00000  0.05    0.23
Q4    1   0.5485  0.2550  0.6570  11.00000  0.05    0.21
Q5    1   0.6362  0.4707  0.6585  11.00000  0.05    0.21
Q6    1   0.1966  0.5313  0.6816  11.00000  0.05    0.20
Q7    1   0.5885  0.5526  0.3490  11.00000  0.05    0.20
Q8    1   0.4081  0.1022  0.6901  11.00000  0.05    0.20
Q9    1   0.5352  0.0956  0.6580  11.00000  0.05    0.19
Q10   1   0.5315  0.5958  0.5698  11.00000  0.05    0.19
Q11   1   0.5321  0.4172  0.6664  11.00000  0.05    0.19
Q12   1   0.7460  0.9596  0.3203  11.00000  0.05    0.18
Q13   1   0.8231  0.9002  0.3172  11.00000  0.05    0.18
Q14   1   0.5673  0.5233  0.6105  11.00000  0.05    0.18
Q15   1   0.4705  0.5924  0.4801  11.00000  0.05    0.18
Q16   1   0.6765  0.7403  0.3422  11.00000  0.05    0.17
Q17   1   0.6951  0.4330  0.3383  11.00000  0.05    0.17
Q18   1   0.7563  0.6958  0.3380  11.00000  0.05    0.17
Q19   1   0.4858  0.5711  0.5233  11.00000  0.05    0.17
Q20   1   0.4210  0.6455  0.6264  11.00000  0.05    0.16
;
_shelx_res_checksum              55946
_shelx_hkl_file
;
   0   0 -29    3.95    4.64
   0   0 -28  264.31   19.49
   0   0 -27   -2.65    2.97
   0   0 -26  595.53   28.22
   0   0 -25    0.01    2.06
   0   0 -24    4.31    2.84
   0   0 -23   -1.66    1.88
   0   0 -22   61.18    8.39
   0   0 -21   -0.24    1.99
   0   0 -20  665.76   26.02
   0   0 -19    3.39    2.36
   0   0 -18   73.34    8.36
   0   0 -17   -0.07    1.51
   0   0 -16  350.85   17.21
   0   0 -15    0.39    1.50
   0   0 -14   59.49    6.76
   0   0 -13   -0.61    1.03
   0   0 -12 3973.30   49.85
   0   0 -11    0.44    1.33
   0   0 -10  422.33   14.78
   0   0  -9   -1.46    1.49
   0   0  -7    0.60    0.68
   0   0  -5    2.07    1.02
   0   0  -4 4604.72   31.14
   0   0  -3    2.78    0.66
   0   0  -2  206.66    4.71
   0   0   4 4508.37   23.60
   0   0   5    0.74    0.24
   0   0   7    0.15    0.59
   0   0   9    0.43    0.49
   0   0  10  433.02   11.45
   0   0  11    0.15    0.57
   0   0  12 4091.10   38.23
   0   0  13   -0.08    0.66
   0   0  14   58.65    4.96
   0   0  15   -0.61    1.15
   0   0  16  398.23   14.17
   0   0  17   -0.75    1.14
   0   0  18   50.02    5.50
   0   0  19    0.35    1.75
   0  -1 -31   19.06    6.07
   0  -1 -30    0.99    3.31
   0  -1 -29    2.84    3.06
   0  -1 -28   -0.54    2.35
   0  -1 -27    4.95    4.32
   0   1 -26   -1.00    2.00
   0  -1 -26    3.37    3.46
   0   1 -25    1.27    1.95
   0  -1 -25    1.97    1.82
   0   1 -24    0.39    1.94
   0  -1 -24    3.52    3.71
   0  -1 -23   -1.34    2.37
   0   1 -23   -3.20    3.20
   0   1 -22   -0.52    1.57
   0  -1 -22    5.51    3.86
   0  -1 -21  114.71   10.85
   0   1 -21  133.29   11.92
   0   1 -20    0.29    2.01
   0  -1 -20   -0.37    2.54
   0  -1 -19   25.25    5.15
   0   1 -19   23.87    4.79
   0  -1 -18    0.78    1.59
   0   1 -18    0.80    1.77
   0   1 -17   22.64    4.77
   0  -1 -17   16.92    4.32
   0  -1 -16    1.64    1.78
   0   1 -16    0.41    1.93
   0  -1 -15   94.15    8.74
   0   1 -15   84.53    7.64
   0  -1 -14    0.09    2.18
   0   1 -14    1.24    1.65
   0  -1 -13  172.97   11.21
   0   1 -13  169.06   10.36
   0   1 -12   -1.31    1.38
   0  -1 -12   -0.20    1.09
   0   1 -11   57.66    5.48
   0  -1 -11   55.90    5.99
   0  -1 -10    2.68    1.70
   0   1 -10    0.55    0.92
   0   1  -9 1810.72   17.48
   0  -1  -9 1784.83   30.77
   0   1  -9 1765.11   27.24
   0   1  -8    0.24    0.43
   0   1  -8    0.74    0.90
   0  -1  -8   -0.42    0.77
   0   1  -7 1708.17   15.93
   0   1  -7 1651.69   22.76
   0  -1  -7 1655.53   26.68
   0   1  -6    0.28    0.42
   0  -1  -6    0.18    0.89
   0   1  -6    0.01    0.40
   0   1  -5 3010.26   20.22
   0  -1  -5 2973.28   29.09
   0  -1  -5 2925.78   30.73
   0  -1  -4    0.80    0.69
   0   1  -4   -0.27    0.47
   0   1  -4    0.21    0.40
   0  -1  -4   -0.57    0.41
   0  -1  -3 1401.26   18.11
   0   1  -3 1407.12   14.07
   0  -1  -2    0.20    0.46
   0  -1  -2    0.56    0.49
   0   1  -2    0.12    0.39
   0  -1  -1  515.78    9.59
   0  -1  -1  506.53    8.04
   0   1  -1  497.45    8.60
   0   1   0    0.04    0.24
   0  -1   0    0.18    0.43
   0   1   1  527.81    9.42
   0  -1   1  525.38    8.31
   0  -1   2   -0.22    0.31
   0   1   2    0.10    0.22
   0  -1   5 2978.25   17.43
   0  -1   6   -0.16    0.34
   0  -1   7 1660.00   14.96
   0  -1   8    0.10    0.33
   0   1   8    1.55    1.26
   0   1   9 1763.80   26.50
   0  -1   9 1828.37   18.30
   0  -1  10    0.00    0.56
   0   1  10    1.07    0.73
   0  -1  11   48.90    3.35
   0   1  11   62.19    5.29
   0  -1  12   -0.61    0.53
   0   1  12    0.35    0.78
   0   1  13  150.53    8.93
   0  -1  13  151.49    6.63
   0   1  14   -0.79    1.45
   0  -1  14   -1.01    0.91
   0   1  15   86.48    6.07
   0  -1  15   80.00    5.31
   0   1  15   80.46    6.82
   0   1  16    1.40    1.76
   0  -1  16   -0.40    0.67
   0   1  16    0.15    0.78
   0  -1  17   18.04    2.67
   0   1  17   27.60    3.75
   0   1  17   29.04    4.35
   0   1  18   -0.78    1.11
   0   1  18    0.22    1.61
   0   1  19   23.74    4.59
   0   1  20    0.60    1.17
   0  -2 -30  121.83   13.99
   0  -2 -29    2.53    2.93
   0  -2 -28   35.77    6.90
   0  -2 -27   -0.87    2.24
   0  -2 -26  167.00   14.89
   0  -2 -25    0.70    2.11
   0  -2 -24   11.59    4.20
   0  -2 -23    0.60    2.59
   0  -2 -22  120.33   11.84
   0  -2 -21   -0.20    1.86
   0  -2 -20  142.10   12.46
   0   2 -19   -3.50    2.25
   0  -2 -19    1.50    2.10
   0   2 -18   90.60    9.02
   0  -2 -18   74.35    8.41
   0  -2 -17   -0.04    2.69
   0   2 -17    0.23    1.67
   0  -2 -16  929.07   29.00
   0   2 -16  929.49   26.85
   0   2 -15    0.27    1.00
   0  -2 -15    0.77    1.01
   0   2 -14  320.22    9.52
   0   2 -14  341.90   15.11
   0  -2 -13   -0.78    2.12
   0   2 -13    0.40    0.90
   0   2 -13    1.03    0.93
   0   2 -12 1955.39   23.17
   0   2 -12 1971.11   32.78
   0  -2 -11    0.47    1.47
   0   2 -11   -0.13    0.58
   0   2 -11    0.95    1.31
   0   2 -10 2289.42   25.15
   0  -2 -10 2345.94   39.18
   0   2 -10 2331.93   32.35
   0   2  -9    1.01    0.78
   0  -2  -9    0.80    1.56
   0   2  -8  163.18    6.74
   0  -2  -8  162.05    9.35
   0  -2  -7    1.71    1.65
   0   2  -7    0.68    0.59
   0  -2  -7    0.86    0.94
   0  -2  -6 1776.82   28.19
   0  -2  -6 1795.98   28.60
   0   2  -6 1816.20   22.62
   0   2  -5   -0.31    0.55
   0  -2  -5    1.14    1.13
   0  -2  -5   -0.74    1.03
   0  -2  -4 1749.65   26.52
   0   2  -4 1746.68   22.33
   0  -2  -3    0.04    0.54
   0   2  -3   -0.09    0.43
   0  -2  -3    0.59    0.63
   0  -2  -2  660.97   15.41
   0   2  -2  655.60   14.07
   0  -2  -2  641.91   12.84
   0   2  -1    0.87    0.79
   0  -2  -1   -0.16    0.57
   0  -2  -1   -0.32    0.65
   0  -2   1   -0.29    0.57
   0  -2   1    0.98    0.72
   0   2   1    0.13    0.62
   0   2   2  691.66   15.23
   0  -2   2  677.16   13.32
   0  -2   2  670.74    8.89
   0  -2   3    1.03    0.94
   0   2   3    1.06    1.11
   0   2   4 1641.21   24.63
   0  -2   4 1940.14   20.95
   0   2   5    1.08    0.76
   0  -2   5   -0.05    0.41
   0   2   6 1801.97   26.55
   0  -2   6 1835.17   18.92
   0  -2   7    0.64    0.71
   0   2   7    1.22    0.95
   0  -2   8  160.00    5.50
   0   2   8  164.00    8.30
   0   2   9   -0.73    0.94
   0  -2   9    0.24    0.27
   0   2  10 2297.84   32.29
   0  -2  10 2321.61   21.38
   0   2  11    1.02    1.55
   0   2  11    2.05    1.97
   0  -2  11    0.73    0.54
   0   2  12 1950.12   31.24
   0  -2  12 1882.86   20.04
   0   2  12 1935.22   34.91
   0   2  13    0.92    1.33
   0   2  13   -0.48    0.71
   0  -2  13    0.17    0.40
   0   2  14  342.86   15.59
   0  -2  14  331.71    8.81
   0   2  14  318.92   13.28
   0   2  15    1.28    1.01
   0  -2  15    1.50    0.87
   0   2  15    0.16    1.16
   0   2  16  931.99   26.72
   0   2  16  860.97   22.84
   0   2  17   -0.74    1.33
   0   2  17    0.75    1.38
   0   2  18   85.44    7.48
   0   2  18   97.82    9.19
   0   2  19    0.39    1.57
   0   2  19    1.45    1.70
   0   2  20  134.99   11.18
   0   2  21   -1.23    2.10
   0   2  22  102.45   10.40
   0  -3 -30   -0.60    1.79
   0  -3 -29    3.33    2.90
   0  -3 -28   -2.07    1.94
   0  -3 -27   19.69    6.13
   0  -3 -26    2.17    1.81
   0  -3 -25    3.22    1.71
   0  -3 -24   -0.93    1.83
   0  -3 -23    1.95    2.92
   0  -3 -22   -3.69    2.99
   0  -3 -21  109.20   11.43
   0  -3 -20   -0.68    1.48
   0  -3 -19  154.27   13.14
   0  -3 -18   -0.52    2.29
   0  -3 -17   55.34    7.53
   0  -3 -16   -1.18    1.69
   0  -3 -15  110.33   10.37
   0  -3 -14    1.47    2.13
   0   3 -14   -0.41    0.63
   0   3 -13  145.22    7.87
   0  -3 -13  180.15   12.36
   0   3 -12   -0.42    0.67
   0  -3 -12    1.87    2.15
   0  -3 -11  144.86   10.50
   0   3 -11  152.02    7.93
   0  -3 -10    0.67    1.69
   0   3 -10    1.68    1.10
   0  -3  -9 3014.04   45.05
   0  -3  -9 2987.03   45.12
   0   3  -9 3024.10   35.86
   0  -3  -8   -0.03    1.47
   0  -3  -8   -0.93    1.68
   0   3  -8    1.02    0.67
   0   3  -7   17.92    2.86
   0  -3  -7   23.90    3.91
   0  -3  -7   17.30    3.19
   0  -3  -6   -0.01    1.24
   0   3  -6    0.31    0.88
   0  -3  -6    0.40    1.49
   0   3  -5  582.14   16.06
   0  -3  -5  620.71   17.04
   0  -3  -5  608.42   18.65
   0  -3  -4    0.57    0.89
   0   3  -4    1.12    0.91
   0  -3  -4   -0.28    1.08
   0   3  -3  809.26   19.15
   0  -3  -3  838.62   21.09
   0  -3  -3  793.30   17.70
   0  -3  -2    0.70    0.53
   0   3  -2    0.38    1.12
   0  -3  -2    0.12    0.95
   0   3  -1 1691.55   27.87
   0  -3  -1 1686.54   28.55
   0  -3   0    0.85    0.75
   0   3   0    2.78    1.69
   0  -3   0    0.42    1.43
   0  -3   1 1797.81   19.43
   0  -3   1 1817.83   28.07
   0   3   2    0.44    0.90
   0  -3   2    0.24    0.29
   0  -3   2   -0.31    0.46
   0   3   3  830.35   20.30
   0  -3   3  875.90   18.67
   0  -3   3  822.05   11.98
   0  -3   4   -0.01    0.37
   0   3   4   -0.64    0.74
   0  -3   4   -0.04    0.56
   0   3   5  612.86   17.85
   0  -3   5  601.43   14.95
   0   3   6    0.26    0.82
   0  -3   6    0.38    0.56
   0  -3   7   18.17    2.41
   0   3   7   16.67    3.18
   0  -3   8   -0.06    0.73
   0   3   8   -0.26    0.89
   0  -3   9 2981.97   30.03
   0   3   9 3024.01   42.26
   0   3  10    1.63    0.89
   0  -3  10   -0.56    0.73
   0   3  11  147.10    9.59
   0  -3  11  152.87    6.53
   0  -3  12   -0.04    0.52
   0   3  12    0.21    0.73
   0  -3  13  143.73    6.08
   0   3  13  147.09    9.97
   0   3  13  151.57   11.01
   0   3  14    1.80    1.50
   0  -3  14    0.60    0.74
   0   3  14   -0.14    0.94
   0   3  15  118.01    9.97
   0   3  15   99.89    8.54
   0   3  16   -0.36    1.38
   0   3  16   -0.03    2.33
   0   3  17   49.06    6.33
   0   3  17   45.32    6.48
   0   3  18    1.00    2.11
   0   3  18    0.46    2.03
   0   3  19  140.79   11.01
   0   3  19  154.21   12.60
   0   3  20   -0.13    2.26
   0   3  21   97.87   10.13
   0   3  22    1.46    2.29
   0   3  23    3.58    2.50
   0  -4 -29   -0.79    2.68
   0  -4 -28    4.83    2.69
   0  -4 -27   -0.20    1.77
   0  -4 -26   64.76    9.45
   0  -4 -25    1.52    3.21
   0  -4 -24    0.92    1.88
   0  -4 -23    0.44    1.68
   0  -4 -22  343.06   20.96
   0  -4 -21   -3.41    2.59
   0  -4 -20   39.89    7.09
   0  -4 -19    2.17    3.33
   0  -4 -18  200.30   15.00
   0  -4 -17    4.01    3.08
   0  -4 -16  892.63   29.93
   0  -4 -15    3.23    3.33
   0  -4 -14  181.62   13.20
   0  -4 -13   -4.66    3.39
   0   4 -13   -0.20    1.56
   0  -4 -12  840.71   26.87
   0   4 -12  840.13   22.14
   0   4 -11    1.68    1.70
   0  -4 -11   -0.97    2.27
   0  -4 -10 2251.20   43.47
   0   4 -10 2187.57   36.38
   0  -4 -10 2154.10   41.46
   0  -4  -9    0.16    1.03
   0  -4  -9   -0.80    1.52
   0   4  -9    0.99    1.92
   0   4  -8  630.26   19.39
   0  -4  -8  612.72   21.95
   0  -4  -8  581.63   20.14
   0  -4  -7   -0.90    1.60
   0  -4  -7    0.90    1.20
   0   4  -7    0.01    1.20
   0  -4  -6 1112.27   28.72
   0  -4  -6 1094.80   25.40
   0   4  -6 1090.61   25.67
   0  -4  -5    1.28    1.86
   0  -4  -5    0.17    1.23
   0   4  -5    0.44    1.61
   0  -4  -4 2270.09   34.01
   0  -4  -4 2167.51   38.68
   0   4  -4 2178.05   36.46
   0  -4  -3    0.32    0.96
   0   4  -3    1.71    1.50
   0  -4  -3    0.61    0.95
   0  -4  -2  618.46   19.87
   0   4  -2  646.20   19.91
   0  -4  -2  580.24   15.74
   0  -4  -1   -0.19    0.74
   0   4  -1   -1.03    1.09
   0  -4  -1    0.92    0.98
   0  -4   0  349.42   10.63
   0   4   0  307.97   13.80
   0  -4   0  322.10   14.11
   0  -4   1   -0.31    1.11
   0   4   1   -0.48    1.52
   0  -4   1    1.16    0.89
   0  -4   2  621.90   12.47
   0   4   2  604.35   19.79
   0  -4   3    0.54    1.17
   0   4   3    0.66    1.17
   0  -4   3    1.15    0.88
   0  -4   4 2176.56   21.75
   0  -4   4 2124.80   34.29
   0   4   4 2197.43   38.01
   0   4   5    1.03    1.53
   0  -4   5    0.65    0.73
   0  -4   5    1.06    1.36
   0   4   6 1137.87   28.05
   0  -4   6 1121.91   23.77
   0  -4   6 1125.56   16.34
   0  -4   7   -0.60    0.94
   0   4   7    0.14    0.90
   0   4   8  597.42   20.82
   0  -4   8  601.66   16.81
   0   4   9    2.09    2.17
   0  -4   9    0.16    0.71
   0   4  10 2222.85   40.97
   0  -4  10 2287.31   31.32
   0   4  11    0.71    1.87
   0  -4  11    0.84    1.00
   0   4  12  841.99   26.02
   0   4  13   -1.63    1.61
   0  -4  13    2.23    1.60
   0   4  14  175.83   12.20
   0   4  14  195.49   13.85
   0   4  15   -1.13    1.33
   0   4  15    1.47    1.93
   0   4  16  926.01   30.69
   0   4  16  870.10   28.46
   0   4  17   -1.21    2.48
   0   4  17   -0.20    2.03
   0   4  18  225.30   15.79
   0   4  18  213.10   14.43
   0   4  19    0.42    1.32
   0   4  19    1.92    1.67
   0   4  20   41.39    7.35
   0   4  20   40.36    7.12
   0   4  21    4.91    3.24
   0   4  22  307.65   19.89
   0   4  23   -0.37    1.89
   0   4  24    6.00    3.66
   0  -5 -28   -1.06    2.16
   0  -5 -27    4.97    3.75
   0  -5 -26    1.59    2.65
   0  -5 -25    4.82    3.35
   0  -5 -24   -1.24    3.45
   0  -5 -23   22.46    6.09
   0  -5 -22   -3.50    3.21
   0  -5 -21    6.89    4.99
   0  -5 -20    0.44    1.86
   0  -5 -19    6.32    3.14
   0  -5 -18    0.48    2.17
   0  -5 -17    8.42    3.70
   0  -5 -16    1.37    2.67
   0  -5 -15   16.73    4.00
   0  -5 -14   -0.81    2.42
   0   5 -13   47.28    5.83
   0  -5 -13   56.35    7.43
   0  -5 -12   -1.22    1.58
   0   5 -12    0.25    1.14
   0  -5 -11   18.07    4.50
   0   5 -11   12.78    3.55
   0   5 -10   -2.63    1.48
   0  -5 -10    0.46    1.86
   0  -5 -10    0.84    2.36
   0   5  -9    1.62    0.98
   0  -5  -9   -1.12    1.54
   0   5  -8    0.84    1.39
   0  -5  -8    1.37    2.35
   0  -5  -8   -0.31    1.70
   0  -5  -7  146.39   10.23
   0  -5  -7  145.69   11.27
   0   5  -7  121.66    9.65
   0  -5  -6   -0.17    2.01
   0  -5  -6   -1.18    1.40
   0   5  -6   -0.22    1.03
   0   5  -5  188.73   11.76
   0  -5  -5  170.20   11.93
   0  -5  -5  163.82   10.24
   0  -5  -4   -0.42    1.73
   0  -5  -4   -0.02    0.87
   0   5  -4    0.68    2.02
   0  -5  -3  203.68   10.91
   0   5  -3  204.09   12.54
   0  -5  -3  194.49   12.48
   0   5  -2   -1.01    1.75
   0  -5  -2   -0.13    1.80
   0  -5  -2    1.85    1.20
   0   5  -1   41.21    5.71
   0  -5  -1   54.20    5.06
   0  -5  -1   55.55    6.47
   0   5   0    2.85    1.94
   0  -5   0    0.16    0.83
   0  -5   0   -1.34    1.74
   0  -5   1   51.69    6.10
   0  -5   1   58.81    4.80
   0   5   1   48.39    6.02
   0  -5   2    1.26    1.14
   0  -5   2    0.24    0.99
   0   5   2    0.15    1.89
   0   5   3  193.96   12.41
   0  -5   3  210.66    7.85
   0  -5   3  195.07   11.77
   0  -5   4   -0.36    1.30
   0  -5   4    0.15    0.80
   0   5   4   -0.16    1.54
   0   5   5  166.34   12.20
   0  -5   5  168.33   10.73
   0  -5   5  179.77    6.52
   0  -5   6   -0.27    0.58
   0  -5   6    0.57    1.52
   0   5   6    1.74    1.06
   0  -5   7  120.35    8.73
   0  -5   7  118.22    5.58
   0   5   7  139.62   10.89
   0  -5   8   -0.59    1.20
   0  -5   8   -0.79    0.84
   0   5   8    1.30    1.10
   0  -5   9    2.40    1.50
   0  -5   9    0.91    0.74
   0  -5  10   -0.44    0.64
   0  -5  10    0.92    1.72
   0   5  10   -2.26    2.95
   0  -5  11   19.62    3.65
   0   5  11   20.67    4.44
   0   5  12   -0.60    2.39
   0  -5  12    0.71    1.29
   0   5  13   39.07    6.16
   0   5  14    0.30    1.80
   0   5  15   13.27    4.31
   0   5  15   23.49    5.12
   0   5  16    1.93    2.57
   0   5  16    1.62    2.09
   0   5  17    5.89    3.28
   0   5  17   12.40    3.84
   0   5  18    0.43    1.94
   0   5  18    0.20    2.12
   0   5  19    7.43    3.32
   0   5  19    4.36    1.76
   0   5  20    1.11    2.22
   0   5  20   -3.31    2.71
   0   5  21    1.03    1.68
   0   5  22    2.51    3.74
   0   5  23   21.99    5.89
   0   5  24    0.84    2.89
   0   5  25    6.36    3.58
   0  -6 -26   98.31   12.30
   0  -6 -25   -0.93    2.08
   0  -6 -24   27.07    6.57
   0  -6 -23   -2.26    3.53
   0  -6 -22  195.05   16.87
   0  -6 -21   -2.19    2.36
   0  -6 -20   98.83   11.27
   0  -6 -19    4.77    2.68
   0  -6 -18    4.31    3.20
   0  -6 -17    1.39    2.42
   0  -6 -16  246.26   16.90
   0  -6 -15   -1.31    2.78
   0  -6 -14   17.00    4.58
   0  -6 -13    3.48    3.72
   0   6 -13   -4.00    2.04
   0   6 -12  318.02   17.23
   0  -6 -12  250.97   16.15
   0  -6 -11   -2.01    2.77
   0   6 -11    2.09    2.50
   0  -6 -10  374.41   20.13
   0   6 -10  382.37   18.91
   0  -6 -10  364.55   18.67
   0  -6  -9    1.77    1.77
   0  -6  -9    0.03    2.51
   0   6  -9    3.83    2.28
   0  -6  -8   39.35    5.77
   0  -6  -8   51.65    7.65
   0   6  -8   45.81    6.80
   0  -6  -7    0.18    1.57
   0   6  -7    1.12    2.12
   0  -6  -7    2.60    2.64
   0  -6  -6 2280.97   47.90
   0   6  -6 2210.80   44.81
   0  -6  -6 2220.66   41.81
   0  -6  -5    0.13    1.32
   0  -6  -5   -2.13    1.62
   0  -6  -4  996.24   31.04
   0  -6  -4  954.91   25.54
   0   6  -4  955.19   29.57
   0  -6  -3    0.33    2.72
   0   6  -3    1.15    2.71
   0  -6  -3   -0.10    0.81
   0  -6  -2 1687.43   39.50
   0  -6  -2 1582.86   30.49
   0   6  -2 1626.87   38.88
   0  -6  -1    1.34    1.03
   0   6  -1    1.06    2.08
   0  -6  -1    3.15    2.33
   0   6   0 1262.86   34.01
   0  -6   0 1189.34   32.55
   0  -6   0 1172.71   24.79
   0  -6   1    0.65    1.05
   0  -6   1    1.42    2.80
   0   6   1    5.80    3.41
   0  -6   2 1727.95   26.37
   0  -6   2 1745.89   38.62
   0  -6   3    0.21    1.26
   0  -6   3    1.56    1.63
   0   6   3    0.67    3.09
   0   6   4  959.09   30.33
   0  -6   4  994.71   29.29
   0  -6   5    0.39    0.99
   0  -6   5    1.08    2.36
   0   6   5    4.47    3.67
   0  -6   6 2332.41   43.23
   0   6   6 2355.64   48.15
   0  -6   7    3.28    2.82
   0   6   7    1.83    1.49
   0   6   8   56.84    7.45
   0  -6   8   47.87    6.24
   0   6   9    1.81    1.72
   0  -6   9    2.02    1.74
   0   6  10  395.23   20.24
   0  -6  10  367.15   16.89
   0  -6  11   -0.86    1.22
   0   6  11    3.58    3.35
   0   6  12  299.02   17.84
   0   6  13    3.00    2.93
   0   6  14   11.41    3.74
   0   6  15    2.50    4.07
   0   6  15    4.26    3.19
   0   6  16  222.98   16.61
   0   6  16  200.51   15.70
   0   6  17    0.21    3.30
   0   6  17    0.05    1.88
   0   6  18    8.15    4.43
   0   6  18    7.06    3.18
   0   6  19    2.96    2.97
   0   6  19    0.68    2.51
   0   6  20  100.33   11.92
   0   6  20  104.43   11.99
   0   6  21   -1.35    3.29
   0   6  21    0.36    3.00
   0   6  22  209.97   17.78
   0   6  23    1.51    2.83
   0   6  24   27.00    7.00
   0   6  25   -2.57    2.50
   0   6  26   71.70   11.26
   0  -7 -25   12.90    5.51
   0  -7 -24   -0.18    2.68
   0  -7 -23    7.30    3.72
   0  -7 -22   -0.15    2.84
   0  -7 -21   17.88    5.66
   0  -7 -20    0.23    2.74
   0  -7 -19   31.28    6.63
   0  -7 -18   -0.19    2.96
   0  -7 -17    2.08    2.67
   0  -7 -16   -2.86    2.78
   0  -7 -15   33.71    6.42
   0  -7 -14    0.86    2.38
   0  -7 -13   29.93    5.70
   0   7 -12   -0.92    1.77
   0  -7 -12    1.40    2.93
   0  -7 -11   14.49    4.09
   0   7 -11   17.79    4.20
   0   7 -10    0.52    2.24
   0  -7 -10    1.70    2.60
   0  -7  -9  167.87   14.02
   0   7  -9  161.27   13.29
   0  -7  -9  160.34   12.62
   0  -7  -8    1.87    3.08
   0   7  -8    0.37    1.43
   0  -7  -8    0.49    1.65
   0  -7  -7  785.98   30.04
   0   7  -7  784.70   29.29
   0  -7  -7  754.69   26.59
   0   7  -6    3.01    2.70
   0  -7  -6    3.32    3.87
   0  -7  -6    1.94    2.45
   0   7  -5  476.04   22.74
   0  -7  -5  465.25   22.94
   0  -7  -5  501.98   20.50
   0  -7  -4   -1.18    2.69
   0   7  -4   -1.59    2.44
   0  -7  -4   -0.75    1.46
   0   7  -3   56.88    7.53
   0  -7  -3   62.52    8.09
   0  -7  -3   49.96    6.51
   0  -7  -2    1.53    2.01
   0  -7  -2    0.20    1.76
   0   7  -2    0.61    2.73
   0  -7  -1 1555.38   31.64
   0   7  -1 1577.67   41.04
   0  -7  -1 1497.71   39.80
   0  -7   0    0.67    2.06
   0  -7   0    1.93    3.05
   0   7   0    2.49    4.77
   0   7   1 1512.78   40.45
   0  -7   1 1540.41   39.72
   0  -7   2   -0.66    1.25
   0   7   2   -0.68    3.27
   0   7   3   53.81    8.11
   0  -7   3   51.43    7.11
   0  -7   4    4.34    2.59
   0   7   4   -1.46    2.33
   0   7   5  419.37   21.66
   0  -7   5  459.57   21.10
   0  -7   6   -1.04    1.48
   0   7   6    0.37    3.82
   0   7   7  760.22   29.38
   0  -7   7  788.57   27.74
   0  -7   8    2.64    2.41
   0   7   8    4.91    2.31
   0  -7   9  147.12   11.69
   0   7   9  198.80   14.92
   0   7  10    0.20    2.25
   0  -7  10    0.93    1.54
   0   7  11   21.55    5.68
   0   7  12    0.63    2.31
   0   7  13   43.75    7.33
   0   7  14    2.28    2.74
   0   7  15   34.70    6.91
   0   7  15   40.07    7.68
   0   7  16   -1.55    1.62
   0   7  16   -4.06    3.86
   0   7  17    2.36    1.50
   0   7  17    6.63    3.59
   0   7  18    1.99    2.33
   0   7  18    1.23    3.68
   0   7  19    7.69    4.01
   0   7  19   27.97    6.68
   0   7  20   -1.31    2.18
   0   7  20    2.83    3.53
   0   7  21    8.79    4.81
   0   7  21   14.66    5.38
   0   7  22    1.07    2.69
   0   7  23    5.56    2.98
   0   7  24    0.54    3.14
   0   7  25   15.93    4.76
   0  -8 -22   23.38    6.42
   0  -8 -21   -0.20    2.51
   0  -8 -20   41.24    8.37
   0  -8 -19   -1.75    3.19
   0  -8 -18   -3.55    4.03
   0  -8 -17    1.54    3.63
   0  -8 -16   51.79    8.71
   0  -8 -15    2.70    2.75
   0  -8 -14    3.91    2.38
   0  -8 -13    0.21    1.65
   0   8 -12   23.37    6.68
   0  -8 -12   16.53    4.27
   0   8 -11    1.01    3.15
   0  -8 -11   -1.50    3.09
   0   8 -10   68.60    9.57
   0  -8 -10   65.06    8.82
   0   8  -9    1.23    2.39
   0  -8  -9   -3.42    3.24
   0  -8  -8    2.28    3.13
   0   8  -8    0.13    2.02
   0  -8  -7    2.18    2.16
   0  -8  -7    0.04    2.00
   0   8  -7    0.88    2.44
   0   8  -6  144.95   13.70
   0  -8  -6  165.51   14.70
   0  -8  -6  147.01   12.55
   0  -8  -5   -1.68    2.41
   0   8  -5   -2.96    3.12
   0  -8  -5   -0.16    1.69
   0   8  -4   80.08   10.21
   0  -8  -4   74.63    9.73
   0  -8  -4   61.09    7.95
   0  -8  -3    5.29    3.24
   0   8  -3    0.45    1.47
   0   8  -2   84.63   10.42
   0  -8  -2   74.23    9.29
   0  -8  -1   -1.15    1.48
   0   8  -1    2.47    2.04
   0   8   0  145.53   13.35
   0  -8   0  143.26   12.97
   0   8   1   -0.41    1.67
   0  -8   1   -1.15    1.57
   0   8   2   73.50    9.70
   0  -8   2   81.57    9.68
   0  -8   3    1.12    2.41
   0   8   3   -0.32    1.88
   0  -8   4   72.26    9.31
   0   8   4   69.34    9.20
   0  -8   5    4.88    3.45
   0   8   5    3.04    2.90
   0   8   6  154.62   13.62
   0  -8   6  162.03   13.65
   0  -8   7    5.57    3.63
   0   8   7   -0.42    1.93
   0   8   8    2.97    3.52
   0  -8   8    0.83    3.48
   0  -8   9    1.13    2.47
   0   8   9   -1.42    2.20
   0   8  10   68.56    9.21
   0   8  11   -1.51    2.20
   0   8  12   15.59    4.80
   0   8  13    4.79    3.23
   0   8  14   12.37    4.11
   0   8  14   12.61    4.36
   0   8  15    3.23    3.96
   0   8  15    3.68    2.38
   0   8  16   40.37    7.63
   0   8  16   35.17    6.97
   0   8  17   -1.53    4.23
   0   8  17    5.55    3.86
   0   8  18   -2.65    2.95
   0   8  18    1.52    2.55
   0   8  19   -0.55    2.19
   0   8  19    2.89    3.35
   0   8  20   22.42    5.70
   0   8  20   32.70    7.35
   0   8  21   -6.60    4.79
   0   8  21    2.92    3.92
   0   8  22   27.60    7.62
   0  -9 -20    5.41    3.93
   0  -9 -19    1.54    2.59
   0  -9 -18   -0.87    3.16
   0  -9 -17   17.73    5.88
   0  -9 -16   -2.38    3.72
   0  -9 -15    4.47    2.66
   0  -9 -14   -3.65    4.84
   0  -9 -13   -2.62    4.03
   0  -9 -12    2.19    2.76
   0   9 -11   12.81    5.25
   0  -9 -11   25.66    5.34
   0  -9 -10    1.78    2.46
   0   9 -10    4.29    4.15
   0   9  -9   33.18    6.90
   0   9  -8    0.03    2.95
   0   9  -7   12.72    4.62
   0   9  -6   -2.80    2.86
   0   9  -5    9.40    3.90
   0  -9  -5   -0.44    2.34
   0  -9  -4   -0.96    1.87
   0   9  -4   -1.81    2.34
   0  -9  -3   46.67    8.06
   0   9  -3   38.23    6.85
   0  -9  -2    0.90    2.30
   0   9  -2   -0.79    2.52
   0  -9  -1    7.82    3.58
   0   9  -1    6.81    3.29
   0  -9   0    3.93    2.96
   0   9   0    0.65    2.34
   0   9   1    6.00    3.73
   0  -9   1    9.80    3.98
   0  -9   2   -0.93    3.10
   0   9   2   -3.08    2.47
   0  -9   3   31.96    6.98
   0   9   3   37.03    6.83
   0  -9   4   -1.85    1.85
   0   9   4   -2.74    2.16
   0  -9   5    0.01    2.52
   0   9   5    1.35    1.99
   0  -9   6   -0.47    2.25
   0   9   6    0.13    2.46
   0  -9   7   13.41    4.47
   0   9   7   13.54    5.45
   0   9   8   -1.26    2.31
   0  -9   8    4.51    3.81
   0   9   9   23.43    5.98
   0   9  10   -0.54    2.98
   0   9  11   35.00    6.93
   0   9  12   -3.15    3.25
   0   9  13    2.49    2.89
   0   9  13    1.99    3.08
   0   9  14   -2.02    3.35
   0   9  14    0.95    2.70
   0   9  15   -3.21    3.52
   0   9  15    5.35    4.15
   0   9  16    2.88    4.84
   0   9  16    1.62    2.03
   0   9  17   17.76    5.95
   0   9  17   22.10    6.05
   0   9  18    0.70    3.30
   0   9  18   -0.25    2.33
   0   9  19    5.91    2.52
   0   9  19    0.69    3.12
   0   9  20    1.95    2.18
   0   9  20    6.85    5.29
   0  10 -10   44.59    9.43
   0  10  -9    8.41    4.73
   0  10  -8    1.55    1.63
   0  10  -7   -3.89    3.57
   0  10  -6   94.93   12.00
   0  10  -5   -1.11    2.20
   0  10  -4   38.35    7.31
   0  10  -3    1.50    4.32
   0  10  -2   30.56    7.36
   0  10  -1    3.18    3.72
   0 -10  -1    2.13    2.32
   0 -10   0  108.82   13.05
   0  10   0  119.67   13.59
   0 -10   1    1.24    4.05
   0  10   1   -0.99    2.11
   0  10   2   29.80    6.92
   0 -10   2   36.70    7.59
   0 -10   3   -0.76    2.87
   0  10   3   -2.06    2.14
   0  10   4   41.30    7.75
   0 -10   4   51.95    8.70
   0  10   5   -0.22    1.86
   0 -10   5    3.56    3.70
   0 -10   6   92.13   11.67
   0  10   6  102.33   11.93
   0  10   7    1.63    2.57
   0  10   8   -0.21    2.25
   0  10   9    2.44    3.49
   0  10  10   66.68   10.24
   0  10  11    3.36    3.52
   0  10  11   -0.17    2.38
   0  10  12   32.03    6.93
   0  10  12   25.59    6.30
   0  10  13    1.39    3.30
   0  10  13   -0.06    2.34
   0  10  14    6.03    3.25
   0  10  14    1.43    2.22
   0  10  15   -2.28    3.35
   0  10  15    6.81    5.13
   0  10  16   39.08    7.99
   0  10  16   19.23    5.64
   0  11  -9    1.91    3.64
   0  11  -8    2.76    3.44
   0  11  -7    5.24    4.82
   0  11  -6   -6.45    5.20
   0  11  -5    4.23    3.68
   0  11  -4    0.03    2.76
   0  11  -3   17.17    5.27
   0  11  -2   -0.35    2.95
   0  11  -1    2.06    2.71
   0  11   0    9.31    5.58
   0  11   1    0.59    2.16
   0  11   2   -5.89    4.63
   0  11   3   13.97    5.63
   0  11   4    0.79    3.20
   0  11   5   -2.68    3.41
   0  11   6    0.55    2.90
   0  11   7   -1.80    2.75
   0  11   8   -0.42    2.38
   0  11   8    4.69    4.48
   0  11   9    2.24    4.60
   0  11   9   15.64    5.02
   0  11  10    4.43    3.79
   0  11  10   -0.17    2.25
   1   0 -31   -1.30    2.13
   1   0 -30   -0.64    1.97
   1   0 -29    7.89    3.89
   1   0 -28    4.39    3.30
   1   0 -27    1.35    2.07
  -1   0 -26    1.86    1.60
   1   0 -26    3.68    3.22
   1   0 -25   -2.08    2.71
  -1   0 -25   -0.82    2.24
   1   0 -24    1.24    2.66
  -1   0 -24    1.65    2.71
   1   0 -23    2.57    2.65
  -1   0 -23    1.94    2.29
  -1   0 -22   -1.25    2.74
   1   0 -22   -0.24    2.57
   1   0 -21   -2.32    1.26
  -1   0 -21   -3.60    2.81
  -1   0 -20   -1.65    2.05
   1   0 -20    2.15    2.33
   1   0 -19    0.14    1.87
  -1   0 -19   -0.58    1.58
   1   0 -18   -0.03    1.56
  -1   0 -18    0.75    1.51
  -1   0 -17   -0.87    1.44
   1   0 -17    3.77    2.50
  -1   0 -16    1.35    1.05
   1   0 -16    0.17    2.00
   1   0 -15   -1.14    1.28
  -1   0 -15    0.17    1.13
  -1   0 -14   -0.05    0.90
   1   0 -14    0.16    1.44
   1   0 -13    0.02    0.94
  -1   0 -13   -0.72    0.99
  -1   0 -12    1.12    2.04
   1   0 -12   -0.45    0.91
  -1   0 -11    1.38    1.69
   1   0 -11   -0.45    0.91
   1   0 -10    0.00    0.90
  -1   0 -10   -0.15    0.90
   1   0  -9    1.45    1.43
  -1   0  -9    0.33    0.97
  -1   0  -8   -0.55    1.17
   1   0  -8   -0.84    1.01
   1   0  -7    0.60    0.66
  -1   0  -7   -0.04    0.48
   1   0  -6    0.28    0.52
   1   0  -6    0.22    0.81
  -1   0  -6    1.49    1.11
   1   0  -5    0.13    0.23
  -1   0  -5    0.45    0.76
   1   0  -5    0.81    1.00
   1   0  -4    0.40    0.69
   1   0  -4    0.13    0.41
  -1   0  -4   -0.13    0.33
  -1   0  -3    0.00    0.34
   1   0  -3    0.00    0.23
   1   0  -3    0.17    0.24
   1   0  -2    0.21    0.30
   1   0  -2    0.12    0.20
   1   0  -1   -0.04    0.17
   1   0   1   -0.13    0.19
   1   0   2   -0.02    0.18
   1   0   3   -0.07    0.32
   1   0   4    0.17    0.61
   1   0   5    1.50    0.79
   1   0   6   -0.02    0.43
   1   0   7   -0.27    0.57
  -1   0   8    0.84    0.51
   1   0   8    0.01    0.30
   1   0   8    0.35    0.47
   1   0   9    0.64    0.45
  -1   0   9   -0.37    0.62
   1   0   9    0.02    0.22
   1   0  10    0.49    0.33
  -1   0  10    0.22    0.53
   1   0  10    0.07    0.58
  -1   0  11    0.37    0.56
   1   0  11    0.13    0.33
   1   0  11    0.11    0.74
   1   0  12    0.34    0.48
  -1   0  12    0.39    0.79
   1   0  12    0.10    1.06
   1   0  13   -0.46    0.36
  -1   0  13   -0.06    0.68
   1   0  13   -0.02    1.23
   1   0  14   -0.29    0.63
   1   0  14   -0.40    0.53
  -1   0  14   -0.72    0.79
  -1   0  15    1.07    0.70
   1   0  15    0.42    0.28
   1   0  15    0.33    1.25
   1   0  16   -0.66    0.49
   1   0  16    0.10    1.18
  -1   0  16   -0.16    0.89
  -1   0  17   -0.72    0.94
   1   0  17    0.96    1.50
   1   0  18    0.56    0.80
  -1   0  18    0.02    1.04
   1   0  19    1.26    1.34
   1  -1 -31   11.48    5.14
   1  -1 -30   36.23    7.37
  -1  -1 -29   81.56   10.95
   1  -1 -29   67.90    9.67
   1  -1 -28   31.89    6.92
  -1  -1 -28   28.38    6.10
   1   1 -28   30.22    7.52
   1   1 -27    2.63    1.87
   1  -1 -27    6.83    3.66
  -1  -1 -27    6.11    2.82
   1  -1 -26  128.19   13.30
  -1  -1 -26  134.40   13.53
   1   1 -26  109.22   12.40
   1   1 -25  119.91   12.71
  -1  -1 -25  122.14   12.50
   1  -1 -25  103.68   11.72
   1  -1 -24    5.31    4.31
  -1  -1 -24    0.41    2.00
   1   1 -24    2.26    3.45
   1  -1 -23   69.69    9.09
   1   1 -23   83.37    9.97
  -1  -1 -23   82.49    9.84
  -1   1 -22   59.74    8.47
   1   1 -22   56.21    7.90
   1  -1 -22   74.88    9.60
  -1  -1 -22   56.98    8.84
  -1   1 -21   10.28    4.24
   1  -1 -21    9.33    3.60
  -1  -1 -21    6.87    3.85
   1   1 -21   11.38    3.79
   1   1 -20  112.04   10.54
  -1   1 -20  115.49   10.73
   1  -1 -20  130.98   12.03
  -1  -1 -20  126.26   11.56
   1  -1 -19  161.45   12.96
  -1  -1 -19  169.77   13.29
  -1   1 -19  168.81   12.92
   1   1 -19  162.69   12.42
   1   1 -18   36.15    5.70
  -1  -1 -18   38.69    5.97
   1  -1 -18   47.67    6.76
  -1   1 -18   34.64    5.79
  -1   1 -17  163.85   11.98
   1  -1 -17  142.31   11.35
  -1  -1 -17  159.07   12.21
   1   1 -17  148.52   11.32
   1   1 -16  278.27   14.76
  -1   1 -16  280.04   15.25
   1  -1 -16  263.92   15.16
  -1  -1 -16  246.50   14.81
   1  -1 -15   18.22    4.13
  -1  -1 -15   17.32    4.16
   1   1 -15   16.91    3.54
  -1   1 -15   18.87    3.77
   1  -1 -14  130.01   10.08
  -1   1 -14  123.65    9.43
  -1  -1 -14  104.97    9.11
   1   1 -14  118.90    8.97
   1   1 -13  563.99   18.90
   1  -1 -13  601.04   21.21
  -1   1 -13  586.71   19.79
  -1  -1 -13  586.73   20.89
  -1   1 -12 1280.63   28.11
   1   1 -12 1267.31   27.20
  -1  -1 -12 1256.13   29.18
   1  -1 -12 1281.12   29.58
  -1   1 -11  451.26   15.88
   1  -1 -11  473.85   17.53
  -1  -1 -11  450.10   17.09
   1   1 -11  441.14   15.17
   1   1 -10  767.69   18.86
  -1   1 -10  756.88   19.67
  -1  -1 -10  756.33   21.00
   1   1 -10  809.92   15.08
   1  -1 -10  780.95   21.63
  -1   1  -9  952.61   20.86
  -1  -1  -9  984.28   22.73
   1   1  -9  976.53   16.05
   1  -1  -9  959.12   19.51
   1  -1  -9  977.86   22.91
   1   1  -9 1017.88   20.40
   1   1  -8  622.20   15.02
  -1   1  -8  630.55   16.05
  -1  -1  -8  682.90   18.19
   1  -1  -8  668.69   17.91
   1  -1  -8  656.65   15.46
   1   1  -8  657.71   12.86
   1   1  -7  888.60   16.49
  -1  -1  -7  925.14   19.89
   1  -1  -7  904.58   17.61
   1   1  -7  902.55   14.48
  -1  -1  -6 1678.13   25.19
   1   1  -6 1718.51   20.83
   1  -1  -6 1700.51   26.00
   1  -1  -6 1648.85   23.23
   1   1  -6 1730.14   19.60
   1  -1  -5  909.38   17.96
   1   1  -5  901.50   13.35
   1  -1  -5  919.61   16.54
   1   1  -5  899.63   13.86
  -1  -1  -5  887.48   17.05
   1   1  -4 2747.15   20.13
   1   1  -4 2733.36   23.84
   1  -1  -4 2702.03   28.84
  -1  -1  -4 2777.67   27.73
  -1   1  -4 2809.25   17.20
   1  -1  -4 2783.68   27.39
   1   1  -3 2179.79   20.44
   1  -1  -3 2131.49   23.53
   1  -1  -3 2166.27   23.08
  -1   1  -3 2165.09   16.20
   1   1  -3 2198.84   14.09
  -1  -1  -3 2153.58   22.22
  -1  -1  -2   75.84    3.65
   1   1  -2   73.75    2.73
   1  -1  -2   68.53    3.95
   1   1  -2   71.98    3.66
   1  -1  -2   67.21    3.92
   1   1  -1 3200.27   24.74
   1  -1  -1 3262.14   25.90
   1   1  -1 3230.27   20.66
   1  -1  -1 3218.06   24.78
  -1  -1  -1 3253.73   20.16
   1  -1   1 3388.90   24.89
   1   1   1 3317.92   25.10
   1   1   1 3335.07   25.13
   1  -1   2   73.02    3.60
   1   1   2   71.72    3.68
   1   1   2   71.26    3.90
   1  -1   3 2119.34   19.88
   1   1   3 2185.80   23.34
   1   1   3 2168.91   20.86
   1  -1   4 2741.36   22.54
   1   1   4 2766.83   27.78
   1   1   4 2765.37   24.17
   1  -1   5  896.64   13.16
   1   1   5  857.09   13.87
   1   1   5  896.15   16.69
   1  -1   6 1685.14   18.93
   1   1   6 1741.35   24.19
   1   1   6 1708.61   19.66
   1   1   7  939.08   18.67
   1  -1   7  954.09   14.63
   1   1   7  939.24   15.04
   1   1   8  650.91   12.94
   1   1   8  653.39   16.42
   1  -1   8  677.66   12.94
   1  -1   9  917.42   15.90
   1   1   9  960.16   16.33
   1   1   9  953.99   20.36
   1   1  10  808.54   19.54
  -1  -1  10  761.95    9.65
   1   1  10  770.25   14.94
   1  -1  10  814.80   15.39
   1  -1  11  474.11   12.30
  -1  -1  11  433.16    8.01
   1   1  11  431.55   14.86
   1   1  11  447.29   11.73
   1   1  12 1294.65   26.09
  -1  -1  12 1253.03   14.85
   1   1  12 1287.80   20.30
   1  -1  12 1267.30   21.38
  -1   1  12 1275.26   24.66
   1  -1  13  610.53   15.21
  -1  -1  13  587.59   10.87
  -1   1  13  596.14   17.37
   1   1  13  612.53   18.53
   1   1  13  580.32   14.00
   1  -1  14  126.82    7.27
  -1  -1  14  126.21    5.35
  -1   1  14  113.95    7.84
   1   1  14  120.06    6.47
   1   1  14  110.27    8.26
  -1   1  15   14.22    2.98
   1  -1  15   16.43    2.79
   1   1  15   14.38    2.46
  -1  -1  15   13.49    1.92
   1   1  15   16.02    3.42
   1   1  16  276.26   13.68
  -1  -1  16  248.66    8.40
   1  -1  16  255.33   11.18
   1   1  16  252.21   10.17
  -1   1  16  275.39   12.99
  -1   1  17  162.78   10.23
   1  -1  17  132.29    8.25
   1   1  17  157.06   10.61
   1   1  17  130.48    7.31
  -1   1  18   36.60    5.00
   1  -1  18   37.41    4.91
   1   1  18   49.69    6.01
  -1   1  19  159.90   11.07
   1   1  19  163.00   11.30
   1   1  20  133.80   10.85
  -1   1  20  142.61   10.42
   1   1  21   10.54    2.39
   1  -2 -30   15.73    4.72
  -1  -2 -30   26.59    7.21
   1  -2 -29   11.23    4.09
  -1  -2 -29    2.98    2.69
   1  -2 -28   12.28    3.77
  -1  -2 -28   18.71    5.46
   1  -2 -27    8.49    4.19
  -1  -2 -27    5.73    2.96
  -1  -2 -26   11.10    4.37
   1  -2 -26    7.80    3.86
   1  -2 -25   20.29    6.12
  -1  -2 -25   25.97    5.91
   1   2 -24   17.62    5.48
  -1  -2 -24   19.72    5.25
   1  -2 -24   23.04    5.94
   1   2 -23   16.39    4.88
   1  -2 -23   13.65    4.49
  -1  -2 -23    7.86    3.60
   1  -2 -22   19.82    5.68
   1   2 -22   13.73    4.36
  -1  -2 -22   10.89    3.34
   1  -2 -21   18.45    4.70
  -1  -2 -21    8.52    3.54
   1   2 -21   15.15    3.59
  -1  -2 -20   67.98    8.79
   1   2 -20   69.53    8.56
   1  -2 -20   81.99    9.53
  -1  -2 -19   18.93    4.94
   1   2 -19   29.91    5.62
   1  -2 -19   36.65    6.16
   1  -2 -18   13.93    3.68
  -1  -2 -18   14.75    3.52
   1   2 -18   20.15    4.83
   1  -2 -17   37.82    6.04
  -1  -2 -17   40.01    6.43
   1   2 -17   24.53    4.87
   1  -2 -16   36.44    6.07
   1   2 -16   40.57    5.71
  -1  -2 -16   41.95    6.38
   1   2 -15   15.78    3.07
  -1  -2 -15   12.74    3.14
   1   2 -15   15.49    2.52
   1  -2 -15   15.92    4.10
  -1  -2 -14  113.54    9.49
   1   2 -14  116.14    8.74
   1   2 -14   94.95    6.13
   1  -2 -14  109.52    9.64
  -1  -2 -13   23.01    4.26
   1  -2 -13   13.95    3.56
   1   2 -13   24.67    3.93
  -1   2 -13   13.71    1.53
   1   2 -13   17.50    2.54
   1   2 -12    8.66    1.74
   1   2 -12    7.79    1.73
  -1   2 -12    7.25    1.18
  -1  -2 -12    6.69    2.28
   1  -2 -12   10.57    2.89
  -1  -2 -11    1.85    1.96
   1  -2 -11    5.19    1.89
   1   2 -11    2.42    1.54
   1   2 -11    2.28    1.13
   1  -2 -11    2.35    1.59
  -1   2 -11    1.22    0.42
   1   2 -10   46.28    4.17
  -1  -2 -10   48.84    5.53
   1  -2 -10   50.38    5.35
   1   2 -10   42.72    4.14
   1  -2 -10   41.15    5.15
  -1  -2  -9  187.76   10.52
   1  -2  -9  193.65   10.15
  -1   2  -9  185.14    6.38
   1  -2  -9  192.72   10.70
   1   2  -9  180.89    7.94
   1   2  -9  188.55    8.14
   1  -2  -8  121.94    8.28
   1   2  -8  127.63    6.68
  -1  -2  -8  120.87    8.00
  -1   2  -8  128.15    5.44
   1   2  -8  117.79    5.96
   1  -2  -8  120.85    7.96
   1   2  -7  186.39    7.88
   1  -2  -7  171.13    9.26
   1   2  -7  174.84    6.46
  -1  -2  -7  195.94    9.68
  -1   2  -7  176.50    6.57
   1  -2  -6  229.15   10.48
  -1   2  -6  218.57    7.36
   1   2  -6  218.01    6.43
   1   2  -6  218.45    8.42
  -1  -2  -6  230.90   10.08
   1  -2  -6  221.99   10.41
   1  -2  -5   36.66    4.02
   1   2  -5   33.71    3.40
  -1   2  -5   40.76    3.33
  -1  -2  -5   35.49    3.73
   1  -2  -5   28.18    3.72
  -1  -2  -4  166.75    7.58
  -1   2  -4  181.56    6.94
   1   2  -4  190.77    8.01
   1  -2  -4  174.29    8.37
   1  -2  -3 1407.09   23.67
   1   2  -3 1382.44   21.34
   1  -2  -3 1343.68   21.68
  -1   2  -3 1398.63   19.70
   1   2  -2 4528.29   38.62
  -1  -2  -2 4413.72   40.14
  -1   2  -2 4429.81   36.30
   1  -2  -2 4481.73   41.27
  -1  -2  -2 4438.69   32.26
  -1   2  -1 4488.40   37.30
   1  -2  -1 4704.96   35.49
   1   2  -1 4339.53   37.99
   1  -2  -1 4574.75   40.34
  -1  -2  -1 4558.63   38.46
  -1  -2  -1 4415.21   28.45
  -1   2   0 7533.88   48.39
   1  -2   0 7919.68   51.78
   1  -2   0 8074.99   44.35
  -1  -2   0 7867.29   48.49
   1   2   0 7413.27   50.33
  -1  -2   1 4399.84   34.72
   1   2   1 4415.02   38.89
   1  -2   1 4406.23   31.71
   1  -2   1 4387.42   37.85
  -1  -2   2 4543.92   33.31
   1  -2   2 4569.18   31.10
   1  -2   2 4553.55   36.86
  -1  -2   3 1370.59   17.26
   1   2   3 1447.82   22.57
  -1  -2   4  191.18    5.95
   1   2   4  170.55    7.92
   1  -2   4  174.30    7.00
   1   2   5   33.95    3.62
  -1  -2   5   33.97    2.37
   1   2   6  228.42    9.40
   1  -2   6  215.33    7.86
   1  -2   7  179.27    7.21
   1   2   7  179.23    8.40
   1   2   7  189.13    9.69
   1  -2   8  119.19    6.07
   1   2   8  129.44    7.38
   1   2   8  121.59    7.94
   1   2   9  186.84   10.21
   1  -2   9  195.25    7.55
   1   2   9  184.93    8.91
   1   2  10   52.73    4.75
   1   2  10   53.08    5.53
   1  -2  10   47.32    3.91
   1  -2  11    2.14    0.77
   1   2  11    3.09    1.99
   1   2  11    2.63    1.46
   1   2  12    8.19    2.71
   1  -2  12    8.29    1.76
   1  -2  13   19.16    2.54
   1   2  13   19.09    3.63
   1   2  13   16.36    2.87
   1   2  14  107.51    7.79
   1   2  14  111.21    8.75
  -1   2  14   94.19    8.08
   1  -2  14  105.40    6.24
  -1   2  15   13.92    3.46
   1   2  15   19.15    3.87
   1  -2  15   19.64    3.02
   1   2  15   18.14    3.46
   1   2  16   34.82    5.35
  -1   2  16   46.29    6.05
   1  -2  16   35.07    3.84
  -1   2  17   25.46    4.86
   1   2  17   37.61    5.65
  -1   2  17   39.20    4.90
   1   2  17   43.92    5.01
  -1   2  18    9.74    3.13
  -1   2  18   20.26    3.79
   1   2  18   16.52    3.23
   1   2  18   17.76    4.01
  -1   2  19   24.77    4.04
  -1   2  19   34.43    5.40
   1   2  19   37.10    6.02
   1   2  20   46.86    6.98
  -1   2  20   62.17    7.86
   1   2  21    6.89    2.39
  -1   2  21   17.87    4.67
   1   2  22   15.07    4.66
  -1  -3 -30   34.64    7.42
   1  -3 -30   22.57    5.89
  -1  -3 -29   36.98    8.10
   1  -3 -29   31.18    6.44
  -1  -3 -28    5.46    3.06
   1  -3 -28    5.95    2.78
   1  -3 -27    4.03    3.16
  -1  -3 -27    7.15    2.13
  -1  -3 -26   73.96   10.07
   1  -3 -26   88.27   10.49
   1  -3 -25   35.82    7.40
  -1  -3 -25   28.58    5.96
   1  -3 -24   34.22    6.75
  -1  -3 -24   16.45    5.43
   1  -3 -23   97.89   11.60
  -1  -3 -23   70.03    9.51
   1  -3 -22  152.47   13.75
  -1  -3 -22  145.82   13.51
   1  -3 -21   35.90    6.41
  -1  -3 -21   27.86    6.30
   1  -3 -20  187.06   14.23
  -1  -3 -20  184.68   14.71
   1  -3 -19  181.68   13.98
  -1  -3 -19  151.34   13.05
  -1  -3 -18   62.73    8.38
   1  -3 -18   60.91    8.32
  -1  -3 -17  223.73   15.09
   1  -3 -17  208.05   14.93
  -1  -3 -16  778.75   27.39
   1  -3 -16  849.51   28.95
   1  -3 -15   89.15    9.04
  -1  -3 -15   74.64    8.44
   1  -3 -14  612.30   23.94
   1   3 -14  578.57   17.12
  -1   3 -13  908.55   17.70
  -1  -3 -13  938.57   27.81
   1  -3 -13  880.88   27.21
   1   3 -13  929.62   21.28
  -1  -3 -12  393.60   17.70
   1   3 -12  394.30   14.03
   1  -3 -12  392.29   17.49
   1  -3 -12  364.99   17.41
  -1   3 -12  353.75   11.45
   1   3 -11  275.32   11.66
   1  -3 -11  274.82   14.56
  -1   3 -11  268.62    9.96
  -1  -3 -11  257.32   13.84
   1  -3 -11  267.32   13.99
   1  -3 -10 1316.79   30.72
   1   3 -10 1335.38   25.62
  -1  -3 -10 1436.52   31.64
  -1   3 -10 1405.07   23.20
   1  -3 -10 1361.53   31.23
   1   3  -9  329.53   12.69
  -1  -3  -9  342.57   14.94
   1  -3  -9  303.20   14.28
   1  -3  -9  316.43   14.83
  -1   3  -9  333.23   11.48
   1  -3  -8  217.52   11.97
   1   3  -8  180.32    9.30
  -1   3  -8  215.31    9.31
   1  -3  -8  207.02   11.53
  -1  -3  -8  199.52   10.90
  -1   3  -7  589.44   16.09
  -1  -3  -7  622.66   18.64
   1   3  -7  636.60   17.27
   1  -3  -7  638.57   19.44
   1  -3  -7  562.69   19.05
  -1   3  -6   80.61    5.86
  -1  -3  -6   84.47    6.63
   1   3  -6   85.68    6.24
   1  -3  -6   87.29    7.27
   1  -3  -6   86.24    6.96
  -1  -3  -5  349.67   12.65
   1   3  -5  313.02   12.13
  -1   3  -5  298.92   11.41
  -1  -3  -5  308.36   13.36
   1  -3  -5  316.88   13.76
   1  -3  -5  322.31   12.94
  -1  -3  -4 1004.43   23.51
  -1   3  -4 1007.88   20.88
   1  -3  -4 1065.71   22.27
   1   3  -4  998.19   21.81
  -1  -3  -4 1052.89   21.04
   1  -3  -4 1021.91   23.85
  -1  -3  -3  234.54   11.01
  -1  -3  -3  235.78    9.41
   1  -3  -3  232.66   10.02
  -1   3  -3  233.05   10.15
   1   3  -3  235.66   10.50
   1  -3  -3  243.09   11.48
   1   3  -2  239.49   10.81
   1  -3  -2  236.91   11.42
  -1  -3  -2  232.72    8.59
  -1  -3  -2  240.11   10.85
   1  -3  -2  238.96    9.60
  -1   3  -2  230.36   10.16
   1  -3  -1  966.54   18.68
  -1  -3  -1  957.57   21.37
  -1  -3  -1 1017.29   16.16
   1   3  -1 1027.09   22.43
   1  -3  -1  986.72   22.48
  -1   3  -1  974.55   21.10
  -1  -3   0 2005.62   29.87
   1  -3   0 1950.55   24.96
  -1   3   0 2048.83   31.02
   1  -3   0 2068.44   31.76
   1   3   0 2068.61   31.89
  -1  -3   0 1951.89   19.69
   1  -3   1  965.92   21.27
   1   3   1  971.39   22.00
  -1   3   1 1001.51   21.91
  -1  -3   1  973.59   20.43
  -1  -3   1 1023.69   12.00
   1  -3   1  988.72   17.34
  -1  -3   2  244.92    9.85
  -1   3   2  251.86   11.20
   1   3   2  251.46   11.35
   1  -3   2  245.41   10.48
   1  -3   2  259.50    8.52
  -1  -3   3  240.11    9.37
   1  -3   3  231.81   10.19
  -1   3   3  218.44   10.36
   1  -3   3  233.70    8.05
   1   3   3  214.48   10.48
  -1  -3   4 1047.08   18.88
  -1   3   4 1038.61   23.26
   1   3   4 1018.86   22.97
   1  -3   4 1013.43   20.65
   1  -3   4  960.93   16.58
  -1  -3   5  338.36   10.34
   1  -3   5  306.49   11.38
   1   3   5  314.73   12.85
  -1   3   5  322.71   12.94
  -1   3   6   69.62    6.15
  -1  -3   6   82.68    5.02
   1   3   6   83.55    6.62
  -1   3   7  666.86   19.29
  -1  -3   7  627.24   13.11
   1  -3   7  623.16   15.49
  -1  -3   8  198.01    6.99
   1   3   8  200.04   10.64
   1  -3   8  216.33    9.23
  -1   3   8  185.91   10.44
   1  -3   9  323.55   11.11
   1   3   9  330.94   14.05
   1   3   9  338.48   15.26
  -1   3   9  355.37   14.48
   1   3  10 1371.88   31.57
   1  -3  10 1344.15   22.45
   1   3  10 1376.12   28.95
   1   3  11  276.78   14.45
   1   3  11  253.60   12.61
  -1   3  11  246.23   12.58
   1  -3  11  265.08   10.05
   1   3  12  348.55   15.25
  -1   3  12  376.19   15.80
   1   3  12  346.76   16.28
  -1   3  13  933.84   25.32
   1  -3  13  859.80   18.23
   1   3  13  925.95   24.83
   1   3  13  917.79   27.51
   1   3  14  600.77   22.58
   1   3  14  569.16   20.34
   1  -3  14  601.70   15.54
  -1   3  14  614.85   20.92
   1   3  15   95.82    9.41
   1   3  15   79.25    7.60
  -1   3  15  100.34    8.69
  -1   3  15  101.14    9.30
   1   3  16  782.50   26.81
   1   3  16  759.31   23.69
  -1   3  16  715.39   23.68
  -1   3  16  763.76   26.32
   1   3  17  236.47   15.08
  -1   3  17  203.03   13.79
   1   3  17  223.61   13.03
  -1   3  17  205.38   13.13
  -1   3  18   63.53    7.77
  -1   3  18   75.20    7.97
   1   3  18   60.37    7.92
   1   3  18   65.53    7.27
   1   3  19  166.96   11.97
  -1   3  19  170.76   12.40
  -1   3  19  143.54   12.16
   1   3  19  169.28   13.24
   1   3  20  194.20   14.21
  -1   3  20  159.48   12.09
  -1   3  20  173.15   13.60
  -1   3  21   34.69    6.20
   1   3  21   45.23    6.90
  -1   3  22  159.97   13.79
   1   3  22  163.60   13.99
   1   3  23   79.97    9.75
  -1  -4 -29   -0.98    2.13
   1  -4 -29    5.28    3.65
  -1  -4 -28    4.56    3.45
   1  -4 -28   -1.88    1.65
   1  -4 -27    5.48    2.99
  -1  -4 -27    0.36    2.79
   1  -4 -26    6.07    3.09
  -1  -4 -26    2.69    3.33
   1  -4 -25    4.78    3.68
  -1  -4 -25    5.12    2.42
   1  -4 -24   15.32    4.03
  -1  -4 -24   14.47    3.46
  -1  -4 -23   29.33    6.82
   1  -4 -23   39.86    7.42
   1  -4 -22   37.38    7.15
  -1  -4 -22   30.64    6.43
   1  -4 -21   51.54    7.96
  -1  -4 -21   44.80    8.03
  -1  -4 -20    5.18    3.26
   1  -4 -20    6.86    3.72
   1  -4 -19   12.31    3.60
  -1  -4 -19   12.41    5.11
  -1  -4 -18   34.40    7.10
   1  -4 -18   19.55    4.95
   1  -4 -17   32.71    5.97
  -1  -4 -17   40.28    6.50
  -1  -4 -16   16.57    4.62
   1  -4 -16   17.22    5.03
   1  -4 -15   42.36    6.91
  -1  -4 -15   48.98    7.01
   1  -4 -14    9.24    4.04
  -1  -4 -14   17.93    4.41
   1   4 -14    9.12    2.63
   1  -4 -13    6.97    2.81
   1   4 -13    7.35    2.69
  -1  -4 -13   10.94    3.48
  -1   4 -13    8.22    2.35
   1   4 -12  171.93   10.53
   1  -4 -12  167.46   12.43
   1  -4 -12  178.93   12.50
  -1  -4 -12  186.13   12.23
  -1   4 -12  162.36   10.12
  -1  -4 -11   53.60    6.29
  -1   4 -11   59.29    5.75
   1  -4 -11   61.18    7.30
   1   4 -11   72.75    6.77
   1  -4 -11   51.92    6.84
  -1  -4 -10  275.97   14.52
  -1   4 -10  257.97   12.06
   1  -4 -10  246.12   13.95
   1  -4 -10  219.79   13.64
   1   4 -10  239.91   12.36
   1  -4  -9  401.97   17.41
  -1  -4  -9  403.70   17.07
  -1   4  -9  433.17   15.71
   1  -4  -9  425.31   18.74
   1   4  -9  411.12   16.08
   1   4  -8  192.73   11.10
   1  -4  -8  178.23   11.54
  -1  -4  -8  191.67   11.37
  -1   4  -8  199.73   10.65
   1  -4  -8  198.71   12.73
   1  -4  -7   16.01    3.36
  -1   4  -7   15.30    2.92
   1   4  -7   22.03    4.00
  -1  -4  -7   10.58    2.85
   1  -4  -7   13.44    3.23
  -1  -4  -6  113.98    8.08
   1  -4  -6  107.15    9.16
  -1   4  -6  116.02    8.23
  -1  -4  -6  115.98    9.02
   1   4  -6  106.79    8.19
   1  -4  -6  109.59    8.24
  -1  -4  -5  134.27    8.48
  -1  -4  -5  129.84    9.53
  -1   4  -5  127.89    8.71
   1  -4  -5  133.36   10.01
   1  -4  -5  154.74    9.68
   1   4  -5  141.38    9.30
  -1  -4  -4   88.07    6.59
  -1   4  -4   77.75    6.78
   1  -4  -4   70.87    6.34
  -1  -4  -4   81.99    7.48
   1   4  -4   82.07    7.19
   1  -4  -4   61.32    6.74
  -1  -4  -3   80.83    5.95
   1   4  -3   88.00    7.63
   1  -4  -3   93.42    7.92
   1  -4  -3   82.27    6.38
  -1  -4  -3   95.25    7.97
  -1   4  -3   87.67    7.30
  -1   4  -2  312.81   13.87
  -1  -4  -2  295.15   13.73
   1  -4  -2  316.39   12.24
   1   4  -2  317.80   14.15
  -1  -4  -2  288.74   10.53
   1  -4  -2  302.47   14.27
   1  -4  -1  654.69   20.62
  -1  -4  -1  617.94   19.56
   1  -4  -1  692.16   17.21
  -1   4  -1  622.44   19.52
   1   4  -1  609.37   19.76
  -1  -4  -1  662.05   14.70
  -1   4   0 1506.88   30.71
   1   4   0 1548.49   31.62
  -1  -4   0 1575.59   20.89
  -1  -4   0 1566.71   30.52
   1  -4   1  612.03   15.09
  -1  -4   1  570.01   18.03
   1  -4   1  611.27   19.43
  -1  -4   1  643.18   11.92
   1   4   1  575.35   19.26
  -1   4   1  543.90   18.71
   1  -4   2  290.05   10.17
   1   4   2  308.13   14.26
  -1   4   2  297.55   13.88
   1  -4   2  300.13   13.47
  -1  -4   2  305.10   12.78
  -1  -4   2  292.38    6.96
  -1   4   3  102.59    8.19
   1  -4   3   86.84    5.40
   1  -4   3   87.79    7.19
  -1  -4   3   88.04    6.82
   1   4   3  101.75    8.37
  -1  -4   3   84.65    3.10
  -1   4   4   71.96    7.05
   1   4   4   72.94    6.95
   1  -4   4   83.33    6.92
   1  -4   4   78.19    5.09
  -1  -4   4   81.20    6.46
  -1   4   5  129.56    9.48
   1   4   5  137.62    9.60
   1  -4   5  133.86    6.65
  -1  -4   5  129.41    7.87
   1  -4   5  131.91    8.46
   1  -4   6  106.06    6.05
   1   4   6  101.82    8.45
  -1   4   6  118.48    9.13
   1  -4   6  108.22    7.71
  -1  -4   6  104.22    6.95
  -1  -4   7   13.91    2.30
  -1  -4   7   10.82    1.25
   1  -4   7   16.93    3.08
   1   4   7   10.34    2.62
  -1   4   7   19.83    3.61
  -1   4   8  181.11   11.66
   1  -4   8  192.58   10.24
   1   4   8  195.50   11.81
  -1  -4   8  196.19    9.13
   1   4   9  411.76   17.48
   1  -4   9  406.88   14.74
  -1  -4   9  451.80   13.11
  -1   4   9  432.52   18.09
   1   4  10  247.01   13.56
  -1   4  10  248.98   13.87
   1  -4  10  268.47   11.74
  -1  -4  11   54.65    4.23
   1   4  11   61.22    6.97
   1  -4  11   61.73    5.49
   1   4  11   60.92    7.66
  -1   4  11   53.82    6.69
  -1   4  12  177.01   12.27
   1   4  12  171.56   12.69
  -1  -4  12  154.69    6.83
   1  -4  12  181.29    9.68
   1  -4  13    4.49    1.65
  -1   4  13    7.89    2.42
   1   4  13   12.14    3.66
   1   4  13    7.52    2.85
   1  -4  14    8.60    2.17
   1   4  14    8.56    2.67
   1   4  14    7.96    3.14
  -1   4  14    5.30    1.87
  -1   4  15   35.17    5.71
   1   4  15   43.61    6.14
   1   4  15   38.90    6.42
  -1   4  16   29.52    5.03
   1   4  16   21.38    4.44
   1   4  17   44.49    6.58
   1   4  17   33.80    6.22
  -1   4  17   32.63    5.73
  -1   4  17   34.32    5.34
  -1   4  18   24.85    5.36
  -1   4  18   32.30    6.35
   1   4  18   27.68    5.34
   1   4  18   22.27    5.69
   1   4  19   14.07    4.32
  -1   4  19   15.13    4.40
  -1   4  19   14.04    4.18
   1   4  19   16.91    4.16
  -1   4  20    7.20    4.21
   1   4  20    4.31    1.65
  -1   4  20    1.47    1.67
  -1   4  21   49.31    8.19
   1   4  21   44.26    7.65
   1   4  22   34.48    7.22
  -1   4  22   32.50    6.58
  -1   4  23   36.44    7.15
   1   4  23   39.31    7.58
  -1   4  24   12.69    4.76
   1   4  24    2.76    3.46
   1  -5 -28    6.69    3.97
  -1  -5 -28    7.88    4.27
  -1  -5 -27    4.29    3.31
   1  -5 -27    1.52    2.63
  -1  -5 -26   40.48    7.62
   1  -5 -26   31.84    7.54
  -1  -5 -25   22.91    5.97
   1  -5 -25   10.82    4.78
   1  -5 -24    6.16    4.23
  -1  -5 -24    0.75    3.00
   1  -5 -23   39.64    7.92
  -1  -5 -23   41.48    7.41
  -1  -5 -22   94.56   11.97
   1  -5 -22  102.75   11.40
  -1  -5 -21   13.58    3.63
   1  -5 -21   29.03    6.56
   1  -5 -20   32.45    6.75
  -1  -5 -20   25.49    5.90
   1  -5 -19   96.71   11.03
  -1  -5 -19   77.83    9.93
   1  -5 -18   25.81    5.61
  -1  -5 -18   28.25    6.25
  -1  -5 -17   18.91    4.94
   1  -5 -17   24.08    5.81
   1  -5 -16  297.35   18.25
  -1  -5 -16  281.21   17.58
  -1  -5 -15   60.43    8.05
   1  -5 -15   78.74    9.46
   1  -5 -14   81.08    9.37
  -1  -5 -14   84.22    9.45
   1   5 -14   64.38    7.42
   1   5 -13  244.91   14.16
   1  -5 -13  245.79   16.27
  -1   5 -13  263.45   13.73
  -1  -5 -13  230.44   14.76
   1  -5 -13  262.37   16.28
   1  -5 -12  184.84   13.77
   1  -5 -12  193.84   14.03
   1   5 -12  180.86   11.88
  -1  -5 -12  190.75   13.14
  -1   5 -12  194.81   12.01
   1   5 -11   31.11    5.25
  -1  -5 -11   37.42    5.81
   1  -5 -11   42.53    6.99
  -1   5 -11   38.18    5.78
   1  -5 -11   32.08    5.91
   1  -5 -10  492.27   21.70
   1   5 -10  474.73   19.32
  -1  -5 -10  441.21   19.30
  -1   5 -10  439.78   18.41
   1  -5 -10  474.57   20.15
  -1   5  -9  268.78   14.24
   1   5  -9  287.66   14.95
   1  -5  -9  260.86   15.88
  -1  -5  -9  292.35   15.34
   1  -5  -9  248.41   14.29
   1   5  -8   50.22    6.13
  -1  -5  -8   53.43    6.60
  -1   5  -8   52.63    6.30
   1  -5  -8   57.54    6.79
   1  -5  -8   55.71    7.47
   1  -5  -7  267.23   14.32
  -1   5  -7  277.41   14.36
  -1  -5  -7  253.79   13.42
   1  -5  -7  283.36   16.01
   1   5  -7  282.02   14.81
  -1   5  -6  230.63   13.15
   1   5  -6  257.68   14.08
  -1  -5  -6  256.86   14.97
  -1  -5  -6  238.32   12.62
   1  -5  -6  261.79   15.20
   1  -5  -6  232.43   12.96
   1  -5  -5   64.28    7.41
  -1  -5  -5   74.85    6.75
  -1  -5  -5   78.49    8.06
   1  -5  -5   78.29    7.36
   1   5  -5   90.02    8.19
  -1   5  -5   73.91    7.54
   1   5  -4  339.68   16.34
   1  -5  -4  313.91   14.37
  -1   5  -4  359.22   16.46
   1  -5  -4  379.70   18.05
  -1  -5  -4  367.50   17.22
  -1  -5  -4  390.30   15.02
   1   5  -3  470.14   19.31
  -1  -5  -3  488.74   19.70
  -1  -5  -3  484.24   16.07
   1  -5  -3  478.88   20.13
   1  -5  -3  467.35   16.88
  -1   5  -3  491.92   19.22
  -1  -5  -2   89.26    6.47
  -1   5  -2   70.84    7.19
  -1  -5  -2   66.22    7.13
   1  -5  -2   74.69    7.74
   1  -5  -2   79.86    6.65
   1   5  -2   76.92    7.84
  -1   5  -1   32.86    5.11
  -1  -5  -1   35.06    3.75
   1   5  -1   36.96    5.40
   1  -5  -1   43.72    5.87
   1  -5  -1   33.49    4.36
  -1  -5  -1   37.13    5.44
  -1  -5   0  292.92   14.72
   1   5   0  301.63   15.15
   1  -5   0  282.83   14.93
  -1   5   0  265.68   14.37
   1  -5   0  285.00   11.76
  -1  -5   0  288.12   10.14
  -1  -5   1   33.51    5.17
  -1  -5   1   40.76    3.59
  -1   5   1   40.21    5.63
   1  -5   1   42.19    4.49
   1   5   1   37.26    5.60
   1  -5   2   74.61    7.39
  -1  -5   2   82.16    4.56
  -1  -5   2   87.42    7.72
  -1   5   2   75.75    7.66
   1  -5   2   75.91    5.76
   1   5   2   72.39    7.82
   1  -5   3  483.71   18.91
  -1   5   3  464.09   19.33
   1   5   3  473.83   19.52
   1  -5   3  472.24   13.81
  -1  -5   3  433.06    8.83
  -1  -5   3  491.63   18.32
  -1  -5   4  375.36   15.59
   1  -5   4  377.18   12.08
  -1   5   4  385.35   17.60
   1  -5   4  358.00   16.31
   1   5   4  351.43   16.85
  -1  -5   5   77.97    7.01
   1  -5   5   79.14    5.58
   1   5   5   66.38    7.47
  -1   5   5   85.11    8.26
   1  -5   5   81.36    7.60
   1  -5   6  243.95    9.67
   1   5   6  267.34   14.92
  -1  -5   6  249.54   12.42
  -1   5   6  234.60   14.21
   1  -5   6  254.34   13.38
   1   5   7  282.61   15.58
   1  -5   7  264.04   13.60
  -1  -5   7  277.91   12.81
   1  -5   7  277.52   10.56
  -1   5   7  269.21   15.07
  -1   5   8   56.58    6.96
   1  -5   8   50.69    4.77
   1  -5   8   51.98    5.91
  -1  -5   8   44.01    5.18
   1   5   8   65.54    7.49
   1  -5   9  279.16   11.43
   1   5   9  286.83   15.90
  -1  -5   9  270.03   12.63
  -1   5   9  272.23   15.47
   1  -5   9  250.83   13.23
   1  -5  10  465.44   17.51
  -1  -5  10  448.62   15.90
   1   5  10  469.00   20.57
  -1   5  10  417.37   19.38
  -1   5  11   27.46    5.48
  -1  -5  11   30.54    4.06
   1  -5  11   35.69    4.89
   1   5  11   23.53    4.74
   1   5  12  202.52   13.98
  -1  -5  12  152.20    8.71
   1   5  12  185.76   14.08
  -1   5  12  193.15   13.79
   1  -5  12  183.43   10.95
   1   5  13  223.20   15.18
   1   5  13  234.18   14.96
   1  -5  13  222.43   11.75
  -1   5  13  268.18   16.03
  -1   5  14   74.98    8.87
   1   5  14   86.82    9.33
   1   5  14   88.32    9.55
   1   5  15   73.34    9.22
  -1   5  15   75.64    8.78
   1   5  15   65.68    8.31
   1   5  16  280.54   17.23
   1   5  16  298.42   18.78
  -1   5  16  286.24   17.23
  -1   5  17   16.83    4.42
  -1   5  17   29.28    5.89
   1   5  17   28.85    6.32
   1   5  17   25.28    5.79
   1   5  18   23.09    5.61
  -1   5  18   30.88    6.27
  -1   5  18   20.61    4.96
   1   5  18   24.88    5.16
   1   5  19   89.97   10.59
  -1   5  19   81.88    9.55
   1   5  19   80.61    9.25
  -1   5  19   78.05    9.75
   1   5  20   35.95    7.08
   1   5  20   34.35    6.95
  -1   5  20   26.10    5.60
  -1   5  20   37.03    6.97
  -1   5  21   26.12    6.22
   1   5  21   19.38    5.07
  -1   5  21   16.84    4.94
   1   5  22   98.54   11.82
  -1   5  22   98.76   11.80
  -1   5  23   21.78    6.67
   1   5  23   31.79    6.61
  -1   5  24    2.14    3.39
   1   5  24    0.71    2.98
   1   5  25   21.86    5.64
  -1   5  25   21.62    5.92
  -1  -6 -26   -0.96    3.12
   1  -6 -26   -4.17    4.71
  -1  -6 -25    0.84    3.30
   1  -6 -25    3.33    2.09
  -1  -6 -24   -1.94    2.85
   1  -6 -24    3.67    3.27
  -1  -6 -23    3.98    2.88
   1  -6 -23    1.88    2.54
  -1  -6 -22   11.08    4.37
   1  -6 -22   17.15    5.55
   1  -6 -21   12.53    4.55
  -1  -6 -21    8.79    4.26
   1  -6 -20    3.75    2.16
  -1  -6 -20    4.16    2.17
  -1  -6 -19    7.63    4.10
   1  -6 -19    6.62    2.61
  -1  -6 -18    9.18    4.38
   1  -6 -18    3.82    4.13
  -1  -6 -17    7.89    3.75
   1  -6 -17    9.92    3.38
   1  -6 -16    0.33    2.53
  -1  -6 -16    5.86    3.19
   1  -6 -15    8.47    2.19
  -1  -6 -15    5.12    2.12
  -1  -6 -14    7.22    2.94
   1  -6 -14    6.83    3.04
   1   6 -13   28.54    5.48
   1  -6 -13   25.01    5.69
  -1  -6 -13   20.39    4.48
   1   6 -12   34.09    5.99
   1  -6 -12   25.62    4.91
   1  -6 -12   31.67    6.22
  -1   6 -12   22.64    4.69
  -1  -6 -12   32.13    5.83
   1   6 -11   18.98    4.44
  -1   6 -11   16.49    3.95
   1  -6 -11   17.68    4.53
   1  -6 -11   14.39    4.04
  -1  -6 -11    6.26    3.07
   1  -6 -10   18.77    4.78
   1   6 -10   20.39    4.69
  -1  -6 -10    9.70    2.43
  -1   6 -10   12.42    3.61
   1  -6 -10   12.09    3.73
   1  -6  -9    9.60    3.65
   1  -6  -9    3.63    3.60
   1   6  -9   12.87    3.88
  -1  -6  -9    4.06    2.69
  -1   6  -9   10.86    2.79
  -1   6  -8    4.75    2.07
   1   6  -8    0.92    2.26
   1  -6  -8    4.18    3.21
   1  -6  -8    4.11    2.56
  -1  -6  -8    2.81    1.92
  -1   6  -7   84.65    8.88
  -1  -6  -7   66.78    7.33
   1  -6  -7   56.28    7.03
   1   6  -7   72.61    8.21
   1  -6  -7   61.53    7.92
  -1   6  -6   87.17    9.00
  -1  -6  -6  109.76    9.16
   1  -6  -6   99.15    9.94
  -1  -6  -6  105.09   10.29
   1   6  -6  103.94   10.16
   1  -6  -6   98.79    9.08
   1  -6  -5  137.05   11.72
   1   6  -5  140.85   11.41
  -1  -6  -5  137.35   11.23
   1  -6  -5  146.67   10.80
  -1  -6  -5  115.36    9.08
  -1   6  -5  111.61   10.03
   1   6  -4  112.11   10.23
   1  -6  -4  111.00    9.30
   1  -6  -4  109.90   10.66
  -1   6  -4  113.97   10.08
  -1  -6  -4  112.56    8.64
  -1  -6  -4  126.49   10.79
  -1  -6  -3  102.89    9.98
   1  -6  -3  104.61   10.06
  -1   6  -3  103.61    9.92
   1   6  -3   84.78    8.82
   1  -6  -3   81.86    7.90
  -1  -6  -3   94.81    7.55
  -1   6  -2  106.81    9.96
   1  -6  -2  104.10    8.40
   1  -6  -2  112.13   10.31
   1   6  -2   84.87    8.96
  -1  -6  -2  111.82    9.83
  -1  -6  -2   96.35    7.48
   1   6  -1   19.69    4.32
  -1  -6  -1   38.15    5.97
   1  -6  -1   28.65    5.06
  -1   6  -1   29.60    5.40
  -1  -6  -1   31.30    3.95
   1  -6  -1   30.29    4.26
   1  -6   0   48.23    6.66
   1  -6   0   56.57    5.74
   1   6   0   40.37    6.25
  -1  -6   0   41.00    6.29
  -1  -6   0   43.17    4.47
  -1   6   0   36.72    5.79
   1  -6   1   36.43    4.45
  -1  -6   1   27.92    3.48
  -1  -6   1   34.60    5.62
   1   6   1   36.33    6.09
  -1   6   1   30.99    5.20
   1  -6   1   40.04    5.82
  -1   6   2  124.60   10.91
   1  -6   2  100.04    9.54
   1  -6   2  117.68    7.71
   1   6   2   84.81    8.87
  -1  -6   2  115.61    9.99
  -1  -6   2  100.35    5.67
   1  -6   3   96.31    9.29
   1   6   3  116.68   10.48
  -1  -6   3   92.15    4.75
  -1  -6   3  104.22    9.41
  -1   6   3   82.09    8.70
   1  -6   3  113.12    7.38
   1   6   4  102.17    9.85
   1  -6   4  125.97   10.37
  -1   6   4  137.47   11.60
   1  -6   4  131.09    7.66
  -1  -6   4  132.59   10.35
  -1   6   5  156.17   12.16
   1   6   5  130.87   11.54
   1  -6   5  133.83   10.92
  -1  -6   5  144.99   10.69
   1  -6   5  125.92    7.37
  -1  -6   6   91.31    8.37
  -1   6   6  107.43   10.34
   1   6   6  115.25   10.54
   1  -6   6  105.71    9.42
   1  -6   6   96.56    6.49
   1  -6   7   55.18    4.86
   1  -6   7   81.50    8.39
  -1   6   7   60.18    7.61
  -1  -6   7   71.60    7.59
   1   6   7   73.09    8.48
  -1  -6   8    0.52    1.34
   1  -6   8    2.50    2.00
  -1   6   8    2.40    2.37
   1   6   8    6.65    3.71
  -1  -6   9    7.19    1.88
   1  -6   9   13.64    3.14
   1   6   9    7.93    2.68
  -1   6   9    7.18    2.90
  -1  -6  10   12.51    3.05
   1   6  10   16.53    4.42
   1  -6  10   21.67    4.11
  -1   6  10    8.89    3.28
  -1   6  11   13.91    4.38
   1   6  11   15.99    4.04
  -1  -6  11    8.47    2.79
   1  -6  11   16.20    3.71
  -1   6  12   34.85    6.87
   1   6  12   36.61    6.31
   1   6  12   38.82    7.07
   1  -6  12   33.71    4.96
  -1   6  13   27.73    5.40
   1   6  13   17.94    4.95
   1   6  13   23.70    5.50
  -1   6  14    8.81    2.83
   1   6  14    8.78    3.59
   1   6  14   10.09    3.33
   1   6  15   19.69    5.26
  -1   6  15    7.93    2.70
   1   6  15   12.61    4.00
   1   6  16    6.78    3.37
   1   6  16    0.17    2.41
  -1   6  16    3.07    1.67
   1   6  17   10.15    3.70
  -1   6  17    0.37    2.21
   1   6  17    9.45    3.90
  -1   6  17    3.73    2.32
   1   6  18    2.45    2.70
  -1   6  18    2.17    2.45
   1   6  18   -0.33    1.62
  -1   6  18   -0.71    1.80
   1   6  19    7.46    3.40
  -1   6  19    5.22    3.63
   1   6  19    7.93    3.74
  -1   6  19    5.64    4.27
  -1   6  20    7.29    3.76
   1   6  20    3.95    3.36
  -1   6  20   -2.40    3.29
   1   6  20    3.16    3.00
  -1   6  21    9.43    4.08
  -1   6  21    2.22    2.31
   1   6  21    5.36    2.74
   1   6  22   15.41    4.44
  -1   6  22    3.80    1.91
  -1   6  23    5.73    3.55
   1   6  23    1.92    3.15
   1   6  24    5.50    2.74
  -1   6  24    0.19    2.29
   1   6  25    5.81    3.40
  -1   6  25    1.58    2.94
   1   6  26    2.57    2.96
   1  -7 -25    4.59    3.64
  -1  -7 -25   11.83    4.74
   1  -7 -24   15.28    4.55
  -1  -7 -24   13.67    5.14
  -1  -7 -23   41.25    8.63
   1  -7 -23   53.86    9.96
  -1  -7 -22   24.50    6.90
   1  -7 -22   50.23    9.39
  -1  -7 -21    6.18    3.86
   1  -7 -21    2.89    2.51
  -1  -7 -20   20.33    5.68
   1  -7 -20   20.36    5.76
   1  -7 -19   23.19    5.94
  -1  -7 -19   18.19    3.89
  -1  -7 -18    3.94    3.82
   1  -7 -18    0.88    2.89
  -1  -7 -17   32.62    6.56
   1  -7 -17   26.37    6.71
   1  -7 -16   65.88    9.56
  -1  -7 -16   61.44    9.01
  -1  -7 -15   12.60    4.11
   1  -7 -15    9.72    2.92
  -1  -7 -14   15.37    5.33
   1  -7 -14   19.14    4.57
  -1  -7 -13   33.99    6.11
   1  -7 -13   28.26    5.53
   1   7 -13   19.03    4.99
   1  -7 -12   26.58    5.86
   1  -7 -12   30.23    6.20
   1   7 -12   22.13    5.43
  -1  -7 -12   44.82    6.98
  -1   7 -12   30.36    6.28
  -1   7 -11    4.70    2.74
  -1  -7 -11    4.48    3.13
   1   7 -11    3.25    1.62
   1  -7 -11   10.87    3.68
   1  -7 -11   10.56    4.07
   1   7 -10  146.39   12.73
  -1   7 -10  152.98   13.23
   1  -7 -10  144.95   12.61
  -1  -7 -10  139.57   11.95
   1  -7 -10  140.16   12.96
  -1  -7  -9   96.70    9.86
   1  -7  -9   92.47    9.72
  -1   7  -9   84.46    9.30
   1  -7  -9   77.66    9.66
   1   7  -9   96.63   10.42
   1  -7  -8    4.17    2.79
   1  -7  -8    0.82    1.72
   1   7  -8    5.01    3.03
  -1  -7  -8    7.42    3.77
   1  -7  -7   83.99    9.87
  -1   7  -7  106.52   10.98
   1   7  -7  112.51   11.00
   1  -7  -7  110.09   10.28
  -1  -7  -7   98.59    9.65
  -1   7  -6  235.83   15.85
   1  -7  -6  231.85   14.40
  -1  -7  -6  258.46   14.73
   1  -7  -6  227.93   16.31
   1   7  -6  222.28   15.92
  -1  -7  -5   55.18    6.70
  -1   7  -5   69.10    8.72
   1  -7  -5   63.87    7.45
   1  -7  -5   62.18    8.72
  -1  -7  -5   64.62    8.53
   1   7  -5   52.05    7.66
   1  -7  -4  130.51   12.18
   1  -7  -4  110.15    9.52
  -1  -7  -4  125.58   11.52
   1   7  -4  136.87   12.19
  -1   7  -4  127.43   11.74
  -1  -7  -4  126.07    9.81
  -1   7  -3  265.66   16.88
  -1  -7  -3  296.95   18.05
   1  -7  -3  301.62   15.43
   1   7  -3  291.13   17.81
  -1  -7  -3  314.63   14.99
   1  -7  -3  293.65   17.92
   1  -7  -2  104.14    9.22
  -1   7  -2  123.15   11.47
   1   7  -2  118.54   11.67
  -1  -7  -2  134.57    9.20
   1  -7  -2  145.99   12.56
  -1  -7  -2  139.72   12.14
  -1   7  -1    5.02    2.43
   1   7  -1    3.05    2.72
  -1  -7  -1    3.23    1.71
  -1  -7  -1    3.47    2.26
   1  -7  -1    5.57    2.55
   1  -7  -1    2.65    2.21
   1   7   0   74.97    8.78
  -1   7   0   64.31    8.54
   1  -7   0   64.42    6.54
  -1  -7   0   57.35    7.94
   1  -7   0   75.61    8.95
   1  -7   1    6.45    2.27
  -1   7   1    4.91    2.71
  -1  -7   1    4.63    3.08
   1   7   1    7.65    3.38
   1  -7   1    6.13    2.57
   1  -7   2  109.00    8.41
  -1   7   2  129.15   12.20
   1  -7   2  128.09   11.55
  -1  -7   2  120.33   10.92
   1   7   2  118.86   11.55
  -1  -7   3  308.23   17.54
   1  -7   3  310.77   17.99
  -1   7   3  303.02   18.33
   1   7   3  312.54   18.19
  -1  -7   4  108.19    9.99
   1   7   4  131.11   12.12
  -1   7   4  146.66   12.70
   1  -7   4   89.31   10.01
  -1   7   5   67.59    8.38
   1   7   5   83.67    9.86
   1  -7   5   64.95    8.47
  -1  -7   5   64.63    8.00
  -1   7   6  202.34   15.39
   1  -7   6  202.27   14.79
   1   7   6  250.56   16.69
  -1  -7   6  234.46   14.93
   1   7   7  118.87   11.70
   1  -7   7   99.07   10.01
  -1   7   7  103.50   10.77
  -1  -7   7  107.47    9.94
   1  -7   8    3.23    2.24
  -1   7   8    2.91    2.02
  -1  -7   8    4.39    2.51
   1   7   8    7.90    3.16
   1  -7   9   96.11    9.53
   1   7   9  101.77   10.98
  -1   7   9   74.30    9.56
  -1  -7   9   87.29    8.76
  -1   7  10  129.88   12.32
   1   7  10  118.13   11.52
   1  -7  10  140.99   12.05
  -1  -7  10  121.48   10.46
   1   7  11    8.13    3.67
  -1   7  11    4.22    3.08
   1  -7  11   11.19    3.64
  -1   7  12   28.32    6.04
   1   7  12   22.78    5.30
   1   7  12   27.27    5.92
   1   7  13   24.48    6.01
  -1   7  13   50.08    7.43
   1   7  13   40.19    7.28
   1   7  14   20.73    5.34
   1   7  14   16.18    5.47
  -1   7  14   15.71    4.32
   1   7  15   11.32    4.32
   1   7  15   11.75    4.72
  -1   7  15   13.40    3.67
  -1   7  16   71.31    9.40
   1   7  16   64.30    9.34
   1   7  16   64.30    9.57
  -1   7  17   16.92    5.80
  -1   7  17   33.15    7.00
   1   7  17   32.51    7.12
   1   7  17   24.68    6.12
  -1   7  18   -2.34    2.14
   1   7  18    1.47    1.93
   1   7  18    0.55    3.27
  -1   7  18    0.49    2.41
  -1   7  19   23.26    5.38
   1   7  19   28.41    6.37
  -1   7  19   25.23    6.23
   1   7  19   24.77    6.26
  -1   7  20   35.51    7.71
  -1   7  20   34.53    7.73
   1   7  20   21.44    5.39
   1   7  21   11.86    4.79
  -1   7  21   10.28    5.12
  -1   7  21    2.95    3.26
   1   7  21    6.54    3.74
  -1   7  22   31.35    7.05
  -1   7  22   27.88    7.24
   1   7  22   45.11    8.39
  -1   7  23   39.60    7.84
   1   7  23   19.62    5.38
   1   7  24   13.38    6.23
  -1   7  24   12.26    5.05
   1   7  25    5.11    2.71
  -1   7  25    5.28    4.24
  -1  -8 -22    4.75    2.39
   1  -8 -22    4.42    3.23
   1  -8 -21   -1.84    2.83
  -1  -8 -21   -1.01    4.41
  -1  -8 -20    3.68    2.96
   1  -8 -20   -2.41    3.03
  -1  -8 -19    1.17    2.24
   1  -8 -19   10.52    4.78
  -1  -8 -18    3.69    3.48
   1  -8 -18   -4.57    4.17
   1  -8 -17    1.38    2.66
  -1  -8 -17    1.33    2.84
   1  -8 -16    3.03    2.80
  -1  -8 -16    4.27    2.69
   1  -8 -15    1.81    3.55
  -1  -8 -15    1.84    3.56
  -1  -8 -14    1.91    2.19
   1  -8 -14   11.30    4.50
  -1  -8 -13    4.66    2.48
   1  -8 -13   13.96    4.71
   1   8 -12   -0.12    2.74
  -1  -8 -12    4.71    3.69
   1  -8 -12   -0.19    2.09
  -1  -8 -11   17.32    5.35
   1   8 -11   12.83    3.59
  -1   8 -11    9.58    3.97
   1  -8 -11   18.01    5.02
   1  -8 -11   13.48    3.41
   1  -8 -10    5.04    3.14
  -1   8 -10    4.67    2.79
   1  -8 -10    4.48    2.99
  -1  -8 -10    1.36    1.92
   1   8 -10    4.38    3.43
  -1  -8  -9    5.53    3.43
   1  -8  -9    3.02    2.90
  -1   8  -9    1.93    1.86
   1  -8  -9    3.83    2.93
   1   8  -9    3.64    2.66
   1   8  -8    3.04    3.04
  -1  -8  -8    7.11    3.44
   1  -8  -8    8.95    3.82
   1  -8  -8    7.12    3.94
  -1   8  -8    7.54    3.03
   1  -8  -7    3.47    2.29
   1   8  -7    4.82    3.18
  -1  -8  -7    6.58    3.50
   1  -8  -7    1.34    2.34
  -1   8  -7    6.10    2.99
  -1  -8  -6   80.11    8.87
   1  -8  -6   78.08   10.43
   1   8  -6   91.99   10.82
  -1   8  -6   90.74   10.43
   1  -8  -6  105.37   10.19
   1  -8  -5   19.48    4.80
  -1   8  -5   23.91    5.60
  -1  -8  -5   34.48    5.39
   1   8  -5   14.51    4.81
   1  -8  -5   29.16    4.33
   1  -8  -4   20.82    5.72
  -1   8  -4   24.64    5.70
   1  -8  -4   14.65    3.57
   1   8  -4   20.41    5.56
   1   8  -3   19.64    4.87
   1  -8  -3   16.65    3.84
   1  -8  -3   37.84    6.66
  -1   8  -3   31.43    6.40
  -1   8  -2   92.52   10.61
   1  -8  -2   82.83   10.24
  -1  -8  -2   82.70   10.08
   1   8  -2   89.22   10.37
   1  -8  -1    5.59    2.68
   1   8  -1    8.69    3.60
  -1   8  -1   12.73    3.98
  -1  -8  -1    6.74    3.21
   1   8   0   29.69    6.43
  -1   8   0   27.49    5.42
   1  -8   0   26.02    5.88
  -1  -8   0   25.79    5.86
  -1   8   1   13.54    4.90
   1  -8   1    8.39    4.13
   1   8   1    7.07    3.59
  -1  -8   1    8.42    3.50
   1   8   2   74.44    9.42
  -1   8   2   87.13   10.64
   1  -8   2   82.44    9.69
  -1  -8   2   76.15    9.35
   1  -8   3   25.52    5.76
  -1  -8   3   25.86    5.55
   1   8   3   20.29    5.54
  -1   8   3   18.85    4.61
  -1   8   4    9.17    3.89
   1   8   4   12.94    4.67
  -1  -8   4   21.75    5.30
   1  -8   4   22.45    5.91
  -1   8   5   19.60    5.49
  -1  -8   5   12.59    4.18
   1   8   5   30.33    6.56
   1  -8   5   21.88    5.29
   1   8   6   99.57   11.18
  -1  -8   6   89.44    9.97
  -1   8   6   67.90    9.50
   1  -8   6   82.96    9.73
  -1  -8   7    4.03    3.02
   1   8   7    1.91    2.61
  -1   8   7    3.11    2.89
   1  -8   7    2.87    1.90
  -1  -8   8    1.99    2.09
   1   8   8    5.89    3.66
  -1   8   8    7.20    3.97
   1  -8   8    7.42    3.31
   1   8   9    2.31    2.57
   1  -8   9    2.23    2.24
  -1   8   9    4.80    3.79
   1   8  10    5.10    2.98
  -1   8  10    1.29    1.80
   1  -8  10    1.45    2.32
   1   8  11   14.63    3.72
   1   8  11   10.83    2.74
  -1   8  11   10.24    4.16
   1   8  12    2.54    2.78
  -1   8  12   -1.08    2.49
   1   8  12   -2.25    3.98
  -1   8  13   12.79    5.41
   1   8  13   10.96    5.08
   1   8  13   14.98    5.06
   1   8  14    2.16    3.00
  -1   8  14   -0.61    2.25
   1   8  14    1.97    2.72
   1   8  15    0.34    2.32
  -1   8  15   -2.81    3.61
   1   8  15   -3.02    2.75
   1   8  16    0.66    2.73
  -1   8  16    5.26    4.63
   1   8  16    0.97    2.26
   1   8  17    0.01    2.37
  -1   8  17    1.16    2.91
   1   8  17    3.55    2.18
  -1   8  17    3.95    3.98
   1   8  18   -2.43    3.00
  -1   8  18    1.76    2.44
  -1   8  18   -0.21    1.89
   1   8  18    3.87    3.74
  -1   8  19   -0.79    3.83
  -1   8  19    1.49    2.75
   1   8  19    0.32    1.94
   1   8  19    7.32    4.01
  -1   8  20    1.65    2.69
   1   8  20    4.61    2.83
   1   8  20    2.20    3.34
  -1   8  20    1.22    2.39
   1   8  21    3.58    4.41
   1   8  21    0.16    2.65
  -1   8  21    0.30    2.53
  -1   8  21   -2.34    3.79
  -1   8  22    8.33    5.64
  -1   8  22    1.63    3.31
   1   8  22   10.32    5.15
   1  -9 -19   19.57    5.66
  -1  -9 -19   13.63    4.80
   1  -9 -18   -0.59    2.38
  -1  -9 -18    7.05    3.65
   1  -9 -17   28.59    6.51
  -1  -9 -17   20.85    7.10
   1  -9 -16   38.10    8.40
  -1  -9 -16   32.90    7.37
   1  -9 -15    7.33    2.24
  -1  -9 -15   16.67    5.09
  -1  -9 -14   23.67    5.62
   1  -9 -14   19.16    5.39
  -1  -9 -13   45.27    8.51
   1  -9 -13   41.02    7.92
   1  -9 -12   18.13    4.91
  -1  -9 -12   11.97    5.71
   1  -9 -11   10.88    3.89
   1   9 -11    7.26    4.90
  -1   9 -11    0.39    3.94
  -1  -9 -11   13.17    4.93
  -1   9 -10   65.42    9.90
   1  -9 -10   77.93   10.77
   1   9 -10   71.98   10.16
   1  -9  -9   33.55    6.36
  -1   9  -9   29.46    6.64
   1  -9  -9   22.45    5.71
   1  -9  -8    7.13    2.76
  -1   9  -8    9.21    2.99
   1   9  -8    0.68    2.76
   1  -9  -7   57.09    9.32
   1   9  -7   42.17    7.91
  -1   9  -7   51.43    8.73
   1   9  -6  105.35   12.37
  -1   9  -6  126.93   13.34
   1  -9  -6  104.96   12.00
   1   9  -5   -0.18    2.25
  -1   9  -5    4.79    3.80
   1  -9  -5    9.14    3.64
  -1   9  -4   76.06   10.38
   1   9  -4   58.44    8.90
   1  -9  -4   67.44    9.52
   1   9  -3   70.02   10.13
   1  -9  -3   68.61    9.71
  -1   9  -3   84.92   10.97
  -1   9  -2   42.83    7.79
   1  -9  -2   50.68    8.53
   1   9  -2   41.92    8.06
   1   9  -1    9.14    5.13
   1  -9  -1   16.80    4.90
  -1   9  -1   10.10    4.93
  -1   9   0   80.86   10.48
   1   9   0   59.51    9.16
   1  -9   0   59.28    9.01
   1  -9   1   16.75    5.63
  -1   9   1   13.35    4.43
   1   9   1    9.19    4.29
   1  -9   2   50.10    8.25
  -1   9   2   49.30    8.23
   1   9   2   33.56    6.56
   1   9   3   75.86   10.27
   1  -9   3   80.70   10.30
  -1   9   3  102.43   11.68
   1  -9   4   65.95    9.30
  -1   9   4   61.29    9.53
   1   9   4   61.33    9.25
  -1   9   5    7.94    2.78
   1  -9   5    5.37    3.32
   1   9   5    2.38    2.46
   1  -9   6  120.13   12.87
  -1   9   6  115.47   12.22
   1   9   6  121.58   12.93
  -1   9   7   63.74    9.33
   1  -9   7   58.35    9.30
   1   9   7   55.64    8.27
  -1   9   8    7.69    3.90
   1   9   8    3.89    3.72
   1  -9   8    3.48    2.39
   1   9   9   23.37    5.66
  -1   9   9   22.42    5.91
  -1   9  10   67.67    9.90
   1   9  10   44.52    8.08
   1   9  10   74.66   10.49
   1   9  11   17.03    5.66
  -1   9  11   13.87    5.14
   1   9  11   11.81    4.83
   1   9  12   17.94    5.41
  -1   9  12    5.26    2.64
   1   9  12   20.93    5.06
   1   9  13   38.29    7.64
   1   9  13   39.21    7.93
  -1   9  13   28.29    6.35
   1   9  14   18.67    5.94
  -1   9  14   13.43    5.38
   1   9  14   18.08    6.24
   1   9  15    4.65    2.03
  -1   9  15    3.98    3.79
  -1   9  15   11.71    4.24
   1   9  15   15.05    4.09
   1   9  16   18.54    5.93
  -1   9  16   49.21    8.95
  -1   9  16   53.94    9.11
   1   9  16   29.34    7.06
  -1   9  17   18.37    6.34
   1   9  17   25.02    6.44
   1   9  17   33.69    7.50
  -1   9  17   32.94    7.59
   1   9  18    2.62    3.92
  -1   9  18    5.07    2.32
   1   9  18    4.46    3.64
  -1   9  18    6.14    5.21
   1   9  19   19.90    6.61
  -1   9  19   31.03    7.36
   1   9  19   17.66    6.28
  -1   9  19   31.94    8.44
   1  10 -10    9.38    5.17
  -1  10 -10   36.55    9.15
  -1  10  -9   11.19    4.44
   1  10  -9   15.62    4.78
  -1  10  -8    1.00    2.26
   1  10  -8   -3.91    3.28
   1  10  -7   28.16    7.24
  -1  10  -7    0.87    2.42
   1 -10  -6   29.27    6.42
  -1  10  -6   52.37    9.32
   1  10  -6   35.44    7.68
   1 -10  -5    5.63    3.66
  -1  10  -5    3.61    3.99
   1  10  -5    0.38    2.94
   1  10  -4   31.69    7.16
   1 -10  -4   31.17    7.74
  -1  10  -4   30.43    7.47
   1 -10  -3    9.92    5.16
   1  10  -3    5.19    4.67
  -1  10  -3   12.88    4.77
  -1  10  -2   15.64    4.95
   1  10  -2    4.86    3.46
   1 -10  -2   26.04    6.80
   1  10  -1    4.27    3.23
   1 -10  -1   10.72    4.31
  -1  10  -1   16.89    6.12
   1 -10   0   12.91    4.54
  -1  10   0   11.84    4.96
   1  10   0   15.21    5.10
   1 -10   1   18.42    4.35
  -1  10   1    3.16    1.84
   1  10   1   11.65    4.00
   1 -10   2   15.73    4.50
   1  10   2   12.23    5.14
  -1  10   2   16.57    5.89
  -1  10   3    9.24    4.33
   1  10   3    4.20    2.94
   1 -10   3   13.43    4.41
   1  10   4   32.52    7.16
  -1  10   4   23.84    6.43
   1 -10   4   39.80    8.03
  -1  10   5    3.28    2.78
   1 -10   5    3.90    2.49
   1 -10   6   33.09    7.28
  -1  10   6   49.36    8.29
   1  10   6   35.48    7.72
  -1  10   7   11.66    4.26
   1 -10   7   12.76    4.07
   1  10   7   15.53    4.65
   1  10   7    5.14    3.55
  -1  10   8   -2.07    3.32
   1  10   8    1.47    1.81
   1  10   8    4.75    3.71
   1  10   9   16.40    4.59
  -1  10   9   18.35    6.27
   1  10   9   26.20    7.00
  -1  10  10    6.14    3.64
   1  10  10   10.72    4.65
   1  10  10   17.91    5.65
  -1  10  11   17.78    4.82
   1  10  11    2.26    4.05
   1  10  11   13.13    5.04
   1  10  12   20.58    5.17
   1  10  12   20.83    6.16
  -1  10  12   11.85    4.62
   1  10  13   19.33    6.17
   1  10  13   21.06    5.53
  -1  10  13    7.89    4.15
   1  10  14    6.90    3.60
   1  10  14    5.11    4.71
  -1  10  14    8.45    4.34
  -1  10  14   12.91    4.50
   1  10  15    7.21    3.64
  -1  10  15    7.33    4.62
   1  10  15    2.28    2.62
  -1  10  15   15.74    6.31
   1  10  16    3.99    3.08
  -1  10  16    2.64    2.30
  -1  10  16    0.67    2.41
   1  10  16    1.54    2.44
   1  11 -10    6.84    5.35
  -1  11  -9   19.82    6.31
   1  11  -9   15.32    5.52
   1  11  -8    3.68    2.18
  -1  11  -8   -3.32    4.08
  -1  11  -7   20.90    5.91
   1  11  -7   14.64    6.00
   1  11  -6   31.25    6.67
  -1  11  -6   28.47    6.39
  -1  11  -5    6.64    3.37
   1  11  -5    6.41    3.97
   1  11  -4    4.39    3.79
  -1  11  -4   17.56    5.01
  -1  11  -3   15.86    5.63
   1  11  -3   27.99    6.69
   1  11  -2    6.61    4.45
  -1  11  -2    5.66    3.58
   1  11  -1   28.64    7.63
   1 -11  -1   19.17    6.61
  -1  11  -1   11.79    4.39
   1  11   0   16.84    5.23
   1  11   0   33.75    7.29
  -1  11   0   16.35    5.29
   1 -11   0   20.42    5.17
   1  11   1    7.37    5.13
  -1  11   1   10.72    4.03
   1  11   1   13.37    6.00
   1 -11   1    4.73    2.66
  -1  11   2    6.53    4.76
   1  11   2    8.27    4.54
   1  11   2   10.12    3.90
   1 -11   2    7.24    4.65
  -1  11   3   31.21    7.53
   1  11   3   14.52    5.06
   1  11   3   13.06    4.11
   1 -11   3   15.31    5.93
   1  11   4   14.33    4.56
   1 -11   4   25.02    7.57
  -1  11   4   18.96    6.78
   1  11   4   20.27    6.60
  -1  11   5    2.11    2.69
   1  11   5   11.42    5.34
   1  11   5   12.35    4.79
   1 -11   5   13.61    5.29
  -1  11   6   33.10    7.41
   1  11   6   20.34    6.15
   1  11   6   29.05    7.29
  -1  11   7   18.13    5.36
   1  11   7   36.52    8.73
   1  11   7   28.80    7.46
  -1  11   8    6.00    4.67
   1  11   8   -0.10    2.12
   1  11   8   -0.98    3.18
   1  11   9   16.26    5.67
   1  11   9   16.97    5.21
  -1  11   9    9.86    5.04
   1  11  10   19.74    5.88
  -1  11  10   22.49    6.50
   1  11  10   22.12    7.25
   2   0 -31    8.64    4.21
   2   0 -30   54.53    9.77
   2   0 -29   37.50    7.81
   2   0 -28   54.36    8.66
   2   0 -27   21.53    5.89
   2   0 -26    6.18    3.12
   2   0 -25  101.68   11.19
   2   0 -24   77.19    9.66
   2   0 -23  243.81   17.33
   2   0 -22   43.70    7.24
  -2   0 -22   47.22    7.66
   2   0 -21  157.77   13.03
  -2   0 -21  176.91   14.28
   2   0 -20   52.03    7.17
  -2   0 -20   51.37    7.46
   2   0 -19  754.99   27.63
  -2   0 -19  744.66   27.35
  -2   0 -18   29.21    5.32
   2   0 -18   21.74    4.75
   2   0 -17  261.10   15.12
  -2   0 -17  327.14   17.42
   2   0 -16   31.65    5.19
  -2   0 -16   60.91    7.34
  -2   0 -15  674.74   23.70
   2   0 -15  671.74   23.09
  -2   0 -14   40.65    5.50
   2   0 -14   43.65    5.67
   2   0 -13 5367.86   60.77
  -2   0 -13 5314.48   62.03
   2   0 -12   76.88    6.91
  -2   0 -12   76.33    7.12
   2   0 -11  356.95   14.61
  -2   0 -11  375.81   15.37
  -2   0 -10 2930.11   40.85
   2   0 -10 2961.49   39.91
   2   0  -9 2259.32   23.14
   2   0  -9 2271.94   33.33
   2   0  -8  554.03   11.19
   2   0  -8  599.92   16.48
  -2   0  -8  573.56   16.44
   2   0  -7 9101.67   42.56
   2   0  -7 9040.54   60.66
  -2   0  -7 9063.96   62.13
   2   0  -6  728.83   11.70
   2   0  -6  753.40   16.31
   2   0  -5 2623.76   21.07
   2   0  -5 2667.02   28.56
   2   0  -4 9999.00   52.47
   2   0  -3 7182.76   40.53
   2   0  -3 7391.57   42.00
   2   0  -1  507.87   10.13
   2   0  -1  509.58    9.79
   2   0  -1  539.17    9.36
   2   0   0    7.02    1.19
   2   0   0    6.00    1.08
   2   0   1  491.76    8.72
   2   0   1  495.36    9.89
   2   0   5 2566.19   27.15
   2   0   5 2602.64   16.11
   2   0   6  738.37   15.21
   2   0   7 9141.79   56.09
   2   0   8  579.66   14.77
   2   0   9 2127.14   29.69
   2   0  10 2920.16   35.85
   2   0  11  398.20   13.58
  -2   0  11  389.12   10.41
  -2   0  12   84.63    5.00
   2   0  12   71.99    6.04
   2   0  13 5237.77   53.61
  -2   0  13 5542.07   42.93
   2   0  14   34.71    4.57
  -2   0  14   43.89    3.97
  -2   0  15  694.50   16.34
   2   0  15  708.96   20.63
  -2   0  16   27.17    3.41
   2   0  16   30.22    4.53
   2   0  17  260.62   13.71
  -2   0  17  306.71   11.55
  -2   0  18   18.21    2.80
   2   0  18   18.87    3.76
   2   0  19  744.12   24.11
   2   0  20   50.73    6.62
   2  -1 -30    3.14    3.77
   2  -1 -29   -1.93    3.05
   2   1 -29   16.70    7.30
   2  -1 -28    2.50    1.88
   2   1 -28    8.98    4.24
   2   1 -27    5.83    2.67
   2  -1 -27    4.30    3.55
   2  -1 -26    1.18    2.06
  -2  -1 -26   -0.96    2.85
   2   1 -26    2.27    2.87
   2   1 -25   -1.11    1.54
   2  -1 -25    2.17    2.23
  -2  -1 -25    4.86    3.49
  -2  -1 -24    7.56    3.43
   2   1 -24    5.13    2.90
   2  -1 -24    2.35    2.22
   2   1 -23    9.20    3.16
   2  -1 -23    3.45    1.49
  -2  -1 -23    5.22    2.66
  -2  -1 -22   18.83    4.52
   2   1 -22   16.58    4.39
   2  -1 -22   24.85    5.79
   2  -1 -21    9.39    3.38
   2   1 -21   15.64    4.55
  -2  -1 -21   16.19    4.94
  -2  -1 -20   42.26    7.13
   2   1 -20   34.72    6.22
   2  -1 -20   49.85    7.66
   2   1 -19    5.53    3.09
  -2  -1 -19    7.44    3.38
   2  -1 -19   -1.14    1.51
  -2  -1 -18   55.95    7.60
   2   1 -18   46.93    6.65
   2  -1 -18   56.20    7.77
   2   1 -17    3.31    1.15
  -2  -1 -17    9.43    3.40
   2  -1 -17    8.62    3.39
   2  -1 -16   43.05    6.16
  -2  -1 -16   41.94    6.12
   2   1 -16   42.51    5.63
   2   1 -15   52.46    6.40
  -2  -1 -15   47.89    6.39
   2  -1 -15   48.66    6.53
  -2  -1 -14  168.09   11.53
   2   1 -14  161.20   10.39
   2  -1 -14  167.20   11.34
   2  -1 -13   50.26    6.36
  -2  -1 -13   48.73    6.14
   2   1 -13   44.22    5.34
   2   1 -12  682.58   19.96
  -2  -1 -12  633.51   20.88
   2  -1 -12  673.26   21.78
   2  -1 -11   38.57    4.96
   2   1 -11   45.66    4.42
   2   1 -11   38.71    4.60
   2  -1 -11   37.10    4.14
  -2  -1 -11   36.97    5.11
   2  -1 -10   38.77    4.93
   2   1 -10   43.99    4.65
   2  -1 -10   34.75    4.06
  -2  -1 -10   38.46    4.80
   2   1 -10   40.61    4.05
  -2  -1  -9  107.93    7.55
   2  -1  -9  120.05    8.28
   2  -1  -9  130.48    7.26
   2   1  -9  116.14    6.38
   2   1  -9  115.75    7.04
   2  -1  -8  196.32   10.19
   2   1  -8  194.63    8.36
   2   1  -8  187.03    7.96
   2  -1  -8  198.80    8.72
  -2  -1  -8  178.30    9.35
   2  -1  -7  101.29    6.90
   2   1  -7   98.62    5.56
   2  -1  -7  115.50    6.49
  -2  -1  -7  113.06    7.07
   2   1  -7  109.62    6.08
   2   1  -6  982.31   17.49
   2  -1  -6  949.98   20.67
   2   1  -6 1007.76   16.77
  -2  -1  -6  974.67   19.77
   2  -1  -6  973.03   18.36
   2  -1  -5   27.51    2.98
   2   1  -5   22.12    2.65
  -2  -1  -5   18.89    2.51
   2  -1  -5   24.02    3.00
   2   1  -5   27.14    2.50
   2  -1  -4  140.50    6.59
   2   1  -4  131.29    6.15
   2   1  -4  139.52    5.09
   2  -1  -4  142.30    7.03
  -2  -1  -4  141.23    6.71
  -2  -1  -3 1227.59   18.10
   2  -1  -3 1203.97   19.66
   2   1  -3 1212.48   18.16
   2   1  -3 1265.09   12.69
   2   1  -3 1223.28   13.70
   2  -1  -3 1228.65   18.63
   2  -1  -2  155.99    6.48
   2   1  -2  159.71    4.55
   2   1  -2  166.54    6.49
   2  -1  -2  151.94    6.74
   2   1  -2  163.76    4.91
   2  -1  -1   36.77    3.15
   2   1  -1   37.69    3.05
   2  -1  -1   37.65    3.09
   2   1  -1   34.61    2.54
   2  -1   0    1.24    0.80
   2   1   0    0.04    0.51
   2   1   0   -0.08    0.51
   2  -1   0    1.12    0.62
   2  -1   1   40.47    3.20
   2   1   1   36.77    2.88
   2   1   1   33.61    2.84
   2   1   2  167.70    6.24
   2  -1   2  161.54    6.43
   2   1   2  160.19    6.53
   2   1   3 1252.28   19.20
   2  -1   3 1275.90   18.21
   2   1   3 1278.33   17.34
   2   1   4  131.46    6.55
   2  -1   4  135.21    6.03
   2   1   4  135.36    5.68
   2   1   5   22.08    2.73
   2  -1   5   22.90    2.48
   2   1   5   26.08    2.46
   2   1   6  997.82   15.50
   2  -1   6 1001.60   17.26
   2   1   7  109.58    5.27
   2  -1   7  103.75    5.66
   2   1   7  120.48    7.05
   2  -1   8  186.10    7.85
   2   1   8  201.08    9.50
   2   1   8  195.36    7.06
   2  -1   9  107.16    6.23
   2   1   9  117.05    5.67
   2   1   9  113.06    7.40
   2   1  10   48.28    5.08
   2   1  10   48.31    3.68
   2  -1  10   36.87    3.77
   2   1  11   30.71    2.97
   2  -1  11   36.92    3.89
   2   1  11   36.60    4.38
   2   1  12  677.47   14.41
   2   1  12  659.13   19.49
   2  -1  12  680.94   17.29
   2  -1  13   63.55    5.48
   2   1  13   60.87    6.16
   2   1  13   52.45    4.04
  -2   1  14  168.17    9.53
   2   1  14  168.66    7.40
   2  -1  14  188.17    9.67
   2   1  14  164.09   10.45
  -2  -1  15   46.15    2.71
   2  -1  15   53.27    5.41
  -2   1  15   60.72    5.85
   2   1  15   47.40    5.83
   2   1  15   39.77    3.82
   2   1  16   41.98    5.66
   2   1  16   41.99    3.65
   2  -1  16   37.25    4.62
  -2   1  16   35.88    4.62
   2   1  17    7.09    2.14
  -2   1  17    6.46    2.30
   2  -1  17    7.88    2.53
  -2   1  18   55.82    6.09
   2  -1  18   51.09    5.89
   2   1  18   52.61    6.65
  -2   1  19    6.87    2.69
   2  -1  19    4.98    2.21
   2   1  19    0.93    1.85
   2   1  20   54.81    7.09
   2   1  21   12.31    3.82
   2  -2 -30   -0.03    2.21
   2  -2 -29   93.49   11.65
  -2  -2 -28   26.75    7.21
   2  -2 -28   17.10    5.25
  -2  -2 -27   22.09    5.57
   2  -2 -27    5.59    2.14
   2  -2 -26    8.03    3.65
  -2  -2 -26    4.11    1.51
   2  -2 -25  158.03   14.41
  -2  -2 -25  117.70   12.94
   2   2 -24   11.20    3.91
  -2  -2 -24   16.11    5.02
   2  -2 -24   17.79    5.22
   2   2 -23  233.27   16.30
   2  -2 -23  242.78   17.53
  -2  -2 -23  237.40   16.97
   2   2 -22    5.78    3.24
  -2  -2 -22    7.32    4.23
   2  -2 -22    7.90    3.40
  -2  -2 -21    1.68    2.79
   2   2 -21    3.51    1.70
   2   2 -20   16.41    3.94
   2  -2 -20   13.85    4.28
   2  -2 -19  244.41   16.42
   2   2 -19  268.13   15.69
  -2  -2 -19  242.31   16.12
   2   2 -18   73.60    8.02
  -2  -2 -18   77.19    8.42
   2  -2 -18   50.99    7.08
   2  -2 -17  319.61   17.75
   2   2 -17  286.94   15.23
  -2  -2 -17  300.14   16.91
  -2  -2 -16    2.99    2.42
   2   2 -16    5.73    2.51
   2  -2 -16   11.75    3.74
   2   2 -15   48.13    5.99
   2  -2 -15   53.53    7.13
   2   2 -15   52.11    5.29
  -2  -2 -15   50.25    6.96
   2   2 -14    5.62    1.80
   2  -2 -14   11.93    3.62
  -2  -2 -14    7.35    2.50
   2   2 -14    7.84    2.38
   2   2 -13 1064.83   24.56
  -2  -2 -13 1065.85   28.74
   2   2 -13 1061.93   22.20
   2  -2 -13 1079.59   26.89
   2   2 -12  238.65   10.97
   2  -2 -12  238.06   13.42
   2   2 -12  253.90   10.83
   2  -2 -12  234.53   12.26
  -2  -2 -12  252.52   13.69
   2  -2 -11    4.25    2.58
  -2  -2 -11    4.81    2.04
   2   2 -11    3.01    1.36
   2   2 -11    5.74    1.76
   2  -2 -11    3.23    1.55
  -2   2 -11    3.91    0.74
  -2   2 -10  147.24    4.92
   2   2 -10  165.13    7.99
   2  -2 -10  160.32   10.34
   2   2 -10  173.04    8.53
  -2  -2 -10  153.25    9.92
  -2  -2  -9  803.91   21.88
   2   2  -9  782.85   16.55
   2  -2  -9  798.68   21.10
  -2   2  -9  791.09   12.50
   2   2  -9  783.50   18.18
   2  -2  -9  835.71   23.27
   2   2  -8   47.96    3.74
  -2  -2  -8   50.51    5.35
  -2   2  -8   56.85    3.51
   2   2  -8   52.10    4.64
   2  -2  -8   57.46    5.97
   2  -2  -8   56.48    5.54
   2  -2  -7  674.11   18.82
  -2  -2  -7  695.07   18.62
   2   2  -7  716.50   17.16
  -2   2  -7  744.98   13.06
   2   2  -7  735.58   13.07
   2  -2  -7  704.17   19.60
   2   2  -6   48.83    4.46
  -2   2  -6   37.88    3.06
   2   2  -6   43.39    2.39
   2  -2  -6   48.01    4.83
   2   2  -6   42.40    2.85
   2  -2  -6   45.93    4.91
  -2  -2  -6   49.43    4.66
   2   2  -5   83.17    5.80
  -2   2  -5  103.64    5.20
   2   2  -5   97.72    3.60
   2   2  -5   91.07    3.92
  -2  -2  -5   97.95    6.26
   2  -2  -5  108.11    7.08
   2  -2  -5   94.12    6.64
   2   2  -4  242.36    9.63
   2  -2  -4  262.23   10.70
   2  -2  -4  242.31   10.37
   2   2  -4  247.57    6.95
  -2  -2  -4  236.27    9.07
  -2   2  -4  238.30    8.07
   2   2  -3 3368.83   35.25
   2  -2  -3 3468.03   38.72
   2  -2  -3 3411.56   37.25
   2   2  -3 3504.81   27.99
  -2  -2  -3 3557.24   32.40
   2  -2  -2  437.58   12.83
   2   2  -2  451.82   10.74
   2   2  -2  432.83   12.68
   2  -2  -2  411.08   13.07
  -2  -2  -2  457.67   10.57
  -2  -2  -1 1220.62   15.53
   2   2  -1 1154.94   20.87
   2  -2  -1 1198.35   20.47
   2  -2  -1 1207.37   21.65
   2   2  -1 1199.10   18.54
   2   2   0  235.01    9.37
   2  -2   0  228.34    8.68
   2   2   0  226.23    8.46
   2   2   1 1177.38   21.18
   2  -2   1 1178.49   19.34
   2   2   1 1140.26   20.07
   2   2   2  445.60   12.96
   2  -2   2  427.80   12.53
   2  -2   2  438.14   11.78
   2   2   2  425.08   12.76
   2   2   3 3455.80   37.18
   2   2   3 3389.15   36.23
   2   2   4  256.41    9.90
   2  -2   4  254.84    9.60
   2  -2   5   92.58    5.86
   2   2   5   95.69    6.73
   2   2   5   98.08    6.11
   2  -2   6   48.43    4.22
   2   2   6   37.89    3.90
   2   2   6   49.07    4.95
   2  -2   7  715.40   16.48
   2   2   7  742.69   17.37
   2   2   7  708.23   19.24
   2   2   8   56.83    4.90
   2  -2   8   59.01    4.81
   2   2   8   61.95    5.90
   2   2   9  811.23   18.86
   2   2   9  792.43   21.64
   2  -2   9  855.45   18.00
   2   2  10  154.93    9.77
   2  -2  10  156.02    7.90
   2   2  10  149.11    8.12
   2  -2  11    2.15    1.13
   2   2  11    4.42    2.37
   2   2  11    3.88    1.61
   2   2  12  216.21   12.11
   2   2  12  240.09   10.71
   2  -2  12  237.71   10.07
   2   2  13 1081.65   23.24
   2   2  13 1096.39   27.89
   2  -2  14   10.14    2.33
   2   2  14    7.23    1.96
   2   2  14    6.53    2.60
   2   2  15   60.83    6.89
   2  -2  15   54.00    5.15
   2   2  15   51.39    5.33
   2   2  16    5.40    1.35
   2  -2  16    4.54    1.59
  -2   2  16    5.50    2.68
   2   2  16    5.48    2.02
  -2   2  17  329.52   16.11
   2  -2  17  283.72   12.75
   2   2  17  288.75   12.75
   2   2  17  345.64   17.30
   2   2  18   62.02    7.54
  -2   2  18   72.15    7.86
  -2   2  19  280.19   15.59
   2   2  19  262.10   15.97
  -2   2  20   26.28    5.09
   2   2  20   20.82    4.75
  -2   2  21    3.96    1.91
   2   2  21    1.41    2.00
   2   2  22    7.99    3.78
   2   2  23  236.44   16.38
   2  -3 -30    3.49    3.14
  -2  -3 -30    6.48    4.44
   2  -3 -29   15.35    5.22
  -2  -3 -29   12.14    5.55
  -2  -3 -28   -4.63    3.67
   2  -3 -28    0.79    1.97
  -2  -3 -27    3.10    3.47
   2  -3 -27   -1.81    1.81
   2  -3 -26    1.95    3.96
  -2  -3 -26    0.81    2.39
   2  -3 -25   21.89    5.87
  -2  -3 -25   27.35    6.30
  -2  -3 -24    1.78    2.00
   2  -3 -24    0.83    3.35
   2  -3 -23    6.16    3.64
  -2  -3 -23    2.88    3.20
  -2  -3 -22    2.11    2.66
   2  -3 -22    1.10    2.53
  -2  -3 -21   25.77    5.58
   2  -3 -21   31.11    5.89
   2  -3 -20    7.31    4.05
  -2  -3 -20    6.16    2.91
   2  -3 -19    0.39    2.15
  -2  -3 -19    0.69    2.56
   2  -3 -18   10.77    3.88
  -2  -3 -18   11.68    3.94
   2   3 -18   11.80    3.64
   2   3 -17    1.75    2.21
  -2  -3 -17   -2.15    3.93
   2  -3 -17   -0.08    1.59
   2  -3 -16    8.04    3.82
   2   3 -16    5.10    2.06
  -2  -3 -16   12.34    3.95
   2   3 -15    7.27    2.43
   2  -3 -15    9.34    3.37
   2   3 -15    7.69    2.32
  -2  -3 -15   15.00    3.31
   2  -3 -14   11.29    3.01
   2   3 -14   24.00    3.88
   2  -3 -14   14.59    3.05
  -2  -3 -14   13.45    3.80
   2   3 -14   16.08    2.96
  -2   3 -13    9.33    1.98
   2  -3 -13    4.74    2.61
   2  -3 -13    2.61    1.42
   2   3 -13    3.94    1.62
  -2  -3 -13    2.14    2.09
   2   3 -13    7.09    2.61
   2   3 -12   61.44    5.27
   2   3 -12   50.83    5.50
   2  -3 -12   50.95    6.40
  -2  -3 -12   59.67    6.92
   2  -3 -12   56.73    7.19
  -2   3 -12   59.65    4.37
   2  -3 -11   60.29    6.90
  -2  -3 -11   67.00    7.05
   2   3 -11   68.61    5.32
   2   3 -11   74.73    6.45
   2  -3 -11   49.37    6.35
  -2   3 -11   61.58    4.68
  -2   3 -10   58.86    4.60
   2   3 -10   62.14    5.89
  -2  -3 -10   66.92    7.05
   2  -3 -10   55.67    6.42
   2   3 -10   57.24    4.44
   2  -3 -10   69.42    7.32
   2   3  -9   64.32    3.39
   2   3  -9   75.96    4.63
   2   3  -9   83.49    6.64
  -2  -3  -9   69.15    6.75
  -2   3  -9   77.34    5.41
   2  -3  -9   84.47    7.67
   2  -3  -9   77.74    7.42
   2   3  -8    7.81    2.22
  -2   3  -8    4.93    1.32
  -2  -3  -8    7.69    2.29
   2   3  -8    8.88    1.47
   2  -3  -8    7.86    2.74
   2  -3  -8    9.89    2.99
  -2  -3  -7   47.80    5.29
   2   3  -7   53.77    5.48
   2   3  -7   49.32    3.43
  -2   3  -7   47.00    4.35
   2  -3  -7   45.84    5.57
   2  -3  -7   38.33    4.95
  -2   3  -6    3.27    1.36
   2   3  -6   -0.04    1.41
  -2  -3  -6    1.15    0.95
   2  -3  -6    2.94    2.14
   2  -3  -6    2.49    1.95
  -2  -3  -5  239.76   10.55
   2  -3  -5  254.39   11.92
   2   3  -5  268.92   11.80
   2  -3  -5  255.08   12.50
  -2   3  -5  258.42   10.53
   2   3  -4   23.84    3.62
   2  -3  -4   22.48    3.68
   2  -3  -4   25.99    3.69
  -2   3  -4   22.80    3.12
  -2  -3  -4   27.71    3.36
  -2  -3  -3   24.10    2.92
   2   3  -3   22.50    3.45
  -2   3  -3   19.85    3.09
   2  -3  -3   20.65    3.28
   2  -3  -3   18.40    3.44
   2  -3  -2   86.08    6.28
  -2  -3  -2   78.46    4.87
   2  -3  -2   95.04    7.12
   2   3  -2   95.53    7.05
  -2   3  -2   82.76    6.17
  -2  -3  -1 1748.00   20.60
  -2   3  -1 1700.46   28.01
   2  -3  -1 1668.90   26.79
   2  -3  -1 1756.60   30.80
   2   3  -1 1696.14   29.39
   2   3   0  178.26    9.62
   2  -3   0  160.51    9.24
   2  -3   0  177.01    8.59
  -2  -3   0  176.84    5.85
   2  -3   1 1833.04   30.17
   2  -3   1 1782.78   26.28
   2  -3   2   76.49    6.17
   2   3   2   84.49    6.60
   2  -3   2   87.87    5.76
   2   3   3   22.24    3.66
   2  -3   3   27.16    3.33
   2  -3   3   23.06    3.27
   2   3   4   22.87    3.50
   2   3   4   22.90    3.46
   2  -3   4   28.58    3.78
   2  -3   4   25.18    3.14
   2   3   5  239.93   11.42
   2   3   5  249.61   12.09
   2  -3   5  234.64   10.58
   2  -3   6    1.10    1.08
   2   3   6    0.56    0.59
   2  -3   7   47.03    4.63
   2   3   7   48.90    5.69
   2   3   7   53.61    5.46
   2   3   8    4.14    1.92
   2   3   8    8.01    2.16
   2  -3   8    7.26    1.63
   2   3   9   79.37    6.78
   2   3   9   68.46    7.04
   2  -3   9   70.30    5.70
   2  -3  10   48.06    4.80
   2   3  10   67.42    6.35
   2   3  10   53.52    6.33
   2   3  11   66.57    7.19
   2  -3  11   68.26    5.66
   2   3  11   57.26    5.97
   2   3  12   51.49    5.79
   2   3  12   51.49    6.32
   2  -3  12   49.97    4.96
   2  -3  13    3.90    1.36
   2   3  13    3.69    1.80
   2   3  13    6.59    2.10
   2   3  14   15.54    3.53
   2   3  14   19.87    4.50
   2  -3  14   16.14    2.80
   2   3  15   16.29    3.58
   2   3  15   10.19    3.56
   2  -3  15   10.62    2.19
   2  -3  16    2.42    1.49
   2   3  16    3.23    1.13
   2   3  17    1.25    2.17
   2   3  17    2.42    2.28
   2   3  18    5.39    2.81
  -2   3  18    7.34    2.17
  -2   3  18   10.34    3.57
   2   3  18    2.37    1.34
   2   3  19    1.09    2.20
  -2   3  19    3.07    2.35
  -2   3  19    2.83    1.87
  -2   3  20    8.83    3.62
  -2   3  20    8.43    2.79
   2   3  20    8.13    3.56
   2   3  21   21.38    4.77
  -2   3  21   15.42    4.20
  -2   3  22    4.18    2.41
   2   3  22    7.33    4.27
   2   3  23    8.49    3.46
   2   3  24    3.46    2.42
   2  -4 -29   60.55    9.54
  -2  -4 -29   53.81    9.03
  -2  -4 -28   18.88    5.82
   2  -4 -28   11.21    4.36
  -2  -4 -27   10.02    4.40
   2  -4 -27    9.41    2.34
  -2  -4 -26    0.32    2.28
   2  -4 -26    5.53    2.42
   2  -4 -25  107.16   12.31
  -2  -4 -25  120.22   12.82
   2  -4 -24    5.85    3.72
  -2  -4 -24    2.36    1.70
   2  -4 -23   83.62   10.76
  -2  -4 -23   72.47    9.33
   2  -4 -22    2.97    3.90
  -2  -4 -22    6.56    4.32
   2  -4 -21    4.68    1.66
  -2  -4 -21    5.31    3.01
  -2  -4 -20   17.26    4.90
   2  -4 -20   10.40    4.52
  -2  -4 -19  261.95   17.32
   2  -4 -19  277.49   17.90
  -2  -4 -18   67.78    8.92
   2  -4 -18   92.25   10.21
   2  -4 -17  263.07   17.54
  -2  -4 -17  251.91   16.48
  -2  -4 -16    5.20    2.36
   2  -4 -16    3.19    1.96
   2   4 -15   59.32    6.71
   2  -4 -15   67.15    8.47
   2  -4 -15   75.64    8.97
  -2  -4 -15   50.98    7.26
   2  -4 -14  108.24   10.35
  -2  -4 -14   94.50    9.45
   2  -4 -14  108.39   10.26
   2   4 -14  111.49    9.15
   2  -4 -13  670.17   25.05
  -2  -4 -13  657.24   24.46
   2  -4 -13  689.50   25.27
   2   4 -13  631.10   21.02
   2   4 -12  206.41   12.00
   2  -4 -12  203.86   13.68
   2  -4 -12  211.80   13.80
  -2   4 -12  208.00   10.45
  -2  -4 -12  210.18   13.35
  -2  -4 -11   85.42    7.91
  -2   4 -11   75.54    6.45
   2  -4 -11   76.13    8.42
   2   4 -11   92.66    7.94
   2  -4 -11   90.62    9.11
   2  -4 -10   10.30    3.11
   2   4 -10    7.28    1.57
   2  -4 -10   12.57    3.87
  -2  -4 -10   10.74    2.60
   2   4 -10    6.86    2.44
  -2   4 -10    5.16    1.88
   2   4  -9  723.11   22.01
   2  -4  -9  734.73   24.27
  -2  -4  -9  734.15   22.88
   2  -4  -9  737.85   24.72
  -2   4  -9  733.06   20.22
  -2  -4  -8   88.31    7.58
   2  -4  -8   77.36    8.20
  -2   4  -8   95.17    7.39
   2  -4  -8   88.91    8.22
   2   4  -8   78.38    7.17
   2   4  -7  166.75   10.59
  -2   4  -7  186.30   10.45
   2  -4  -7  166.79   11.74
  -2  -4  -7  183.66   10.65
   2  -4  -7  179.48   11.47
  -2  -4  -6   93.37    7.34
   2  -4  -6   93.25    8.01
  -2   4  -6   87.75    7.18
   2  -4  -6   89.01    8.18
   2   4  -6   89.22    7.72
   2  -4  -5   59.06    6.16
   2   4  -5   53.22    6.05
  -2  -4  -5   60.30    5.69
  -2   4  -5   59.08    6.06
   2   4  -4  217.61   12.01
   2  -4  -4  190.45   10.79
  -2  -4  -4  230.70   10.36
   2  -4  -4  206.91   12.40
  -2   4  -4  207.26   11.12
  -2   4  -3  545.41   18.22
   2  -4  -3  556.86   20.12
   2  -4  -3  547.43   17.70
   2   4  -3  537.24   19.01
  -2  -4  -3  527.32   14.83
   2  -4  -2   57.00    5.48
   2   4  -2   60.91    6.48
  -2  -4  -2   52.98    4.59
  -2   4  -2   60.09    6.20
   2  -4  -2   60.76    6.43
   2   4  -1 2557.28   41.32
  -2  -4  -1 2554.33   28.55
   2  -4  -1 2594.24   42.11
  -2   4  -1 2610.75   40.39
   2   4   0  270.35   13.66
  -2   4   0  250.94   12.73
  -2  -4   0  280.00    8.44
   2  -4   0  275.97   11.49
   2  -4   0  280.29   13.64
   2  -4   1 2691.83   35.61
   2   4   1 2465.29   40.77
  -2   4   1 2467.66   39.94
   2  -4   1 2539.40   40.90
  -2  -4   1 2647.81   21.83
   2  -4   2   52.83    5.80
   2   4   2   55.11    6.24
  -2   4   2   53.39    5.91
  -2  -4   2   63.20    5.79
   2  -4   2   55.17    4.93
   2   4   3  562.97   19.62
  -2  -4   3  535.36   16.62
   2  -4   3  579.58   19.00
  -2   4   3  582.01   19.42
   2  -4   3  554.01   15.72
   2   4   4  213.44   11.93
   2  -4   4  220.25   11.64
  -2   4   4  190.10   11.48
   2  -4   4  221.40    9.83
  -2  -4   4  223.21   10.50
   2  -4   5   52.41    4.85
  -2   4   5   49.49    5.79
   2   4   5   48.32    6.00
   2  -4   6  103.54    6.85
   2   4   6  111.50    8.93
  -2   4   6   99.75    8.21
   2  -4   6   87.14    7.28
   2   4   7  211.86   12.81
   2   4   7  181.12   11.41
  -2   4   7  196.84   11.83
   2  -4   7  182.37   10.52
   2   4   8   90.28    8.77
  -2   4   8  102.53    8.61
   2  -4   8   78.33    6.69
   2   4   8   83.37    7.73
   2   4   9  703.40   22.84
   2   4   9  698.91   24.17
   2  -4   9  688.56   20.15
  -2   4   9  661.27   22.28
   2   4  10    4.29    1.00
   2   4  10    7.32    1.87
   2  -4  10    5.61    1.98
  -2   4  11   71.35    7.32
   2   4  11   80.20    7.82
   2  -4  11   70.59    6.54
   2   4  11   84.90    8.79
   2   4  12  184.79   12.15
   2   4  12  175.38   12.75
   2  -4  12  206.07   10.94
  -2   4  12  214.65   13.36
   2   4  13  712.67   25.91
  -2   4  13  673.63   24.06
   2   4  13  665.61   23.34
  -2   4  14  112.05    9.87
   2   4  14   92.20    8.87
   2   4  14  125.07   10.76
   2  -4  14  101.89    7.78
   2  -4  15   62.85    6.34
   2   4  15   73.03    7.92
  -2   4  15   58.77    7.11
   2   4  15   74.43    8.62
  -2   4  16    6.50    3.81
   2   4  16    6.09    3.05
   2   4  16    6.50    2.90
   2   4  17  256.31   16.71
  -2   4  17  257.35   15.65
   2   4  17  230.82   14.68
  -2   4  18   73.40    8.76
   2   4  18   80.94    9.62
   2   4  18   76.68    8.51
  -2   4  19  280.75   18.16
   2   4  19  269.78   17.57
  -2   4  19  283.35   17.65
   2   4  19  266.16   16.43
   2   4  20    6.86    3.37
  -2   4  20   17.55    4.14
  -2   4  20   10.62    3.74
   2   4  21    0.71    1.58
  -2   4  21   -3.23    3.41
  -2   4  21    2.01    3.75
   2   4  22    3.90    3.45
  -2   4  22    6.26    3.74
  -2   4  23   80.25   10.75
   2   4  23   70.74    9.82
   2   4  24    0.36    2.59
   2   4  25  131.16   13.75
   2  -5 -28    3.28    3.52
  -2  -5 -28    1.42    3.35
   2  -5 -27   10.40    4.54
  -2  -5 -27   15.49    5.31
  -2  -5 -26    2.32    1.93
   2  -5 -26   -2.41    2.71
  -2  -5 -25   16.52    5.45
   2  -5 -25   12.00    4.02
  -2  -5 -24    1.04    1.87
   2  -5 -24    7.19    1.73
   2  -5 -23    0.62    2.89
  -2  -5 -23    2.55    2.57
   2  -5 -22   33.35    7.07
  -2  -5 -22   21.51    6.23
   2  -5 -21    2.37    2.53
  -2  -5 -21    1.56    3.21
  -2  -5 -20    1.55    2.92
   2  -5 -20    3.13    1.95
  -2  -5 -19   31.49    6.19
   2  -5 -19   16.70    5.49
  -2  -5 -18    2.43    2.91
   2  -5 -18   -1.04    3.06
  -2  -5 -17    8.04    3.57
   2  -5 -17    1.69    3.15
   2  -5 -16   19.37    3.97
  -2  -5 -16   25.90    5.68
   2  -5 -15    6.44    3.03
  -2  -5 -15    6.21    2.34
   2  -5 -15    1.42    1.96
   2  -5 -14    7.69    3.38
   2   5 -14    9.47    3.34
   2  -5 -14   13.70    4.36
  -2  -5 -14    7.04    3.43
   2  -5 -13  111.69   10.87
   2  -5 -13  108.27   10.73
  -2  -5 -13  137.87   11.44
   2   5 -13  125.22   10.23
  -2  -5 -12   51.33    6.94
  -2   5 -12   50.98    6.05
   2  -5 -12   67.31    7.99
   2  -5 -12   42.26    6.92
   2   5 -12   54.20    6.66
   2   5 -11    3.56    2.01
  -2   5 -11    4.42    2.12
   2  -5 -11    0.75    2.02
   2  -5 -11    0.28    1.07
   2   5 -10   39.76    5.94
   2  -5 -10   30.03    5.31
  -2   5 -10   32.56    5.28
  -2  -5 -10   24.44    4.90
   2  -5 -10   34.31    5.68
  -2  -5  -9   28.31    4.49
  -2   5  -9   20.24    4.03
   2  -5  -9   25.14    4.97
   2  -5  -9   27.97    4.79
   2   5  -9   24.05    4.24
   2   5  -8    6.70    2.68
  -2   5  -8    6.23    1.97
   2  -5  -8    9.51    3.67
   2  -5  -8   10.85    3.15
  -2  -5  -8    5.15    2.17
  -2   5  -7   -0.36    1.52
   2   5  -7   -0.59    0.99
   2  -5  -7    0.44    1.84
  -2  -5  -7    0.74    1.09
   2  -5  -7   -0.42    2.47
  -2  -5  -6    8.36    2.12
   2  -5  -6   13.77    3.16
  -2   5  -6   15.74    3.98
   2  -5  -6   14.91    3.71
   2   5  -6   11.47    3.57
  -2  -5  -5   33.50    4.46
   2  -5  -5   42.08    5.53
  -2   5  -5   39.17    5.65
   2   5  -5   39.55    5.62
   2  -5  -5   28.19    4.65
   2  -5  -4  118.50   10.39
   2  -5  -4  129.28    9.33
   2   5  -4  140.04   10.72
  -2  -5  -4  152.14    9.00
  -2   5  -4  144.38   10.50
   2  -5  -3  128.16   10.55
  -2  -5  -3  144.83    8.46
   2  -5  -3  136.01    9.53
  -2   5  -3  129.52    9.93
   2   5  -3  140.79   10.78
  -2   5  -2   12.81    3.48
   2  -5  -2   13.37    3.04
  -2  -5  -2   13.62    2.35
   2  -5  -2   11.88    2.54
   2   5  -2   11.30    2.50
  -2   5  -1  589.94   21.33
  -2  -5  -1  539.93   14.46
   2  -5  -1  505.20   17.33
   2  -5  -1  546.30   21.44
   2   5  -1  572.93   21.38
   2   5   0   63.82    7.54
   2  -5   0   61.68    6.09
   2  -5   0   63.41    7.13
  -2   5   0   56.50    6.65
  -2  -5   0   55.51    4.29
  -2   5   1  562.95   20.98
   2  -5   1  525.79   16.94
  -2  -5   1  552.72   11.72
  -2  -5   1  557.66   20.09
   2   5   1  564.84   21.58
   2  -5   1  583.61   21.71
  -2  -5   2    9.84    1.41
   2   5   2   16.19    3.84
  -2  -5   2   15.13    3.29
   2  -5   2   16.19    3.09
   2  -5   2   13.66    3.71
  -2   5   2   14.63    3.56
   2  -5   3  127.76    8.21
   2   5   3  137.51   10.91
  -2   5   3  126.59   10.10
  -2  -5   3  131.72    9.33
  -2  -5   4  120.65    8.74
   2   5   4  123.68   10.39
   2  -5   4  125.13    8.09
   2  -5   4  128.87    9.87
  -2   5   4  125.59   10.36
   2   5   5   38.53    5.52
  -2   5   5   36.59    5.85
   2  -5   5   28.98    3.91
  -2  -5   5   35.18    4.77
   2  -5   5   37.64    5.28
  -2   5   6   12.43    3.81
   2   5   6   14.16    3.69
   2  -5   6   13.81    3.01
   2  -5   6   12.44    2.61
  -2  -5   6   18.36    3.38
  -2   5   7    1.08    1.68
   2   5   7    0.64    1.10
   2  -5   7    0.35    1.81
   2  -5   7    1.15    1.39
   2   5   8    5.18    1.64
  -2   5   8    6.00    1.59
   2   5   8    5.48    2.17
   2  -5   8    5.32    1.87
   2  -5   8    3.26    1.45
   2   5   9   32.68    5.78
   2  -5   9   23.80    4.09
  -2   5   9   24.71    5.41
   2  -5   9   23.41    3.69
   2   5   9   30.25    5.41
   2   5  10   28.29    4.91
   2  -5  10   31.25    4.79
   2   5  10   32.33    5.34
  -2   5  10   35.46    5.86
   2   5  11   -0.27    2.81
  -2   5  11    8.03    3.38
   2  -5  11    6.06    2.85
   2   5  11    7.68    2.88
   2   5  12   58.18    7.66
  -2   5  12   53.95    7.73
   2  -5  12   57.64    6.63
   2   5  12   47.76    6.80
   2   5  13  143.91   11.81
   2  -5  13  135.74    9.87
  -2   5  13  110.52   10.47
   2   5  13  128.95   11.84
   2   5  14   16.93    4.95
   2   5  14    8.31    3.48
   2  -5  14    9.83    2.91
  -2   5  14    8.28    2.56
   2   5  15    3.50    2.86
   2   5  15    4.94    2.71
  -2   5  15    6.21    3.15
   2   5  16   14.94    4.14
   2   5  16   14.96    4.22
  -2   5  16   22.64    5.14
   2   5  17    9.42    4.36
   2   5  17    3.88    3.71
  -2   5  17    7.57    3.06
  -2   5  18   -0.30    1.81
   2   5  18   -1.20    1.73
   2   5  18   -1.16    2.28
  -2   5  19   29.80    6.17
   2   5  19   27.32    6.38
   2   5  19   25.15    5.79
  -2   5  19   24.70    5.84
   2   5  20    0.25    1.72
  -2   5  20    4.51    3.90
   2   5  20    3.54    2.40
  -2   5  20    3.11    2.42
   2   5  21    1.98    2.32
  -2   5  21    7.46    3.29
  -2   5  21    1.27    1.94
  -2   5  22   27.46    6.25
   2   5  22   18.39    5.67
   2   5  23    5.85    2.69
  -2   5  23    3.72    2.74
   2   5  24    8.42    5.24
  -2   5  24    3.31    2.52
   2   5  25   10.49    5.27
   2   5  26   -2.86    2.74
  -2  -6 -26   -0.32    2.84
   2  -6 -26    6.79    4.83
  -2  -6 -25   36.14    7.97
   2  -6 -25   49.29    8.55
  -2  -6 -24   16.87    4.99
   2  -6 -24   23.37    6.28
  -2  -6 -23   27.15    6.18
   2  -6 -23   36.66    7.91
   2  -6 -22   24.79    6.32
  -2  -6 -22   31.29    6.66
   2  -6 -21   17.69    4.39
  -2  -6 -21   14.17    4.25
   2  -6 -20    6.15    4.20
  -2  -6 -20    3.89    3.27
   2  -6 -19  221.82   17.04
  -2  -6 -19  192.50   15.74
  -2  -6 -18   16.91    5.20
   2  -6 -18    9.24    4.75
   2  -6 -17  120.18   11.97
  -2  -6 -17   90.26   10.54
  -2  -6 -16   20.42    5.05
   2  -6 -16   23.98    5.95
  -2  -6 -15  164.41   13.76
   2  -6 -15  142.63   12.87
   2  -6 -15  177.88   14.99
   2  -6 -14   53.93    8.03
   2  -6 -14   70.16    9.24
  -2  -6 -14   60.06    8.38
   2   6 -14   47.33    6.67
   2   6 -13  675.68   26.22
  -2  -6 -13  753.67   28.14
   2  -6 -13  789.77   29.55
   2  -6 -13  746.55   29.78
   2   6 -12   15.90    3.12
   2  -6 -12   14.39    4.45
  -2  -6 -12   20.29    5.11
   2  -6 -12   24.94    5.52
  -2   6 -12   13.50    4.24
  -2  -6 -11   99.15    9.79
   2  -6 -11  101.63   10.29
  -2   6 -11  107.43   10.22
   2  -6 -11   98.07   10.45
   2   6 -11  111.94   10.62
   2  -6 -10   34.09    5.82
  -2   6 -10   46.17    6.38
   2  -6 -10   54.12    7.43
  -2  -6 -10   54.91    7.05
   2   6 -10   53.30    7.14
   2   6  -9  564.10   23.32
  -2  -6  -9  538.39   21.85
   2  -6  -9  578.06   23.93
   2  -6  -9  583.30   25.16
  -2   6  -9  550.19   22.69
   2  -6  -8  297.99   17.99
   2   6  -8  314.70   17.54
  -2  -6  -8  318.72   16.44
  -2   6  -8  314.07   16.91
   2   6  -7  517.48   22.52
  -2   6  -7  526.09   21.84
   2  -6  -7  505.55   21.49
   2  -6  -7  503.64   23.32
  -2  -6  -7  547.28   20.73
   2  -6  -6    9.87    3.97
   2   6  -6   13.62    4.17
   2  -6  -6   15.93    4.28
  -2   6  -6    8.84    3.45
  -2  -6  -6   12.47    2.81
   2  -6  -5   61.74    7.49
  -2  -6  -5   60.12    6.31
   2   6  -5   65.01    7.86
   2  -6  -5   68.54    8.35
  -2   6  -5   69.61    8.20
   2  -6  -4  623.61   22.23
   2   6  -4  647.66   24.96
  -2  -6  -4  648.89   20.22
   2  -6  -4  583.14   24.25
  -2   6  -4  615.66   23.67
   2  -6  -3  432.72   20.93
  -2   6  -3  441.78   20.27
  -2  -6  -3  437.31   16.16
   2  -6  -3  437.33   18.30
   2   6  -3  463.93   21.07
  -2  -6  -2  209.22   10.77
  -2   6  -2  226.45   14.28
   2   6  -2  199.85   14.07
   2  -6  -2  229.28   14.90
   2   6  -1  531.57   22.49
   2  -6  -1  510.29   18.62
  -2  -6  -1  537.23   15.71
  -2   6  -1  487.12   21.05
  -2  -6   0   47.21    4.21
   2  -6   0   49.84    7.17
  -2   6   0   41.08    6.21
   2  -6   0   37.64    5.13
   2   6   0   44.83    6.78
   2   6   1  507.36   21.90
   2  -6   1  464.21   17.20
   2  -6   1  516.45   22.08
  -2   6   1  534.24   22.23
  -2  -6   1  503.59   12.46
   2  -6   2  223.28   11.75
  -2  -6   2  203.83    6.91
  -2  -6   2  251.05   14.43
  -2   6   2  242.87   14.83
   2   6   2  219.21   14.61
   2  -6   2  216.31   14.24
  -2   6   3  412.81   20.02
   2   6   3  441.63   20.54
  -2  -6   3  449.69   19.27
   2  -6   3  443.05   16.29
   2  -6   3  397.40   19.41
   2   6   4  628.07   24.73
   2  -6   4  633.93   24.36
  -2   6   4  612.37   24.20
   2  -6   4  583.89   18.47
  -2  -6   4  632.44   22.58
   2  -6   5   78.79    6.66
  -2  -6   5   71.38    7.40
   2  -6   5   61.48    7.80
   2   6   5   69.36    8.55
  -2   6   5   69.44    8.72
  -2   6   6   13.28    4.13
   2  -6   6   13.83    3.01
   2  -6   6   10.05    3.11
   2   6   6    8.30    3.60
   2  -6   7  516.14   21.61
   2  -6   7  518.39   17.45
  -2   6   7  535.96   23.00
   2   6   7  542.97   23.20
   2  -6   8  342.12   17.42
  -2   6   8  320.30   18.27
   2  -6   8  303.53   13.44
   2   6   8  323.18   17.87
   2   6   8  336.37   18.81
   2   6   9  570.49   24.91
  -2   6   9  585.36   24.62
   2  -6   9  495.91   21.55
   2   6   9  548.28   24.11
   2   6  10   44.69    6.55
   2   6  10   43.23    6.53
   2  -6  10   51.66    6.69
  -2   6  10   50.02    7.71
   2   6  11  112.11   10.86
  -2   6  11  102.43   10.84
   2   6  11  107.02   10.85
   2  -6  11   94.15    9.03
   2   6  12   23.74    6.10
   2  -6  12   12.84    3.01
   2   6  12    9.48    3.53
  -2   6  12   16.88    5.12
   2   6  13  708.03   28.42
   2   6  13  792.90   30.35
  -2   6  13  763.93   29.42
  -2   6  14   54.58    7.98
   2   6  14   60.68    8.38
   2   6  14   65.48    8.60
  -2   6  15  156.76   13.90
   2   6  15  179.36   14.93
   2   6  15  137.94   12.92
   2   6  16   10.12    4.07
  -2   6  16   16.61    4.61
   2   6  16    9.00    3.31
   2   6  17  102.48   11.77
   2   6  17   75.87   10.05
  -2   6  17   87.89   10.24
  -2   6  18    4.65    3.12
   2   6  18   13.09    4.64
   2   6  18    8.20    3.09
   2   6  19  203.49   16.60
  -2   6  19  225.07   17.20
  -2   6  19  229.79   18.08
   2   6  19  215.37   16.69
  -2   6  20   13.97    4.59
   2   6  20   10.77    3.31
   2   6  20   17.49    5.55
  -2   6  20   12.41    4.43
  -2   6  21   12.60    4.43
   2   6  21   18.98    5.56
  -2   6  21   21.99    5.51
   2   6  22   27.54    5.89
  -2   6  22   27.78    6.02
  -2   6  22   39.04    7.34
  -2   6  23   37.39    7.89
   2   6  23   31.59    7.73
  -2   6  24   19.69    6.06
   2   6  24   23.86    6.87
  -2   6  25   30.84    7.30
   2   6  25   49.63    9.34
   2   6  26   -0.83    2.56
  -2  -7 -24    6.35    3.97
   2  -7 -24    1.87    2.16
   2  -7 -23    0.93    2.19
  -2  -7 -23    4.80    2.13
  -2  -7 -22    5.43    4.19
   2  -7 -22    1.33    3.74
  -2  -7 -21    5.83    3.12
   2  -7 -21    1.30    2.03
  -2  -7 -20   57.45    8.92
   2  -7 -20   45.15    8.41
  -2  -7 -19    7.30    3.98
   2  -7 -19   10.53    4.09
   2  -7 -18   28.55    7.11
  -2  -7 -18   17.31    4.95
  -2  -7 -17    1.30    3.30
   2  -7 -17    3.53    2.00
  -2  -7 -16   18.14    5.26
   2  -7 -16   16.73    4.81
   2  -7 -15   -0.22    2.35
  -2  -7 -15   -0.06    2.19
   2  -7 -14   72.36    9.50
   2  -7 -14   89.08   11.17
  -2  -7 -14   86.42   10.13
   2   7 -13   16.28    4.52
   2  -7 -13   23.99    5.01
  -2  -7 -13   16.75    4.84
   2  -7 -13   20.91    4.86
   2  -7 -12   88.01   10.41
   2   7 -12   66.93    9.25
   2  -7 -12  107.32   11.92
  -2  -7 -12   90.57   10.02
  -2   7 -11   61.48    8.22
   2   7 -11   84.18    9.96
  -2  -7 -11   81.79    9.72
   2  -7 -11   81.73    9.72
   2  -7 -11   82.88   10.45
  -2   7 -10   76.21    9.51
   2  -7 -10   52.75    8.60
   2  -7 -10   60.33    8.04
  -2  -7 -10   75.78    8.77
   2   7 -10   47.90    7.47
  -2  -7  -9   70.39    8.69
   2   7  -9   74.10    9.34
  -2   7  -9  101.94   10.50
   2  -7  -9   84.77   10.23
   2  -7  -9   69.72    8.74
  -2   7  -8  196.99   14.69
   2   7  -8  173.72   13.93
   2  -7  -8  187.18   13.83
  -2  -7  -8  186.94   13.20
   2  -7  -8  182.83   14.75
  -2  -7  -7   -0.21    1.84
   2   7  -7    2.01    1.93
   2  -7  -7   -0.77    2.36
  -2   7  -7    1.06    2.17
   2  -7  -7    1.42    1.65
  -2   7  -6  216.47   15.13
   2  -7  -6  203.67   15.69
   2  -7  -6  185.07   13.59
   2   7  -6  219.01   15.58
  -2  -7  -6  203.13   12.94
  -2   7  -5  169.74   13.56
   2  -7  -5  175.46   14.04
  -2  -7  -5  160.02   11.34
   2   7  -5  180.10   13.91
   2  -7  -5  180.08   13.14
   2  -7  -4   13.06    4.12
  -2  -7  -4    9.74    3.74
   2   7  -4   13.19    3.98
   2  -7  -4    5.21    3.21
  -2   7  -4    3.25    1.55
   2  -7  -3  403.31   21.24
  -2  -7  -3  357.91   15.49
   2   7  -3  374.69   20.30
   2  -7  -3  352.07   17.46
  -2   7  -3  389.56   20.64
   2  -7  -2   36.14    5.56
   2   7  -2   43.40    6.56
  -2  -7  -2   37.47    4.88
  -2   7  -2   44.13    7.75
   2  -7  -2   23.01    5.15
   2  -7  -1   33.36    5.50
  -2   7  -1   30.39    5.98
   2   7  -1   27.85    5.61
   2  -7  -1   30.45    6.01
   2  -7   0    2.17    1.03
   2  -7   0    3.28    2.45
  -2   7   0    4.75    2.19
   2   7   0    4.81    3.80
  -2   7   1   27.74    5.83
   2  -7   1   29.68    4.67
   2   7   1   32.75    6.53
   2  -7   1   47.17    7.18
  -2   7   2   36.81    6.45
   2  -7   2   27.07    5.80
   2  -7   2   30.61    4.77
   2   7   2   45.60    7.39
  -2   7   3  407.00   20.92
   2   7   3  382.85   20.61
   2  -7   3  362.37   15.70
   2  -7   3  399.18   20.64
   2  -7   4    4.76    2.61
   2   7   4    1.87    1.78
  -2   7   4    6.36    3.80
   2   7   5  185.90   14.21
  -2   7   5  170.14   13.97
   2  -7   5  184.23   14.26
   2   7   6  217.67   15.74
   2  -7   6  203.89   14.86
  -2   7   6  188.60   14.29
   2   7   7    0.84    1.74
   2  -7   7    0.84    1.57
  -2   7   7   -2.62    3.15
  -2   7   8  197.29   15.22
   2   7   8  180.46   14.31
   2   7   8  185.38   14.61
   2  -7   8  162.41   13.40
   2   7   9   77.47    9.67
  -2   7   9   73.57    9.48
   2  -7   9   78.43    8.64
   2   7   9   63.63    8.89
  -2   7  10   75.59    9.37
   2   7  10   62.67    9.03
   2   7  10   53.74    7.92
   2  -7  10   69.27    8.89
   2  -7  11   73.57    8.91
   2   7  11   94.33   10.99
   2   7  11   75.43    9.52
  -2   7  11   73.22    9.90
  -2   7  12   93.51   10.81
   2   7  12   88.22   10.40
   2   7  12   89.17   10.40
   2   7  13   29.14    6.35
   2   7  13   22.74    5.92
  -2   7  13   25.41    6.14
   2   7  14   96.98   11.02
   2   7  14  104.60   11.70
  -2   7  14   83.83   10.40
   2   7  15    2.69    2.72
  -2   7  15    1.83    2.76
   2   7  15   -0.85    2.88
  -2   7  16   20.37    5.24
   2   7  16   17.40    5.10
   2   7  16   25.41    6.14
   2   7  17   -0.05    2.60
   2   7  17    6.20    3.84
  -2   7  17    5.48    2.77
   2   7  18   28.37    6.46
  -2   7  18   16.22    5.79
   2   7  18   19.17    5.94
  -2   7  19    3.55    2.86
  -2   7  19    6.39    4.09
   2   7  19    6.38    4.68
   2   7  19   10.64    4.34
  -2   7  20   53.79    9.46
  -2   7  20   44.58    8.34
   2   7  20   62.73   10.13
   2   7  20   39.69    7.60
  -2   7  21    6.13    4.33
   2   7  21    8.17    3.98
  -2   7  21    6.92    3.81
  -2   7  22   -0.85    3.23
  -2   7  22   -0.81    2.10
   2   7  22    0.01    1.93
   2   7  23    1.46    1.91
  -2   7  23    0.82    3.85
   2   7  24   -1.80    3.67
  -2   7  24    1.22    3.52
  -2  -8 -22   15.06    4.46
   2  -8 -22   15.47    5.24
  -2  -8 -21    2.55    3.80
   2  -8 -21   14.22    4.16
   2  -8 -20   15.10    6.01
  -2  -8 -20    4.11    3.56
   2  -8 -19   20.73    5.73
  -2  -8 -19   25.47    7.16
   2  -8 -18   -1.70    2.46
  -2  -8 -18   -0.09    2.71
   2  -8 -17   18.38    5.76
  -2  -8 -17   26.22    6.95
  -2  -8 -16   25.81    5.48
   2  -8 -16   30.98    7.14
  -2  -8 -15    0.51    2.85
   2  -8 -15    0.68    3.12
  -2  -8 -14    1.90    2.25
   2  -8 -14    7.96    3.36
   2  -8 -13   37.68    7.67
   2   8 -13   47.95    9.15
   2  -8 -13   29.91    6.82
  -2  -8 -13   25.40    5.71
   2  -8 -12    1.96    1.89
   2  -8 -12   -0.55    2.19
  -2  -8 -12    0.06    2.34
   2   8 -12    3.17    2.16
   2  -8 -11   -0.13    2.98
  -2   8 -11    1.53    3.68
  -2  -8 -11    6.81    3.74
   2   8 -11    2.09    1.71
   2  -8 -11    2.37    2.98
  -2   8 -10    9.69    3.81
   2   8 -10    9.65    4.43
   2  -8 -10    7.50    2.74
   2  -8 -10    7.04    2.82
  -2  -8 -10    7.59    3.26
  -2   8  -9   54.77    8.45
   2  -8  -9   45.28    8.14
   2   8  -9   64.46    8.98
  -2  -8  -9   45.03    7.13
   2  -8  -9   51.67    7.90
   2   8  -8   13.19    4.74
  -2  -8  -8    4.41    1.78
  -2   8  -8    6.40    2.48
   2  -8  -8    2.93    3.22
   2  -8  -8    6.40    3.06
   2   8  -7   68.18    9.25
  -2   8  -7   83.20   10.52
  -2  -8  -7   77.37    9.14
   2  -8  -7   74.00    9.59
   2  -8  -7   77.96    8.99
   2   8  -6   24.29    5.20
  -2   8  -6   20.95    5.48
  -2  -8  -6   13.93    3.96
   2  -8  -6   24.99    5.30
   2  -8  -6   20.49    4.93
   2   8  -5   21.74    5.81
  -2   8  -5   29.46    6.28
   2  -8  -5   39.87    7.25
   2  -8  -5   21.11    4.94
  -2   8  -4   77.08    9.58
   2  -8  -4   77.14    8.35
   2   8  -4   96.54   11.02
   2  -8  -4   71.81    9.30
   2  -8  -3  294.01   17.10
  -2   8  -3  233.64   17.12
   2  -8  -3  241.84   17.43
   2   8  -3  262.87   17.91
   2  -8  -2    4.79    3.02
   2   8  -2    8.56    2.52
   2  -8  -2    4.24    3.10
  -2   8  -2    2.58    1.48
  -2   8  -1   11.11    3.41
   2  -8  -1   15.98    5.22
   2   8  -1    9.69    3.60
  -2   8   0   23.50    5.55
   2   8   0   11.41    4.04
   2  -8   0   22.05    5.20
   2   8   1   16.43    5.07
  -2   8   1   13.81    4.46
   2  -8   1   15.98    5.40
   2   8   2    5.87    2.37
  -2   8   2    3.38    3.06
   2  -8   2    0.91    1.77
  -2   8   3  260.90   17.81
   2   8   3  276.03   18.56
   2   8   4   72.73    9.44
  -2   8   4   73.40    9.71
   2  -8   4   81.07    9.98
   2   8   5   35.69    7.10
   2  -8   5   22.53    5.47
  -2   8   5   33.47    6.80
   2  -8   6   21.48    6.09
  -2   8   6   26.02    5.86
   2   8   6   21.71    6.43
   2  -8   7   63.71    9.01
  -2   8   7   73.11    9.77
   2   8   7   62.26    8.74
   2   8   7   71.69    9.48
  -2   8   8    0.86    2.35
   2   8   8   13.46    4.73
   2  -8   8    6.85    3.92
   2   8   8    6.95    3.32
  -2   8   9   59.21    8.79
   2  -8   9   46.16    7.73
   2   8   9   54.25    8.32
   2   8   9   52.56    8.40
   2   8  10    3.32    3.26
   2   8  10   13.40    3.66
   2  -8  10   16.69    5.31
  -2   8  10   11.32    3.66
  -2   8  11   -0.61    2.08
   2   8  11    0.57    3.15
   2   8  11    2.75    3.07
   2   8  12    0.57    2.56
   2   8  12    7.17    3.65
  -2   8  12    2.79    1.97
   2   8  13   29.48    7.07
   2   8  13   37.19    7.65
  -2   8  13   39.02    8.30
   2   8  14    9.18    3.22
  -2   8  14    9.00    4.30
   2   8  14   16.18    5.13
  -2   8  15   -3.88    2.82
   2   8  15   -1.22    2.56
   2   8  15    2.57    2.60
  -2   8  16   29.28    6.76
   2   8  16   28.09    6.85
   2   8  16   28.92    5.77
  -2   8  17   25.04    6.80
   2   8  17   32.21    7.34
   2   8  17   29.23    7.28
   2   8  18   -1.07    3.54
  -2   8  18    0.87    3.17
   2   8  18   -2.64    3.46
   2   8  19   30.82    6.75
  -2   8  19   14.06    5.47
   2   8  19   16.48    5.45
  -2   8  19   30.11    7.36
  -2   8  20    2.17    1.97
   2   8  20    2.31    2.95
   2   8  20    5.59    3.65
  -2   8  20   10.08    5.65
   2   8  21   -4.23    4.12
  -2   8  21   -2.35    4.27
  -2   8  22   17.47    5.48
   2   8  22   18.72    5.26
  -2   8  22   16.51    5.62
  -2  -9 -19   -2.87    4.16
   2  -9 -19    6.36    4.85
  -2  -9 -18   13.73    5.31
   2  -9 -18    6.41    4.12
   2  -9 -17    2.02    4.11
  -2  -9 -17    1.24    2.36
   2  -9 -16    5.67    4.75
  -2  -9 -16    6.62    4.43
  -2  -9 -15    0.43    2.95
   2  -9 -15    3.08    4.08
  -2  -9 -14    9.30    5.13
   2  -9 -14    4.86    3.64
  -2  -9 -13    7.06    3.87
   2  -9 -13    5.61    4.30
   2  -9 -12    1.49    3.23
   2   9 -12   -4.07    2.54
   2  -9 -12    4.31    3.58
   2  -9 -11   10.62    4.12
   2   9 -11    1.49    1.94
   2  -9 -11   13.10    5.78
   2  -9 -10   24.98    6.29
  -2   9 -10   15.02    5.67
   2  -9 -10   14.81    5.16
   2   9 -10   16.41    4.60
   2   9  -9    0.01    2.70
   2  -9  -9    4.46    2.94
   2  -9  -9    1.72    2.78
  -2   9  -9    4.57    2.42
   2  -9  -8    1.63    2.38
   2   9  -8    2.43    3.03
  -2   9  -8    3.06    3.52
   2  -9  -8    4.47    3.96
   2   9  -7   -4.28    2.55
   2  -9  -7    0.05    2.36
  -2   9  -7   -0.63    2.94
   2   9  -6   28.90    6.84
  -2   9  -6   17.71    5.40
   2  -9  -6   13.74    4.75
  -2   9  -5   23.73    5.20
   2   9  -5   18.67    5.29
   2  -9  -5   14.38    4.23
   2  -9  -4   17.02    4.72
  -2   9  -4   22.48    5.27
   2   9  -4    8.65    4.14
  -2   9  -3   20.93    5.81
   2   9  -3   25.75    5.89
   2  -9  -3    9.28    2.89
  -2   9  -2    6.16    3.04
   2   9  -2    7.58    2.78
   2  -9  -1    9.67    2.69
  -2   9  -1    7.36    3.28
   2   9  -1    5.49    1.88
   2   9   0   15.35    4.32
  -2   9   0   15.89    5.08
   2  -9   0   17.92    5.21
   2  -9   1   10.46    4.09
   2   9   1   12.09    4.68
  -2   9   1    4.27    3.16
   2   9   2   10.85    4.78
   2  -9   2    8.02    3.33
  -2   9   2   10.04    3.71
  -2   9   3   39.44    7.25
   2   9   3   29.63    6.34
   2  -9   3   33.67    6.78
  -2   9   4   17.62    5.09
   2   9   4   12.16    3.72
   2   9   4    9.87    5.04
   2  -9   4   16.70    5.35
   2   9   5   18.83    5.09
  -2   9   5   23.64    6.43
   2   9   5   18.97    5.53
   2  -9   5   19.62    5.62
  -2   9   6   10.79    4.67
   2   9   6   25.93    6.63
   2   9   6   24.09    5.91
   2  -9   6   16.96    5.61
   2   9   7    1.06    3.02
  -2   9   7    1.47    2.20
   2   9   7    2.72    2.77
   2  -9   7    1.15    1.97
   2   9   8    6.13    3.24
   2  -9   8    2.25    3.50
   2   9   8    1.65    1.66
  -2   9   8    6.34    3.82
  -2   9   9    3.16    3.18
   2   9   9   -1.52    3.23
   2   9   9    0.67    1.67
   2  -9   9   -2.35    2.42
   2   9  10   14.85    4.90
  -2   9  10   11.73    4.79
   2   9  10   14.77    4.57
  -2   9  11    9.85    5.22
   2   9  11    5.01    2.46
   2   9  11    2.67    2.62
   2   9  12    0.16    3.60
  -2   9  12    5.88    4.89
   2   9  12    1.76    1.87
   2   9  13    4.95    3.48
  -2   9  13    8.26    3.49
   2   9  13   -1.73    2.57
  -2   9  14   13.68    5.43
   2   9  14    5.86    3.34
   2   9  14    8.88    3.63
   2   9  15    2.39    4.04
  -2   9  15    1.02    2.60
   2   9  15    0.74    3.08
  -2   9  16    1.42    2.13
   2   9  16    1.36    2.65
   2   9  17   -0.91    3.96
   2   9  17   -4.19    3.52
  -2   9  17    2.69    3.87
   2   9  18    4.29    3.25
  -2   9  18    4.34    2.90
  -2   9  18    5.50    2.46
   2   9  18   -0.31    2.29
  -2   9  19    6.29    3.13
   2   9  19   -2.69    4.75
  -2   9  19    4.30    4.44
   2   9  19    0.94    3.14
   2  10 -11   21.78    6.14
   2  10 -10    6.00    2.77
   2 -10 -10    3.51    2.38
  -2  10  -9    6.92    3.30
   2 -10  -9   17.00    5.92
   2  10  -9   21.87    5.53
  -2  10  -8    5.44    2.85
   2  10  -8    8.46    3.73
   2 -10  -8   12.06    4.51
   2  10  -7   96.85   11.88
  -2  10  -7   88.67   11.29
   2 -10  -7   95.97   12.13
  -2  10  -6   14.13    4.67
   2  10  -6    9.31    3.73
   2 -10  -6   18.27    6.12
   2 -10  -5    6.62    4.23
  -2  10  -5    3.28    2.98
   2  10  -5    8.15    4.68
   2  10  -4   13.28    5.68
   2 -10  -4   10.65    4.27
  -2  10  -4   16.98    6.66
   2  10  -4   19.83    6.83
   2  10  -3   52.40    8.49
  -2  10  -3   44.45    8.84
   2 -10  -3   63.86    9.61
   2  10  -3   42.63    8.03
   2  10  -2   16.87    5.94
   2  10  -2   30.68    6.57
  -2  10  -2   25.70    6.05
   2 -10  -2   23.65    5.76
   2  10  -1    4.37    3.80
   2  10  -1    4.37    4.53
   2 -10  -1    5.19    3.66
  -2  10  -1    1.47    3.05
  -2  10   0   10.11    4.14
   2  10   0    8.28    4.84
   2  10   0    3.62    4.23
   2 -10   0    0.66    2.92
   2  10   1    9.43    5.06
  -2  10   1    0.96    2.07
   2  10   1    3.78    3.29
   2 -10   1    9.52    5.14
   2 -10   2   21.88    6.14
  -2  10   2   13.51    5.57
   2  10   2   21.11    5.22
   2  10   2   10.32    3.75
   2  10   3   36.15    7.44
   2  10   3   53.97    9.32
  -2  10   3   51.15    8.69
   2 -10   3   53.83    9.65
   2 -10   4    8.99    4.45
   2  10   4    7.82    3.61
  -2  10   4   19.21    5.28
   2  10   5    6.05    3.84
   2  10   5    3.12    3.85
  -2  10   5    2.54    3.11
   2 -10   5    8.63    4.23
  -2  10   6   19.22    6.31
   2  10   6   15.83    6.43
   2 -10   6   11.32    4.62
   2  10   6   23.64    6.07
   2  10   7  112.31   12.70
   2  10   7   97.31   11.94
  -2  10   7   99.63   12.75
   2 -10   7   90.05   11.79
  -2  10   8    7.47    4.90
   2  10   8    7.83    3.33
   2  10   8   11.12    4.29
   2  10   9   26.89    6.96
  -2  10   9   19.59    5.36
   2  10   9   18.63    5.62
  -2  10  10    8.39    5.86
   2  10  10   -0.61    2.96
   2  10  10    8.45    4.84
  -2  10  11   25.48    6.48
   2  10  11   20.74    5.29
   2  10  11   20.13    4.85
   2  10  12    1.30    2.93
  -2  10  12   -1.50    3.34
   2  10  12    3.21    3.37
  -2  10  13   29.79    7.00
   2  10  13   40.93    8.12
   2  10  13   33.79    7.65
  -2  10  14    4.92    3.26
   2  10  14    8.81    5.33
   2  10  14   13.95    5.53
   2  10  15    7.61    3.58
  -2  10  15    7.36    4.36
   2  10  15    4.78    4.01
   2  11 -10   -3.62    2.76
   2  11  -9    5.33    3.57
   2  11  -8    6.91    3.63
  -2  11  -8    1.95    4.11
   2  11  -7   11.14    6.05
  -2  11  -7   -1.13    3.78
   2  11  -6    2.92    2.81
   2 -11  -6    1.94    3.29
  -2  11  -6    7.89    4.37
   2  11  -5    1.01    2.57
  -2  11  -5   -0.31    2.69
   2 -11  -5   -0.82    2.17
   2  11  -4    1.07    3.68
  -2  11  -4    1.03    3.52
   2 -11  -4   -2.15    3.94
  -2  11  -3    0.70    3.06
   2  11  -3   -0.96    2.86
   2  11  -2   -1.10    3.10
  -2  11  -2    2.20    2.31
   2 -11  -2   -0.39    2.28
   2  11  -2    2.77    4.94
   2  11  -1    4.21    2.93
  -2  11  -1   10.46    5.14
   2 -11  -1   11.03    5.97
   2  11  -1    7.88    5.58
   2 -11   0    4.31    3.55
   2  11   0    2.37    3.30
  -2  11   0   -6.07    4.48
   2  11   0   -0.23    2.62
   2  11   1    3.55    2.86
  -2  11   1    0.70    2.27
   2 -11   1    6.34    3.91
   2  11   1    7.10    4.39
   2  11   2    8.73    4.18
  -2  11   2    1.82    2.23
   2 -11   2    6.34    4.16
   2  11   2    4.02    2.35
   2  11   3    2.06    3.31
   2  11   3    2.96    3.25
   2 -11   3    2.05    2.97
   2  11   4    3.41    3.34
  -2  11   4    4.83    3.61
   2 -11   4    0.34    3.52
   2  11   4    2.26    3.48
  -2  11   5    0.70    3.09
   2  11   5   -3.29    4.34
   2 -11   5    8.12    4.52
   2  11   5    2.89    3.05
   2  11   6    3.38    2.80
   2  11   6   11.99    4.31
  -2  11   6    7.10    2.28
   2  11   7   -3.23    4.01
   2  11   7    1.66    2.41
  -2  11   7   -3.93    3.59
   2  11   8    0.14    2.54
  -2  11   8    7.79    3.81
   2  11   8    3.17    3.16
   2  11   9    4.06    3.46
  -2  11   9   -2.34    3.31
   2  11   9    0.84    1.96
   2  11  10    7.67    4.35
   2  11  10   -3.07    3.25
  -2  11  10    0.87    2.84
   3   0 -30   -0.76    4.01
   3   0 -29   -2.14    3.35
   3   0 -28   -4.48    3.49
   3   0 -27   -1.15    2.23
   3   0 -26   -1.25    3.25
   3   0 -25    0.33    1.68
   3   0 -24   -1.92    1.99
   3   0 -23   -0.24    2.23
   3   0 -22    1.24    2.61
   3   0 -21    0.98    2.77
   3   0 -20    0.33    1.72
   3   0 -19   -2.12    2.15
   3   0 -18    3.25    3.46
   3   0 -17   -0.58    1.63
   3   0 -16   -2.42    2.13
   3   0 -15    1.22    1.13
   3   0 -14    1.58    1.58
   3   0 -13    0.37    1.48
   3   0 -12    0.81    0.96
   3   0 -12    0.55    1.01
   3   0 -11   -1.28    0.95
   3   0 -11   -0.33    1.37
   3   0 -10    0.53    0.53
   3   0 -10    0.73    1.16
   3   0  -9    1.06    1.57
   3   0  -9   -0.36    0.48
   3   0  -8    0.96    0.58
   3   0  -8    0.39    0.68
   3   0  -7    0.64    0.60
   3   0  -7   -0.10    0.37
   3   0  -6    0.78    0.76
   3   0  -6    0.44    0.63
   3   0  -6   -0.12    0.61
   3   0  -5   -0.37    1.04
   3   0  -5    1.65    0.80
   3   0  -5   -0.90    0.67
   3   0  -4   -0.06    0.78
   3   0  -4   -0.13    0.46
   3   0  -4   -0.24    0.84
   3   0  -3    0.02    0.48
   3   0  -3    0.47    0.80
   3   0  -3    0.35    0.58
   3   0  -2    0.06    0.62
   3   0  -2   -0.04    0.53
   3   0  -2    1.15    0.77
   3   0  -1    0.21    0.50
   3   0  -1    0.09    0.60
   3   0  -1   -0.49    0.40
   3   0   0   -0.36    0.64
   3   0   0   -0.09    0.59
   3   0   1    0.80    0.69
   3   0   1    0.49    0.33
   3   0   2    0.16    0.61
   3   0   2    0.12    0.31
   3   0   3    0.51    0.94
   3   0   3   -0.18    0.37
   3   0   4    0.85    0.43
   3   0   4    1.02    0.75
   3   0   5    0.51    0.46
   3   0   5    0.57    0.76
   3   0   6   -0.37    0.48
   3   0   6    0.33    0.46
   3   0   7   -0.37    0.50
   3   0   7   -0.05    0.80
   3   0   8    0.20    0.40
   3   0   8   -0.22    0.79
   3   0   9    0.40    0.87
   3   0   9    0.02    0.23
   3   0  10   -0.14    0.76
   3   0  11   -0.09    0.74
   3   0  12    1.15    0.77
   3   0  13    1.00    1.27
   3   0  14   -0.04    1.52
  -3   0  14    0.01    0.60
   3   0  15    0.23    1.19
  -3   0  15    0.16    0.76
  -3   0  16   -1.03    0.75
   3   0  16   -0.84    1.26
   3   0  17    0.68    1.92
  -3   0  17   -0.29    0.91
   3   0  18    0.18    1.49
   3   0  19   -1.12    1.19
   3   0  20   -0.11    2.36
   3   0  21   -0.40    1.81
   3  -1 -30   10.74    4.94
   3  -1 -29   35.39    7.24
   3  -1 -28   37.50    7.47
   3   1 -28   29.85    7.32
   3   1 -27   31.24    6.39
   3  -1 -27   34.66    7.46
   3  -1 -26   17.47    5.55
   3   1 -26   20.45    5.95
   3  -1 -25   56.62    8.93
   3   1 -25   47.22    7.47
   3  -1 -24   39.85    7.42
   3   1 -24   26.93    5.88
   3   1 -23  151.91   13.50
   3  -1 -23  155.84   13.70
   3  -1 -22   37.05    6.74
  -3  -1 -22   53.21    8.41
   3   1 -22   47.12    7.11
  -3  -1 -21    1.02    2.72
   3   1 -21    7.53    3.30
   3  -1 -21    4.65    3.23
   3   1 -20   70.50    8.48
  -3  -1 -20   70.35    9.18
   3  -1 -20   80.52    9.22
  -3  -1 -19  166.76   13.29
   3  -1 -19  159.93   13.21
   3   1 -19  166.91   12.67
   3  -1 -18   18.07    4.01
   3   1 -18    8.57    3.69
  -3  -1 -18    9.85    3.09
  -3  -1 -17  197.70   13.86
   3  -1 -17  209.48   14.15
   3   1 -17  179.59   12.54
   3  -1 -16   65.71    7.69
  -3  -1 -16   69.68    8.14
   3   1 -16   76.35    7.92
   3   1 -15   33.02    5.17
  -3  -1 -15   24.47    4.72
   3  -1 -15   33.01    5.16
   3  -1 -14   90.44    8.95
   3  -1 -14   86.87    6.97
  -3  -1 -14   88.18    8.58
   3   1 -14  100.84    8.43
   3   1 -13  582.20   19.55
  -3  -1 -13  547.73   20.88
   3  -1 -13  545.79   20.50
   3  -1 -13  546.66   17.09
   3  -1 -12  420.12   14.31
   3   1 -12  412.98   14.80
   3   1 -12  440.34   16.43
  -3  -1 -12  435.02   17.82
  -3  -1 -11   92.65    8.24
   3   1 -11   95.20    7.29
   3  -1 -11   76.94    6.29
   3   1 -11  105.34    7.22
   3  -1 -11   98.82    8.42
   3  -1 -10  242.56   12.54
   3  -1 -10  228.72   10.44
   3   1 -10  222.50   10.22
  -3  -1 -10  244.41   12.57
   3   1 -10  252.85   11.24
  -3  -1  -9  723.72   20.73
   3  -1  -9  721.12   18.31
   3   1  -9  745.84   18.56
   3   1  -9  744.99   18.08
   3  -1  -9  763.04   21.53
   3   1  -8  234.04   10.06
   3  -1  -8  240.32   10.11
  -3  -1  -8  225.73   11.02
   3   1  -8  223.53    9.80
   3  -1  -8  245.30   11.81
   3   1  -7  418.07    7.46
   3   1  -7  425.95   12.55
   3   1  -7  409.34   13.19
   3  -1  -7  448.47   13.64
   3   1  -6 1291.27   22.38
   3  -1  -6 1277.05   22.20
   3  -1  -6 1234.64   24.83
   3   1  -6 1296.05   20.43
   3   1  -6 1282.98   13.68
   3   1  -5   80.57    4.87
   3   1  -5   86.59    3.67
   3   1  -5   79.55    5.46
   3  -1  -5   82.09    5.48
   3  -1  -5   83.79    6.13
   3   1  -4  835.57   17.25
   3  -1  -4  789.11   16.83
   3   1  -4  844.22   14.69
   3  -1  -4  764.46   18.26
   3   1  -4  797.64   12.33
   3   1  -3 4280.15   29.23
   3   1  -3 4111.55   37.77
   3  -1  -3 4145.22   37.47
   3  -1  -3 4253.74   41.21
   3   1  -3 4092.33   31.23
   3   1  -2 1585.50   23.09
   3   1  -2 1589.34   19.00
   3  -1  -2 1597.56   24.30
   3   1  -2 1621.73   19.14
   3  -1  -2 1629.30   23.60
   3  -1  -1  940.27   17.76
   3   1  -1  926.89   17.30
   3  -1   0  891.74   17.33
   3   1   0  846.01   15.59
   3   1   0  876.57   16.59
   3  -1   0  877.97   17.42
   3   1   1  913.83   16.69
   3  -1   1  918.13   17.68
   3   1   1  947.79   17.03
   3   1   2 1539.30   21.51
   3   1   2 1565.65   22.97
   3   1   3 4129.44   38.48
   3   1   3 4193.52   34.84
   3   1   4  831.21   17.76
   3  -1   4  809.16   17.11
   3   1   4  811.90   15.23
   3  -1   5   88.43    5.71
   3   1   5   89.97    5.05
   3   1   6 1209.03   23.24
   3  -1   6 1252.71   22.08
   3   1   6 1239.73   18.84
   3   1   7  430.52   11.24
   3   1   7  437.88   14.34
   3  -1   7  428.64   13.32
   3  -1   8  222.57    9.80
   3   1   8  241.47    8.29
   3   1   8  224.81   10.97
   3   1   9  771.25   20.26
   3   1   9  776.94   15.00
   3  -1   9  779.10   18.80
   3   1  10  232.47    8.32
   3   1  10  225.51   11.50
   3  -1  10  233.60   10.57
   3   1  11   93.98    5.30
   3   1  11  102.81    7.69
   3  -1  11   80.88    6.48
   3   1  12  424.55   11.39
   3  -1  12  398.11   14.63
   3   1  12  406.26   16.00
   3   1  13  515.95   18.75
   3  -1  13  513.68   17.30
   3   1  13  554.64   13.05
   3   1  14  114.87    8.89
   3   1  14   92.60    5.36
   3  -1  14  100.45    7.73
   3  -1  15   29.38    4.31
   3   1  15   32.31    3.21
   3   1  15   36.07    5.25
   3   1  16   51.36    4.22
  -3   1  16   75.21    6.86
   3  -1  16   78.51    7.34
   3   1  16   58.81    6.75
   3  -1  17  172.93   11.27
   3   1  17  168.10   11.77
  -3   1  17  168.23   10.39
   3   1  18   18.94    3.95
   3  -1  18   14.10    3.47
  -3   1  18   20.65    3.91
   3   1  19  153.88   11.93
   3  -1  19  168.26   11.53
  -3   1  19  149.61   10.12
   3   1  20   66.64    8.23
   3   1  21    1.56    1.68
   3   1  22   42.39    6.66
   3  -2 -30    1.37    2.74
   3  -2 -29   28.34    7.39
   3  -2 -28    9.41    3.50
   3  -2 -27   14.94    4.82
   3  -2 -26    7.64    3.83
   3  -2 -25    4.08    4.15
  -3  -2 -25    3.27    2.24
   3   2 -24   -3.34    2.13
   3  -2 -24   11.08    4.63
  -3  -2 -24    4.37    3.42
  -3  -2 -23   24.28    5.74
   3  -2 -23   16.67    5.66
   3   2 -23   21.99    4.98
  -3  -2 -22   -1.99    2.95
   3  -2 -22    1.45    2.26
   3   2 -22   -0.66    2.66
  -3  -2 -21   47.94    7.38
   3   2 -21   44.55    6.71
   3  -2 -21   41.58    7.25
  -3  -2 -20   21.59    5.00
   3   2 -20   20.59    4.50
   3  -2 -20   12.61    4.74
   3   2 -19   14.74    4.02
  -3  -2 -19   25.42    4.82
   3  -2 -19   24.44    5.45
   3   2 -18    2.59    2.31
   3  -2 -18    7.40    3.69
  -3  -2 -18    5.52    2.54
  -3  -2 -17    1.70    2.16
   3   2 -17    2.21    1.86
   3  -2 -17    1.95    1.36
  -3  -2 -16   21.06    4.32
   3  -2 -16   26.33    5.08
   3   2 -16   21.38    3.66
   3   2 -16   20.32    4.43
   3   2 -15   49.83    5.67
   3  -2 -15   56.45    6.47
   3  -2 -15   48.63    6.67
  -3  -2 -15   57.20    7.53
   3   2 -15   37.95    5.15
   3  -2 -14    1.22    2.09
  -3  -2 -14    2.96    2.52
   3   2 -14    1.11    1.05
   3   2 -14    4.75    2.12
   3  -2 -14    3.10    2.13
   3  -2 -13   -0.47    0.96
  -3  -2 -13    1.49    1.34
   3   2 -13    0.95    1.14
   3   2 -13    3.70    1.91
   3  -2 -13    2.12    2.17
  -3  -2 -12   42.62    5.56
   3   2 -12   41.00    4.78
   3  -2 -12   46.70    6.64
   3  -2 -12   54.01    6.04
   3   2 -12   48.79    5.18
   3   2 -11  269.60   11.35
  -3  -2 -11  260.89   13.63
   3  -2 -11  268.07   13.23
   3  -2 -11  252.67   14.14
   3   2 -11  281.13   12.24
   3   2 -10   90.22    6.37
  -3   2 -10   78.97    3.67
   3  -2 -10   87.16    7.92
   3  -2 -10   73.99    6.92
  -3  -2 -10   83.23    7.45
   3   2 -10   90.73    6.92
  -3   2  -9   22.17    2.15
  -3  -2  -9   18.38    3.38
   3  -2  -9   29.03    4.18
   3   2  -9   24.57    3.63
   3   2  -9   26.48    3.07
   3  -2  -8   99.53    7.87
   3   2  -8   83.33    6.38
   3  -2  -8   88.40    7.08
   3   2  -8   74.66    4.94
  -3   2  -8   81.88    4.27
  -3  -2  -8   82.91    6.84
  -3   2  -7   55.21    3.68
   3  -2  -7   45.16    5.24
   3   2  -7   46.05    3.59
   3   2  -7   49.09    4.81
   3  -2  -7   45.83    5.07
  -3  -2  -7   50.29    5.16
   3   2  -7   46.05    2.47
  -3  -2  -6  250.44   10.95
   3  -2  -6  221.18   10.85
   3   2  -6  217.88   10.24
   3  -2  -6  246.04   11.73
   3   2  -6  243.77    7.51
   3   2  -6  234.96    6.45
   3   2  -5  293.05   11.61
   3  -2  -5  290.91   12.38
   3  -2  -5  293.91   12.53
   3   2  -5  292.03    7.87
   3   2  -5  281.92    7.36
  -3  -2  -5  307.59   11.67
   3   2  -4   45.78    3.35
   3   2  -4   54.61    4.95
   3   2  -4   53.11    2.93
   3  -2  -4   58.27    5.30
  -3  -2  -4   48.51    4.53
   3  -2  -4   62.24    5.42
   3  -2  -3 1766.21   29.23
   3  -2  -3 1765.34   28.96
   3   2  -3 1734.18   16.51
   3   2  -3 1781.21   27.57
   3   2  -3 1731.50   21.65
   3  -2  -2  918.82   20.42
   3   2  -2  888.41   19.46
   3   2  -2  874.65   16.27
   3  -2  -2  903.68   20.62
   3   2  -1  376.02   11.20
   3  -2  -1  372.35   13.00
   3  -2  -1  361.13   12.54
   3   2  -1  386.39   12.77
   3   2   0  323.38   10.87
   3   2   0  366.81   12.41
   3  -2   0  347.94   12.08
   3  -2   0  336.95   12.43
   3  -2   1  397.84   12.72
   3   2   1  370.25   12.07
   3  -2   1  359.72   12.56
   3   2   2  851.96   19.12
   3  -2   2  863.46   18.88
   3  -2   2  879.12   19.58
   3   2   2  891.57   19.44
   3   2   3 1784.63   28.23
   3   2   3 1742.79   27.23
   3   2   4   42.50    4.64
   3   2   4   49.18    4.60
   3  -2   4   47.73    4.64
   3   2   5  317.79   12.55
   3  -2   5  283.86   11.21
   3   2   5  286.77   11.15
   3   2   6  227.84   11.08
   3   2   6  239.05   10.21
   3  -2   6  240.46   10.53
   3   2   7   44.08    4.31
   3  -2   7   40.09    4.42
   3   2   7   47.52    5.17
   3   2   8   73.16    6.66
   3   2   8   81.85    6.02
   3  -2   8   74.26    5.91
   3   2   9   19.88    3.55
   3  -2   9   24.80    3.45
   3   2   9   18.96    2.97
   3   2  10   90.45    6.37
   3   2  10   89.29    7.42
   3   2  11  260.98   11.03
   3   2  11  292.01   13.99
   3  -2  11  256.12   11.61
   3   2  12   43.59    4.64
   3  -2  12   43.78    5.03
   3   2  12   36.22    4.98
   3   2  13    1.09    2.05
   3   2  13    0.79    1.48
   3  -2  13    0.95    1.37
   3  -2  14    5.06    1.60
   3   2  14    4.66    1.44
   3   2  14    3.14    1.98
   3  -2  15   47.17    5.34
   3   2  15   55.68    5.39
   3   2  15   58.62    6.86
   3   2  16   17.83    3.04
   3   2  16   24.33    4.61
   3  -2  16   14.32    3.04
   3   2  17    0.84    0.85
   3   2  17   -0.59    2.08
   3  -2  17    2.92    1.94
   3   2  18    1.76    1.84
   3  -2  18    7.81    2.86
  -3   2  18    4.76    2.23
  -3   2  19   15.75    3.99
   3   2  19   21.35    5.07
   3   2  20   12.45    3.27
  -3   2  20    9.25    3.97
   3   2  21   30.36    5.72
   3   2  22    7.18    2.32
   3   2  23   21.96    5.37
   3  -3 -29   80.94   11.21
   3  -3 -28   50.29    9.40
   3  -3 -27   67.73    9.90
  -3  -3 -27   73.22   10.11
   3  -3 -26   40.93    8.10
  -3  -3 -26   32.26    7.10
   3  -3 -25   49.42    8.38
  -3  -3 -25   35.29    7.71
   3  -3 -24    3.31    2.22
  -3  -3 -24    5.57    3.00
   3  -3 -23  116.10   12.35
  -3  -3 -23  117.14   12.30
  -3  -3 -22   15.23    4.78
   3  -3 -22   16.70    5.12
   3  -3 -21    7.04    3.42
  -3  -3 -21    3.18    3.03
  -3  -3 -20   15.42    4.85
   3  -3 -20   11.89    3.42
  -3  -3 -19   71.73    8.94
   3  -3 -19   80.09    9.84
   3  -3 -18  115.55   11.02
  -3  -3 -18  110.99   10.90
   3   3 -17   84.14    7.96
  -3  -3 -17   71.71    8.63
   3  -3 -17   74.18    8.86
  -3  -3 -16   55.88    7.34
   3  -3 -16   68.58    8.30
   3   3 -16   76.37    7.26
   3  -3 -16   71.76    8.05
   3   3 -16   55.21    6.41
   3   3 -15  126.69    9.38
   3  -3 -15  111.31    9.92
  -3  -3 -15  123.25   10.84
   3  -3 -15  151.55   12.33
   3   3 -15  128.35    8.89
   3   3 -14   28.12    4.41
   3   3 -14   27.43    4.08
   3  -3 -14   26.80    5.24
   3  -3 -14   25.75    4.53
  -3  -3 -14   27.78    5.21
   3   3 -13  478.52   15.59
  -3  -3 -13  437.68   19.23
   3  -3 -13  495.83   20.42
   3   3 -13  464.30   17.65
  -3   3 -12  795.94   15.61
   3   3 -12  803.15   22.76
  -3  -3 -12  834.55   25.49
   3  -3 -12  845.67   26.98
   3   3 -12  798.05   19.06
   3  -3 -12  800.98   25.56
   3  -3 -11   93.55    8.97
  -3   3 -11   79.83    5.21
   3   3 -11   78.83    5.58
   3  -3 -11   79.93    7.96
   3   3 -11   91.15    7.51
  -3  -3 -11   78.08    7.52
   3   3 -10  279.04   13.07
  -3  -3 -10  268.96   13.78
   3   3 -10  287.47    9.63
  -3   3 -10  261.21    9.70
   3  -3 -10  265.28   14.28
   3  -3 -10  254.98   14.40
   3   3  -9 1206.51   14.17
   3  -3  -9 1273.86   31.36
  -3   3  -9 1242.32   21.86
   3   3  -9 1274.59   18.59
   3   3  -9 1284.80   28.06
   3  -3  -9 1228.61   30.16
  -3  -3  -9 1251.83   29.06
   3   3  -8   38.22    2.92
   3  -3  -8   36.10    5.21
  -3  -3  -8   46.20    5.29
   3  -3  -8   45.41    5.74
   3   3  -8   38.12    2.88
  -3   3  -8   44.07    4.26
   3   3  -8   43.38    5.05
   3   3  -7  898.71   15.41
   3  -3  -7  894.08   24.67
  -3   3  -7  914.20   19.53
   3  -3  -7  886.20   24.95
   3   3  -7  909.64   12.01
   3   3  -7  895.64   22.69
  -3  -3  -7  908.16   22.61
  -3  -3  -6 1029.67   23.12
   3  -3  -6  995.73   25.43
  -3   3  -6 1100.59   21.66
   3   3  -6 1069.26   17.84
   3  -3  -6 1057.58   26.85
   3   3  -6 1056.62   24.69
   3   3  -5  129.38    6.58
  -3   3  -5  121.27    7.22
   3   3  -5  113.45    8.07
   3  -3  -5  125.67    8.91
  -3  -3  -5  133.78    7.92
   3  -3  -5  129.48    9.07
   3   3  -4 1910.27   32.56
   3   3  -4 1899.24   26.51
   3  -3  -4 1859.89   32.99
   3  -3  -4 1905.41   34.82
  -3  -3  -4 1947.14   29.03
   3   3  -3 3666.32   38.40
   3  -3  -3 3861.21   46.22
  -3  -3  -3 3765.70   37.99
   3   3  -3 3712.50   45.19
   3  -3  -3 3567.92   47.02
   3  -3  -2  677.91   19.04
   3   3  -2  616.19   16.16
   3  -3  -2  699.29   20.34
   3   3  -2  648.19   19.04
   3   3  -1  974.37   23.33
   3  -3  -1  990.55   22.57
   3   3  -1 1028.23   21.60
   3  -3  -1  972.67   23.68
   3   3   0  736.08   20.31
   3   3   0  701.12   18.51
   3  -3   0  777.67   19.71
   3  -3   0  727.59   20.20
   3   3   1  956.58   23.12
   3   3   1  961.78   22.28
   3  -3   1  986.02   23.69
   3  -3   1  974.22   21.83
   3   3   2  631.80   18.77
   3  -3   2  646.86   18.82
   3   3   2  609.07   18.01
   3  -3   2  589.81   16.88
   3   3   3 3649.21   45.59
   3  -3   3 3832.27   45.65
   3   3   3 3755.64   46.08
   3  -3   3 3725.95   41.87
   3  -3   4 1862.66   32.31
   3   3   4 1895.46   32.79
   3   3   4 1893.61   33.65
   3  -3   4 1938.13   30.70
   3   3   5  141.34    9.38
   3   3   5  132.17    8.75
   3  -3   5  131.92    8.75
   3   3   6 1048.96   24.68
   3   3   6 1024.98   25.79
   3  -3   6 1101.49   24.59
   3   3   7  914.18   24.82
   3   3   7  914.66   23.05
   3  -3   7  852.33   21.65
   3  -3   8   39.41    4.83
   3   3   8   38.66    4.77
   3   3   8   34.78    5.19
   3   3   9 1333.83   31.16
   3   3   9 1280.65   27.72
   3  -3   9 1253.70   27.21
   3   3  10  279.86   13.20
   3   3  10  296.84   15.00
   3  -3  10  258.30   12.41
   3  -3  11   69.46    6.51
   3   3  11   82.87    7.22
   3   3  11   73.11    7.75
   3  -3  12  824.46   22.28
   3   3  12  824.54   26.02
   3   3  12  838.54   23.41
   3   3  13  514.64   18.58
   3   3  13  518.17   21.02
   3  -3  13  497.81   17.63
   3   3  14   29.17    5.45
   3  -3  14   24.66    4.20
   3   3  14   28.60    4.52
   3   3  15  126.39    9.39
   3  -3  15  133.04    9.14
   3   3  15  130.87   11.01
   3  -3  16   73.90    6.86
   3   3  16   57.25    7.16
   3   3  16   67.38    6.81
   3   3  17   78.90    9.47
   3   3  17   67.06    7.07
   3  -3  17   74.80    6.88
   3   3  18  102.24    8.90
   3   3  18  111.06   10.72
  -3   3  19   64.99    8.40
   3   3  19   79.93    9.56
   3   3  20   20.63    5.21
  -3   3  20   14.29    3.75
  -3   3  21   -1.15    2.41
   3   3  21    4.03    2.53
   3   3  22   23.86    5.08
   3   3  23  106.64   11.94
   3   3  24    3.21    2.47
   3  -4 -29   18.09    6.12
  -3  -4 -28    5.38    3.52
   3  -4 -28   18.75    5.83
   3  -4 -27   30.92    7.48
  -3  -4 -27   37.08    7.73
   3  -4 -26    5.19    3.23
  -3  -4 -26    1.59    2.49
   3  -4 -25   18.03    5.01
  -3  -4 -25   28.34    6.73
  -3  -4 -24   13.21    4.49
   3  -4 -24    2.84    2.68
   3  -4 -23   10.80    5.06
  -3  -4 -23   12.98    4.86
   3  -4 -22   11.72    4.56
  -3  -4 -22    2.08    2.02
  -3  -4 -21   26.76    5.79
   3  -4 -21   19.77    5.33
  -3  -4 -20    4.80    2.29
   3  -4 -20    4.50    3.50
  -3  -4 -19   35.95    6.61
   3  -4 -19   57.15    8.61
   3  -4 -18   10.40    3.91
  -3  -4 -18   11.98    3.34
   3  -4 -17    1.76    2.27
  -3  -4 -17   -3.32    2.70
   3  -4 -17   -1.23    3.04
  -3  -4 -16    8.47    1.67
   3  -4 -16   14.34    3.70
   3  -4 -16    5.25    3.40
   3  -4 -15   28.15    5.29
  -3  -4 -15   31.47    5.36
   3  -4 -15   27.58    6.23
   3   4 -15   30.27    4.96
   3  -4 -14    0.82    2.24
   3   4 -14    1.05    1.76
   3  -4 -14    1.51    2.45
  -3  -4 -14   -2.16    2.60
   3  -4 -13   39.78    6.31
   3  -4 -13   32.22    5.59
  -3  -4 -13   28.84    5.12
   3   4 -13   40.41    5.57
   3  -4 -12   15.69    3.63
  -3   4 -12   14.32    2.86
   3   4 -12   16.14    3.48
   3  -4 -12   14.74    3.45
  -3  -4 -12   12.40    3.59
   3  -4 -11   56.44    7.17
  -3   4 -11   69.68    6.15
  -3  -4 -11   75.52    7.86
   3  -4 -11   73.48    8.54
   3   4 -11   74.72    7.68
  -3   4 -10  154.33    9.29
   3   4 -10  135.96    9.98
   3  -4 -10  130.82   11.14
   3  -4 -10  130.40   10.70
  -3  -4 -10  147.76   10.58
   3   4 -10  124.70    5.96
  -3  -4  -9   69.85    7.17
   3  -4  -9   64.26    7.18
   3   4  -9   71.27    4.99
  -3   4  -9   71.97    6.44
   3   4  -9   66.50    7.15
   3  -4  -9   61.47    7.24
   3  -4  -8   65.38    7.59
   3   4  -8   66.91    6.78
  -3  -4  -8   66.48    6.75
  -3   4  -8   64.36    6.25
   3  -4  -8   85.06    8.24
   3   4  -8   62.82    4.93
  -3  -4  -7   55.92    5.87
   3   4  -7   63.41    6.69
  -3   4  -7   62.08    6.02
   3   4  -7   61.03    5.06
   3  -4  -7   59.56    7.27
   3  -4  -7   67.31    7.07
   3  -4  -6   72.12    7.25
  -3  -4  -6   84.22    7.15
   3   4  -6   76.58    7.20
  -3   4  -6   82.80    6.99
   3  -4  -6   82.88    8.17
   3   4  -6   88.08    6.28
  -3  -4  -5  373.51   14.00
   3  -4  -5  359.86   15.89
   3  -4  -5  357.75   16.79
   3   4  -5  380.27   16.15
  -3   4  -5  387.30   15.24
   3   4  -5  377.32   13.55
   3   4  -4  233.25   12.72
  -3  -4  -4  229.16   10.56
   3  -4  -4  252.46   12.84
   3  -4  -4  240.39   13.47
  -3   4  -4  243.17   12.15
   3   4  -4  230.94   10.91
  -3   4  -3  165.90   10.05
   3   4  -3  172.41   10.84
  -3  -4  -3  164.46    8.33
   3  -4  -3  157.07   10.14
   3   4  -3  157.13    9.17
   3  -4  -3  161.26   11.15
  -3   4  -2  411.88   15.96
   3   4  -2  398.10   15.06
   3   4  -2  421.55   17.22
  -3  -4  -2  401.07   12.28
   3  -4  -1  521.30   17.60
  -3  -4  -1  489.13   12.88
   3   4  -1  485.95   18.47
  -3   4  -1  508.12   17.76
   3   4  -1  513.19   17.38
   3  -4  -1  521.47   19.48
   3   4   0  181.15   10.52
   3  -4   0  191.26   10.41
   3  -4   0  176.54   11.24
   3   4   0  187.73   11.48
   3   4   1  497.24   17.74
   3   4   1  550.78   19.59
   3  -4   1  494.21   18.69
   3  -4   1  509.84   16.90
   3   4   2  429.74   17.36
   3  -4   2  447.87   15.84
   3  -4   2  423.00   16.92
   3   4   2  408.45   16.45
   3   4   3  170.22   10.77
   3   4   3  152.55   10.19
   3  -4   3  167.88    9.56
   3  -4   3  155.34   10.15
   3   4   4  240.54   13.05
   3   4   4  253.41   13.38
   3  -4   4  232.00   11.33
   3  -4   4  228.56   12.31
   3   4   5  374.64   16.46
   3  -4   5  367.23   14.35
   3   4   5  350.01   16.22
   3  -4   5  397.58   16.13
   3  -4   6   90.12    7.10
   3   4   6  100.69    8.49
   3   4   6   87.20    8.00
   3  -4   6   93.55    8.07
   3   4   7   72.90    7.38
   3  -4   7   54.91    6.06
   3   4   7   73.67    7.79
   3  -4   8   75.76    7.00
   3   4   8   75.26    7.86
   3   4   8   74.38    7.48
   3  -4   9   64.87    6.76
   3   4   9   65.49    7.03
   3   4   9   78.91    8.31
   3  -4  10  141.17    9.70
   3   4  10  137.77   10.93
   3   4  10  143.42   10.65
   3   4  11   78.55    7.91
   3  -4  11   88.49    7.62
   3   4  11   75.97    8.11
   3   4  12   13.41    3.71
   3   4  12   15.99    3.82
   3  -4  12   21.89    3.96
   3  -4  13   27.00    4.49
   3   4  13   37.67    6.11
   3   4  13   26.08    4.57
   3  -4  14   -1.37    1.65
   3   4  14    0.22    1.57
   3   4  14    0.16    1.55
   3   4  15   31.70    6.12
   3   4  15   35.75    5.50
   3  -4  15   30.53    4.84
   3   4  16    7.72    2.81
   3   4  16   12.22    3.75
   3   4  17    2.50    1.94
   3   4  17   -1.43    1.87
   3   4  18   13.83    3.46
   3   4  18    8.15    3.13
  -3   4  18   11.09    3.72
  -3   4  19   47.92    7.42
   3   4  19   57.90    8.14
   3   4  20    7.14    2.79
  -3   4  20    6.43    3.73
  -3   4  20    5.41    2.86
  -3   4  21   25.22    5.59
   3   4  21   21.28    5.18
  -3   4  21   19.05    4.40
  -3   4  22    4.55    2.86
   3   4  22   10.91    4.21
   3   4  23    5.18    2.17
  -3   4  23    7.30    2.97
   3   4  24    7.98    4.55
   3   4  25   29.89    6.97
   3  -5 -27   16.56    5.32
  -3  -5 -27   11.64    4.29
  -3  -5 -26   11.66    4.57
   3  -5 -26   21.51    6.02
   3  -5 -25   35.45    7.61
  -3  -5 -25   46.03    8.32
  -3  -5 -24   13.82    4.07
   3  -5 -24   12.21    3.67
  -3  -5 -23   28.36    6.72
   3  -5 -23   19.04    6.12
  -3  -5 -22   23.29    6.17
   3  -5 -22   19.10    5.23
  -3  -5 -21    6.52    2.63
   3  -5 -21   12.95    3.20
  -3  -5 -20   42.75    7.65
   3  -5 -20   33.49    6.78
  -3  -5 -19   80.01    9.64
   3  -5 -19   73.92   10.18
   3  -5 -18   38.51    7.47
  -3  -5 -18   37.75    6.70
  -3  -5 -17   78.83    9.65
   3  -5 -17   88.36   10.55
   3  -5 -17   83.96    9.55
  -3  -5 -16   56.40    7.53
   3  -5 -16   46.09    7.47
   3  -5 -15   83.69    9.83
  -3  -5 -15   74.77    8.57
   3  -5 -15   88.57   10.20
   3   5 -15  105.13   10.00
   3  -5 -14   96.70   10.57
   3  -5 -14   89.56   10.09
  -3  -5 -14   97.12    9.65
   3   5 -14   88.88    9.13
   3  -5 -13  316.72   18.26
   3   5 -13  308.79   16.79
   3  -5 -13  297.84   18.05
  -3  -5 -13  326.26   18.23
   3  -5 -12  154.90   12.64
  -3   5 -12  151.20   10.59
   3   5 -12  164.93   12.21
   3  -5 -12  146.00   12.65
  -3  -5 -12  173.59   12.76
  -3   5 -11   57.73    6.56
  -3  -5 -11   54.36    7.08
   3   5 -11   58.50    7.49
   3  -5 -11   54.15    7.57
   3  -5 -11   53.94    7.45
  -3  -5 -10   71.50    8.06
  -3   5 -10   77.16    7.36
   3  -5 -10   70.93    8.42
   3  -5 -10   68.13    8.45
   3   5 -10   73.98    8.33
   3   5  -9  276.64   15.48
  -3   5  -9  315.48   15.34
   3  -5  -9  268.95   15.64
   3   5  -9  269.61   11.69
  -3  -5  -9  295.04   15.28
   3  -5  -9  247.59   15.98
   3   5  -8   29.27    5.15
  -3   5  -8   32.19    5.08
   3   5  -8   31.26    4.05
  -3  -5  -8   26.02    4.80
   3  -5  -8   26.71    5.16
   3  -5  -8   17.17    4.06
  -3   5  -7  134.44   10.13
   3  -5  -7  141.37   10.89
   3   5  -7  154.33   11.44
   3  -5  -7  135.28   11.15
  -3  -5  -7  138.60    9.81
   3   5  -7  144.27    9.07
   3   5  -6  100.48    7.82
  -3  -5  -6  106.21    8.18
   3   5  -6  112.33    9.57
  -3   5  -6  112.23    9.26
   3  -5  -6  115.21    9.64
   3  -5  -6  111.33   10.95
   3   5  -5    9.07    2.70
   3   5  -5    7.41    2.15
   3  -5  -5    9.73    2.88
  -3   5  -5    9.12    2.66
   3  -5  -5    9.85    3.33
  -3  -5  -5   10.07    2.50
  -3   5  -4   81.63    7.88
   3   5  -4   83.16    8.39
   3   5  -4   80.25    7.31
   3  -5  -4   86.35    8.09
   3  -5  -4   79.69    8.66
  -3  -5  -4   79.19    6.38
   3  -5  -3  248.94   13.47
   3   5  -3  282.20   15.31
  -3   5  -3  268.57   14.33
   3   5  -3  263.57   13.48
   3  -5  -3  268.76   15.55
  -3  -5  -3  251.44   10.99
  -3  -5  -2   17.74    2.50
   3   5  -2   13.70    3.40
   3  -5  -2   10.59    2.25
   3   5  -2   17.21    3.96
  -3   5  -2   16.26    3.67
   3  -5  -2   10.46    3.22
   3   5  -1  307.63   15.11
   3   5  -1  354.75   17.30
  -3   5  -1  315.91   15.77
   3  -5  -1  319.40   14.93
   3  -5  -1  325.67   16.65
  -3  -5  -1  332.34   11.15
  -3   5   0  164.83   11.64
   3   5   0  159.04   11.64
   3  -5   0  159.25   10.29
   3   5   0  173.12   11.52
   3  -5   0  168.60   11.98
   3   5   1  338.71   16.90
   3   5   1  321.10   15.86
   3  -5   1  336.41   14.83
   3  -5   1  306.48   16.21
  -3   5   1  317.14   16.08
   3  -5   2    9.46    3.41
   3  -5   2   16.07    3.12
  -3   5   2   15.14    3.80
   3   5   2   14.63    3.70
   3   5   2   15.74    3.71
   3   5   3  266.17   14.86
   3   5   3  286.25   15.59
   3  -5   3  268.50   12.98
  -3   5   3  276.93   15.10
   3  -5   3  267.73   14.68
   3   5   4   76.60    8.15
   3  -5   4   96.16    8.87
   3   5   4   83.72    8.55
   3  -5   4  102.29    7.86
  -3   5   4   89.75    8.55
   3  -5   5    6.74    2.88
   3   5   5   11.85    3.39
  -3   5   5   13.76    3.59
   3  -5   5    9.90    2.42
   3   5   5    1.28    1.09
   3   5   6   99.86    9.41
  -3   5   6  100.43    9.07
   3  -5   6  108.18    9.38
   3   5   6  106.48    9.96
   3  -5   6  107.08    8.05
   3   5   7  138.19   11.13
   3   5   7  140.87   11.08
  -3   5   7  108.26    9.68
   3  -5   7  142.43   10.62
   3  -5   7  133.85    9.26
   3   5   8   25.24    4.98
   3  -5   8   32.09    4.83
   3   5   8   29.71    5.24
  -3   5   8   31.93    5.27
   3  -5   8   27.91    4.28
  -3   5   9  272.19   15.81
   3   5   9  308.53   16.58
   3  -5   9  254.81   14.22
   3   5   9  265.77   16.07
   3  -5   9  257.94   13.32
   3   5  10   62.32    8.19
   3   5  10   59.16    7.08
  -3   5  10   69.68    8.21
   3  -5  10   71.90    7.51
   3  -5  11   56.75    6.60
  -3   5  11   62.04    7.69
   3   5  11   61.77    7.32
   3   5  11   61.64    7.86
   3   5  12  141.27   11.81
  -3   5  12  162.76   12.80
   3   5  12  160.46   12.71
   3  -5  12  156.70   11.24
   3   5  13  315.91   17.75
   3   5  13  309.49   18.25
  -3   5  13  313.41   17.82
   3  -5  13  288.31   15.53
   3   5  14   99.35   10.49
   3   5  14   90.08    9.96
   3  -5  14   95.64    9.05
  -3   5  14  106.02   10.46
   3   5  15   86.09   10.15
   3   5  15   84.37    9.67
  -3   5  15  107.73   10.90
   3   5  16   55.53    7.92
  -3   5  16   56.28    8.34
   3   5  16   41.50    7.11
  -3   5  17   56.44    8.20
   3   5  17   30.46    6.53
   3   5  18   45.94    7.04
   3   5  18   30.58    6.11
  -3   5  18   29.78    6.07
  -3   5  19   84.28   10.56
   3   5  19   90.91   10.68
   3   5  19   83.18   10.14
  -3   5  20   38.33    7.17
   3   5  20   42.38    7.34
   3   5  21   10.81    3.58
  -3   5  21    6.51    3.64
  -3   5  21   11.99    5.28
  -3   5  22    4.04    1.86
   3   5  22    4.60    3.28
  -3   5  23   17.94    5.47
   3   5  23   26.77    5.83
  -3   5  24    8.67    3.59
   3   5  24   17.37    6.26
   3   5  25   35.33    7.97
   3   5  26    8.90    4.82
   3  -6 -26    4.43    3.04
  -3  -6 -26    6.30    4.56
  -3  -6 -25    8.67    4.54
   3  -6 -25   11.65    4.62
  -3  -6 -24    9.12    5.08
   3  -6 -24    3.56    2.64
  -3  -6 -23    7.94    4.15
   3  -6 -23    4.13    3.59
   3  -6 -22    1.38    3.19
  -3  -6 -22    3.60    2.82
  -3  -6 -21   10.77    3.76
   3  -6 -21   14.93    4.89
   3  -6 -20    7.62    2.36
  -3  -6 -20    8.60    3.85
  -3  -6 -19   64.79    8.90
   3  -6 -19   64.60    9.44
   3  -6 -18   37.04    7.54
  -3  -6 -18   37.03    7.74
   3  -6 -17   20.55    5.87
  -3  -6 -17   12.70    4.41
   3  -6 -16   34.18    6.05
   3  -6 -16   34.93    6.86
  -3  -6 -16   46.68    7.51
   3  -6 -15   79.20   10.37
  -3  -6 -15   92.60   10.12
   3  -6 -15   98.60   10.94
   3  -6 -14   20.88    5.58
   3   6 -14   10.63    3.63
   3  -6 -14    6.98    3.01
  -3  -6 -14   15.78    4.24
   3  -6 -13  183.60   15.11
   3  -6 -13  168.52   13.77
  -3  -6 -13  202.38   14.63
   3   6 -13  179.99   14.30
   3   6 -12    9.21    3.20
   3  -6 -12   16.24    4.69
  -3  -6 -12   17.01    4.29
   3  -6 -12   14.03    4.13
   3  -6 -11  112.69   11.13
   3   6 -11   92.81    9.97
  -3   6 -11   80.93    8.66
  -3  -6 -11   94.02    9.90
   3  -6 -11   79.34   10.04
   3   6 -10   43.16    6.67
   3  -6 -10   56.88    8.15
  -3  -6 -10   54.26    7.43
  -3   6 -10   38.95    6.07
   3  -6 -10   47.11    7.12
   3  -6  -9   30.27    5.69
  -3   6  -9   32.05    5.62
  -3  -6  -9   38.27    6.06
   3  -6  -9   38.81    7.25
   3   6  -9   42.16    6.66
   3   6  -8   43.89    7.06
   3  -6  -8   38.77    6.87
  -3   6  -8   45.38    6.80
  -3  -6  -8   51.04    6.49
   3  -6  -8   54.66    7.51
   3   6  -8   42.64    5.70
   3  -6  -7  122.38   11.36
  -3   6  -7  110.03   10.18
  -3  -6  -7  129.09   10.07
   3  -6  -7  117.68   10.44
   3   6  -7  124.73    9.72
   3   6  -7  125.06   11.04
   3   6  -6   27.69    4.80
  -3   6  -6   19.98    4.65
   3   6  -6   24.78    5.25
  -3  -6  -6   24.42    4.12
   3  -6  -6   19.42    4.42
   3  -6  -6   16.17    4.05
   3  -6  -5  112.78   10.90
   3   6  -5  105.55   10.22
   3  -6  -5  109.28    9.88
   3   6  -5  103.38    9.01
  -3  -6  -5  101.71    8.42
  -3   6  -5   96.63    9.29
  -3  -6  -4    8.46    2.60
   3   6  -4   15.49    3.44
   3   6  -4   14.51    3.22
   3  -6  -4   12.21    4.80
  -3   6  -4   21.02    4.57
   3  -6  -4   13.63    4.58
  -3  -6  -3  108.41    7.75
   3   6  -3  108.70   10.32
   3   6  -3  111.83    9.69
   3  -6  -3  124.57   11.23
  -3   6  -3  118.71   10.59
   3  -6  -3  116.92    9.80
   3  -6  -2  148.56   12.30
   3   6  -2  145.81   11.85
  -3   6  -2  142.55   11.56
   3   6  -2  140.89   10.92
   3  -6  -2  144.74   10.47
  -3  -6  -2  117.65    7.65
   3   6  -1  130.90   10.71
  -3   6  -1  117.16   10.50
  -3  -6  -1  119.22    7.40
   3  -6  -1  128.39   11.12
   3  -6  -1  125.23    9.74
   3   6  -1  117.19   10.71
   3  -6   0   -0.45    1.97
   3   6   0   -2.31    2.47
   3   6   0    4.33    2.88
   3  -6   0    1.07    1.67
  -3   6   0   -0.53    1.68
   3   6   1  108.92    9.94
  -3   6   1  114.95   10.31
   3   6   1  128.45   11.21
   3  -6   1  107.49    8.99
   3  -6   1  100.56    9.82
   3   6   2  123.08   10.76
   3   6   2  142.15   11.83
   3  -6   2  113.67   10.43
   3  -6   2  117.26    9.22
  -3   6   2  145.58   11.82
   3   6   3  108.55   10.39
   3  -6   3  104.06    9.93
   3   6   3  119.74   10.40
  -3   6   3  118.40   11.01
   3  -6   3  100.85    8.59
  -3   6   4   16.18    3.53
   3  -6   4   15.47    3.39
   3  -6   4   18.68    4.85
   3   6   4   19.32    4.35
   3   6   4   30.25    5.96
   3   6   5   93.90    9.72
   3  -6   5   98.93    8.30
   3   6   5   91.09    9.56
   3  -6   5   99.18    9.62
  -3   6   5   95.93    9.95
   3  -6   6   14.58    3.85
   3   6   6   21.00    4.90
  -3   6   6   22.78    4.42
   3  -6   6   19.09    3.87
   3   6   6   22.71    5.11
   3   6   7  119.55   11.15
   3  -6   7  139.33   11.21
   3   6   7  111.92   10.60
   3  -6   7  120.56    9.49
  -3   6   7  123.96   11.57
   3  -6   8   50.87    6.87
   3   6   8   52.53    7.62
   3  -6   8   45.48    5.83
  -3   6   8   42.41    6.56
   3   6   8   44.18    7.31
   3  -6   9   41.53    6.41
   3   6   9   29.19    5.81
   3   6   9   44.39    6.57
  -3   6   9   46.15    7.53
   3  -6   9   48.54    6.14
   3  -6  10   49.96    7.02
   3   6  10   32.12    6.24
  -3   6  10   37.99    6.06
   3  -6  10   47.57    6.31
   3   6  10   48.05    7.66
   3   6  11   86.63   10.05
  -3   6  11   92.21   10.37
   3   6  11   91.60   10.36
   3  -6  11   88.23    9.28
  -3   6  12   10.71    2.63
   3  -6  12   11.52    4.12
   3   6  12   12.65    4.11
   3   6  12    7.56    2.60
   3   6  13  189.68   15.07
   3   6  13  180.86   14.73
   3  -6  13  158.12   12.34
  -3   6  13  212.27   15.87
  -3   6  14   14.73    4.43
   3   6  14    8.82    2.67
  -3   6  15   93.70   10.50
   3   6  15   93.28   10.62
   3   6  15   83.60   10.10
   3   6  16   31.65    6.53
  -3   6  16   25.93    5.76
   3   6  16   33.89    6.74
   3   6  17   11.29    4.71
  -3   6  17   15.18    4.72
   3   6  17   15.08    4.41
   3   6  18   29.14    6.42
   3   6  18   34.55    7.53
  -3   6  18   41.93    7.68
   3   6  19   58.09    9.18
  -3   6  19   54.95    8.83
   3   6  19   51.37    8.01
  -3   6  20    1.62    3.49
   3   6  20    3.27    2.16
  -3   6  21   15.48    5.79
   3   6  21   10.92    4.59
  -3   6  21   18.13    5.79
   3   6  22    1.31    2.88
  -3   6  22    4.24    3.34
  -3   6  22   -0.95    3.15
   3   6  23   -0.25    2.07
  -3   6  23    7.70    3.36
  -3   6  24    6.75    3.93
   3   6  24   12.92    5.64
   3   6  25    9.49    3.77
   3   6  26    3.05    2.95
  -3  -7 -24   24.88    6.97
   3  -7 -24   17.24    5.15
   3  -7 -23   31.92    7.23
  -3  -7 -23   23.88    6.12
   3  -7 -22   25.35    6.68
  -3  -7 -22   22.46    6.14
  -3  -7 -21    8.82    3.91
   3  -7 -21   15.12    5.54
  -3  -7 -20   20.73    6.14
   3  -7 -20    5.94    4.98
  -3  -7 -19   53.71    8.61
   3  -7 -19   61.35    9.19
   3  -7 -18    7.64    3.48
  -3  -7 -18    9.21    3.53
  -3  -7 -17   43.25    8.08
   3  -7 -17   45.38    8.13
   3  -7 -16   72.99   10.13
  -3  -7 -16   72.46    9.76
   3  -7 -16   68.02   10.44
  -3  -7 -15   20.84    5.04
   3  -7 -15   24.09    5.27
   3  -7 -15   17.94    6.03
   3  -7 -14   22.05    5.90
   3   7 -14   13.18    5.10
  -3  -7 -14   29.91    5.76
   3  -7 -14   25.00    5.44
   3   7 -13   79.26    9.59
   3  -7 -13   87.36   10.54
   3  -7 -13   77.57    9.91
  -3  -7 -13   78.69    9.44
   3  -7 -12   28.81    6.44
   3   7 -12   31.63    6.01
  -3  -7 -12   27.40    5.49
   3  -7 -12   20.74    5.82
   3   7 -11    1.38    1.55
  -3   7 -11    2.64    2.67
  -3  -7 -11    5.35    3.59
   3  -7 -11   -0.85    2.78
   3  -7 -11    1.19    3.39
   3   7 -10   54.56    8.50
  -3  -7 -10   53.18    7.23
  -3   7 -10   44.39    7.24
   3  -7 -10   43.52    7.39
   3  -7 -10   43.70    7.54
   3  -7  -9  119.96   11.34
   3  -7  -9  114.13   12.09
  -3   7  -9  121.23   11.96
   3   7  -9  138.10   12.57
  -3  -7  -9  146.65   11.96
   3   7  -8   27.30    5.55
  -3  -7  -8   14.24    3.32
   3  -7  -8   22.45    5.10
   3  -7  -8   15.70    4.64
  -3   7  -8   23.94    5.18
   3   7  -7   45.55    6.16
  -3   7  -7   34.02    6.45
   3  -7  -7   48.10    7.70
  -3  -7  -7   37.70    5.44
   3   7  -7   43.65    7.18
   3  -7  -7   43.76    6.83
  -3   7  -6   76.72    9.09
   3  -7  -6   88.23    9.41
   3   7  -6  108.01   10.98
  -3  -7  -6   81.54    8.02
   3  -7  -6   67.87    8.75
   3   7  -6   90.28    9.15
   3  -7  -5   35.81    5.87
  -3  -7  -5   38.60    5.62
   3   7  -5   32.28    5.75
  -3   7  -5   26.90    5.46
   3  -7  -5   22.93    6.15
   3   7  -5   39.51    6.55
   3   7  -4  131.44   11.56
   3  -7  -4  140.18   11.74
  -3   7  -4  140.46   12.37
  -3  -7  -4  151.36   10.47
   3   7  -4  148.47   13.17
   3  -7  -4  160.55   13.48
  -3  -7  -3  164.79   10.50
   3   7  -3  182.61   14.57
  -3   7  -3  162.08   12.84
   3  -7  -3  144.71   11.97
   3  -7  -3  160.23   13.56
   3   7  -3  154.95   12.55
   3  -7  -2   95.62    9.43
   3   7  -2  108.19   10.45
  -3   7  -2  102.67   10.98
   3  -7  -2  101.60   11.23
   3   7  -2  119.46   11.84
   3   7  -1  322.70   19.00
  -3   7  -1  358.71   19.63
   3   7  -1  335.58   18.55
   3  -7  -1  376.18   18.09
   3  -7  -1  343.48   19.92
   3  -7   0  251.69   17.09
   3   7   0  227.73   16.01
  -3   7   0  227.85   15.80
   3   7   0  231.24   15.39
   3  -7   0  195.04   12.84
  -3   7   1  357.64   19.74
   3   7   1  313.59   18.78
   3   7   1  308.43   18.02
   3  -7   1  341.53   16.78
   3  -7   1  347.93   19.73
   3  -7   2  101.42   11.14
   3   7   2  107.05   11.03
   3   7   2  109.44   10.97
  -3   7   2   99.18   10.42
   3  -7   2  100.73    9.27
  -3   7   3  138.87   12.45
   3  -7   3  156.02   13.38
   3   7   3  175.07   13.73
   3   7   3  155.28   12.87
   3  -7   3  171.48   11.76
   3   7   4  178.34   13.91
   3   7   4  145.43   13.32
   3  -7   4  176.58   13.84
  -3   7   4  158.55   13.18
  -3   7   5   40.05    7.01
   3  -7   5   38.66    5.75
   3   7   5   41.37    7.31
   3   7   5   36.07    6.69
   3  -7   5   28.53    5.60
   3   7   6   88.53   10.02
   3   7   6   97.48   10.70
  -3   7   6   80.87    9.77
   3  -7   6   92.76    9.92
   3   7   7   43.69    7.05
   3  -7   7   51.62    7.59
   3   7   7   46.79    7.00
  -3   7   7   56.15    8.15
   3   7   8   29.38    5.91
   3  -7   8   26.19    5.65
  -3   7   8   15.65    4.75
   3   7   8   12.65    4.40
   3   7   9  145.78   13.17
   3   7   9  125.13   12.49
  -3   7   9  144.18   12.82
   3  -7   9  117.32   11.65
   3   7  10   47.93    7.71
  -3   7  10   44.89    7.32
   3   7  10   41.51    7.53
   3  -7  10   43.52    7.34
   3   7  11    3.24    2.34
   3   7  11   -0.69    2.36
   3  -7  11    6.40    3.31
  -3   7  11   -1.28    1.80
  -3   7  12   16.72    4.82
   3   7  12   26.50    6.48
   3   7  12   24.93    5.68
   3  -7  12   25.71    5.95
   3   7  13   93.42   11.13
  -3   7  13   76.21   10.00
   3   7  14   32.34    6.55
   3   7  14   26.03    6.32
  -3   7  14   21.73    5.82
   3   7  15   28.20    6.16
   3   7  15   21.41    4.99
  -3   7  15   27.46    5.55
   3   7  16   56.69    9.04
  -3   7  16   71.35    9.62
   3   7  16   77.08   10.29
   3   7  17   34.59    6.75
  -3   7  17   44.70    8.18
  -3   7  18   -2.95    3.61
   3   7  18    6.70    3.20
   3   7  18    3.10    3.85
  -3   7  19   39.60    7.92
   3   7  19   54.04    8.78
   3   7  19   39.77    7.97
   3   7  20   23.86    6.46
   3   7  20   23.86    6.80
  -3   7  20   11.65    4.30
  -3   7  21   13.29    5.20
   3   7  21   12.73    4.35
  -3   7  21    6.28    2.82
  -3   7  22   24.26    6.98
  -3   7  22   34.03    7.68
   3   7  22   30.08    6.81
   3   7  23   15.29    5.92
  -3   7  23   12.72    4.74
   3   7  24   19.94    5.86
  -3   7  24   17.28    5.82
  -3  -8 -22    6.13    3.81
   3  -8 -22    8.14    2.61
  -3  -8 -21   11.87    5.33
   3  -8 -21    4.53    2.86
  -3  -8 -20    0.97    4.69
   3  -8 -20    5.35    3.24
  -3  -8 -19    7.61    3.84
   3  -8 -19    6.94    3.94
  -3  -8 -18   -1.87    2.19
   3  -8 -18    2.49    3.41
   3  -8 -17    9.16    4.01
  -3  -8 -17   15.89    5.04
   3  -8 -16   16.98    5.92
  -3  -8 -16    7.46    3.12
   3  -8 -15   30.60    6.57
  -3  -8 -15   31.30    6.31
   3  -8 -15   23.98    6.61
  -3  -8 -14   18.29    5.28
   3  -8 -14   13.33    4.95
   3  -8 -14    7.94    3.38
   3   8 -13   76.36   10.36
  -3  -8 -13   64.24    9.14
   3  -8 -13   79.53   10.33
   3  -8 -13   56.75    8.58
  -3  -8 -12   25.44    5.89
   3  -8 -12   13.06    4.15
   3   8 -12   24.43    5.87
   3  -8 -12   18.69    5.75
   3  -8 -11    3.22    2.69
   3   8 -11   11.55    4.29
  -3  -8 -11    4.19    3.42
   3  -8 -11    4.48    3.68
   3   8 -10    7.99    2.81
   3  -8 -10   21.29    5.81
  -3   8 -10   16.95    5.62
  -3  -8 -10   21.50    5.38
   3  -8 -10   11.85    4.82
   3  -8  -9   49.53    8.02
  -3  -8  -9   56.01    7.88
  -3   8  -9   35.11    6.87
   3  -8  -9   35.64    6.84
   3   8  -9   42.87    7.26
  -3  -8  -8   19.20    5.12
  -3   8  -8   12.93    4.77
   3  -8  -8   22.69    6.16
   3  -8  -8   15.35    4.99
   3   8  -8   12.72    4.05
   3  -8  -7   18.04    5.03
  -3   8  -7   19.26    5.41
   3   8  -7   26.96    6.02
   3  -8  -7   24.13    5.17
  -3   8  -6    0.89    2.73
   3   8  -6    8.75    3.38
   3  -8  -6    2.49    1.86
   3   8  -6    3.73    2.40
   3  -8  -6    4.00    2.76
   3  -8  -5   13.14    3.41
   3   8  -5   14.20    4.47
   3   8  -5    8.04    3.53
   3  -8  -5   16.04    5.45
  -3   8  -5   13.82    4.20
   3   8  -4   56.46    8.27
   3  -8  -4   53.12    8.35
  -3   8  -4   59.33    8.14
   3  -8  -4   50.11    8.13
   3   8  -4   49.26    7.70
   3  -8  -3   21.32    5.92
   3   8  -3   37.70    6.56
   3   8  -3   38.11    7.38
   3  -8  -3   33.88    6.70
  -3   8  -3   29.59    5.67
   3   8  -2    7.46    3.39
   3   8  -2    5.49    3.94
  -3   8  -2    5.23    4.10
   3  -8  -2   -0.46    1.71
   3  -8  -2    8.90    3.70
  -3   8  -1   39.98    7.00
   3   8  -1   43.19    7.40
   3  -8  -1   45.78    6.52
   3  -8  -1   41.25    7.53
   3   8  -1   35.17    7.14
   3   8   0    8.31    3.53
  -3   8   0    0.94    2.27
   3   8   0    3.63    2.59
   3  -8   0    1.92    2.12
  -3   8   1   33.80    6.93
   3   8   1   39.12    7.38
   3   8   1   55.55    8.49
   3  -8   1   36.50    6.50
   3   8   2    3.95    3.04
  -3   8   2    7.13    3.15
   3   8   2    3.75    2.48
   3  -8   2    4.25    1.59
   3   8   3   32.16    6.25
   3  -8   3   43.23    7.47
   3   8   3   35.72    7.17
  -3   8   3   29.44    5.77
   3   8   4   55.03    8.37
   3   8   4   46.69    7.90
  -3   8   4   51.55    8.10
   3  -8   4   47.85    7.44
   3   8   5   18.32    5.70
   3  -8   5    9.41    4.36
  -3   8   5   16.99    4.87
   3   8   5   20.74    5.38
   3   8   6    7.10    2.94
   3   8   6    2.52    2.93
   3  -8   6    3.05    3.35
  -3   8   6    2.56    2.53
   3   8   7   30.64    6.47
  -3   8   7   23.10    6.07
   3  -8   7   18.88    5.57
   3   8   7   17.47    5.60
   3   8   8   23.11    5.73
  -3   8   8   20.53    5.20
   3   8   8   19.10    5.46
   3  -8   8   13.54    5.19
   3   8   9   32.94    7.03
  -3   8   9   33.87    6.58
   3   8   9   35.60    7.67
   3  -8   9   42.72    7.82
   3   8  10    8.75    3.56
   3   8  10    9.31    2.92
   3  -8  10   17.02    5.03
  -3   8  10    7.64    2.82
  -3   8  11    5.92    3.84
   3   8  11    3.97    4.04
   3   8  11    3.68    2.72
   3  -8  11   10.19    4.13
   3   8  12   21.67    5.17
   3   8  12   18.64    4.98
  -3   8  12   18.14    5.08
   3   8  13   49.77    8.83
  -3   8  13   69.83   10.17
   3   8  13   64.82    9.76
  -3   8  14    3.05    4.27
   3   8  14    8.71    3.60
   3   8  14    5.73    3.73
   3   8  15   19.29    5.67
   3   8  15   36.47    7.41
  -3   8  15   33.38    6.80
  -3   8  16    6.32    3.42
   3   8  16    4.44    3.05
   3   8  16   13.12    4.72
   3   8  17    9.38    5.38
  -3   8  17    2.62    3.12
   3   8  17   12.31    5.01
  -3   8  18    3.73    3.61
   3   8  18    1.24    2.87
   3   8  18    6.05    3.77
   3   8  19    8.74    4.86
  -3   8  19   13.84    5.05
   3   8  19    8.38    2.98
  -3   8  20    2.03    3.61
   3   8  20    3.78    2.75
   3   8  20    7.94    4.51
  -3   8  20    3.01    2.35
   3   8  21    5.78    5.16
  -3   8  21   -3.54    2.55
  -3   8  21    2.63    3.20
  -3   8  22    5.80    4.46
   3   8  22   -0.39    3.18
  -3   8  22    9.23    4.62
   3  -9 -19   28.61    6.21
  -3  -9 -19   18.56    5.18
   3  -9 -18   -4.22    4.78
  -3  -9 -18    6.33    3.07
  -3  -9 -17    2.44    2.73
   3  -9 -17    4.83    3.79
   3  -9 -16   14.01    4.71
  -3  -9 -16   10.65    5.22
  -3  -9 -15    9.79    4.14
   3  -9 -15   14.60    5.36
   3  -9 -14   12.10    4.89
  -3  -9 -14    8.23    3.83
   3  -9 -14   14.61    4.61
   3  -9 -13   22.95    6.36
   3  -9 -13   30.47    7.30
   3  -9 -12   -1.07    3.98
   3  -9 -12    5.69    3.40
   3   9 -12    5.01    3.48
   3  -9 -11    3.29    2.11
   3   9 -11    6.59    4.42
   3   9 -10   34.47    7.27
   3  -9 -10   24.91    6.17
   3  -9 -10   18.68    4.86
  -3   9 -10   11.51    6.20
   3  -9  -9  101.00   12.13
  -3   9  -9   93.19   11.55
   3  -9  -9  101.13   11.80
   3   9  -9  105.99   12.55
   3  -9  -8   35.48    7.01
  -3   9  -8   28.15    7.19
   3   9  -8   29.46    7.29
   3  -9  -8   44.68    8.77
   3   9  -7   62.79    9.38
  -3   9  -7   59.49    9.13
   3  -9  -7   77.52   10.32
   3  -9  -7   52.52    9.30
   3  -9  -6   60.14    9.03
  -3   9  -6   77.76   10.68
   3   9  -6   67.54   10.12
   3   9  -5   75.37   10.56
   3  -9  -5   82.54   11.12
  -3   9  -5   69.80    9.70
   3  -9  -4  105.13   11.99
   3   9  -4  115.44   12.39
  -3   9  -4  134.33   13.64
   3   9  -4   92.69   10.87
   3   9  -3  124.06   12.87
  -3   9  -3  132.30   13.55
   3  -9  -3  143.83   14.17
   3   9  -3  152.93   14.28
   3   9  -2   35.87    7.09
   3   9  -2   24.67    5.89
  -3   9  -2   34.08    7.24
   3  -9  -2   30.81    7.25
   3   9  -1  100.23   11.87
  -3   9  -1   99.16   11.75
   3   9  -1   81.45   10.50
   3  -9  -1   97.80   11.23
   3  -9   0   55.09    8.57
   3   9   0   66.33    9.04
   3   9   0   49.40    8.58
   3   9   1   89.59   10.75
   3   9   1   89.44   11.32
  -3   9   1  100.63   12.01
   3  -9   1   91.32   11.31
   3   9   2   26.85    6.43
  -3   9   2   28.82    6.37
   3  -9   2   26.13    6.04
   3   9   2   26.65    6.83
   3   9   3  136.13   13.90
  -3   9   3  128.74   13.34
   3  -9   3  128.58   13.64
   3   9   3  159.70   14.55
   3   9   4   98.34   11.09
  -3   9   4  102.81   12.05
   3   9   4  105.41   11.94
   3  -9   4  107.37   11.94
   3   9   5   74.20   10.32
  -3   9   5   70.36    9.38
   3  -9   5   63.69    9.69
   3   9   5   76.31    9.80
   3   9   6   54.40    8.81
  -3   9   6   77.11   10.53
   3   9   6   78.46   10.61
   3  -9   6   75.01   10.42
   3   9   7   84.62   10.55
  -3   9   7   92.30   11.91
   3  -9   7   79.78   10.62
   3   9   7   68.67    9.95
   3   9   8   30.72    6.83
   3   9   8   38.16    6.95
  -3   9   8   37.82    7.73
   3  -9   8   37.44    8.10
   3   9   9  106.07   12.46
   3   9   9   90.04   11.20
  -3   9   9   84.59   11.03
   3  -9   9   80.34   11.06
   3   9  10   32.34    6.83
   3   9  10   27.83    6.13
  -3   9  10   28.33    6.77
  -3   9  11    8.25    3.75
   3   9  11   13.73    5.29
   3   9  11    9.93    3.28
   3   9  12    5.42    3.36
   3   9  12    5.43    3.84
  -3   9  12    5.36    2.89
   3   9  13   19.94    5.48
   3   9  13   26.03    6.41
  -3   9  13   13.08    5.28
   3   9  14   11.11    4.39
   3   9  14    3.65    3.04
  -3   9  14   10.09    4.24
   3   9  15    8.21    2.95
   3   9  15   23.73    7.02
  -3   9  15   19.91    4.29
   3   9  16   14.48    5.32
  -3   9  16   10.47    4.87
   3   9  16    9.84    5.05
  -3   9  17    2.71    3.83
   3   9  17    4.28    2.72
   3   9  17    5.20    3.63
   3   9  18    5.92    4.64
  -3   9  18    4.96    2.84
   3   9  18   16.96    5.71
  -3   9  19   27.54    7.13
   3   9  19   26.79    6.80
   3   9  19   18.75    5.44
  -3   9  19   24.86    6.59
   3 -10 -15   -3.46    3.84
   3 -10 -14   10.43    5.56
   3  10 -12   -0.63    1.27
   3 -10 -12    8.94    5.36
   3  10 -11   42.33    8.83
   3 -10 -11   38.90    7.97
   3 -10 -10    9.23    4.75
   3  10 -10   11.99    5.60
   3  10  -9   12.06    4.33
  -3  10  -9   14.28    5.87
   3 -10  -9   18.40    5.37
   3 -10  -8   39.07    8.23
   3  10  -8   43.73    8.62
  -3  10  -8   28.41    6.66
  -3  10  -7    3.79    3.74
   3  10  -7    2.23    2.49
   3 -10  -7    3.04    3.71
   3  10  -6    6.13    2.86
  -3  10  -6   13.32    5.72
   3 -10  -6   14.05    4.72
   3  10  -5   38.86    7.77
   3 -10  -5   41.31    7.82
  -3  10  -5   42.86    7.78
   3 -10  -4   49.12    9.36
  -3  10  -4   43.23    7.95
   3  10  -4   47.46    8.44
   3  10  -3  146.13   15.18
   3 -10  -3  107.93   12.88
  -3  10  -3  123.00   13.92
   3  10  -3  126.79   13.38
   3 -10  -2   16.10    4.96
   3  10  -2   26.65    6.62
   3  10  -2   27.37    6.56
  -3  10  -2   17.82    5.69
   3  10  -1    9.69    4.83
   3  10  -1    7.64    4.71
  -3  10  -1   12.35    4.29
   3 -10  -1   13.89    5.08
   3 -10   0    8.29    4.84
   3  10   0   18.19    6.16
  -3  10   0    6.44    3.04
   3  10   0   13.94    5.23
   3  10   1    6.12    3.21
  -3  10   1   15.21    5.45
   3 -10   1    6.60    1.80
   3  10   1   13.37    4.81
  -3  10   2    8.96    3.42
   3  10   2   18.66    5.08
   3 -10   2   24.83    5.93
   3  10   2   28.09    7.00
  -3  10   3  110.32   12.95
   3  10   3  120.62   13.63
   3  10   3  140.67   14.85
   3 -10   3  136.38   14.71
   3  10   4   41.63    8.63
  -3  10   4   53.42    9.31
   3 -10   4   45.17    8.45
   3  10   4   48.02    8.77
  -3  10   5   34.63    7.03
   3  10   5   50.84    8.99
   3 -10   5   29.57    7.05
   3  10   5   40.86    8.17
  -3  10   6   11.22    4.12
   3  10   6    4.44    3.56
   3  10   6   11.15    4.68
   3 -10   6    2.96    3.20
   3  10   7    2.33    3.59
  -3  10   7    1.32    4.09
   3 -10   7   -2.28    2.25
   3  10   7   -2.62    2.88
   3 -10   8   17.09    5.42
  -3  10   8   27.44    7.01
   3  10   8   28.68    6.86
   3  10   8   38.47    7.63
   3  10   9   24.16    6.66
   3  10   9   15.43    5.73
  -3  10   9   19.98    5.67
  -3  10  10    7.08    4.04
   3  10  10   18.99    5.01
   3  10  10   12.37    4.99
  -3  10  11   29.53    6.82
   3  10  11   41.52    8.19
   3  10  11   33.79    7.35
   3  10  12    2.22    2.41
   3  10  12    5.00    4.21
  -3  10  12    0.47    2.76
   3  10  13   -1.82    3.83
   3  10  13    2.31    1.36
  -3  10  13    3.94    3.92
   3  10  14    5.65    4.65
  -3  10  14    8.53    4.67
   3  10  14    8.56    3.49
   3  10  15    2.34    2.49
  -3  10  15    4.87    4.36
   3  10  15    3.23    2.94
   3 -11  -9    5.60    3.52
   3  11  -9    9.00    4.55
   3  11  -8   25.49    6.96
   3 -11  -8   20.48    5.21
   3  11  -7   23.03    5.72
   3 -11  -7   23.53    6.68
  -3  11  -7   41.62    7.87
   3  11  -6    6.37    4.13
  -3  11  -6    3.18    2.73
   3  11  -5    8.08    3.71
  -3  11  -5   11.80    4.30
   3 -11  -5    5.04    3.31
   3  11  -4   12.74    2.96
  -3  11  -4    3.96    3.00
   3 -11  -4   14.77    5.48
   3  11  -3    3.34    2.64
  -3  11  -3    6.17    3.89
   3 -11  -3    7.35    4.35
  -3  11  -2    7.81    2.69
   3  11  -2    3.63    4.31
   3 -11  -2    2.18    3.55
   3 -11  -1   -1.15    2.19
  -3  11  -1    3.69    3.41
   3  11  -1    5.01    4.39
   3  11  -1    1.89    2.01
   3  11   0    6.68    5.24
  -3  11   0    0.02    3.19
   3  11   0   -0.71    2.44
   3 -11   0    1.42    2.65
   3 -11   1   -1.58    2.57
   3  11   1    6.35    3.81
  -3  11   1    5.53    3.82
   3  11   1    6.47    3.46
  -3  11   2    7.28    4.45
   3  11   2    9.64    4.12
   3  11   2    0.54    2.16
   3 -11   2   15.17    4.92
   3  11   3    7.42    2.92
   3  11   3    6.26    3.37
   3 -11   3    0.75    3.25
  -3  11   3    2.54    3.00
   3  11   4    5.26    3.29
   3  11   4   14.31    5.04
   3 -11   4    7.87    4.17
   3  11   5    9.53    2.43
  -3  11   5   14.80    5.31
   3  11   5    0.31    1.48
   3 -11   5    6.75    4.85
   3 -11   6   17.85   10.61
   3  11   6   -4.04    4.70
   3  11   6   13.59    5.84
  -3  11   6   20.90    5.98
   3  11   7   21.48    6.26
  -3  11   7   40.05    8.44
   3  11   7   31.46    7.04
  -3  11   8   23.01    6.11
   3  11   8   34.17    7.51
   3  11   8   24.63    7.05
   3  11   9   13.30    5.72
   3  11   9   14.44    5.57
  -3  11   9   18.42    6.78
   4   0 -30    6.77    3.55
   4   0 -29    0.65    3.28
   4   0 -28    5.07    3.13
   4   0 -27   54.37    8.59
   4   0 -26  141.21   13.86
   4   0 -25   26.17    6.34
   4   0 -24   31.74    6.84
   4   0 -23   67.93    8.76
   4   0 -22   95.27   10.51
   4   0 -21  105.22   10.95
   4   0 -20  121.00   11.21
   4   0 -19  160.52   12.86
   4   0 -18  188.99   13.79
   4   0 -17  799.87   27.54
   4   0 -16  170.63   12.35
   4   0 -15  308.90   15.99
   4   0 -14  227.37    9.44
   4   0 -14  227.37   13.24
   4   0 -13  138.96    7.20
   4   0 -13  151.01   10.68
   4   0 -12  119.11    6.72
   4   0 -12  132.72    9.54
   4   0 -11 1334.99   22.23
   4   0 -11 1350.65   30.10
   4   0 -10  107.76    6.16
   4   0 -10   94.36    7.73
   4   0  -9 1266.76   27.63
   4   0  -9 1316.39   21.22
   4   0  -8  327.02   10.37
   4   0  -8  354.24   13.69
   4   0  -7   48.71    3.97
   4   0  -7   57.44    5.25
   4   0  -6  164.71    8.80
   4   0  -6  175.11    7.43
   4   0  -5  405.32   11.38
   4   0  -5  396.23   13.24
   4   0  -5  408.83   13.42
   4   0  -4  160.62    7.18
   4   0  -4  149.40    7.94
   4   0  -4  150.41    8.00
   4   0  -3 1698.83   23.39
   4   0  -3 1688.72   26.00
   4   0  -3 1660.93   25.87
   4   0  -2 1142.46   19.57
   4   0  -2 1147.90   21.12
   4   0  -1  628.37   15.36
   4   0  -1  622.98   14.64
   4   0  -1  662.19   15.39
   4   0   0  782.05   16.70
   4   0   0  771.61   16.38
   4   0   1  613.39   15.16
   4   0   1  583.08   13.93
   4   0   2 1141.56   20.99
   4   0   2 1085.67   18.59
   4   0   3 1633.14   22.15
   4   0   3 1751.32   26.70
   4   0   4  164.48    8.45
   4   0   4  160.73    6.66
   4   0   5  380.48   13.15
   4   0   5  425.13   10.65
   4   0   6  189.63    9.52
   4   0   6  159.77    6.38
   4   0   7   61.61    5.64
   4   0   7   58.01    3.76
   4   0   8  323.50   13.03
   4   0   8  343.18    8.57
   4   0   9 1377.32   27.58
   4   0   9 1314.46   16.28
   4   0  10  101.19    7.78
   4   0  10   97.34    4.22
   4   0  11 1294.43   14.25
   4   0  11 1374.14   28.96
   4   0  12  132.61    9.23
   4   0  13  142.55    9.80
   4   0  14  236.27   12.96
   4   0  15  290.01   14.86
  -4   0  16  161.40    8.29
   4   0  16  157.92   11.25
   4   0  17  778.85   25.45
   4   0  18  194.20   12.99
   4   0  19  144.98   11.29
   4   0  20  106.40   10.27
   4   0  21  100.76   10.30
   4  -1 -30    5.47    2.96
   4  -1 -29    1.60    2.36
   4  -1 -28    4.23    4.05
   4  -1 -27    3.83    2.72
   4   1 -27    2.19    3.80
   4  -1 -26    8.38    3.74
   4   1 -26    8.55    5.06
   4  -1 -25   11.68    4.18
   4   1 -25    4.24    2.82
   4  -1 -24   64.83    9.14
   4   1 -24   45.69    7.39
   4   1 -23   11.36    3.86
   4  -1 -23   12.76    4.00
   4  -1 -22   12.65    3.80
   4   1 -22   15.71    4.61
   4   1 -21    4.75    3.68
   4  -1 -21   12.48    4.34
   4  -1 -20    4.14    1.84
   4   1 -20    4.49    2.39
   4  -1 -19   52.61    7.71
   4   1 -19   46.83    6.79
   4  -1 -18   76.76    8.54
   4   1 -18   77.35    8.65
   4   1 -17   28.30    4.80
   4  -1 -17   21.71    4.93
   4  -1 -16  340.48   17.89
   4  -1 -16  305.80   13.81
   4   1 -16  327.51   16.62
   4   1 -15    5.90    2.44
   4  -1 -15    5.16    1.87
   4  -1 -15    8.95    3.63
   4  -1 -14   35.93    5.77
   4   1 -14   43.47    5.58
   4  -1 -14   47.71    5.36
   4  -1 -13   58.87    5.91
   4   1 -13   58.09    6.49
   4   1 -13   61.01    6.08
   4  -1 -13   56.60    7.06
   4   1 -12   62.98    6.59
   4  -1 -12   73.12    7.74
   4  -1 -12   78.63    6.48
   4   1 -12   71.81    6.59
   4   1 -12   54.20    2.94
   4  -1 -11  124.84    8.04
   4  -1 -11  112.22    9.06
   4   1 -11  131.36    8.73
   4   1 -11  136.64    8.94
   4   1 -10  795.79   20.91
   4  -1 -10  746.53   22.83
   4   1 -10  716.12   11.66
   4   1 -10  779.55   20.68
   4  -1 -10  755.27   19.76
   4   1  -9   10.49    2.54
   4   1  -9    7.63    1.27
   4  -1  -9    7.25    2.40
   4   1  -9   11.66    2.59
   4  -1  -9    9.56    2.61
   4   1  -8  228.62    6.95
   4   1  -8  215.68    9.92
   4  -1  -8  211.94   11.40
   4  -1  -8  213.47   10.06
   4   1  -8  234.99   11.00
   4  -1  -7   59.55    5.88
   4   1  -7   52.00    4.62
   4   1  -7   50.43    3.35
   4  -1  -7   54.42    5.03
   4   1  -7   56.53    5.30
   4  -1  -6  147.82    9.15
   4   1  -6  136.19    7.35
   4   1  -6  142.04    8.21
   4   1  -6  143.36    5.78
   4  -1  -6  135.27    7.70
   4   1  -5  118.20    5.51
   4   1  -5  127.86    7.54
   4  -1  -5  117.56    7.13
   4  -1  -5  110.69    7.66
   4   1  -5  122.87    6.69
   4   1  -4  445.26   11.08
   4  -1  -4  426.51   13.38
   4   1  -4  426.67   12.20
   4  -1  -4  416.35   14.56
   4   1  -4  450.89   14.05
   4  -1  -3   53.19    4.65
   4  -1  -3   46.89    4.85
   4   1  -3   61.71    4.59
   4   1  -3   42.42    3.49
   4   1  -3   51.03    4.76
   4   1  -2   91.52    5.35
   4  -1  -2   97.36    6.37
   4  -1  -2   92.27    6.53
   4   1  -2   86.01    5.94
   4   1  -2   86.02    5.30
   4   1  -1   23.23    2.62
   4  -1  -1   25.59    3.46
   4  -1  -1   21.03    2.94
   4   1  -1   24.28    3.08
   4   1   0  246.69    9.40
   4  -1   0  256.09   10.34
   4  -1   0  258.89   10.62
   4   1   1   25.77    3.18
   4  -1   1   26.52    3.32
   4   1   1   23.50    3.03
   4   1   2   93.35    5.89
   4   1   2   91.20    6.20
   4  -1   2   92.19    6.36
   4   1   3   55.69    4.50
   4   1   3   48.74    4.52
   4  -1   3   60.08    5.06
   4   1   4  460.30   12.81
   4   1   4  423.73   14.00
   4  -1   4  432.28   13.81
   4   1   5  108.44    6.19
   4   1   5  111.81    7.52
   4  -1   5  124.00    7.57
   4   1   6  133.62    8.37
   4  -1   6  139.66    8.19
   4   1   6  138.50    6.84
   4  -1   7   54.28    5.30
   4   1   7   59.01    4.40
   4   1   7   57.12    5.60
   4  -1   8  219.71   10.63
   4   1   8  217.95   11.05
   4   1   8  209.76    8.43
   4   1   9    8.79    1.76
   4   1   9    5.10    1.86
   4  -1   9    9.94    2.43
   4   1  10  759.14   21.85
   4   1  10  768.55   16.02
   4  -1  10  750.93   20.68
   4   1  11  110.77    6.03
   4   1  11  130.80    9.41
   4  -1  11  119.97    8.47
   4   1  12   74.54    7.39
   4   1  12   73.25    4.95
   4  -1  12   64.96    6.49
   4   1  13   61.50    4.46
   4  -1  13   52.97    5.96
   4   1  13   51.16    6.24
   4   1  14   49.85    3.95
   4   1  14   39.80    5.48
   4  -1  14   57.86    6.35
   4   1  15    6.37    2.40
   4   1  15    3.90    1.40
   4   1  16  350.80   17.27
   4  -1  16  312.83   15.64
   4   1  17   20.19    4.50
   4  -1  17   17.49    4.08
   4   1  18   68.31    7.81
  -4   1  18   65.70    6.69
   4  -1  18   67.32    7.77
   4   1  19   38.39    6.08
   4   1  20    5.56    3.31
   4  -1  20    0.94    1.45
   4   1  21    7.02    3.02
   4   1  22   11.41    3.38
   4   1  23   10.81    4.51
   4  -2 -30   -0.74    2.90
   4  -2 -29    1.91    1.75
   4  -2 -28    2.80    2.38
   4  -2 -27   52.44    9.24
   4  -2 -26   51.37    8.29
   4  -2 -25   61.83    9.40
   4  -2 -24    9.97    4.07
   4   2 -23   -7.09    2.89
   4  -2 -23    5.64    2.52
   4   2 -22   52.02    7.72
   4  -2 -22   55.80    8.84
   4   2 -21   75.92    8.70
   4  -2 -21   66.39    9.23
   4  -2 -20    6.49    2.86
   4   2 -20    8.38    3.88
  -4  -2 -19  159.53   13.04
   4  -2 -19  143.88   12.58
   4   2 -19  114.05   10.38
  -4  -2 -18   18.87    4.57
   4  -2 -18   23.58    5.45
   4   2 -18    8.73    3.13
  -4  -2 -17    8.82    2.88
   4   2 -17   22.05    4.68
   4  -2 -17   10.91    3.57
   4  -2 -17   13.88    3.63
   4   2 -16  279.86   14.22
   4  -2 -16  291.80   17.13
   4   2 -16  248.47   13.80
   4  -2 -16  244.07   13.94
  -4  -2 -16  254.49   15.64
   4  -2 -15  146.35   10.83
  -4  -2 -15  147.21   11.77
   4   2 -15  152.87   10.60
   4  -2 -15  159.34   12.21
   4   2 -15  139.54    9.97
  -4  -2 -14   50.96    6.96
   4   2 -14   62.07    6.43
   4  -2 -14   51.15    7.06
   4   2 -14   69.04    7.02
   4  -2 -14   59.20    6.85
  -4  -2 -13  124.62   10.23
   4   2 -13  115.85    8.52
   4  -2 -13  108.18   10.14
   4   2 -13  134.17    9.26
   4  -2 -13  140.42   10.33
   4  -2 -12  269.01   13.79
  -4  -2 -12  236.34   13.81
   4   2 -12  258.33   11.92
   4  -2 -12  246.15   14.52
   4   2 -12  284.07   13.49
  -4   2 -11   54.22    2.99
   4   2 -11   56.53    5.44
   4  -2 -11   59.16    6.52
  -4  -2 -11   50.84    6.21
   4  -2 -11   58.59    6.99
   4   2 -11   64.48    6.41
  -4  -2 -10  326.06   15.20
   4  -2 -10  279.96   14.78
   4   2 -10  298.76   11.76
  -4   2 -10  297.68    7.93
   4   2 -10  292.46   13.23
   4  -2 -10  295.58   14.03
   4  -2  -9   84.58    7.36
   4   2  -9   90.22    6.02
   4  -2  -9  105.36    8.68
   4   2  -9   85.38    3.27
   4   2  -9   90.67    7.11
   4   2  -8   20.76    2.80
   4  -2  -8   20.74    3.87
   4   2  -8   20.74    1.91
   4  -2  -8   18.64    3.50
   4   2  -8   19.68    3.35
   4   2  -7    8.70    2.51
   4  -2  -7    8.22    2.43
   4   2  -7    4.82    0.96
   4   2  -7    5.45    1.51
   4  -2  -7    7.16    2.60
   4   2  -6    6.84    1.35
   4   2  -6    9.09    2.30
   4   2  -6    6.62    1.55
   4  -2  -6   10.45    2.93
   4  -2  -6    2.59    0.87
   4   2  -5   45.92    3.59
   4   2  -5   40.95    3.34
   4  -2  -5   37.40    4.64
   4  -2  -5   31.76    4.27
   4   2  -5   44.87    4.96
   4   2  -4  927.70   21.82
   4   2  -4  917.89   16.92
   4   2  -4  894.87   15.64
   4  -2  -4  944.48   22.93
   4   2  -3  286.52   12.07
   4   2  -3  294.78    8.79
   4  -2  -3  273.80   12.45
   4  -2  -3  266.17   11.84
   4   2  -3  287.93    9.81
   4  -2  -2  136.19    8.51
   4   2  -2  124.91    6.78
   4  -2  -2  129.05    8.42
   4   2  -2  119.53    7.67
   4   2  -1   80.66    6.34
   4  -2  -1   87.18    6.71
   4  -2  -1   90.86    6.90
   4   2  -1   87.27    5.77
   4   2   0  100.04    6.81
   4  -2   0   96.73    7.07
   4  -2   0   98.60    7.12
   4   2   0   99.66    6.41
   4  -2   1   76.15    6.13
   4   2   1   79.28    6.26
   4  -2   1   84.98    6.57
   4   2   1   98.84    6.58
   4  -2   2  137.39    8.35
   4   2   2  122.49    7.68
   4   2   2  119.10    7.40
   4  -2   2  133.07    8.10
   4   2   3  270.98   11.12
   4  -2   3  275.78   12.05
   4   2   3  274.89   11.64
   4   2   4  988.05   21.49
   4  -2   4  919.01   21.92
   4   2   4  926.37   21.94
   4  -2   5   40.71    4.74
   4   2   5   31.78    3.80
   4   2   5   38.96    4.52
   4   2   6    3.85    1.44
   4   2   6    4.58    1.58
   4  -2   6    3.74    1.28
   4   2   7    6.56    2.10
   4  -2   7    5.22    1.97
   4   2   7    3.01    0.71
   4   2   8   15.64    2.83
   4  -2   8   19.37    3.33
   4   2   8   22.55    3.82
   4  -2   9  101.57    7.65
   4   2   9   93.26    7.95
   4   2   9  100.42    6.99
   4   2  10  305.10   12.46
   4  -2  10  295.82   13.25
   4   2  10  285.07   14.16
   4   2  11   69.91    5.95
   4  -2  11   58.98    6.01
   4   2  11   50.95    6.10
   4   2  12  263.28   11.57
   4   2  12  254.53   14.14
   4  -2  12  249.78   12.62
   4   2  13  126.44    8.21
   4  -2  13  115.50    8.90
   4   2  13  143.09   10.60
   4   2  14   56.01    6.86
   4  -2  14   45.36    5.56
   4   2  14   59.63    5.66
   4  -2  15  161.36   10.65
   4   2  15  162.76    9.34
   4   2  15  161.89   11.92
   4  -2  16  251.28   13.77
   4   2  16  270.31   12.22
   4   2  16  257.80   15.43
   4   2  17   25.85    5.11
   4  -2  17   14.25    3.53
   4   2  18   14.74    3.92
   4  -2  18   16.89    3.79
   4  -2  19  127.88   10.47
   4   2  19  139.56   12.08
   4   2  20    4.52    1.63
  -4   2  20    5.56    2.19
   4   2  21   92.44   10.41
   4   2  22   66.70    9.17
   4   2  23    5.59    3.29
   4   2  24    9.63    4.32
   4  -3 -29    7.13    4.27
   4  -3 -28    2.68    1.81
   4  -3 -27    2.69    2.77
   4  -3 -26    1.72    1.59
   4  -3 -25    3.27    3.82
   4  -3 -24    4.95    3.58
  -4  -3 -23    3.41    3.35
   4  -3 -23    3.09    3.72
   4  -3 -22    2.25    1.87
  -4  -3 -22    5.88    4.16
   4  -3 -21    0.52    1.63
  -4  -3 -21    1.18    1.96
   4  -3 -20    3.77    2.64
  -4  -3 -20    3.89    2.78
  -4  -3 -19    8.38    3.11
   4  -3 -19    9.29    4.50
   4  -3 -18   17.28    5.01
  -4  -3 -18   14.20    4.15
   4  -3 -18   10.74    3.42
   4   3 -17   -1.13    2.33
   4   3 -17   -1.82    1.25
   4  -3 -17   26.62    5.10
  -4  -3 -17   40.45    6.45
   4  -3 -17   42.08    6.29
   4  -3 -16   13.34    3.55
  -4  -3 -16   12.38    3.55
   4   3 -16   16.84    4.01
   4  -3 -16   13.14    3.45
   4   3 -16   22.92    4.21
  -4  -3 -15   67.25    7.68
   4   3 -15   60.10    6.35
   4   3 -15   63.60    7.07
   4  -3 -15   60.79    7.36
   4  -3 -15   64.73    8.15
   4   3 -14    0.61    1.00
  -4  -3 -14    1.55    1.73
   4  -3 -14    0.03    1.23
   4   3 -14    1.48    1.69
   4  -3 -14    0.89    1.49
   4  -3 -13   23.22    4.92
   4   3 -13   22.64    3.33
  -4  -3 -13   34.71    5.71
   4   3 -13   26.37    4.47
   4  -3 -13   32.31    5.15
  -4  -3 -12   42.00    6.02
   4   3 -12   47.92    6.01
   4   3 -12   45.71    4.67
   4  -3 -12   48.73    6.60
  -4   3 -12   41.83    3.99
   4  -3 -12   37.98    6.45
  -4  -3 -11   11.83    2.59
   4  -3 -11    8.98    3.33
  -4   3 -11   11.74    2.12
   4   3 -11   15.11    2.43
   4   3 -11   11.26    3.20
   4  -3 -11   11.87    3.28
   4   3 -10   28.79    4.78
  -4   3 -10   21.49    3.00
  -4  -3 -10   17.91    4.11
   4   3 -10   19.00    2.64
   4  -3 -10   25.21    4.64
   4   3 -10   20.45    1.63
   4  -3 -10   25.55    4.34
   4   3  -9   37.20    4.75
   4   3  -9   44.92    3.11
  -4  -3  -9   46.04    5.89
  -4   3  -9   43.46    4.27
   4   3  -9   42.44    3.64
   4  -3  -9   40.16    5.67
   4  -3  -9   45.65    6.21
   4   3  -8    7.09    2.53
  -4   3  -8    9.73    2.02
  -4  -3  -8    5.44    2.24
   4   3  -8    4.62    1.22
   4  -3  -8    5.03    2.19
   4   3  -8    4.42    0.97
   4  -3  -8    5.26    1.34
   4   3  -7   63.91    4.36
   4   3  -7   51.77    3.39
  -4   3  -7   58.65    4.98
   4   3  -7   44.82    5.57
  -4  -3  -7   53.07    5.75
   4  -3  -7   50.43    6.22
   4  -3  -7   56.39    6.37
   4   3  -6  440.28   16.71
   4   3  -6  463.31   12.48
   4   3  -6  434.09    8.95
   4  -3  -6  442.95   17.95
   4  -3  -6  453.75   17.93
   4   3  -5   62.46    4.71
   4   3  -5   64.86    3.26
   4  -3  -5   65.87    6.89
   4  -3  -5   60.98    6.59
   4   3  -5   57.23    6.17
   4   3  -4   22.31    4.10
   4   3  -4   18.53    1.84
   4  -3  -4   24.42    4.25
   4   3  -4   20.97    2.96
   4  -3  -4   14.11    3.19
   4   3  -3   86.49    4.06
   4   3  -3   67.71    6.33
   4  -3  -3   82.01    7.31
   4  -3  -3   74.05    6.84
   4   3  -3   79.65    5.93
   4   3  -2   76.86    5.95
   4   3  -2   63.29    6.11
   4  -3  -2   74.53    6.82
   4  -3  -2   74.03    6.99
   4   3  -1  143.31    9.29
   4   3  -1  154.66    8.70
   4  -3  -1  137.43    9.10
   4  -3  -1  150.22    9.77
   4   3   0  421.00   14.81
   4  -3   0  429.07   15.91
   4   3   0  472.98   16.69
   4  -3   0  472.43   17.02
   4  -3   1  128.58    8.88
   4   3   1  156.42    9.14
   4   3   1  137.72    9.17
   4  -3   1  138.26    9.05
   4   3   2   61.96    5.90
   4  -3   2   78.76    6.87
   4  -3   2   60.32    5.94
   4   3   2   55.55    6.08
   4   3   3   78.22    6.75
   4  -3   3   70.85    6.50
   4  -3   3   67.50    6.37
   4   3   3   64.45    6.21
   4  -3   4   17.64    3.38
   4   3   4   19.05    3.33
   4   3   4   10.81    2.74
   4  -3   4   20.36    3.59
   4  -3   5   69.13    6.71
   4   3   5   63.85    6.16
   4   3   5   67.20    6.72
   4   3   6  413.70   16.87
   4  -3   6  458.96   17.06
   4   3   6  456.73   16.74
   4   3   7   54.96    6.33
   4   3   7   62.82    6.08
   4  -3   7   68.89    6.43
   4   3   8    4.19    2.02
   4  -3   8    5.64    1.86
   4   3   8    6.61    2.34
   4   3   9   48.71    5.67
   4  -3   9   49.57    5.86
   4   3   9   53.36    6.61
   4  -3  10   25.09    4.21
   4   3  10   20.94    3.73
   4   3  10   18.81    4.14
   4   3  11   15.41    3.34
   4   3  11   13.32    3.62
   4  -3  11    8.27    2.18
   4   3  12   54.42    6.72
   4   3  12   43.62    5.48
   4  -3  12   40.61    5.38
   4   3  13   28.77    4.54
   4  -3  13   25.48    4.36
   4   3  13   38.53    6.16
   4  -3  14    0.54    1.01
   4   3  14    0.71    1.35
   4   3  15   52.47    6.19
   4   3  15   59.19    7.71
   4  -3  15   53.78    6.66
   4  -3  16   14.00    3.52
   4   3  16   13.50    2.97
   4   3  16   17.30    4.09
   4   3  17   32.52    4.87
   4  -3  17   22.13    4.52
   4   3  18   19.11    4.76
   4   3  19   11.67    4.84
   4   3  20    0.44    2.69
   4   3  21    2.56    1.50
  -4   3  21    3.75    3.78
   4   3  22    3.94    3.25
   4   3  23    8.15    4.19
   4   3  24    1.96    4.16
   4   3  25    5.92    4.66
   4  -4 -28    2.46    3.90
   4  -4 -27   24.99    6.78
   4  -4 -26   47.52    8.35
  -4  -4 -25   22.98    6.21
   4  -4 -25   18.25    5.04
   4  -4 -24   19.53    5.47
  -4  -4 -24   15.28    4.58
  -4  -4 -23   35.92    7.07
   4  -4 -23   28.63    6.69
   4  -4 -22   25.17    5.54
  -4  -4 -22   21.40    5.99
  -4  -4 -21   96.12   11.05
   4  -4 -21   90.45   11.16
  -4  -4 -20   45.27    7.66
   4  -4 -20   55.51    8.51
   4  -4 -19   10.90    4.16
  -4  -4 -19    3.83    1.87
   4  -4 -18   13.77    4.85
  -4  -4 -18   14.73    4.05
   4  -4 -18   10.34    3.13
   4  -4 -17    9.57    4.67
   4  -4 -17   12.27    3.79
  -4  -4 -17   12.56    4.22
   4  -4 -16  137.92   12.28
   4  -4 -16  152.20   12.77
   4   4 -16  153.15   11.60
  -4  -4 -16  143.28   12.64
  -4  -4 -15  698.84   26.74
   4  -4 -15  690.48   27.23
   4   4 -15  663.55   24.14
   4  -4 -14  120.06   11.29
   4  -4 -14  116.08   11.29
   4   4 -14  101.80    9.13
  -4  -4 -14  122.10   11.17
   4  -4 -13   54.44    7.61
   4  -4 -13   58.62    7.84
  -4  -4 -13   50.10    7.05
   4   4 -13   58.14    7.09
   4   4 -12  215.52   13.09
   4  -4 -12  188.33   14.01
  -4  -4 -12  207.74   13.77
   4  -4 -12  172.61   13.10
   4   4 -11  183.17   12.16
  -4  -4 -11  201.04   12.92
  -4   4 -11  175.92    9.98
   4  -4 -11  210.66   14.19
   4  -4 -11  187.64   13.09
  -4   4 -10  189.32   10.38
  -4  -4 -10  197.77   12.64
   4  -4 -10  213.01   13.85
   4  -4 -10  169.27   12.55
   4   4 -10  184.21   11.94
   4   4  -9  126.61    9.92
  -4   4  -9  113.65    8.26
  -4  -4  -9  113.75    9.46
   4  -4  -9  127.61   10.63
   4   4  -9  124.02    6.56
   4  -4  -9  111.79    9.91
   4  -4  -8   26.33    5.11
  -4   4  -8   24.21    3.91
   4   4  -8   17.11    3.83
   4   4  -8   23.13    3.05
  -4  -4  -8   22.95    4.11
   4  -4  -8   16.40    3.96
   4  -4  -7  207.98   13.60
   4   4  -7  207.33   12.53
  -4   4  -7  209.84   11.18
  -4  -4  -7  206.89   11.68
   4  -4  -7  219.62   13.47
   4   4  -7  186.51    9.41
   4   4  -6   20.83    3.29
   4  -4  -6   24.07    4.63
  -4  -4  -6   24.06    3.87
   4   4  -6   25.02    4.20
  -4   4  -6   26.23    3.89
   4  -4  -6   22.95    3.99
   4  -4  -5  112.87    9.23
  -4  -4  -5  110.83    8.19
   4  -4  -5  105.77    9.51
   4   4  -5   95.90    8.48
   4   4  -5  116.15    7.69
  -4   4  -5  121.86    8.63
   4   4  -4  386.86   16.82
   4   4  -4  381.82   14.41
  -4   4  -4  419.29   16.07
   4  -4  -4  396.69   17.97
   4  -4  -3  159.19   10.72
   4  -4  -3  169.02   11.55
   4   4  -3  142.38    8.93
   4   4  -3  146.52   10.31
   4  -4  -2   13.52    3.53
   4   4  -2   10.49    2.75
   4   4  -2   13.14    2.85
   4  -4  -2    8.38    2.43
   4  -4  -1    8.23    2.72
   4   4  -1    9.71    2.47
   4  -4  -1    9.61    2.50
   4   4  -1    8.76    2.38
   4   4   0   10.45    2.70
   4  -4   0   15.33    3.13
   4   4   0   17.87    3.42
   4  -4   1    3.76    1.17
   4   4   1    4.61    1.94
   4  -4   1    7.03    2.50
   4   4   1    3.46    0.86
   4  -4   2   10.98    3.11
   4   4   2   14.53    3.42
   4   4   2   11.12    3.00
   4  -4   2   13.08    3.11
   4   4   3  133.00    9.88
   4   4   3  168.70   10.94
   4  -4   3  146.09    9.65
   4  -4   3  159.79   10.72
   4  -4   4  381.19   16.86
   4   4   4  396.92   17.10
   4   4   4  391.20   17.01
   4  -4   4  405.26   16.19
   4   4   5  109.64    9.00
   4   4   5  106.40    9.09
   4  -4   5  106.65    8.41
   4  -4   5  100.31    8.64
   4   4   6   21.18    4.23
   4  -4   6   23.16    4.23
   4  -4   6   19.71    3.88
   4   4   6   19.59    3.70
   4   4   7  234.84   13.91
   4  -4   7  207.29   12.54
   4  -4   8   19.13    3.74
   4   4   8   18.54    4.16
   4   4   9  134.92   10.22
   4   4   9  123.46   10.51
   4   4  10  210.99   12.88
   4   4  10  162.79   12.22
   4  -4  11  160.62   11.40
   4   4  11  179.80   11.99
   4   4  11  173.59   12.80
   4  -4  12  192.68   12.16
   4   4  12  180.30   13.21
   4   4  12  218.01   13.38
   4  -4  13   54.27    6.69
   4   4  13   68.21    7.71
   4   4  13   65.17    8.12
   4   4  14   98.95   10.32
   4  -4  14  105.29    9.18
   4   4  14  105.87    9.67
   4   4  15  696.76   25.03
   4   4  15  681.59   26.81
   4  -4  15  689.95   23.90
   4   4  16  120.66   11.45
   4  -4  16  131.61   10.57
   4   4  16  140.91   11.49
   4   4  17    8.50    3.46
   4   4  17   10.29    3.49
   4   4  18    8.51    4.22
   4   4  18   21.62    4.97
   4   4  19   12.39    4.39
   4   4  20   49.46    7.88
  -4   4  21   90.58   10.61
   4   4  21  100.17   11.39
  -4   4  22   12.06    4.88
   4   4  22   22.12    5.38
  -4   4  22   15.02    4.45
   4   4  23   28.60    6.60
   4   4  24    8.90    3.46
   4   4  25   24.03    6.72
   4   4  26   32.71    7.45
   4  -5 -27    2.73    1.79
  -4  -5 -26    1.91    2.95
   4  -5 -26    7.20    3.61
  -4  -5 -25   10.57    4.44
   4  -5 -25    2.66    1.92
  -4  -5 -24   22.01    6.00
   4  -5 -24   28.23    6.29
   4  -5 -23   -2.85    3.74
  -4  -5 -23    7.36    4.36
  -4  -5 -22   10.23    4.41
   4  -5 -22    2.77    2.95
   4  -5 -21    4.82    3.45
  -4  -5 -21    2.91    2.12
  -4  -5 -20   13.52    4.85
   4  -5 -20   10.86    4.86
  -4  -5 -19   11.09    3.90
   4  -5 -19   17.07    4.35
  -4  -5 -18   23.07    5.61
   4  -5 -18   19.29    5.27
   4  -5 -18   34.28    6.75
   4  -5 -17   80.52    9.99
  -4  -5 -17   77.80    9.49
   4  -5 -17   83.03    9.75
  -4  -5 -16  101.88   11.04
   4  -5 -16   90.11   10.05
   4  -5 -16   91.92   10.50
  -4  -5 -15  155.24   13.30
   4  -5 -15  168.71   14.08
   4  -5 -15  162.21   13.56
   4   5 -15  150.65   12.40
   4   5 -14   14.34    3.98
  -4  -5 -14    7.25    3.21
   4  -5 -14   10.89    4.51
   4  -5 -14   14.47    4.77
   4   5 -13   97.75    9.73
   4  -5 -13   97.08   10.41
   4  -5 -13   98.72   10.65
  -4  -5 -13  111.39   10.42
   4   5 -12  124.73   10.88
  -4  -5 -12  134.72   11.34
   4  -5 -12  128.97   11.88
   4  -5 -12  121.88   11.38
   4   5 -11    2.95    1.17
  -4  -5 -11    5.94    2.96
  -4   5 -11    3.21    2.30
   4  -5 -11    5.41    3.19
   4  -5 -11    8.08    3.04
   4  -5 -10   78.76    8.61
   4   5 -10   57.92    7.34
  -4   5 -10   49.99    6.53
  -4  -5 -10   70.01    7.74
   4  -5 -10   66.59    8.44
   4  -5  -9   37.82    6.43
  -4   5  -9   34.10    5.22
  -4  -5  -9   31.62    5.20
   4  -5  -9   32.98    5.89
   4   5  -9   41.62    5.93
   4   5  -8   19.92    3.46
   4   5  -8   24.14    5.00
  -4  -5  -8   20.80    4.47
   4  -5  -8   23.10    4.89
  -4   5  -8   12.32    2.88
   4  -5  -8   21.49    4.49
  -4   5  -7   37.35    5.52
   4  -5  -7   29.62    5.60
  -4  -5  -7   35.69    5.16
   4  -5  -7   34.38    5.95
   4   5  -7   34.11    4.63
   4   5  -7   34.00    5.57
   4  -5  -6    9.94    3.01
   4   5  -6   15.39    3.74
   4  -5  -6   11.66    3.64
   4   5  -6    5.51    2.39
  -4   5  -6   14.39    4.02
  -4  -5  -6   13.52    3.25
  -4  -5  -5   19.51    3.51
   4  -5  -5   27.68    5.49
   4   5  -5   28.88    4.96
   4   5  -5   21.67    3.84
  -4   5  -5   21.34    3.85
   4  -5  -5   27.69    5.19
   4  -5  -4   90.05    8.67
   4   5  -4  100.84    9.39
   4  -5  -4   95.12    9.42
  -4  -5  -4   95.12    7.37
  -4   5  -4   97.33    8.65
   4   5  -4  112.21    8.64
   4  -5  -3   25.76    5.10
  -4   5  -3   22.72    4.27
   4  -5  -3   18.95    4.14
   4   5  -3   26.26    4.64
   4   5  -3   24.79    4.12
  -4   5  -2    0.87    1.36
   4   5  -2    1.57    1.25
   4   5  -2    1.46    1.48
   4  -5  -2    2.38    1.10
   4  -5  -2    3.55    2.33
   4   5  -1   77.45    8.22
  -4   5  -1   75.58    7.87
   4   5  -1   77.58    7.64
   4  -5  -1   77.96    7.79
   4  -5  -1   85.44    8.99
  -4   5   0   34.17    5.34
   4   5   0   20.14    3.95
   4   5   0   23.72    3.94
   4  -5   0   29.71    4.70
   4  -5   0   30.99    5.26
   4   5   1   78.26    8.25
   4   5   1   87.75    8.30
   4  -5   1   72.89    7.28
   4  -5   1   71.20    7.99
   4  -5   2    2.87    1.87
   4   5   2   -0.06    1.06
   4   5   2    2.26    1.68
   4  -5   2    4.11    2.00
   4  -5   3   21.33    4.18
   4   5   3   21.48    4.38
   4   5   3   25.11    4.57
   4  -5   3   25.86    4.42
   4   5   4   93.33    9.35
   4  -5   4  101.44    9.16
   4   5   4   88.66    8.73
   4  -5   4   96.15    8.38
   4  -5   5   17.84    3.92
   4   5   5   29.38    5.31
   4   5   5   28.97    5.09
   4  -5   5   17.86    3.71
   4  -5   6   11.95    3.08
   4  -5   6   13.12    3.39
   4   5   6    8.35    3.10
   4   5   6   13.23    3.81
   4  -5   7   28.55    5.11
   4  -5   7   29.89    4.61
   4   5   7   34.22    5.63
   4   5   7   30.06    5.56
   4  -5   8   20.42    3.81
   4  -5   8   24.43    4.67
   4   5   8   21.36    4.46
   4   5   8   17.32    3.23
   4   5   9   34.52    5.37
   4  -5   9   32.63    5.06
   4   5   9   36.04    5.91
   4  -5   9   31.06    5.23
   4   5  10   69.92    8.21
   4  -5  10   66.74    7.86
   4   5  10   71.94    8.85
   4   5  11   10.90    3.87
   4  -5  11    7.40    2.66
   4   5  11    2.90    3.08
   4   5  12  149.35   11.97
   4   5  12  122.11   11.47
   4  -5  12  124.87   10.39
   4   5  13  110.98   10.69
   4   5  13  102.03   10.76
   4  -5  13  122.43   10.51
   4   5  14    9.63    3.20
   4   5  14   16.15    4.84
   4  -5  14   12.25    3.69
   4   5  15  148.64   13.17
   4   5  15  152.63   12.51
   4  -5  15  159.43   12.05
   4   5  16  102.33   10.53
   4   5  16  102.48   10.98
  -4   5  16  102.41   10.69
   4   5  17   95.54   10.38
   4   5  17   96.40   10.06
  -4   5  17   91.26   10.18
   4   5  18   16.34    4.97
   4   5  18   27.84    5.87
  -4   5  18   31.18    6.35
  -4   5  19    3.69    2.33
   4   5  19    0.17    2.66
  -4   5  20    9.85    3.05
   4   5  20   17.70    5.31
  -4   5  21    1.55    1.99
   4   5  21   -1.65    2.77
  -4   5  22    6.12    3.31
  -4   5  22   12.46    5.31
   4   5  22    2.66    2.42
  -4   5  23   -0.44    2.48
   4   5  23    1.60    2.82
   4   5  24   24.39    5.92
   4   5  25    2.95    4.00
   4   5  26    3.24    3.38
   4   5  27   -1.05    3.68
   4  -6 -26   19.06    5.71
  -4  -6 -26   16.53    5.65
  -4  -6 -25   12.73    4.98
   4  -6 -25    4.02    3.74
  -4  -6 -24   26.37    7.04
   4  -6 -24    9.46    3.36
   4  -6 -23   35.86    7.43
  -4  -6 -23   29.97    7.35
  -4  -6 -22   43.38    8.52
   4  -6 -22   21.23    5.43
   4  -6 -21   54.23    9.06
  -4  -6 -21   74.95    9.82
  -4  -6 -20  148.69   13.90
   4  -6 -20  141.11   13.89
  -4  -6 -19   15.97    5.77
   4  -6 -19   17.15    5.39
  -4  -6 -18    9.65    3.23
   4  -6 -18   18.20    5.95
   4  -6 -18    6.56    3.39
   4  -6 -17   70.70    9.48
   4  -6 -17   67.94    9.41
  -4  -6 -17   99.20   10.81
   4  -6 -16   31.30    7.03
  -4  -6 -16   23.27    5.92
   4  -6 -16   21.93    6.33
   4   6 -15  475.13   23.31
  -4  -6 -15  465.48   23.31
   4  -6 -15  436.75   24.48
   4  -6 -15  463.21   23.96
   4   6 -14  116.50   11.59
  -4  -6 -14  126.35   11.79
   4  -6 -14  131.81   12.67
   4  -6 -14  118.95   12.23
   4   6 -13   24.26    5.35
  -4  -6 -13   24.67    5.21
   4  -6 -13   19.76    5.09
   4  -6 -13   25.74    5.82
   4  -6 -12   28.58    6.31
   4   6 -12   31.40    5.79
  -4  -6 -12   25.65    5.35
   4  -6 -12   28.64    5.95
   4   6 -11  431.36   21.31
  -4   6 -11  433.99   20.42
  -4  -6 -11  419.53   20.31
   4  -6 -11  429.41   22.72
   4  -6 -11  439.81   22.30
   4   6 -10  104.13   10.62
  -4   6 -10   90.98    9.38
  -4  -6 -10   97.51    9.59
   4  -6 -10  116.99   11.34
   4  -6 -10   94.81   10.84
  -4   6  -9  157.96   12.31
  -4  -6  -9  151.90   11.61
   4  -6  -9  187.62   14.70
   4   6  -9  190.71   14.00
   4  -6  -9  172.70   13.74
   4   6  -8   46.20    6.67
  -4   6  -8   45.87    6.55
  -4  -6  -8   46.68    6.61
   4   6  -8   43.90    6.12
   4  -6  -8   52.78    7.45
   4  -6  -8   38.89    6.53
  -4   6  -7   19.29    4.16
   4   6  -7   16.60    3.97
   4   6  -7   21.32    4.06
   4  -6  -7   28.91    5.37
  -4  -6  -7   16.01    3.52
   4  -6  -7   15.67    4.35
   4  -6  -6  175.45   13.13
  -4  -6  -6  217.21   13.12
   4  -6  -6  180.28   14.27
  -4   6  -6  169.48   12.66
   4   6  -6  166.18   11.39
   4   6  -6  186.28   13.46
   4   6  -5  266.63   16.29
   4  -6  -5  275.12   16.15
  -4  -6  -5  271.68   13.79
  -4   6  -5  281.88   16.39
   4  -6  -5  232.38   15.81
   4   6  -5  269.22   14.76
   4   6  -4    7.51    3.08
  -4  -6  -4    5.39    2.22
  -4   6  -4    6.40    3.03
   4  -6  -4    1.79    2.29
   4   6  -4    8.64    2.81
   4  -6  -4   14.55    4.36
   4   6  -3  110.09    9.82
   4   6  -3  120.13   11.00
  -4   6  -3  143.50   11.71
   4  -6  -3  136.96   12.07
   4  -6  -3  123.89   10.71
   4   6  -2   19.14    4.23
   4   6  -2   23.77    4.86
   4  -6  -2   19.46    3.97
  -4   6  -2   20.76    4.40
   4  -6  -2   22.86    5.21
   4   6  -1  164.43   12.82
   4  -6  -1  181.70   13.93
   4  -6  -1  159.63   11.69
   4   6  -1  148.28   11.51
  -4   6  -1  154.63   12.12
   4   6   0  238.21   14.63
   4   6   0  187.90   13.61
   4  -6   0  209.78   13.24
  -4   6   0  224.15   14.71
   4  -6   0  229.08   15.49
   4  -6   1  141.26   10.93
   4   6   1  169.01   13.21
  -4   6   1  137.93   11.75
   4  -6   1  166.53   13.20
   4   6   1  130.58   11.08
   4  -6   2   23.41    4.87
   4   6   2   22.90    4.99
   4  -6   2   24.19    4.48
  -4   6   2   17.00    4.23
   4   6   2   17.71    4.67
   4   6   3  132.80   11.85
  -4   6   3  122.37   10.93
   4  -6   3  129.00   10.40
   4   6   3  121.89   10.67
   4  -6   3  112.12   10.93
   4  -6   4   13.11    4.11
   4   6   4    4.96    3.11
   4  -6   4    5.22    2.89
   4   6   4    4.20    3.11
  -4   6   4    5.01    2.82
   4   6   5  255.16   16.40
  -4   6   5  290.02   16.88
   4  -6   5  246.67   15.42
   4  -6   5  279.18   15.34
   4   6   5  297.74   17.56
   4   6   6  221.39   15.17
  -4   6   6  177.62   13.50
   4  -6   6  211.44   13.10
   4   6   6  187.52   13.85
   4  -6   6  193.06   13.83
   4   6   7   15.38    4.43
   4  -6   7   21.35    5.41
  -4   6   7   16.93    4.39
   4   6   7   13.23    3.18
   4  -6   7   15.21    3.79
   4   6   8   36.01    6.32
   4   6   8   44.08    6.43
  -4   6   8   46.72    7.11
   4  -6   8   43.23    5.80
   4  -6   8   42.44    6.74
   4   6   9  155.53   12.78
  -4   6   9  180.91   14.03
   4  -6   9  177.74   12.51
   4   6   9  146.67   12.86
   4  -6   9  194.16   14.06
   4   6  10   96.16   10.26
   4   6  10  116.89   11.43
  -4   6  10   97.45   10.52
   4  -6  10  101.43   10.13
   4  -6  10   92.20    9.18
   4   6  11  470.94   22.78
  -4   6  11  403.29   21.25
   4   6  11  425.01   22.09
   4  -6  11  414.67   19.60
   4  -6  11  443.70   21.34
   4  -6  12   32.64    5.66
   4   6  12   32.34    6.89
   4   6  12   43.51    7.26
  -4   6  12   30.76    6.19
   4  -6  12   28.62    5.91
   4   6  13   20.48    4.89
   4   6  13   36.33    6.83
   4  -6  13   23.03    4.52
  -4   6  13   28.14    5.12
   4   6  14  108.12   11.16
   4   6  14  129.97   12.80
   4  -6  14  105.19   10.55
  -4   6  14   97.46   11.36
   4   6  15  446.81   23.27
  -4   6  15  429.83   22.70
   4   6  15  414.75   22.67
   4   6  16   32.42    6.50
  -4   6  16   26.71    6.91
   4   6  16   29.16    6.48
   4   6  17   94.09   10.74
   4   6  17   77.92   10.30
  -4   6  17   87.87   10.84
  -4   6  18   12.76    4.82
   4   6  18   10.34    4.44
   4   6  18    7.16    4.68
   4   6  19   15.06    4.94
   4   6  19    8.22    3.82
  -4   6  19    8.29    4.22
   4   6  20  149.05   14.31
  -4   6  20  148.03   14.41
   4   6  21   54.55    9.08
  -4   6  21   72.39   10.65
  -4   6  22   32.33    7.52
   4   6  22   20.31    6.04
  -4   6  22   27.97    6.62
   4   6  23   32.16    7.52
  -4   6  23   24.98    6.88
  -4   6  23   43.28    8.31
  -4   6  24   17.00    6.42
   4   6  24   23.61    7.39
   4   6  25   14.44    5.21
   4   6  26   24.20    6.36
   4  -7 -24   -0.61    1.80
  -4  -7 -24   -2.81    3.46
  -4  -7 -23    6.35    3.98
   4  -7 -23    1.43    2.93
   4  -7 -22   -0.38    2.77
  -4  -7 -22    1.85    2.68
  -4  -7 -21    0.33    2.36
   4  -7 -21    0.61    2.75
  -4  -7 -20   16.86    5.20
   4  -7 -20   17.09    4.73
   4  -7 -19   34.10    7.55
  -4  -7 -19   38.47    7.80
  -4  -7 -18   31.94    6.78
   4  -7 -18   47.70    8.60
   4  -7 -18   36.51    7.47
   4  -7 -17    5.73    3.74
   4  -7 -17    7.93    3.63
  -4  -7 -17   11.10    4.27
  -4  -7 -16   22.16    6.11
   4  -7 -16   16.09    5.07
   4  -7 -16   21.17    5.64
   4  -7 -15   11.19    4.11
  -4  -7 -15   17.41    4.92
   4  -7 -15   11.92    4.61
   4   7 -14    8.50    4.03
  -4  -7 -14   12.69    4.16
   4  -7 -14    5.92    2.23
   4  -7 -14   17.25    6.26
   4   7 -13   49.85    7.62
  -4  -7 -13   62.33    8.54
   4  -7 -13   72.24    9.36
   4  -7 -13   56.24    9.11
   4   7 -12   10.81    3.85
   4  -7 -12    9.05    4.08
  -4  -7 -12   10.32    2.53
   4  -7 -12    8.58    4.22
   4   7 -11   45.62    7.52
  -4  -7 -11   37.57    6.87
   4  -7 -11   32.36    6.38
   4  -7 -11   36.94    7.19
   4  -7 -10   93.14   10.32
   4   7 -10   84.80    9.87
   4  -7 -10   91.30   10.83
  -4   7 -10   82.39    9.78
  -4  -7 -10  115.38   11.31
   4   7  -9    1.18    1.72
  -4  -7  -9    4.58    2.04
  -4   7  -9    2.81    2.39
   4  -7  -9    3.88    2.74
   4  -7  -9    4.19    4.04
  -4   7  -8   77.54    9.40
  -4  -7  -8   76.06    8.66
   4  -7  -8   91.74   10.07
   4  -7  -8   92.73   10.79
   4   7  -8   85.87    9.87
   4   7  -7    4.54    3.40
   4   7  -7   11.32    4.62
  -4  -7  -7    3.81    2.06
  -4   7  -7    5.34    3.86
   4  -7  -7    2.89    4.30
   4  -7  -7    7.20    2.27
   4   7  -6   25.53    5.13
  -4  -7  -6   30.59    5.63
  -4   7  -6   27.02    5.34
   4  -7  -6   20.01    4.84
   4  -7  -6   14.30    3.63
   4   7  -6   29.52    5.56
   4  -7  -5   33.41    6.21
  -4   7  -5   20.56    4.93
   4   7  -5   26.19    5.64
  -4  -7  -5   26.08    4.44
   4   7  -5   26.18    5.24
   4  -7  -5   23.83    5.70
  -4   7  -4    6.33    2.52
   4   7  -4   15.26    4.29
   4  -7  -4   12.58    4.27
   4  -7  -4   15.44    4.75
   4   7  -4    6.98    2.55
   4   7  -3   19.64    5.37
  -4   7  -3   13.80    3.40
   4   7  -3   19.23    4.71
   4  -7  -3    7.87    2.39
   4  -7  -3   21.05    5.10
   4   7  -2    6.82    2.62
   4   7  -2    6.56    3.90
  -4   7  -2   14.92    4.24
   4  -7  -2    9.39    3.14
   4  -7  -2    2.47    2.02
   4   7  -1   12.10    3.49
   4   7  -1   20.09    6.05
   4  -7  -1    1.05    1.80
  -4   7  -1   11.22    4.05
   4  -7  -1    9.67    4.32
   4   7   0   27.67    5.60
  -4   7   0   31.83    6.20
   4  -7   0   20.76    4.11
   4   7   0   18.69    4.86
   4   7   1   19.83    4.93
   4   7   1    5.27    3.87
  -4   7   1   13.62    4.33
   4  -7   1   10.54    3.69
   4  -7   1   10.58    4.39
   4  -7   2    8.86    4.02
   4   7   2    7.03    3.88
   4   7   2    4.91    2.57
   4  -7   2    9.97    3.12
  -4   7   2   16.17    5.00
   4   7   3   13.44    3.60
  -4   7   3    8.41    3.44
   4   7   3   12.43    3.78
   4  -7   3   21.12    4.44
   4  -7   3   14.09    4.58
  -4   7   4   19.37    4.73
   4   7   4   10.22    3.44
   4  -7   4   16.09    4.02
   4   7   4    6.90    1.88
   4  -7   4    9.70    3.32
   4   7   5   35.01    5.75
  -4   7   5   22.75    5.14
   4  -7   5   25.01    5.19
   4   7   5   25.91    5.78
   4  -7   5   36.23    6.63
  -4   7   6   29.00    6.22
   4   7   6   36.68    6.67
   4   7   6   22.63    5.21
   4  -7   6   21.06    4.53
   4  -7   6   29.03    6.17
  -4   7   7    3.37    2.31
   4   7   7    7.05    2.39
   4   7   7    0.60    2.61
   4  -7   7    4.20    2.97
   4   7   8   86.73   10.03
   4  -7   8   80.66   10.08
  -4   7   8   97.56   10.88
   4   7   8   99.11   10.70
   4  -7   9    2.65    1.82
   4   7   9    3.07    3.27
   4   7   9    3.80    2.04
  -4   7   9    6.02    2.88
   4   7  10   83.96   10.28
   4   7  10   99.48   10.97
   4  -7  10  107.75   11.29
  -4   7  10   85.77   10.04
   4  -7  11   37.23    7.20
  -4   7  11   37.26    7.08
   4   7  11   38.00    6.88
   4   7  11   45.19    7.31
   4  -7  12    5.71    2.55
   4   7  12   17.29    5.08
   4   7  12   12.05    4.19
  -4   7  12    5.84    2.92
   4   7  13   48.69    7.87
   4   7  13   53.31    8.54
  -4   7  13   55.50    8.19
   4   7  14    8.23    2.94
   4   7  14    8.40    4.24
  -4   7  14    6.57    4.01
   4   7  15   11.10    4.32
  -4   7  15   19.99    5.36
   4   7  15   16.56    5.44
   4   7  16   14.79    4.09
  -4   7  16   18.86    4.94
   4   7  16   19.12    5.48
   4   7  17    7.07    3.10
  -4   7  17   15.36    4.28
   4   7  17   22.79    5.73
   4   7  18   34.17    6.71
   4   7  18   39.38    8.39
  -4   7  18   38.20    6.81
   4   7  19   33.69    7.71
   4   7  19   29.91    6.98
  -4   7  19   33.87    7.55
  -4   7  20   15.09    4.94
   4   7  20   20.57    6.07
   4   7  21   -0.82    3.34
  -4   7  21   -2.43    4.12
  -4   7  22   11.16    4.35
   4   7  22   11.89    4.89
  -4   7  22    6.71    4.27
  -4   7  23    4.53    2.89
  -4   7  23    4.57    3.37
   4   7  23   10.59    6.19
  -4   7  24   -3.01    4.12
   4   7  24    2.66    2.68
  -4  -8 -22   17.75    5.93
   4  -8 -22    8.85    4.97
  -4  -8 -21   20.88    6.56
   4  -8 -21   19.83    5.75
  -4  -8 -20   27.03    6.32
   4  -8 -20   32.71    7.44
  -4  -8 -19   37.30    7.78
   4  -8 -19   31.54    7.39
   4  -8 -18   34.93    7.51
  -4  -8 -18   37.03    6.97
  -4  -8 -17    3.07    4.16
   4  -8 -17   -0.23    2.61
   4  -8 -17   -1.72    3.71
   4  -8 -16   22.43    6.08
  -4  -8 -16   30.09    6.71
   4  -8 -16   18.66    5.65
   4  -8 -15    7.60    4.58
  -4  -8 -15    4.80    3.64
   4  -8 -15   -0.19    2.66
   4  -8 -14   -1.48    2.28
  -4  -8 -14    4.54    2.23
   4  -8 -14    0.90    3.05
   4   8 -13   25.79    6.47
  -4  -8 -13   19.63    4.93
   4  -8 -13   23.52    6.06
   4  -8 -13   18.23    4.94
   4  -8 -12    8.08    2.18
   4  -8 -12    1.68    2.23
   4   8 -12    8.93    4.55
  -4  -8 -12    1.99    2.03
  -4  -8 -11   10.45    4.27
   4   8 -11    7.51    3.92
   4  -8 -11   11.00    4.17
   4  -8 -11    5.93    2.56
   4   8 -10  120.00   12.73
  -4   8 -10  128.60   12.98
  -4  -8 -10  131.97   12.67
   4  -8 -10  142.88   14.06
   4  -8 -10  133.87   12.94
  -4  -8  -9   27.29    6.10
   4   8  -9   26.36    6.67
   4  -8  -9   13.37    4.21
   4  -8  -9   24.64    5.55
  -4   8  -9   13.14    4.37
   4   8  -8   11.81    3.48
   4  -8  -8   12.06    4.62
  -4   8  -8   13.16    4.63
   4  -8  -8   16.16    4.83
   4   8  -7  103.68   11.72
   4  -8  -7   75.53   10.30
  -4   8  -7   78.14   10.21
   4  -8  -7   94.79   10.80
   4  -8  -6  136.00   13.81
   4   8  -6  127.09   12.45
  -4   8  -6  135.09   13.13
   4  -8  -6  133.58   12.73
   4   8  -5   41.23    7.50
  -4   8  -5   42.52    7.75
   4  -8  -5   42.03    6.80
   4  -8  -5   38.52    8.13
   4   8  -5   49.97    7.48
   4   8  -4   18.00    5.38
  -4   8  -4   24.49    5.99
   4  -8  -4   16.18    4.66
   4   8  -4   30.86    6.25
   4  -8  -4   13.08    3.70
   4  -8  -3    8.43    2.60
   4   8  -3    5.16    3.64
   4  -8  -3   11.56    5.18
   4   8  -3   12.47    3.49
  -4   8  -3   12.24    4.65
  -4   8  -2   18.52    4.87
   4   8  -2   15.25    4.75
   4  -8  -2   12.80    4.30
   4  -8  -2   12.66    4.75
   4   8  -2   17.31    5.74
   4  -8  -1  112.70   10.82
   4  -8  -1  134.03   13.35
   4   8  -1  122.02   12.51
  -4   8  -1  132.04   13.02
   4   8  -1  128.23   12.48
   4   8   0  197.86   15.58
   4   8   0  183.76   14.65
  -4   8   0  159.76   14.02
   4  -8   0  158.46   14.68
   4  -8   0  162.40   12.58
   4   8   1  136.67   13.37
   4   8   1  150.54   13.30
  -4   8   1  141.04   13.62
   4  -8   1  123.42   11.15
   4  -8   1  105.43   11.49
   4  -8   2   15.16    5.35
   4   8   2   13.40    4.38
  -4   8   2   12.87    4.10
   4   8   2    2.37    2.85
   4  -8   3   12.13    3.85
   4   8   3   10.07    3.79
   4   8   3    5.44    3.41
  -4   8   3   20.47    5.87
   4   8   4   27.37    6.13
  -4   8   4    8.58    3.81
   4   8   4   22.61    4.83
   4  -8   4   12.42    4.63
  -4   8   5   33.32    6.73
   4   8   5   44.79    7.09
   4   8   5   30.96    7.18
   4  -8   5   31.76    6.03
   4   8   6  136.06   13.05
   4   8   6  133.23   13.57
   4  -8   6  103.22   11.73
  -4   8   6  122.67   12.55
   4   8   7   80.32    9.98
  -4   8   7   97.12   11.30
   4  -8   7   96.15   11.02
   4   8   7   91.24   11.15
   4   8   8    8.34    4.05
  -4   8   8   10.56    4.78
   4   8   8    2.46    2.45
   4  -8   8    0.85    1.71
   4   8   9   37.24    7.64
   4   8   9   22.68    5.70
   4  -8   9   22.37    6.29
  -4   8   9   23.92    6.06
   4  -8  10  124.32   13.10
   4   8  10  158.69   14.76
  -4   8  10  137.34   13.61
   4   8  10  140.16   13.63
   4   8  11    7.57    2.28
   4   8  11    4.95    3.08
  -4   8  11    5.99    3.24
   4  -8  11    4.52    3.75
  -4   8  12    4.82    3.48
   4   8  12    1.80    2.45
   4   8  12    3.77    2.86
   4   8  13   29.37    6.24
   4   8  13   21.42    5.56
  -4   8  13   13.31    4.62
   4   8  14    5.73    4.40
   4   8  14    1.00    1.72
  -4   8  14    3.02    1.92
  -4   8  15    1.41    2.56
   4   8  15    1.69    3.13
   4   8  15    5.48    2.18
   4   8  16   28.68    7.35
  -4   8  16   28.22    6.38
   4   8  16   13.64    4.08
   4   8  17    4.80    3.37
   4   8  17   -1.93    3.27
  -4   8  17    4.39    3.62
  -4   8  18   55.33   10.04
   4   8  18   41.70    8.34
   4   8  18   37.55    7.41
   4   8  19   20.94    6.09
  -4   8  19   27.76    7.14
   4   8  19   37.69    8.01
  -4   8  20   12.32    5.14
   4   8  20   21.59    6.26
  -4   8  21   20.03    7.37
   4   8  21   31.01    7.59
  -4   8  22    8.42    4.85
   4   8  22   11.41    5.52
  -4   8  22   15.52    6.29
  -4  -9 -19   -1.18    3.00
   4  -9 -19    1.58    3.68
   4  -9 -18    1.79    4.63
  -4  -9 -18    5.29    4.84
  -4  -9 -17    4.61    2.68
   4  -9 -17   17.30    6.14
  -4  -9 -16   -4.19    3.28
   4  -9 -16   -1.45    2.24
   4  -9 -16    0.33    2.16
   4  -9 -15    6.64    4.57
   4  -9 -15    3.85    3.26
   4  -9 -14    0.44    4.41
   4  -9 -14   10.85    4.92
   4  -9 -13    7.95    3.54
   4   9 -13   11.56    4.46
   4  -9 -13   10.84    5.18
   4  -9 -12   37.93    7.43
   4   9 -12   25.26    6.38
   4  -9 -12   33.50    7.48
   4   9 -11    3.53    2.76
   4  -9 -11    2.32    3.03
   4  -9 -11    2.65    2.52
   4   9 -10    1.74    3.37
   4  -9 -10    0.67    2.57
   4  -9 -10   -1.59    1.54
   4   9  -9    4.94    2.66
  -4   9  -9    5.29    2.23
   4  -9  -9   19.09    4.95
   4  -9  -9   16.17    4.87
   4   9  -8   22.64    5.97
  -4   9  -8   33.01    6.93
   4  -9  -8   24.80    6.38
   4  -9  -8   37.31    7.28
   4   9  -7   16.62    5.38
   4  -9  -7   10.51    4.56
  -4   9  -7   14.09    4.63
   4  -9  -7   11.69    5.03
  -4   9  -6    8.92    4.43
   4  -9  -6    3.15    2.53
   4   9  -6    4.11    1.90
   4  -9  -6    7.96    4.31
   4  -9  -5   -0.71    2.06
   4   9  -5    0.29    1.65
   4  -9  -5    4.68    3.88
  -4   9  -5    1.77    2.07
   4  -9  -4   14.30    4.61
   4   9  -4   10.41    5.03
   4   9  -4   19.39    5.58
  -4   9  -4   14.93    4.92
   4   9  -3   12.83    4.82
   4   9  -3   18.50    5.89
   4  -9  -3   12.72    3.75
  -4   9  -3   15.95    5.98
   4   9  -2    2.71    2.02
   4   9  -2    1.88    2.83
  -4   9  -2   -3.48    3.33
   4  -9  -2    0.31    2.37
  -4   9  -1   21.62    6.25
   4   9  -1   24.25    5.59
   4   9  -1   24.66    5.41
   4  -9  -1   25.24    6.05
   4   9   0   57.19    8.68
   4   9   0   68.57    9.47
   4  -9   0   44.14    8.37
   4   9   1   33.55    7.69
  -4   9   1   20.07    5.62
   4   9   1   22.66    5.80
   4  -9   1   20.61    5.26
   4   9   2    1.77    2.68
  -4   9   2    5.85    4.27
   4   9   2   -0.88    1.44
   4  -9   2    7.47    5.25
  -4   9   3   23.95    6.72
   4   9   3   13.52    5.99
   4  -9   3   18.85    4.67
   4   9   3   23.20    5.47
  -4   9   4   13.34    4.65
   4   9   4   12.62    4.93
   4   9   4   20.99    4.12
   4  -9   4   11.57    3.14
   4   9   5    1.48    2.75
  -4   9   5    2.14    3.96
   4  -9   5   -0.48    2.41
   4   9   5    1.69    3.53
   4   9   6    5.78    3.52
   4   9   6    3.06    2.29
  -4   9   6    5.72    2.43
   4  -9   6    7.01    3.34
   4   9   7    8.85    4.88
  -4   9   7   22.58    5.42
   4   9   7   16.87    5.13
   4  -9   7   22.20    6.23
   4   9   8   22.63    5.68
   4   9   8   26.17    6.30
  -4   9   8   16.96    5.19
   4  -9   8   25.20    6.15
   4   9   9   11.70    5.51
   4   9   9   16.14    4.68
  -4   9   9   23.34    6.26
   4  -9   9   17.76    6.10
   4  -9  10   -0.69    2.56
   4   9  10    4.14    4.97
   4   9  10    1.08    1.34
  -4   9  10   -0.31    3.34
  -4   9  11    3.41    3.74
   4   9  11    0.08    2.60
   4   9  11    2.41    3.26
   4   9  12   43.63    8.08
   4   9  12   31.32    6.82
  -4   9  12   43.60    8.78
   4   9  13   11.20    4.76
  -4   9  13   28.75    7.32
   4   9  13   15.35    5.30
   4   9  14    2.50    4.08
  -4   9  14   12.25    5.31
   4   9  14    9.64    4.33
   4   9  15    5.95    4.52
   4   9  15    1.46    3.83
  -4   9  15   12.39    5.22
   4   9  16    3.26    3.44
  -4   9  16    2.23    3.28
   4   9  16   -0.54    2.05
  -4   9  17    4.26    3.59
   4   9  17    3.53    3.47
   4   9  17    4.86    4.25
   4   9  18    3.17    3.50
   4   9  18    1.88    3.21
  -4   9  18   -0.99    2.28
   4   9  19    7.14    5.46
  -4   9  19    0.75    3.79
   4   9  19    1.48    2.55
   4 -10 -15    2.58    2.76
   4 -10 -14    6.79    3.55
   4 -10 -14    6.37    3.23
   4 -10 -13    4.84    4.12
   4 -10 -13   17.82    7.07
   4  10 -12    0.25    2.87
   4 -10 -12    6.30    3.50
   4 -10 -11   11.46    5.23
   4  10 -11   19.69    5.75
   4  10 -10   25.39    6.73
   4 -10 -10   34.29    7.54
   4 -10  -9   63.41   10.13
   4  10  -9   51.13    9.18
   4  10  -8   19.12    5.85
  -4  10  -8   10.18    2.76
   4 -10  -8   13.88    4.46
   4  10  -7   24.93    7.42
  -4  10  -7   15.06    5.85
   4 -10  -7   16.71    5.21
   4  10  -6   23.14    6.41
  -4  10  -6   29.44    7.25
   4 -10  -6   20.16    6.14
   4  10  -5   44.47    8.47
  -4  10  -5   45.54    8.95
   4 -10  -5   26.03    6.38
  -4  10  -4   28.14    7.31
   4 -10  -4   32.84    7.44
   4  10  -4   22.16    6.28
   4  10  -3   -3.30    2.29
  -4  10  -3    7.33    4.96
   4 -10  -3    4.28    3.91
   4  10  -2    0.90    2.25
   4  10  -2    7.33    2.80
  -4  10  -2    7.86    2.79
   4 -10  -2    6.54    4.26
   4  10  -1   14.91    5.48
  -4  10  -1   17.56    6.11
   4  10  -1   19.87    6.15
   4 -10  -1   13.24    5.06
   4  10   0   54.42    9.06
  -4  10   0   52.63    8.97
   4 -10   0   56.91    9.96
   4  10   0   57.92    9.56
   4  10   1   13.43    4.15
   4  10   1   18.77    6.07
  -4  10   1   16.05    4.53
   4 -10   1   20.60    6.04
   4  10   2    4.85    2.39
  -4  10   2    5.06    4.23
   4  10   2    5.89    3.02
   4 -10   2   13.53    5.34
   4  10   3    4.96    4.32
  -4  10   3   13.72    5.22
   4 -10   3    9.96    3.90
   4  10   3    7.00    3.68
   4  10   4   11.57    5.13
   4 -10   4   24.96    6.96
   4  10   4   17.23    5.96
  -4  10   4   15.83    4.75
   4  10   5   43.91    8.57
   4  10   5   32.89    6.89
  -4  10   5   30.82    7.20
   4 -10   5   33.67    8.10
   4  10   6   26.00    6.98
  -4  10   6   25.33    6.96
   4  10   6   21.12    5.62
   4 -10   6   25.79    6.67
  -4  10   7    8.84    3.94
   4 -10   7   10.16    2.75
   4  10   7    8.49    4.31
  -4  10   8    8.37    4.54
   4  10   8   11.40    5.37
   4  10   8   16.62    5.52
   4 -10   8    8.33    2.71
   4  10   9   51.25    9.79
   4  10   9   47.95    8.31
  -4  10   9   53.29    9.60
  -4  10  10   32.28    7.22
   4  10  10   30.81    6.69
   4  10  10   29.70    7.46
  -4  10  11   12.94    3.86
   4  10  11    7.09    3.94
   4  10  12    4.64    3.69
   4  10  12   -2.44    2.88
   4  10  13    9.79    4.70
  -4  10  13   14.55    5.34
   4  10  13    9.41    4.52
   4  10  14   -1.12    3.52
  -4  10  14    5.75    3.73
   4  10  14    2.20    1.70
  -4  10  15   21.92    6.81
   4  10  15   10.27    3.45
   4  10  15   25.80    6.58
   4  11  -8    6.40    3.78
   4 -11  -8   11.53    5.09
   4  11  -7   21.78    7.17
  -4  11  -7   14.61    4.14
   4 -11  -7   19.15    6.04
   4  11  -6    4.93    3.60
  -4  11  -6    6.84    3.58
   4 -11  -6   11.47    3.78
  -4  11  -5   -2.54    2.28
   4 -11  -5   -0.20    2.56
   4  11  -5    0.82    1.75
   4  11  -4    1.03    3.42
  -4  11  -4   -0.59    3.37
   4 -11  -4   -0.22    2.13
   4  11  -3   -1.25    3.41
   4 -11  -3    5.60    4.74
  -4  11  -3    3.80    3.24
   4  11  -2    7.44    4.14
  -4  11  -2    3.92    4.20
   4 -11  -2    1.51    3.45
   4  11  -1   25.09    7.13
   4  11  -1   21.77    6.72
  -4  11  -1   17.84    5.87
   4 -11  -1   17.40    5.51
   4  11   0   15.70    4.29
  -4  11   0    8.05    3.65
   4  11   0    8.53    3.88
   4 -11   0    6.53    3.99
   4  11   1   15.92    4.32
   4  11   1   16.07    5.87
  -4  11   1   16.85    6.66
   4 -11   1   10.82    3.47
   4  11   2   -3.49    3.48
   4  11   2    6.94    3.58
  -4  11   2    0.06    1.88
   4 -11   2   -0.22    2.65
   4  11   3    0.02    2.04
   4  11   3   -0.68    3.62
  -4  11   3    2.59    3.99
   4 -11   3    4.49    3.58
   4  11   4   -1.92    2.52
   4  11   4    2.95    2.08
  -4  11   4   -0.54    2.70
   4 -11   4   -2.22    3.42
   4  11   5    0.21    2.14
   4  11   5   -1.89    3.75
  -4  11   5    0.54    3.12
   4 -11   5   -1.26    3.14
   4 -11   6    4.10    4.05
   4  11   6    1.27    2.53
   4  11   6    5.29    4.11
   4  11   7   10.29    5.14
   4  11   7   12.09    5.12
  -4  11   7   17.44    5.46
   4  11   8    6.56    4.87
  -4  11   8    4.80    4.54
   4  11   8   11.86    5.68
   5   0 -30    2.91    3.50
   5   0 -29    1.76    2.62
   5   0 -28    0.86    2.74
   5   0 -27    5.01    3.82
   5   0 -26    4.65    4.09
   5   0 -25   -0.20    1.74
   5   0 -24    2.22    3.03
   5   0 -23   -0.25    2.14
   5   0 -22   -0.40    1.62
   5   0 -21   -0.03    2.05
   5   0 -20   -2.11    1.62
   5   0 -19    0.51    2.11
   5   0 -18    0.24    1.38
   5   0 -17   -1.01    1.60
   5   0 -16    3.43    1.99
   5   0 -15   -0.77    2.15
   5   0 -14    0.04    1.88
   5   0 -14   -1.06    1.04
   5   0 -13   -1.14    1.91
   5   0 -13    0.02    0.89
   5   0 -12    1.38    1.43
   5   0 -12    0.53    0.73
   5   0 -11   -0.46    1.26
   5   0 -11    2.10    1.87
   5   0 -10    0.36    1.52
   5   0 -10   -0.59    1.38
   5   0  -9    0.30    0.92
   5   0  -9    1.59    1.58
   5   0  -8   -0.75    0.91
   5   0  -8    0.02    1.08
   5   0  -7    1.24    1.43
   5   0  -7    0.33    0.73
   5   0  -7   -0.24    0.88
   5   0  -6    0.38    1.05
   5   0  -6    1.49    1.34
   5   0  -6    0.27    0.75
   5   0  -5   -0.29    0.92
   5   0  -5   -0.27    0.96
   5   0  -5    0.04    0.91
   5   0  -4   -0.24    0.77
   5   0  -4   -0.40    0.76
   5   0  -4    0.68    1.29
   5   0  -3    0.33    0.78
   5   0  -3    0.19    0.63
   5   0  -3    0.32    1.38
   5   0  -2    0.33    0.91
   5   0  -2   -0.98    1.24
   5   0  -2    0.35    0.96
   5   0  -1    0.00    0.79
   5   0  -1    0.37    1.17
   5   0  -1   -1.30    0.91
   5   0   0    0.68    0.98
   5   0   0    0.27    0.84
   5   0   1    0.32    1.01
   5   0   1    0.57    1.07
   5   0   2   -0.18    0.64
   5   0   2   -0.40    0.56
   5   0   3   -0.43    0.72
   5   0   3    0.96    0.53
   5   0   4    0.31    0.94
   5   0   4    1.33    1.46
   5   0   5   -0.14    0.76
   5   0   5   -0.57    0.85
   5   0   6    1.66    0.95
   5   0   6    0.08    0.67
   5   0   7   -0.24    0.62
   5   0   7    1.13    1.29
   5   0   8   -0.11    0.41
   5   0   8    0.21    1.48
   5   0   9   -0.56    1.37
   5   0   9    0.04    0.45
   5   0  10   -0.54    0.81
   5   0  10    0.51    0.81
   5   0  11   -0.69    1.42
   5   0  11    0.75    0.74
   5   0  12   -0.71    0.87
   5   0  12    0.85    0.68
   5   0  13    0.35    0.35
   5   0  13   -0.38    1.29
   5   0  14    0.85    0.94
   5   0  15    0.72    1.20
   5   0  16   -0.03    1.27
   5   0  17   -0.72    2.28
   5   0  18    0.11    1.46
   5   0  19   -0.77    2.26
   5   0  20   -0.23    2.24
   5   0  21    0.70    1.96
   5   0  22   -1.02    1.82
   5  -1 -30    3.25    2.27
   5  -1 -29   26.50    6.86
   5  -1 -28   12.14    4.91
   5  -1 -27   47.09    8.28
   5   1 -26   78.79   10.22
   5  -1 -26   77.43   10.79
   5   1 -25   81.58   10.35
   5  -1 -25   68.16   10.00
   5   1 -24   13.19    5.00
   5  -1 -24    7.58    3.71
   5   1 -23    4.57    2.02
   5  -1 -23    5.46    3.74
   5   1 -22   22.21    5.35
   5  -1 -22   24.81    5.91
   5  -1 -21   44.47    7.54
   5   1 -21   42.37    7.38
   5   1 -20    2.21    2.46
   5  -1 -20    1.42    2.03
   5  -1 -19   45.58    7.34
   5   1 -19   42.15    6.95
   5   1 -18   33.75    5.92
   5  -1 -18   56.46    7.93
   5  -1 -17   40.49    6.40
   5   1 -17   54.18    6.83
   5  -1 -16  528.24   22.76
   5  -1 -16  578.81   19.73
   5   1 -16  581.63   22.38
   5  -1 -15  326.33   14.53
   5   1 -15  340.16   16.83
   5  -1 -15  351.49   18.18
   5   1 -14  222.78   13.16
   5  -1 -14  248.55   12.71
   5  -1 -14  222.26   14.06
   5  -1 -13  108.57    9.74
   5   1 -13  116.38    9.29
   5  -1 -13   80.11    7.13
   5   1 -13   93.45    8.34
   5  -1 -12  147.90   10.90
   5   1 -12  166.10   10.78
   5  -1 -12  157.06    9.90
   5   1 -12  166.87   10.71
   5   1 -11  249.92    8.18
   5  -1 -11  264.96   14.56
   5   1 -11  238.64   12.69
   5  -1 -11  230.05   11.66
   5   1 -11  244.89   12.86
   5  -1 -10  564.57   17.99
   5   1 -10  580.08   18.86
   5  -1 -10  548.93   20.49
   5   1 -10  526.37   18.39
   5   1 -10  564.81   12.51
   5   1  -9   34.74    3.16
   5   1  -9   31.91    4.25
   5   1  -9   27.30    3.88
   5  -1  -9   27.32    4.05
   5  -1  -9   24.55    4.14
   5   1  -8   31.65    4.04
   5   1  -8   32.46    3.25
   5   1  -8   27.67    4.16
   5  -1  -8   26.12    4.20
   5  -1  -8   21.18    3.18
   5   1  -7   17.42    3.26
   5  -1  -7   14.51    2.73
   5   1  -7   18.49    2.49
   5   1  -7   18.80    2.93
   5  -1  -7   14.25    3.00
   5  -1  -6 1243.16   25.16
   5   1  -6 1311.09   20.98
   5  -1  -6 1147.64   26.93
   5   1  -6 1202.28   23.92
   5   1  -6 1261.76   26.91
   5  -1  -5  387.23   13.93
   5   1  -5  362.12   11.56
   5  -1  -5  414.23   15.85
   5   1  -5  402.44   13.41
   5   1  -5  376.67   14.30
   5   1  -4 1988.32   29.54
   5  -1  -4 2028.51   31.90
   5   1  -4 2033.98   32.57
   5  -1  -3  292.64   12.06
   5   1  -3  323.07   11.80
   5  -1  -3  296.24   12.85
   5   1  -3  292.37   10.66
   5   1  -3  282.54   12.00
   5  -1  -2   38.32    4.36
   5   1  -2   38.67    4.10
   5   1  -2   27.66    3.44
   5  -1  -2   42.47    4.69
   5   1  -2   37.52    4.31
   5   1  -1   56.14    4.89
   5  -1  -1   44.44    4.81
   5  -1  -1   48.13    5.17
   5   1  -1   55.96    5.24
   5   1   0   51.09    4.77
   5  -1   0   43.75    4.80
   5  -1   0   45.72    5.07
   5   1   0   42.18    4.42
   5  -1   1   61.61    5.46
   5   1   1   53.79    5.02
   5   1   2   34.49    3.83
   5   1   2   33.07    4.03
   5  -1   2   31.15    4.12
   5   1   3  303.56   12.43
   5   1   3  288.67   11.16
   5  -1   3  298.55   12.55
   5   1   4 2001.85   29.45
   5   1   4 2050.66   33.27
   5  -1   4 2086.89   33.29
   5   1   5  446.67   13.73
   5  -1   5  418.65   15.27
   5   1   5  428.62   15.53
   5   1   6 1198.56   22.33
   5   1   6 1250.39   27.20
   5  -1   6 1231.34   26.44
   5   1   7   20.34    2.95
   5   1   7   17.30    3.42
   5  -1   7   19.55    3.41
   5   1   8   31.11    3.54
   5   1   8   33.66    4.89
   5  -1   8   22.06    3.84
   5   1   9   32.17    4.71
   5   1   9   32.55    3.62
   5  -1   9   28.06    4.32
   5   1  10  582.85   20.49
   5  -1  10  582.83   19.43
   5   1  10  598.12   15.31
   5   1  11  251.90    9.91
   5   1  11  254.75   13.83
   5  -1  11  239.37   12.90
   5   1  12  157.44    7.69
   5   1  12  149.74   10.76
   5  -1  12  157.03   10.60
   5   1  13  105.02    6.19
   5   1  13  106.42    9.35
   5  -1  13  104.72    8.82
   5   1  14  222.88    9.00
   5   1  14  204.83   13.24
   5  -1  14  224.93   13.11
   5   1  15  308.60   10.43
   5  -1  15  319.50   16.20
   5   1  15  324.75   16.95
   5  -1  16  531.80   21.09
   5   1  16  587.63   23.15
   5   1  17   60.46    7.53
   5  -1  17   49.67    6.74
   5   1  18   43.82    6.96
   5  -1  18   43.13    6.49
   5  -1  19   47.86    6.89
   5   1  19   46.72    7.31
   5  -1  20    1.34    1.61
   5   1  20    0.88    1.47
   5   1  21   46.08    7.57
   5  -1  21   45.55    7.00
   5   1  22   20.00    4.98
   5   1  23    2.83    3.00
   5  -2 -29    1.92    2.88
   5  -2 -28    3.82    2.99
   5  -2 -27   -1.06    3.72
   5  -2 -26   19.12    4.88
   5  -2 -25   31.04    6.44
   5  -2 -24    9.61    4.43
   5  -2 -23   53.93    8.57
   5  -2 -22   14.81    5.00
   5  -2 -21    6.80    3.24
   5   2 -21    7.29    3.46
   5   2 -20   17.07    4.63
   5  -2 -20   13.84    4.31
   5   2 -19  150.41   12.69
   5  -2 -19  183.59   14.29
   5  -2 -18   37.53    6.11
   5   2 -18   37.82    5.92
   5  -2 -18   32.59    5.85
   5  -2 -17   39.67    6.11
   5   2 -17   51.92    7.03
   5  -2 -17   52.41    7.39
   5   2 -17   46.93    6.51
   5  -2 -16  108.92   10.58
   5   2 -16   98.33    9.06
   5   2 -16  101.15    9.23
   5  -2 -16   79.25    8.24
   5   2 -15  775.73   24.32
   5  -2 -15  710.82   24.92
   5  -2 -15  742.34   27.57
   5   2 -15  765.51   24.92
   5  -2 -14  135.00   11.67
   5  -2 -14  145.83   10.75
   5   2 -14  129.37   10.08
   5   2 -14  136.66    9.78
   5  -2 -13  375.16   18.71
   5   2 -13  325.89   14.63
   5  -2 -13  375.54   17.02
   5   2 -13  351.45   16.29
   5   2 -12   17.77    3.59
   5  -2 -12   11.63    3.70
   5   2 -12   15.38    3.34
   5  -2 -12    9.71    2.76
   5  -2 -11   96.16    8.35
  -5   2 -11   86.19    4.46
   5   2 -11   81.88    6.71
   5  -2 -11   76.99    8.16
   5   2 -11   77.32    7.37
   5  -2 -10    4.50    2.41
   5   2 -10    1.02    0.94
   5   2 -10    3.13    1.56
   5   2 -10    1.39    0.66
   5  -2 -10    0.03    1.48
   5   2  -9    7.30    2.63
   5  -2  -9    9.13    2.67
   5   2  -9   10.83    2.78
   5   2  -9   10.55    1.61
   5  -2  -9    8.72    2.84
   5   2  -8  111.39    5.51
   5   2  -8   94.67    6.53
   5  -2  -8   93.59    8.31
   5  -2  -8  102.96    8.38
   5   2  -8  108.73    8.24
   5   2  -7  619.82   13.72
   5  -2  -7  604.94   20.91
   5  -2  -7  614.21   19.99
   5   2  -7  611.57   16.05
   5  -2  -6  365.08   16.08
   5   2  -6  405.27   12.61
   5  -2  -6  348.28   14.89
   5   2  -6  349.46   11.00
   5   2  -6  359.23   14.94
   5  -2  -5   89.20    7.37
   5   2  -5  114.49    6.59
   5   2  -5  110.85    8.12
   5  -2  -5   95.93    8.10
   5   2  -5   93.19    5.97
   5   2  -4   68.67    6.27
   5  -2  -4   64.32    6.36
   5  -2  -4   67.01    6.84
   5   2  -4   61.86    5.06
   5   2  -4   62.33    4.84
   5   2  -3  337.43   13.86
   5   2  -3  312.10   11.58
   5  -2  -3  328.75   14.52
   5  -2  -3  321.27   13.89
   5   2  -3  317.20   11.04
   5  -2  -2  141.10    9.11
   5   2  -2  155.91    8.30
   5   2  -2  159.12    9.42
   5  -2  -2  161.19   10.00
   5   2  -2  153.94    7.76
   5   2  -1   68.99    6.13
   5  -2  -1   69.10    6.29
   5   2  -1   65.73    5.74
   5  -2  -1   80.84    6.98
   5  -2   0  434.35   15.97
   5   2   0  453.53   14.82
   5  -2   0  466.27   16.74
   5   2   1   71.99    6.40
   5  -2   1   69.16    6.30
   5   2   1   65.33    5.71
   5  -2   1   66.67    6.32
   5   2   2  152.00    9.03
   5  -2   2  150.32    9.43
   5   2   2  140.75    9.03
   5  -2   2  158.99    9.67
   5   2   3  324.94   13.23
   5  -2   3  306.15   13.57
   5   2   3  326.72   13.86
   5   2   4   72.49    6.21
   5  -2   4   70.99    6.81
   5   2   4   65.90    6.14
   5   2   5  104.39    7.30
   5  -2   5  113.85    8.34
   5   2   5   97.66    7.70
   5  -2   6  367.73   15.18
   5   2   6  371.66   15.47
   5   2   6  349.02   13.59
   5   2   7  632.87   18.14
   5  -2   7  600.22   19.64
   5   2   7  620.16   20.54
   5   2   8  103.72    7.35
   5  -2   8   96.89    8.05
   5   2   8  103.04    8.46
   5   2   9    9.85    3.05
   5  -2   9    9.92    2.76
   5   2   9    9.64    2.56
   5   2  10    2.33    1.81
   5   2  10    2.55    1.78
   5  -2  10    2.59    1.32
   5  -2  11   95.95    8.25
   5   2  11   94.76    7.10
   5   2  11   89.34    8.33
   5   2  12   15.92    3.18
   5   2  12   14.99    3.83
   5  -2  12   21.83    4.08
   5   2  13  370.43   14.33
   5  -2  13  370.17   16.72
   5   2  13  403.85   18.65
   5   2  14  126.00    8.28
   5  -2  14  130.84   10.24
   5   2  14  143.44   11.44
   5  -2  15  746.17   24.90
   5   2  15  751.18   20.45
   5   2  15  699.66   25.62
   5   2  16   90.11    7.07
   5  -2  16   94.65    9.02
   5   2  16   85.08    9.18
   5   2  17   42.44    6.89
   5  -2  17   37.80    5.64
   5   2  18   33.09    6.07
   5  -2  18   37.40    5.74
   5   2  19  188.52   14.48
   5  -2  19  161.08   12.70
   5   2  20   20.47    5.58
   5   2  21    6.81    3.60
   5   2  22   10.68    2.81
   5   2  23   61.19    9.05
   5   2  24   14.72    4.87
   5  -3 -29    6.68    4.73
   5  -3 -28   26.96    6.97
   5  -3 -27   63.35    9.75
   5  -3 -26   31.05    5.97
   5  -3 -25  125.61   13.71
   5  -3 -24    3.15    2.61
   5  -3 -23    7.76    4.66
   5  -3 -22  125.63   12.79
   5  -3 -21  130.78   12.64
   5  -3 -20   74.73    9.84
   5  -3 -19  162.71   13.86
   5  -3 -19  128.36   12.10
   5  -3 -18   24.81    5.47
   5  -3 -18   26.85    6.14
   5   3 -17   22.45    4.77
   5  -3 -17   20.44    4.75
   5  -3 -17   31.45    6.36
   5   3 -16  169.32   12.41
   5  -3 -16  156.24   12.58
   5  -3 -16  177.97   14.17
   5   3 -15  547.21   19.43
   5  -3 -15  544.66   24.66
   5  -3 -15  567.00   23.79
   5   3 -15  544.36   21.77
   5   3 -14  117.97    8.39
   5  -3 -14  108.28   10.22
   5  -3 -14  114.39   10.89
   5   3 -14  108.31    9.84
   5   3 -13   20.05    3.26
   5   3 -13   25.32    4.75
   5  -3 -13   19.86    4.78
   5  -3 -13   23.66    5.09
   5  -3 -12   58.61    7.33
   5   3 -12   67.20    7.41
   5   3 -12   69.18    6.03
   5  -3 -12   69.14    8.47
   5   3 -11  131.20   10.01
   5  -3 -11  118.34   10.82
  -5   3 -11  127.40    7.17
   5   3 -11  132.06    7.58
   5  -3 -11  149.16   11.37
   5  -3 -10  246.28   14.70
   5   3 -10  222.97    7.11
  -5   3 -10  251.25   10.30
   5   3 -10  230.77    9.77
   5  -3 -10  245.01   14.38
   5   3  -9   60.06    6.63
   5   3  -9   54.59    4.71
   5  -3  -9   62.71    7.49
   5  -3  -9   56.90    6.97
   5   3  -9   55.10    4.02
   5   3  -8   20.82    2.65
   5  -3  -8   17.64    3.54
   5   3  -8   16.89    3.79
   5   3  -8   20.94    2.72
   5  -3  -8   13.60    3.20
   5   3  -7  156.96   10.48
   5   3  -7  153.05    7.58
   5   3  -7  137.99    6.37
   5  -3  -7  122.63   10.06
   5  -3  -7  126.22   10.09
   5   3  -6  609.96   13.19
   5   3  -6  602.69   20.50
   5  -3  -6  598.84   21.50
   5   3  -6  625.90   15.85
   5  -3  -6  631.65   22.02
   5   3  -5  543.53   12.45
   5   3  -5  554.06   15.58
   5   3  -5  509.11   18.77
   5  -3  -5  507.07   19.72
   5  -3  -5  571.08   20.50
   5   3  -4  258.12   13.20
   5   3  -4  264.59   11.09
   5  -3  -4  279.81   14.25
   5   3  -4  260.48    8.68
   5  -3  -4  265.10   13.99
   5   3  -3  179.70   10.92
   5   3  -3  184.38    7.48
   5  -3  -3  184.96   11.74
   5  -3  -3  185.57   11.46
   5  -3  -2  432.24   17.47
   5   3  -2  432.31   14.95
   5   3  -2  436.68   17.25
   5  -3  -2  451.50   17.79
   5   3  -1 1442.29   31.04
   5   3  -1 1515.03   28.67
   5  -3  -1 1541.64   32.68
   5  -3  -1 1563.19   32.38
   5   3   0 1098.58   26.62
   5  -3   0 1043.74   27.47
   5  -3   0 1145.29   27.76
   5   3   0 1092.52   25.27
   5  -3   1 1496.07   32.19
   5  -3   1 1489.10   31.58
   5   3   1 1489.32   29.89
   5   3   1 1530.19   31.56
   5  -3   2  488.50   18.39
   5   3   2  494.66   17.80
   5   3   2  467.64   17.06
   5  -3   2  443.95   17.12
   5  -3   3  204.19   11.81
   5  -3   3  190.72   11.22
   5   3   3  179.65   10.82
   5   3   4  266.91   13.23
   5  -3   4  241.34   13.00
   5  -3   4  272.53   13.49
   5   3   4  247.34   12.75
   5  -3   5  545.28   19.66
   5   3   5  566.84   19.06
   5   3   5  545.98   19.44
   5   3   6  627.24   20.23
   5  -3   6  598.07   20.43
   5   3   6  603.09   20.77
   5  -3   7  146.68   10.08
   5   3   7  138.39    9.55
   5   3   8   23.49    4.13
   5  -3   8   26.05    4.25
   5   3   8   24.10    4.58
   5   3   9   52.54    6.11
   5  -3   9   51.18    6.10
   5   3   9   56.54    7.09
   5  -3  10  249.99   13.56
   5   3  10  265.04   13.38
   5   3  10  246.76   14.42
   5  -3  11  128.95    9.91
   5   3  11  111.97    8.76
   5   3  12   69.39    7.02
   5  -3  12   68.69    7.50
   5   3  12   70.86    8.04
   5  -3  13   17.82    3.89
   5   3  13   21.86    4.08
   5   3  13   22.49    4.73
   5  -3  14  103.40    9.39
   5   3  14  131.31   11.05
   5   3  14  114.81    9.10
   5  -3  15  619.52   23.14
   5   3  15  567.87   20.46
   5   3  15  557.10   23.75
   5   3  16  166.97   11.27
   5   3  16  176.71   13.75
   5  -3  16  190.21   12.98
   5   3  17   21.26    4.70
   5   3  17   26.52    4.92
   5  -3  17   19.47    4.54
   5   3  18   18.54    4.52
   5  -3  18   25.09    5.49
   5   3  19  138.85   12.96
   5   3  20   85.10   10.65
   5   3  21  143.92   13.49
   5   3  22  142.50   13.81
   5   3  23    4.50    3.05
   5   3  24   14.16    5.41
   5   3  25  150.22   14.95
   5  -4 -28    2.23    3.25
   5  -4 -27   -0.33    2.11
   5  -4 -26    1.69    2.48
   5  -4 -25   12.03    4.78
   5  -4 -24   61.31    9.62
   5  -4 -23   29.33    7.07
   5  -4 -22   11.57    4.53
   5  -4 -21   25.17    5.23
   5  -4 -20   67.88    9.45
   5  -4 -20   69.67    9.59
   5  -4 -19    2.09    1.73
   5  -4 -19    6.27    2.93
   5  -4 -18    7.35    3.18
  -5  -4 -18    5.86    3.50
   5  -4 -18   11.80    4.22
  -5  -4 -17  304.50   18.43
   5  -4 -17  312.59   19.21
   5  -4 -17  261.57   17.74
  -5  -4 -16   96.41   10.36
   5  -4 -16  112.17   10.80
   5   4 -16  109.61   10.08
   5  -4 -16  101.37   10.76
  -5  -4 -15   39.26    7.01
   5  -4 -15   42.40    6.91
   5   4 -15   44.29    6.66
   5  -4 -15   41.08    7.25
   5   4 -14   27.63    5.28
   5  -4 -14   18.67    4.90
   5  -4 -14   19.02    4.78
  -5  -4 -14   20.40    4.79
   5  -4 -13  111.55   10.80
  -5  -4 -13   99.85    9.83
   5  -4 -13  112.62   10.71
   5   4 -13  115.02   10.16
  -5  -4 -12  182.03   12.98
   5  -4 -12  187.40   13.84
   5  -4 -12  156.85   12.73
   5   4 -12  165.75   12.19
   5  -4 -11   38.16    6.28
   5  -4 -11   34.94    6.11
  -5   4 -11   33.69    4.47
   5   4 -11   43.98    6.01
   5   4 -10   14.95    3.96
  -5   4 -10   13.66    2.89
   5  -4 -10   12.11    3.82
   5  -4 -10   16.60    4.46
   5   4  -9  129.01   10.34
   5   4  -9  136.10    7.45
   5  -4  -9  142.91   11.77
   5  -4  -9  117.78   10.47
  -5   4  -8   22.04    3.90
   5  -4  -8   22.19    4.43
   5   4  -8   26.87    4.64
   5   4  -8   25.53    3.42
   5  -4  -8   22.77    4.59
   5   4  -7   55.46    7.18
  -5   4  -7   94.71    7.72
   5  -4  -7   77.04    8.22
   5  -4  -7   80.22    8.35
   5   4  -7   66.67    5.77
   5  -4  -6  242.81   14.46
   5   4  -6  224.19   10.75
   5   4  -6  229.51   13.57
   5  -4  -6  234.78   14.65
   5   4  -5   66.89    7.38
   5  -4  -5   95.78    9.02
   5   4  -5   65.32    3.03
   5   4  -5   76.82    6.35
   5  -4  -5   85.48    8.64
   5   4  -4  101.88    4.55
   5   4  -4  128.76    9.94
   5   4  -4  107.84    7.83
   5  -4  -4  124.66   10.29
   5  -4  -4  127.00   10.25
   5   4  -3    6.81    1.31
   5   4  -3    7.16    2.23
   5   4  -3    7.15    2.68
   5  -4  -3    6.90    2.93
   5  -4  -3    8.20    2.82
   5   4  -2   38.13    4.86
   5   4  -2   31.77    4.66
   5  -4  -2   34.56    5.25
   5  -4  -2   26.96    4.62
   5  -4  -1    3.02    2.20
   5   4  -1    3.33    1.90
   5   4  -1    6.83    2.31
   5  -4  -1    4.82    1.65
   5   4   0  127.60    9.33
   5   4   0  111.70    9.19
   5  -4   0  131.29    9.85
   5  -4   0  126.10   10.05
   5  -4   1    6.87    2.81
   5   4   1    4.63    1.80
   5   4   1    8.38    2.68
   5  -4   1    5.71    2.24
   5  -4   2   29.22    4.81
   5   4   2   36.22    5.43
   5   4   2   34.65    5.11
   5  -4   2   26.22    4.41
   5  -4   3   11.87    3.42
   5   4   3   10.41    3.80
   5   4   3    1.63    1.05
   5  -4   3   11.87    3.19
   5  -4   4  114.72    9.66
   5   4   4  113.89    9.43
   5   4   4  116.67    9.37
   5  -4   4  110.99    9.09
   5  -4   5   81.39    8.19
   5   4   5   58.56    6.84
   5   4   5   76.84    7.77
   5  -4   5   78.60    7.59
   5  -4   6  234.51   13.79
   5   4   6  227.42   13.89
   5   4   6  242.71   13.81
   5   4   7   66.21    7.17
   5  -4   7   70.52    7.91
   5   4   7   84.04    8.27
   5  -4   8   23.42    4.80
   5   4   8   31.49    4.79
   5   4   8   21.90    4.38
   5   4   9  146.46   11.49
   5  -4   9  133.60   10.57
   5   4   9  128.29   10.23
   5  -4  10   16.06    4.10
   5   4  10   14.29    3.71
   5   4  10   12.88    3.54
   5  -4  11   45.51    6.27
   5   4  11   50.61    6.56
   5   4  11   47.68    6.61
   5  -4  12  168.50   12.13
   5   4  12  179.88   12.54
   5   4  12  162.20   12.86
   5  -4  13  115.26   10.05
   5   4  13  126.77   10.67
   5   4  13  118.31   10.81
   5   4  14   27.30    5.79
   5   4  14   15.09    3.72
   5  -4  14   25.98    4.90
   5  -4  15   40.59    6.17
   5   4  15   47.14    6.76
   5   4  15   49.19    7.44
   5  -4  16  102.24    9.96
   5   4  16  101.16    9.72
   5   4  16  117.84   11.37
   5  -4  17  262.49   15.89
   5   4  17  293.38   16.85
   5   4  17  282.13   17.65
   5   4  18    9.95    4.07
   5   4  19    8.69    3.51
   5   4  20   71.86    9.68
   5   4  21   22.50    5.43
   5   4  22    6.46    2.91
   5   4  23   26.88    6.99
   5   4  24   46.43    8.42
   5   4  25    3.83    2.53
   5   4  26    2.03    3.25
   5  -5 -27    2.55    2.07
   5  -5 -26   17.78    5.64
   5  -5 -25   13.82    4.32
   5  -5 -24   58.04    9.39
   5  -5 -23   14.97    5.93
   5  -5 -22    6.28    3.31
   5  -5 -21   40.82    7.80
  -5  -5 -20  106.29   12.19
   5  -5 -20   95.59   10.95
   5  -5 -20  124.87   13.18
  -5  -5 -19    8.50    3.16
   5  -5 -19   13.35    3.57
   5  -5 -19    7.03    3.14
   5  -5 -18   12.32    4.15
   5  -5 -18    2.00    1.66
  -5  -5 -18    8.73    4.01
   5  -5 -17   76.05   10.07
  -5  -5 -17   62.35    8.87
   5  -5 -17   74.03   10.05
   5   5 -16    3.53    2.52
   5  -5 -16    1.08    3.96
  -5  -5 -16    4.19    2.55
   5  -5 -16   -0.05    2.80
  -5  -5 -15  147.21   12.66
   5  -5 -15  173.80   14.46
   5  -5 -15  161.27   13.93
   5  -5 -14   75.09    9.63
  -5  -5 -14   58.88    7.85
   5   5 -14   56.13    7.70
   5  -5 -14   48.94    7.83
   5   5 -13    0.93    1.32
  -5  -5 -13    3.27    1.60
   5  -5 -13   -1.44    1.98
   5  -5 -13    6.10    3.25
   5   5 -12   26.77    5.45
  -5  -5 -12   34.67    5.59
   5  -5 -12   25.99    5.69
   5  -5 -12   20.33    4.64
  -5   5 -11  172.14   11.46
  -5  -5 -11  172.75   12.96
   5  -5 -11  172.89   13.65
   5  -5 -11  184.42   14.39
   5   5 -11  178.44   13.69
   5   5 -10   47.23    7.10
   5  -5 -10   55.60    7.75
  -5   5 -10   48.99    6.29
   5  -5 -10   58.78    8.05
  -5  -5 -10   67.27    7.99
   5   5  -9  100.41   10.32
  -5   5  -9  101.43    9.12
   5  -5  -9  119.19   11.07
   5  -5  -9  107.36   10.98
   5   5  -8   24.46    4.98
   5   5  -8   22.30    3.54
   5  -5  -8   30.15    5.94
   5  -5  -8   25.82    5.45
  -5   5  -8   20.72    4.23
   5   5  -7   28.69    5.67
   5  -5  -7   21.62    5.05
  -5   5  -7   23.66    4.25
   5   5  -7   32.19    4.64
   5  -5  -7   16.80    4.52
   5   5  -6  356.74   18.09
   5  -5  -6  297.47   16.80
  -5   5  -6  356.30   16.97
   5   5  -6  338.81   14.91
   5  -5  -6  339.39   18.55
   5  -5  -5  191.02   13.15
   5   5  -5  189.00   11.84
   5   5  -5  191.25   13.25
  -5   5  -5  204.61   12.70
   5  -5  -5  201.31   14.30
   5   5  -4   11.62    4.15
  -5   5  -4   14.08    3.38
   5  -5  -4   10.49    3.29
   5   5  -4    9.44    2.81
   5  -5  -4   11.93    3.78
   5   5  -3   38.51    5.43
   5   5  -3   48.59    6.22
  -5   5  -3   57.94    6.68
   5  -5  -3   37.50    5.91
   5  -5  -3   34.32    5.94
   5   5  -2   39.95    5.81
   5   5  -2   32.44    4.81
   5  -5  -2   39.58    6.13
   5  -5  -2   33.75    5.65
   5   5  -1   55.33    7.09
   5   5  -1   84.37    8.11
   5  -5  -1   63.59    7.35
   5  -5  -1   81.34    8.82
   5   5   0  235.76   14.42
   5   5   0  211.07   13.11
   5  -5   0  219.91   14.36
   5  -5   0  218.86   13.59
   5   5   1   65.91    7.49
   5   5   1   66.86    7.46
   5  -5   1   69.31    7.43
   5  -5   1   63.27    7.58
   5   5   2   39.94    6.20
   5   5   2   32.73    5.11
   5  -5   2   30.36    5.14
   5  -5   2   41.84    6.00
   5   5   3   41.07    5.61
   5   5   3   46.85    6.57
   5  -5   3   51.40    6.19
   5  -5   3   41.24    6.23
   5  -5   4   17.08    4.08
   5   5   4    8.08    1.80
   5  -5   4   13.95    3.41
   5   5   4   15.81    3.66
   5   5   5  157.25   11.89
   5   5   5  188.07   13.02
   5  -5   5  173.32   11.82
   5  -5   5  166.61   12.31
   5   5   6  371.40   18.47
   5   5   6  353.59   18.17
   5  -5   6  354.56   17.27
   5  -5   6  357.21   18.11
   5   5   7   30.82    5.93
   5  -5   7   35.53    5.46
   5   5   7   33.02    5.98
   5  -5   7   26.97    5.10
   5  -5   8   20.15    4.43
   5   5   8   33.85    5.99
   5   5   8   31.59    5.57
   5  -5   8   16.85    4.01
   5  -5   9  100.76    9.61
   5   5   9  133.62   11.20
   5   5   9   99.11   10.17
   5  -5   9  113.28   10.22
   5   5  10   48.90    6.62
   5   5  10   41.85    6.47
   5  -5  10   62.65    7.60
   5  -5  11  171.59   12.98
   5   5  11  191.97   13.64
   5   5  11  190.52   14.32
   5  -5  12   18.55    4.11
   5   5  12   23.55    4.52
   5   5  12   21.11    4.47
   5  -5  13    2.18    2.92
   5   5  13   -0.13    1.89
   5   5  13    2.01    1.43
   5  -5  14   58.31    8.49
   5   5  14   62.53    8.54
   5   5  14   57.63    7.42
   5  -5  15  134.17   11.91
   5   5  15  132.66   12.25
   5   5  15  169.64   14.14
   5   5  16    2.53    2.22
   5   5  16    1.03    2.72
   5   5  17   64.93    8.73
   5   5  17   46.14    7.96
   5   5  18   10.82    4.39
   5   5  18   11.28    4.38
   5   5  19   11.82    3.54
  -5   5  20  112.21   12.28
   5   5  20   95.52   11.66
   5   5  21   53.61    8.54
  -5   5  21   62.08    9.41
  -5   5  22    5.52    4.08
   5   5  22    6.83    3.69
  -5   5  23    4.32    2.51
   5   5  23    1.73    2.10
  -5   5  23    7.58    2.93
   5   5  24   43.67    8.18
   5   5  25   15.08    4.70
   5   5  26    7.40    3.20
   5   5  27   14.45    5.48
   5  -6 -25    6.28    4.34
   5  -6 -24    7.59    4.02
   5  -6 -23   -2.88    3.87
   5  -6 -22   15.94    6.09
   5  -6 -21    6.01    4.06
  -5  -6 -20    5.23    3.09
   5  -6 -20   -2.11    2.84
   5  -6 -20    6.71    4.44
  -5  -6 -19   -0.71    3.51
   5  -6 -19    5.29    3.26
   5  -6 -19   -1.55    3.64
  -5  -6 -18    3.71    3.10
   5  -6 -18    7.52    4.16
   5  -6 -18    7.23    3.17
   5  -6 -17   19.45    4.58
  -5  -6 -17   13.80    4.69
   5  -6 -17   17.10    5.94
   5  -6 -16   43.84    7.75
  -5  -6 -16   35.73    6.96
   5  -6 -16   22.90    5.48
   5  -6 -15   41.74    7.51
   5   6 -15   39.04    7.17
  -5  -6 -15   45.99    7.81
   5  -6 -15   46.93    8.36
   5   6 -14   10.57    3.69
  -5  -6 -14   15.47    4.41
   5  -6 -14   11.64    4.36
   5  -6 -14   10.00    4.30
   5  -6 -13   20.14    5.70
   5   6 -13   16.38    4.83
  -5  -6 -13   17.87    5.06
   5  -6 -13   12.45    4.21
   5   6 -12   85.51    9.75
  -5  -6 -12   86.19    9.64
   5  -6 -12   80.60    9.79
   5  -6 -12   56.49    8.36
   5   6 -11    8.81    3.61
  -5  -6 -11   14.53    4.05
   5  -6 -11   10.95    3.96
   5  -6 -11   13.04    4.98
   5   6 -10    6.17    2.77
  -5  -6 -10    4.30    2.61
   5  -6 -10    2.30    1.72
  -5   6 -10    9.82    3.68
   5  -6 -10    4.00    1.47
   5  -6  -9   53.95    8.08
   5  -6  -9   46.09    7.01
  -5   6  -9   40.99    6.36
   5   6  -9   45.21    7.15
   5  -6  -8   38.51    6.62
   5   6  -8   29.72    5.93
  -5   6  -8   32.58    5.82
   5  -6  -8   45.34    7.57
   5   6  -7   86.25    8.18
  -5   6  -7   91.12    9.19
   5  -6  -7   99.65   10.41
   5  -6  -7   80.06    9.73
   5   6  -7  103.03   10.74
   5   6  -6    2.57    2.42
   5   6  -6   12.43    3.45
  -5   6  -6    5.99    2.72
   5  -6  -6    7.29    2.68
   5  -6  -6    5.94    3.66
   5  -6  -5    8.17    3.36
   5   6  -5   12.65    4.39
  -5   6  -5   15.30    3.81
   5   6  -5   12.87    3.68
   5   6  -4  128.79   11.54
   5  -6  -4  117.70   10.57
   5   6  -4  138.43   10.82
  -5   6  -4  125.33   10.88
   5  -6  -4  131.44   12.27
   5  -6  -3   26.34    4.99
   5   6  -3   31.26    6.01
   5   6  -3   29.52    5.12
  -5   6  -3   20.65    5.13
   5  -6  -3   41.14    6.70
   5   6  -2   69.38    8.41
   5   6  -2   72.40    8.06
  -5   6  -2   83.75    8.74
   5  -6  -2   57.68    7.70
   5  -6  -2   68.27    9.13
   5   6  -1   74.06    8.71
   5  -6  -1   70.65    7.67
   5   6  -1   66.62    7.82
  -5   6  -1   64.89    8.14
   5  -6  -1   87.80    9.72
   5   6   0   84.78    9.43
   5  -6   0   65.39    7.48
   5   6   0   73.74    8.21
  -5   6   0   75.38    8.54
   5  -6   0   88.94    9.52
   5   6   1   69.34    8.67
   5  -6   1   80.08    8.85
   5   6   1   84.62    8.80
  -5   6   1   77.93    9.08
   5  -6   1   72.44    8.88
   5  -6   2   64.19    8.63
   5   6   2   69.67    8.21
   5   6   2   71.68    8.25
  -5   6   2   67.43    8.09
   5  -6   2   78.42    8.61
   5  -6   3   28.85    5.94
   5  -6   3   36.90    5.65
   5   6   3   32.13    6.26
   5   6   3   34.10    5.73
  -5   6   3   35.23    6.39
   5  -6   4  117.65   10.62
   5   6   4  127.10   11.53
   5   6   4  135.75   11.74
   5  -6   4  137.66   12.09
  -5   6   4  139.08   11.84
   5  -6   5   10.46    3.50
   5   6   5   16.41    4.53
   5   6   5   13.28    4.34
   5  -6   5   10.31    2.92
   5   6   6    3.70    3.00
   5  -6   6    3.34    1.49
   5   6   6    8.69    3.53
   5  -6   6    7.49    2.00
   5   6   7  114.42   11.01
   5   6   7  103.10   10.37
   5  -6   7   96.22    9.95
   5  -6   7   95.65    9.83
   5  -6   8   34.27    6.03
   5   6   8   44.89    6.63
   5  -6   8   30.99    5.37
   5   6   8   29.02    5.76
   5  -6   9   46.25    7.07
   5   6   9   48.52    7.69
   5   6   9   40.76    6.32
   5  -6   9   33.48    5.92
   5   6  10    3.26    1.73
   5  -6  10    4.22    2.11
   5  -6  11    8.96    3.71
   5   6  11   15.36    4.45
   5   6  11   11.08    3.49
   5  -6  11    6.87    2.95
   5   6  12   70.14    9.27
   5  -6  12   72.24    9.27
   5   6  12   91.52   10.63
   5  -6  12   61.02    8.92
   5   6  13   22.81    5.18
   5   6  13    9.86    3.45
   5  -6  13   15.02    4.80
  -5   6  13   16.85    4.58
   5  -6  13   12.85    4.51
   5   6  14    8.69    2.78
   5   6  14    7.85    2.83
  -5   6  14    9.52    3.45
   5  -6  14   18.46    5.11
   5   6  15   46.73    7.43
   5   6  15   39.11    7.02
  -5   6  15   25.43    5.87
   5   6  16   22.38    5.38
   5   6  16   32.58    6.92
  -5   6  16   31.01    6.51
   5   6  17    6.89    2.29
   5   6  17   14.25    5.12
  -5   6  17    6.31    4.88
   5   6  18    4.68    2.87
   5   6  18    9.78    3.33
  -5   6  18   10.42    4.92
   5   6  19    2.73    3.48
  -5   6  19    5.66    3.96
  -5   6  20    2.50    3.50
   5   6  20    2.87    2.44
  -5   6  21    4.50    4.40
   5   6  21   -0.51    2.28
  -5   6  22   18.70    6.24
   5   6  22   10.83    3.70
  -5   6  23   -6.34    3.91
   5   6  23    0.43    3.25
   5   6  24   10.48    4.65
   5   6  25   -0.38    2.06
   5  -7 -23   -1.29    3.77
   5  -7 -22    6.19    3.24
   5  -7 -21   48.34    9.10
   5  -7 -20   21.65    5.44
  -5  -7 -19   29.49    6.97
   5  -7 -19   41.85    8.03
   5  -7 -19   35.93    8.18
  -5  -7 -18   37.35    7.02
   5  -7 -18   60.04    9.24
   5  -7 -18   41.52    8.24
  -5  -7 -17   40.44    7.37
   5  -7 -17   62.46    9.10
   5  -7 -17   45.82    8.72
   5  -7 -16   62.47   10.01
  -5  -7 -16   47.93    8.16
   5  -7 -16   69.04    9.67
  -5  -7 -15    3.11    2.40
   5  -7 -15    6.54    1.93
   5  -7 -15    7.03    3.91
   5   7 -14   27.74    6.19
  -5  -7 -14   16.08    4.47
   5  -7 -14   18.85    5.87
   5  -7 -14   34.67    7.44
   5   7 -13   20.94    5.25
  -5  -7 -13   28.47    5.69
   5  -7 -13   33.42    6.95
   5   7 -12   29.62    6.71
  -5  -7 -12   25.46    6.33
   5  -7 -12   32.22    6.79
   5  -7 -12   29.31    6.69
   5   7 -11  102.30   11.55
  -5  -7 -11  121.68   11.73
   5  -7 -11   95.48   11.06
   5  -7 -11   97.88   11.51
   5   7 -10  162.16   14.10
  -5   7 -10  148.13   12.98
   5  -7 -10  170.45   14.69
   5  -7 -10  152.42   14.58
  -5  -7 -10  166.03   14.17
   5   7  -9  130.83   12.86
   5  -7  -9   96.85   11.01
  -5   7  -9  105.05   10.99
   5  -7  -9   90.92   10.84
   5   7  -8   96.31   10.86
   5  -7  -8  106.44   11.41
  -5   7  -8  101.88   10.81
   5  -7  -8   99.66   11.17
   5   7  -7  121.36   12.20
   5  -7  -7  118.75   11.74
  -5   7  -7  109.31   11.02
   5  -7  -7  119.32   12.06
   5   7  -6   62.00    8.82
  -5   7  -6   46.07    6.96
   5  -7  -6   45.48    8.14
   5   7  -6   63.87    7.85
   5  -7  -6   58.46    8.06
   5  -7  -5  123.17   12.23
   5   7  -5  119.50   11.79
   5   7  -5   98.99    9.99
  -5   7  -5  114.79   11.28
   5  -7  -5  122.32   11.55
   5   7  -4   24.27    6.07
   5   7  -4   30.78    6.01
  -5   7  -4   37.37    6.98
   5  -7  -4   46.90    7.50
   5  -7  -4   42.63    7.38
  -5   7  -3    9.65    4.10
   5   7  -3    5.50    2.24
   5  -7  -3    3.10    2.66
   5   7  -3    6.06    2.82
   5  -7  -3    4.50    2.49
   5  -7  -2   30.66    5.85
   5   7  -2   31.46    5.79
   5   7  -2   40.33    7.20
  -5   7  -2   35.97    6.66
   5  -7  -2   43.72    7.32
   5  -7  -1  100.79   10.30
   5   7  -1  107.75   10.96
  -5   7  -1  108.04   11.21
   5   7  -1  106.10   10.39
   5  -7  -1  115.05   11.87
   5  -7   0   24.86    5.54
   5   7   0    9.36    3.41
   5   7   0   14.70    4.33
   5  -7   0   15.69    4.14
  -5   7   0   14.79    4.27
   5   7   1   86.60    9.99
   5   7   1   98.22   10.29
   5  -7   1   96.21   10.81
  -5   7   1  103.61   10.64
   5  -7   1   85.28    9.22
   5  -7   2   35.09    6.25
   5   7   2   22.74    4.97
   5   7   2   43.50    6.75
  -5   7   2   40.33    7.30
   5  -7   2   29.78    5.84
   5  -7   3   10.08    3.83
   5   7   3    5.74    3.13
   5   7   3    5.09    3.41
   5  -7   3    2.50    1.84
  -5   7   3    6.28    3.32
   5  -7   4   26.85    5.62
   5   7   4   23.72    5.05
   5   7   4   44.22    6.97
  -5   7   4   40.53    7.31
   5  -7   4   39.70    6.65
  -5   7   5  102.97   11.14
   5   7   5  116.82   11.92
   5   7   5  100.98   10.63
   5  -7   5  137.30   11.97
   5  -7   5  101.24   10.99
   5   7   6   53.86    7.87
   5   7   6   44.50    7.48
  -5   7   6   42.13    7.38
   5  -7   6   46.96    6.87
   5  -7   6   47.09    7.41
  -5   7   7  117.41   11.68
   5   7   7  106.17   11.64
   5   7   7   95.18   10.61
   5  -7   7  111.79   10.99
   5  -7   7  129.26   12.52
   5   7   8  100.39   11.01
   5   7   8  108.79   11.81
  -5   7   8  120.44   12.18
   5  -7   8  111.01   11.81
   5   7   9  107.27   11.48
   5   7   9  107.65   11.45
  -5   7   9  107.85   11.47
   5  -7   9  128.79   12.75
   5   7  10  150.32   13.60
   5   7  10  161.63   14.30
  -5   7  10  150.05   13.81
   5  -7  10  151.47   13.54
   5   7  11  127.78   12.77
   5   7  11  126.81   12.38
  -5   7  11  113.24   12.15
   5  -7  11  107.81   11.47
   5  -7  12   26.80    6.46
   5   7  12   25.30    6.07
  -5   7  12   36.18    6.88
   5   7  12   29.54    6.33
   5   7  13   30.12    6.47
   5  -7  13   29.41    6.70
  -5   7  13   27.96    6.51
   5   7  13   22.08    5.97
   5   7  14   17.94    5.34
  -5   7  14   20.65    5.44
   5   7  14   24.28    5.53
   5   7  15    9.94    4.47
  -5   7  15    5.64    3.09
   5   7  15    3.48    2.50
   5   7  16   51.38    8.98
   5   7  16   54.59    9.10
  -5   7  16   52.44    8.66
   5   7  17   54.85    9.22
  -5   7  17   50.72    8.96
   5   7  17   52.28    9.34
   5   7  18   51.23    9.00
   5   7  18   55.55    9.20
  -5   7  18   31.79    7.62
  -5   7  19   42.45    8.43
   5   7  19   39.43    7.08
   5   7  20   25.24    6.25
  -5   7  20   21.50    6.92
  -5   7  21   48.82    9.27
   5   7  21   35.48    7.35
   5   7  22   12.59    4.95
  -5   7  22   22.90    7.33
  -5   7  23   -2.38    2.79
   5   7  23    4.12    3.43
  -5   7  23    0.82    2.73
   5  -8 -21    0.06    3.83
   5  -8 -20   -1.36    3.48
   5  -8 -19    1.44    2.56
   5  -8 -19    1.09    2.77
   5  -8 -18   -2.04    3.28
   5  -8 -18    1.00    2.14
   5  -8 -17    4.34    3.93
   5  -8 -17    8.98    5.04
   5  -8 -16    6.86    4.08
   5  -8 -16    1.59    2.63
   5  -8 -15   34.41    7.04
  -5  -8 -15   28.06    7.05
   5  -8 -15   19.80    6.22
   5   8 -14    6.30    3.78
  -5  -8 -14    5.85    4.56
   5  -8 -14    5.32    3.38
   5  -8 -14    0.27    3.26
   5   8 -13    0.80    3.30
   5  -8 -13   -0.26    2.17
   5  -8 -13    0.19    2.56
   5  -8 -12   25.37    5.71
   5   8 -12   25.31    6.15
   5  -8 -12   17.92    5.88
   5   8 -11    1.12    3.68
   5  -8 -11    8.60    3.43
   5  -8 -11    3.00    2.13
   5   8 -10    6.18    3.86
   5  -8 -10    1.25    2.44
   5  -8 -10    7.77    4.44
   5   8  -9    4.56    3.78
  -5   8  -9    0.88    2.12
   5  -8  -9   -1.63    2.73
   5  -8  -9    3.01    2.36
   5  -8  -8   21.71    6.18
   5   8  -8   18.55    4.90
   5  -8  -8   20.82    5.40
  -5   8  -8   19.97    5.12
   5   8  -7   22.52    5.74
   5  -8  -7   23.30    6.50
   5  -8  -7   23.34    5.73
  -5   8  -7   21.40    5.28
   5  -8  -6   34.64    7.30
   5   8  -6   33.66    5.98
   5  -8  -6   46.66    8.40
  -5   8  -6   41.09    7.41
   5   8  -5    1.07    3.35
  -5   8  -5    6.29    3.70
   5  -8  -5    0.70    2.86
   5  -8  -5    1.30    3.06
   5   8  -5   -0.72    1.51
   5   8  -4   26.22    6.12
  -5   8  -4    9.79    4.11
   5  -8  -4   15.02    4.84
   5  -8  -4   14.16    4.71
   5   8  -4   26.87    5.92
   5   8  -3    6.49    2.59
   5   8  -3   17.02    4.73
   5  -8  -3   12.26    4.46
   5  -8  -3    7.30    3.48
  -5   8  -3    7.77    3.64
   5   8  -2   10.50    3.19
   5   8  -2   18.89    5.05
  -5   8  -2   13.22    4.64
   5  -8  -2   16.54    5.29
   5  -8  -2   18.07    5.41
   5   8  -1   -0.09    2.24
  -5   8  -1    1.77    2.37
   5   8  -1    4.06    3.64
   5  -8  -1    1.49    2.65
   5  -8  -1    1.99    3.76
   5  -8   0  114.71   12.58
   5   8   0   85.01   10.45
  -5   8   0  101.25   11.30
   5  -8   0  117.53   11.84
   5   8   0  108.85   11.66
   5  -8   1    2.08    2.73
   5   8   1    2.46    2.18
   5   8   1    3.69    3.53
   5  -8   1    0.28    2.77
  -5   8   1    3.15    2.52
   5   8   2   12.33    3.36
   5   8   2   14.76    5.24
   5  -8   2    5.41    1.94
  -5   8   2   16.97    5.41
   5  -8   2   10.56    4.58
   5   8   3   15.53    4.57
   5   8   3    4.98    2.03
  -5   8   3    9.72    3.81
   5  -8   3    9.83    4.45
   5   8   4   27.34    6.14
  -5   8   4   21.55    4.96
   5   8   4   11.36    3.90
   5  -8   4   32.31    6.74
   5   8   5   -1.53    3.57
   5  -8   5    2.31    2.72
  -5   8   5    3.48    3.40
   5   8   5   -1.14    2.21
   5   8   6   27.87    6.17
   5   8   6   39.52    7.32
  -5   8   6   28.36    6.40
   5  -8   6   31.14    6.41
   5   8   7   31.61    6.25
   5   8   7   17.61    4.79
  -5   8   7   18.42    5.23
   5  -8   7   19.68    5.50
   5   8   8   27.98    6.23
   5   8   8   13.13    3.84
  -5   8   8   22.56    5.55
   5  -8   8   11.73    4.17
   5   8   9    0.64    2.68
   5   8   9   -1.14    1.73
  -5   8   9    2.43    2.85
   5  -8   9   -1.81    2.78
   5   8  10    7.13    3.66
  -5   8  10    6.12    3.03
   5  -8  10    2.61    2.48
  -5   8  11    4.34    1.78
   5   8  11    3.92    2.70
   5   8  11    8.00    3.54
   5  -8  11    1.07    2.05
   5   8  12   19.40    5.53
   5   8  12   19.96    4.50
   5  -8  12   15.46    5.15
  -5   8  12   15.95    4.96
   5   8  13    4.11    1.90
   5   8  13    0.04    2.41
  -5   8  13   -3.06    4.02
   5   8  14    2.51    3.63
  -5   8  14    5.77    3.78
   5   8  14    1.25    2.31
   5   8  15   34.32    6.86
  -5   8  15   31.87    7.16
   5   8  15   33.79    7.53
   5   8  16    3.18    4.50
   5   8  16    4.64    2.63
  -5   8  16    6.39    3.70
   5   8  17   10.01    4.35
  -5   8  17   15.17    5.99
   5   8  17    4.23    3.65
   5   8  18   -2.65    3.40
   5   8  18   -0.72    2.72
  -5   8  18    4.99    4.09
   5   8  19    0.53    2.83
   5   8  19    2.41    2.69
  -5   8  19    1.66    3.52
   5   8  20   -5.35    3.94
  -5   8  20    0.58    2.19
   5   8  21    2.36    2.60
  -5   8  21    5.68    3.69
   5  -9 -18   27.71    7.28
   5  -9 -18    9.00    4.10
   5  -9 -17   34.70    8.14
   5  -9 -17   16.32    4.88
   5  -9 -16   52.40    9.65
   5  -9 -16   49.97    9.05
   5  -9 -15   17.43    6.22
   5  -9 -15    3.93    3.73
   5  -9 -14    8.63    4.87
   5  -9 -14   17.27    5.94
   5   9 -13   17.77    4.88
   5  -9 -13   13.31    4.99
   5  -9 -13   11.94    4.94
   5  -9 -12   40.36    7.66
   5  -9 -12   29.71    7.14
   5   9 -12   38.24    8.47
   5   9 -11   64.70    9.67
   5  -9 -11   51.81    8.97
   5  -9 -11   52.21    9.57
   5   9 -10   47.14    8.20
   5  -9 -10   51.51    8.91
   5  -9 -10   50.50    8.92
   5   9  -9   35.15    7.52
   5  -9  -9   36.09    7.74
   5  -9  -9   46.68    7.99
   5   9  -8   25.24    5.57
  -5   9  -8   39.99    7.87
   5  -9  -8   27.57    6.76
   5  -9  -8   33.48    6.83
   5  -9  -7   65.07   10.37
   5   9  -7   75.19   10.37
  -5   9  -7   71.13   10.55
   5  -9  -7   93.21   11.66
   5  -9  -6   13.80    5.67
   5   9  -6   21.74    5.32
  -5   9  -6   14.40    5.36
   5  -9  -6   27.09    6.89
   5   9  -5  113.84   12.09
  -5   9  -5  106.67   12.29
   5  -9  -5   95.49   11.22
   5  -9  -5  113.03   12.66
   5   9  -4   42.84    7.91
  -5   9  -4   39.55    7.99
   5  -9  -4   57.42    9.24
   5  -9  -4   29.25    7.06
   5   9  -3    2.12    1.63
   5   9  -3    4.52    3.34
  -5   9  -3    5.25    3.03
   5  -9  -3    0.95    2.09
   5   9  -2    9.72    3.63
   5  -9  -2   15.31    4.76
   5   9  -2   25.66    6.62
  -5   9  -2   14.07    4.36
   5  -9  -1  114.43   12.96
  -5   9  -1  107.12   12.43
   5   9  -1  140.55   13.93
   5   9  -1  102.38   11.77
   5   9   0   43.37    8.10
  -5   9   0   43.80    7.97
   5   9   0   50.24    8.19
   5  -9   0   49.17    9.27
   5   9   1   98.57   12.09
  -5   9   1  123.48   13.19
   5   9   1  105.19   12.03
   5  -9   1  123.48   13.48
  -5   9   2   35.09    7.89
   5   9   2   23.13    5.50
   5   9   2   17.34    5.19
   5  -9   2   20.47    5.46
   5   9   3    3.54    3.11
   5   9   3    3.97    3.12
   5  -9   3   -0.49    2.42
  -5   9   3    2.74    2.26
   5   9   4   37.15    7.37
   5   9   4   46.02    8.39
  -5   9   4   52.15    8.59
   5  -9   4   49.91    8.94
   5   9   5  126.02   13.19
  -5   9   5   77.32   10.34
   5   9   5  103.73   11.85
   5  -9   5  113.01   12.83
   5   9   6   23.16    5.45
  -5   9   6    5.61    2.75
   5   9   6   16.76    5.42
   5  -9   6   13.06    3.92
   5   9   7   75.50   10.26
   5   9   7   97.91   11.61
  -5   9   7   86.65   11.05
   5  -9   7   66.79   10.31
   5  -9   8   34.45    7.38
  -5   9   8   38.78    7.74
   5   9   8   33.29    6.96
   5   9   8   33.97    7.38
   5  -9   9   31.69    7.99
   5   9   9   38.71    7.61
   5   9   9   46.80    8.74
  -5   9   9   50.25    8.75
   5   9  10   50.87    8.56
   5   9  10   52.70    9.09
  -5   9  10   43.38    7.57
   5  -9  10   33.37    7.97
   5   9  11   49.27    8.64
   5   9  11   54.41    9.16
  -5   9  11   66.67    9.70
   5   9  12   27.99    6.75
  -5   9  12   34.60    6.93
   5   9  12   44.68    7.61
  -5   9  13   10.78    4.81
   5   9  13   13.15    5.65
   5   9  13   19.16    5.85
   5   9  14   11.63    5.01
  -5   9  14   12.18    5.04
   5   9  14   17.05    6.19
  -5   9  15   19.71    6.31
   5   9  15   17.65    6.25
   5   9  15   14.28    4.43
  -5   9  16   46.50    8.18
   5   9  16   31.51    6.77
   5   9  17   24.50    6.93
   5   9  17   16.65    4.81
  -5   9  17   14.52    5.41
   5   9  18   30.72    8.06
   5   9  18   21.96    6.93
  -5   9  18   21.18    6.86
   5 -10 -14    2.25    3.70
   5 -10 -14   -4.19    3.58
   5 -10 -13   -6.05    4.67
   5 -10 -13    2.87    3.33
   5  10 -12    8.82    4.41
   5 -10 -12   -3.09    3.32
   5 -10 -12   12.76    5.94
   5  10 -11    8.56    2.99
   5 -10 -11    7.97    4.41
   5  10 -10   22.38    6.08
   5 -10 -10   26.04    6.67
   5  10  -9    3.66    2.85
   5 -10  -9   -1.26    2.19
   5 -10  -8    2.68    2.86
   5  10  -8    2.15    2.41
   5 -10  -7    4.85    2.70
   5  10  -7   -3.41    3.23
  -5  10  -7    7.80    4.69
  -5  10  -6    2.15    2.01
   5 -10  -6   -1.27    2.30
   5  10  -5    3.94    3.37
   5 -10  -5   15.07    6.00
  -5  10  -5   13.90    5.45
   5  10  -4   -4.79    2.67
  -5  10  -4    0.07    2.69
   5 -10  -4    0.89    1.96
  -5  10  -3    4.65    4.18
   5  10  -3    3.59    5.22
   5 -10  -3    5.88    4.48
   5  10  -2   13.69    5.13
  -5  10  -2   16.49    4.40
   5  10  -2   17.41    5.42
   5 -10  -2   22.02    6.32
   5  10  -1   29.63    6.93
  -5  10  -1   16.48    5.42
   5  10  -1   11.05    4.68
   5 -10  -1   13.99    5.35
   5  10   0    2.15    3.36
   5  10   0    3.78    3.82
  -5  10   0    5.54    4.44
   5 -10   0    0.97    2.20
   5  10   1   19.22    5.38
   5  10   1   30.42    7.07
  -5  10   1   31.98    7.19
   5 -10   1   24.49    6.50
   5  10   2   17.82    5.59
  -5  10   2   10.04    3.87
   5 -10   2   20.16    6.22
   5  10   2   16.36    4.49
   5  10   3    3.71    2.99
   5  10   3    8.87    3.68
  -5  10   3    4.23    3.88
   5 -10   3    4.80    2.15
   5  10   4    0.25    1.58
   5 -10   4    1.24    2.69
   5  10   4   -0.37    3.08
  -5  10   4   -0.39    2.55
  -5  10   5   11.96    3.86
   5  10   5   13.58    5.61
   5 -10   5   10.73    4.28
   5  10   5    8.26    3.53
   5  10   6    3.42    2.69
  -5  10   6   -0.89    3.76
   5 -10   6    9.64    5.36
   5  10   6    9.01    4.94
   5  10   7    0.57    2.42
  -5  10   7    5.05    2.11
   5 -10   7   -2.90    2.80
   5  10   7    5.14    3.58
   5  10   8    9.49    4.90
  -5  10   8    0.51    2.16
   5 -10   8    4.23    3.76
   5  10   8    5.43    3.75
   5  10   9    4.02    5.06
  -5  10   9   -2.02    3.55
   5  10   9   -2.21    2.38
   5  10  10   26.80    6.57
   5  10  10   23.18    5.84
  -5  10  10   21.13    5.84
   5  10  11   -1.43    2.89
  -5  10  11   -0.44    3.30
   5  10  11    2.90    1.86
   5  10  12    5.54    4.62
  -5  10  12    2.74    1.60
   5  10  12    1.39    2.04
  -5  10  13   -3.27    4.17
   5  10  13   -2.50    3.39
   5  10  13    1.93    2.85
   5  10  14   -1.04    3.64
  -5  10  14    2.33    2.19
   5  10  14   -4.35    4.03
   5  11  -7    7.25    5.14
  -5  11  -7   -0.71    4.97
   5 -11  -7    0.37    2.65
   5  11  -6    2.66    3.65
  -5  11  -6   -3.22    5.06
   5  11  -5   23.39    6.96
  -5  11  -5   22.68    6.26
   5 -11  -5    6.56    2.95
   5  11  -4    0.91    1.80
  -5  11  -4    3.59    2.92
   5 -11  -4   -2.51    3.91
   5  11  -3   -0.92    1.81
  -5  11  -3    2.44    2.52
   5 -11  -3   -1.78    3.64
   5  11  -2    9.49    5.27
  -5  11  -2    0.60    3.42
   5 -11  -2    5.77    2.07
   5  11  -1   -2.01    2.44
  -5  11  -1   -0.09    3.45
   5 -11  -1    2.07    3.20
  -5  11   0   19.93    6.27
   5  11   0   13.23    5.32
   5  11   0   10.13    4.60
   5 -11   0   22.31    6.24
  -5  11   1    3.11    3.51
   5 -11   1    2.88    3.29
   5  11   1    1.88    2.74
   5  11   1    0.88    4.01
   5  11   2    8.11    3.92
   5  11   2    9.05    4.47
  -5  11   2    2.98    3.06
   5 -11   2    3.04    4.06
   5  11   3    5.21    5.23
  -5  11   3   -1.14    2.07
   5 -11   3    0.85    4.45
   5  11   3    2.77    2.78
   5  11   4    2.45    2.39
   5 -11   4    1.51    3.43
   5  11   4    0.18    2.62
   5  11   5   17.17    6.29
  -5  11   5    6.75    3.92
   5 -11   5   23.71    7.27
   5  11   5   21.98    7.71
   5  11   6    2.31    2.78
   5  11   6    8.50    2.18
  -5  11   6    7.49    3.17
   5 -11   6    5.80    4.52
   5  11   7   -1.12    3.93
  -5  11   7    7.17    4.13
   5 -11   7    0.37    4.80
   5  11   7    2.19    2.53
   6   0 -29    9.67    5.07
   6   0 -28  179.08   16.42
   6   0 -27   52.12    8.40
   6   0 -26    6.31    3.42
   6   0 -25   39.70    7.74
   6   0 -24  169.34   15.33
   6   0 -23   12.18    4.05
   6   0 -22  144.45   13.90
   6   0 -21   38.63    7.41
   6   0 -20    6.22    3.82
   6   0 -19   33.74    6.38
   6   0 -18   17.30    4.05
   6   0 -17  189.38   13.69
   6   0 -16 1832.22   42.39
   6   0 -15  372.69   18.70
   6   0 -14 1037.48   30.57
   6   0 -14  966.74   22.93
   6   0 -13  196.42   12.97
   6   0 -13  207.70   10.40
   6   0 -12  156.22   11.40
   6   0 -12  160.18    9.22
   6   0 -11  134.10   10.40
   6   0 -11  147.83    8.64
   6   0 -10  673.01   22.46
   6   0 -10  734.36   19.06
   6   0  -9  501.79   15.66
   6   0  -9  499.40   18.89
   6   0  -8  187.02    9.69
   6   0  -8  202.13   11.87
   6   0  -8  166.38   10.69
   6   0  -7  140.13    8.51
   6   0  -7  152.64   10.02
   6   0  -7  141.29    9.81
   6   0  -6  725.84   18.96
   6   0  -6  701.25   21.07
   6   0  -6  679.88   20.82
   6   0  -5 2019.38   32.13
   6   0  -5 2000.25   35.43
   6   0  -4 1122.83   23.66
   6   0  -4 1115.94   25.61
   6   0  -4 1109.66   25.75
   6   0  -3 1048.60   23.02
   6   0  -3 1096.62   25.17
   6   0  -3 1108.43   25.09
   6   0  -2 5337.33   54.04
   6   0  -2 5293.88   52.37
   6   0  -1 1923.90   33.06
   6   0  -1 1958.27   32.03
   6   0  -1 1847.00   31.27
   6   0   0  642.14   18.06
   6   0   0  656.53   18.83
   6   0   1 1864.01   32.01
   6   0   1 1864.07   30.32
   6   0   2 5354.35   50.68
   6   0   2 5182.98   54.57
   6   0   3 1067.15   25.04
   6   0   3 1154.79   23.17
   6   0   4 1118.16   25.99
   6   0   4 1147.08   22.79
   6   0   5 2012.54   35.44
   6   0   5 2048.65   30.59
   6   0   6  679.73   20.82
   6   0   6  702.26   17.39
   6   0   7  146.52    7.73
   6   0   7  153.13    9.99
   6   0   8  172.96   10.99
   6   0   8  180.71    8.48
   6   0   9  489.72   13.55
   6   0   9  470.83   18.32
   6   0  10  678.33   15.84
   6   0  10  696.85   22.79
   6   0  11  164.63    7.58
   6   0  11  159.90   11.19
   6   0  12  144.68    6.75
   6   0  12  152.99   11.09
   6   0  13  196.20    7.45
   6   0  13  188.05   12.41
   6   0  14 1052.87   30.23
   6   0  15  417.25   19.32
   6   0  16 1684.40   40.29
   6   0  17  167.08   12.62
   6   0  18   10.67    3.49
   6   0  19   40.91    6.74
   6   0  20    1.97    1.99
   6   0  21   40.19    7.12
   6   0  22  175.75   14.83
   6  -1 -29    5.58    3.43
   6  -1 -28   10.11    5.24
   6  -1 -27   -0.84    1.87
   6  -1 -26   26.85    6.14
   6   1 -25   13.56    5.19
   6  -1 -25   21.90    6.28
   6   1 -24   13.35    4.02
   6  -1 -24    3.54    2.38
   6   1 -23   43.73    7.61
   6  -1 -23   37.51    7.30
   6  -1 -22   16.70    4.94
   6   1 -22   13.18    4.36
   6  -1 -21   33.50    6.37
   6   1 -21   31.16    5.63
   6   1 -20  111.96   11.25
   6  -1 -20   94.75   10.55
   6   1 -19   36.61    6.60
   6  -1 -19   50.25    7.33
   6   1 -18   20.06    4.99
   6  -1 -18   20.77    5.21
   6   1 -17   25.97    5.14
   6  -1 -17   23.93    5.59
   6   1 -16   32.10    5.49
   6  -1 -16   31.12    6.22
   6  -1 -16   22.57    4.41
   6   1 -15  117.72   10.11
   6  -1 -15  106.80    8.51
   6   1 -14  347.26   16.94
   6  -1 -14  358.90   18.57
   6  -1 -14  346.76   15.65
   6  -1 -13   48.52    6.68
   6   1 -13   34.66    5.28
   6  -1 -13   34.91    5.06
   6   1 -13   42.63    6.16
   6  -1 -12   98.95    9.40
   6   1 -12   86.97    7.94
   6  -1 -12   90.14    7.68
   6   1 -12  104.86    9.18
   6   1 -12   88.39    5.65
   6   1 -11  107.52    8.90
   6  -1 -11   98.65    8.95
   6  -1 -11   84.43    7.45
   6   1 -11   88.99    8.18
   6   1 -11   91.22    5.84
   6  -1 -10    5.49    1.86
   6   1 -10    3.97    1.29
   6   1 -10    2.88    1.84
   6  -1 -10    5.73    3.02
   6   1 -10    6.87    1.90
   6   1  -9   56.15    4.91
   6  -1  -9   64.28    6.87
   6   1  -9   59.42    6.42
   6   1  -9   53.01    5.70
   6  -1  -9   49.84    5.45
   6  -1  -8   41.24    5.01
   6   1  -8   42.54    4.18
   6   1  -8   44.80    5.36
   6  -1  -8   55.53    6.55
   6   1  -8   39.29    5.34
   6  -1  -7  343.02   14.25
   6   1  -7  339.89   12.16
   6  -1  -7  341.55   15.82
   6   1  -7  332.10   13.99
   6   1  -7  333.92   14.99
   6  -1  -6  561.84   18.27
   6   1  -6  588.63   15.93
   6  -1  -6  533.59   19.50
   6   1  -6  535.45   17.38
   6   1  -6  535.47   18.37
   6  -1  -5  723.50   20.52
   6   1  -5  706.57   19.84
   6  -1  -5  705.17   21.77
   6   1  -5  746.00   18.20
   6   1  -5  694.75   20.97
   6  -1  -4  140.19    9.14
   6   1  -4  145.34    8.76
   6   1  -4  129.69    7.71
   6   1  -4  144.63    9.42
   6  -1  -4  147.73    9.93
   6   1  -3   97.59    7.13
   6   1  -3   96.87    6.75
   6   1  -3  101.33    7.79
   6  -1  -3  118.07    8.32
   6  -1  -3   96.98    7.91
   6   1  -2    2.72    1.48
   6   1  -2    1.60    1.05
   6  -1  -2    1.28    0.86
   6  -1  -2    3.08    1.68
   6   1  -2    4.35    1.97
   6   1  -1    9.11    2.39
   6   1  -1   14.56    2.96
   6  -1  -1   16.44    3.01
   6  -1  -1   21.35    3.74
   6   1   0    3.63    1.51
   6   1   0    4.09    2.05
   6  -1   0    2.09    1.04
   6  -1   0    1.76    0.80
   6   1   1   16.16    2.96
   6  -1   1   17.98    3.21
   6   1   1   14.06    2.91
   6   1   2    1.95    1.22
   6  -1   2    1.62    1.75
   6   1   2    2.41    1.53
   6   1   3   98.83    7.58
   6  -1   3  108.98    8.19
   6   1   3  101.38    7.33
   6   1   4  141.34    9.30
   6  -1   4  139.91    9.29
   6   1   4  143.30    8.58
   6   1   5  725.84   21.71
   6   1   5  721.11   19.08
   6  -1   5  722.79   21.39
   6   1   6  531.45   16.12
   6   1   6  539.48   18.95
   6  -1   6  508.71   18.27
   6   1   7  352.93   13.00
   6   1   7  337.22   15.18
   6  -1   7  342.29   15.15
   6   1   8   35.28    4.09
   6   1   8   45.88    5.71
   6  -1   8   43.38    5.70
   6   1   9   61.81    5.34
   6   1   9   50.69    6.16
   6  -1   9   54.68    6.49
   6  -1  10    6.01    1.88
   6   1  10    5.29    1.55
   6   1  10    7.20    2.64
   6  -1  11   87.02    8.14
   6   1  11  104.72    8.99
   6   1  11   97.35    6.64
   6  -1  12   97.29    8.64
   6   1  12   77.38    8.12
   6   1  12   88.77    6.38
   6   1  13   28.91    3.67
   6   1  13   43.81    6.28
   6  -1  13   36.64    5.61
   6  -1  14  332.08   16.62
   6   1  14  322.46   17.20
   6   1  14  330.79   11.88
   6   1  15  111.62   10.19
   6  -1  15  130.51   10.86
   6   1  15  100.89    6.54
   6   1  16   29.33    5.03
   6  -1  16   32.78    5.37
   6   1  17   27.06    5.29
   6  -1  17   25.19    5.49
   6   1  18   18.42    4.58
   6  -1  18   27.42    5.54
   6  -1  19   39.24    6.93
   6   1  19   39.83    7.09
   6   1  20  105.56   10.94
   6  -1  20  105.81   11.00
   6  -1  21   47.00    6.91
   6   1  21   36.81    7.39
   6   1  22   18.81    5.04
   6   1  23   42.57    7.29
   6  -2 -29   12.89    5.60
   6  -2 -28   62.57    9.73
   6  -2 -27    5.51    3.22
   6  -2 -26    3.41    3.93
   6  -2 -25    3.43    3.50
   6  -2 -24   58.59    9.31
   6  -2 -23    5.52    3.36
   6  -2 -22   13.45    4.13
   6  -2 -21    6.72    3.27
   6   2 -20   36.83    7.29
   6  -2 -20   28.49    6.20
   6   2 -19    1.89    1.67
   6  -2 -19    1.63    1.40
   6   2 -18   33.18    5.98
   6  -2 -18   22.13    5.34
   6   2 -17    1.32    1.62
   6  -2 -17    3.28    4.01
   6   2 -17    2.29    1.59
   6  -2 -17    1.06    1.57
   6   2 -16  257.62   14.86
   6  -2 -16  221.92   14.29
   6  -2 -16  243.19   16.35
   6   2 -16  253.39   15.41
   6   2 -15  155.30   11.12
   6  -2 -15  179.60   12.39
   6  -2 -15  165.23   13.24
   6   2 -15  164.33   12.13
   6   2 -14  550.64   20.41
   6  -2 -14  593.73   24.45
   6  -2 -14  585.61   22.49
   6   2 -14  611.76   22.70
   6   2 -13   60.72    6.83
   6  -2 -13   40.45    6.03
   6  -2 -13   53.70    6.80
   6   2 -13   55.63    6.62
   6   2 -12   91.82    7.98
   6   2 -12  112.13    9.25
   6  -2 -12  111.95    9.53
   6  -2 -12   91.41    9.44
   6   2 -11   90.75    7.60
   6  -2 -11   88.01    8.96
   6  -2 -11   91.91    8.40
   6   2 -11   91.83    8.38
   6   2 -10   61.96    4.46
   6  -2 -10   61.41    7.30
   6   2 -10   57.60    6.05
   6  -2 -10   53.30    6.57
   6   2 -10   60.58    6.89
   6   2  -9    3.90    1.83
   6  -2  -9    7.01    2.53
   6  -2  -9    5.99    2.62
   6   2  -9    5.39    2.00
   6   2  -9    5.00    1.24
   6   2  -8   18.76    4.02
   6   2  -8   18.17    2.64
   6   2  -8   14.52    2.98
   6  -2  -8   22.43    4.11
   6  -2  -8   23.28    4.10
   6   2  -7    9.45    2.03
   6  -2  -7   13.77    3.31
   6   2  -7    7.98    1.78
   6  -2  -7   15.39    3.32
   6   2  -7   10.79    2.31
   6  -2  -6  252.26   13.30
   6   2  -6  247.82   13.15
   6   2  -6  235.31   10.73
   6  -2  -6  239.79   13.65
   6   2  -6  248.29   10.24
   6   2  -5   65.29    6.64
   6  -2  -5   62.44    6.62
   6   2  -5   87.20    6.23
   6   2  -5   63.42    5.49
   6  -2  -5   74.70    7.64
   6   2  -4    5.17    2.22
   6  -2  -4    3.99    1.97
   6   2  -4    3.64    1.04
   6  -2  -4    5.16    2.27
   6   2  -4    8.04    2.06
   6   2  -3   51.14    5.94
   6   2  -3   52.28    4.93
   6  -2  -3   49.02    5.80
   6  -2  -3   47.51    6.02
   6   2  -3   48.21    4.67
   6   2  -2  450.56   15.26
   6  -2  -2  450.47   17.58
   6   2  -2  411.54   16.32
   6  -2  -2  442.12   17.72
   6   2  -2  469.32   14.94
   6   2  -1   84.66    7.27
   6   2  -1   80.81    6.60
   6  -2  -1   80.97    7.39
   6  -2  -1   74.60    7.12
   6   2   0   -0.16    0.73
   6  -2   0    0.29    0.94
   6  -2   0    1.62    1.32
   6  -2   1   71.08    7.02
   6   2   1   72.77    6.71
   6  -2   1   73.49    7.00
   6   2   1   76.58    6.64
   6   2   2  445.69   16.45
   6   2   2  474.73   17.16
   6  -2   2  484.13   18.38
   6   2   3   55.27    5.84
   6  -2   3   46.21    6.01
   6   2   3   51.00    5.80
   6  -2   4    5.08    2.18
   6   2   4    4.58    2.29
   6   2   4    4.04    2.06
   6   2   5   79.02    6.70
   6   2   5   80.45    7.62
   6   2   6  226.12   11.64
   6  -2   6  233.05   12.70
   6   2   6  245.51   13.38
   6   2   7   17.39    3.14
   6   2   7   16.80    3.72
   6  -2   7   11.76    2.75
   6   2   8   15.62    3.37
   6  -2   8   19.74    3.92
   6   2   9    4.03    1.69
   6  -2   9    2.45    1.27
   6   2   9    6.79    2.47
   6   2  10   67.65    6.28
   6   2  10   68.51    7.53
   6  -2  10   67.10    7.34
   6   2  11   74.58    6.72
   6  -2  11   80.90    8.30
   6   2  12   76.36    6.96
   6   2  12  101.31    9.44
   6  -2  12   81.64    8.26
   6   2  13   52.05    5.67
   6   2  13   34.73    5.51
   6  -2  13   53.83    6.71
   6  -2  14  588.96   22.81
   6   2  14  577.99   18.83
   6   2  14  574.69   23.72
   6   2  15  145.69    9.32
   6   2  15  173.76   13.25
   6  -2  15  147.64   11.50
   6   2  16  220.65   15.53
   6  -2  16  214.85   14.39
   6  -2  17    0.55    1.18
   6   2  17    3.47    1.76
   6   2  18   33.87    5.83
   6  -2  18   25.52    4.96
   6   2  19    1.17    1.42
   6  -2  19    1.47    1.79
   6  -2  20   34.92    6.05
   6   2  20   24.47    5.33
   6   2  21    4.02    3.41
   6   2  22    8.23    3.90
   6   2  23    2.97    2.77
   6   2  24   59.63    9.18
   6   2  25    5.71    3.57
   6  -3 -28    3.65    2.01
   6  -3 -27   17.03    5.32
   6  -3 -26   16.78    5.80
   6  -3 -25   56.12    9.19
   6  -3 -24   12.87    5.17
   6  -3 -23    8.65    4.21
   6  -3 -22    7.32    2.55
   6  -3 -21   10.53    3.46
   6  -3 -20   36.82    6.77
   6  -3 -19  107.25   11.77
   6  -3 -18   51.77    8.18
   6  -3 -18   51.22    7.72
   6  -3 -17  146.79   12.67
   6   3 -17  141.40   11.99
   6  -3 -17  119.33   11.76
   6  -3 -16   65.66    8.97
   6  -3 -16   49.18    7.55
   6   3 -16   79.84    8.66
   6  -3 -15   38.05    6.51
   6  -3 -15   28.13    5.47
   6   3 -15   27.93    5.21
   6  -3 -14  185.28   14.23
   6   3 -14  199.85   13.40
   6  -3 -14  220.59   14.81
   6  -3 -13   68.29    8.17
   6   3 -13   52.77    5.57
   6  -3 -13   65.49    8.29
   6   3 -13   68.05    7.83
   6  -3 -12   82.27    9.58
   6   3 -12   80.50    6.81
   6  -3 -12   78.92    8.77
   6   3 -12   77.70    8.33
   6   3 -11  180.77    9.73
  -6   3 -11  158.18    8.46
   6  -3 -11  157.58   12.73
   6  -3 -11  188.29   13.22
   6   3 -11  175.74   12.44
   6  -3 -10   23.59    4.71
   6   3 -10   24.82    3.68
   6  -3 -10   28.66    5.67
   6   3 -10   28.89    3.26
   6   3 -10   27.85    4.90
   6  -3  -9   66.86    7.87
   6   3  -9   67.00    4.92
   6  -3  -9   62.39    7.65
   6   3  -9   58.33    6.88
   6   3  -8   70.65    5.63
   6   3  -8   61.07    5.09
   6  -3  -8   76.52    8.28
   6  -3  -8   51.02    6.83
   6   3  -8   61.16    7.33
   6   3  -7  374.66   12.99
   6   3  -7  364.21   16.91
   6   3  -7  341.26   11.84
   6  -3  -7  334.28   16.81
   6   3  -6  337.78   16.31
   6  -3  -6  372.45   17.85
   6   3  -6  342.73   12.96
   6   3  -6  341.10   11.74
   6  -3  -6  344.55   16.79
   6   3  -5  485.75   19.02
   6   3  -5  485.24   13.79
   6   3  -5  468.07   15.44
   6  -3  -5  522.76   20.84
   6  -3  -5  446.26   18.99
   6   3  -4  282.74   14.58
   6   3  -4  299.52   11.02
   6  -3  -4  307.74   15.49
   6  -3  -3  749.52   24.50
   6  -3  -3  740.21   23.85
   6   3  -3  707.93   22.64
   6   3  -3  761.02   20.74
   6   3  -3  741.17   17.43
   6  -3  -2   87.26    8.27
   6   3  -2   92.50    7.31
   6   3  -2   99.65    8.65
   6  -3  -2   81.24    8.10
   6   3  -1   75.59    7.16
   6  -3  -1   84.12    8.12
   6   3  -1   92.87    7.39
   6  -3  -1   91.30    8.49
   6  -3   0   50.87    6.48
   6  -3   0   50.07    6.27
   6   3   0   44.79    5.54
   6   3   1   90.26    8.01
   6  -3   1   95.50    8.43
   6  -3   1   79.80    7.46
   6   3   1   95.71    7.99
   6   3   2   82.84    7.48
   6  -3   2   88.74    8.07
   6   3   3  708.44   22.22
   6  -3   3  752.51   24.20
   6   3   3  675.98   21.88
   6  -3   3  718.65   23.35
   6   3   4  311.37   14.85
   6  -3   4  346.08   16.27
   6   3   4  300.77   14.82
   6  -3   4  315.24   15.36
   6   3   5  451.45   17.84
   6  -3   5  468.51   19.11
   6   3   5  442.25   18.42
   6   3   6  380.64   16.27
   6  -3   6  356.45   16.82
   6   3   6  343.16   16.42
   6   3   7  373.73   16.13
   6  -3   7  335.59   16.39
   6   3   7  374.33   17.47
   6  -3   8   61.68    7.37
   6   3   8   66.46    6.98
   6   3   8   74.56    7.75
   6  -3   9   49.57    6.21
   6   3   9   68.42    7.64
   6   3   9   68.86    6.94
   6   3  10   32.26    4.85
   6  -3  10   29.44    4.87
   6   3  10   21.89    4.37
   6   3  11  164.94   12.24
   6   3  11  167.13   11.07
   6  -3  11  141.40   10.97
   6   3  12   78.72    7.61
   6  -3  12   84.97    8.57
   6   3  12   66.54    7.68
   6   3  13   72.77    7.26
   6  -3  13   75.33    8.36
   6   3  13   63.67    7.78
   6   3  14  207.93   12.52
   6  -3  14  205.35   13.85
   6   3  14  200.40   14.23
   6   3  15   27.49    4.56
   6  -3  15   32.98    6.15
   6   3  15   38.03    6.67
   6   3  16   48.49    6.27
   6  -3  16   59.21    7.77
   6   3  16   73.43    9.02
   6  -3  17  129.16   11.67
   6   3  17  141.00   12.92
   6  -3  18   51.28    7.58
   6   3  18   65.75    8.98
   6   3  19  101.95   11.21
   6   3  20   43.90    7.82
   6   3  21    4.42    3.52
   6   3  22   -0.16    1.96
   6   3  23    5.38    3.31
   6   3  24    5.83    2.85
   6   3  25   49.37    9.29
   6   3  26   27.38    7.11
   6  -4 -27   -0.33    2.76
   6  -4 -26   10.30    2.98
   6  -4 -25    5.03    2.35
   6  -4 -24   72.52   11.11
   6  -4 -23   24.52    5.49
   6  -4 -22   26.24    6.12
   6  -4 -21   39.31    7.76
   6  -4 -20   36.59    7.66
   6  -4 -20   28.34    6.02
   6  -4 -19    3.80    3.69
   6  -4 -19    0.69    2.51
   6  -4 -18  222.98   16.65
   6  -4 -18  217.39   16.57
   6  -4 -17   59.64    8.70
   6  -4 -17   72.55    9.31
   6   4 -17   70.90    8.72
   6  -4 -16   38.16    6.29
   6  -4 -16   44.44    7.27
   6   4 -16   50.73    7.56
   6  -4 -15   50.98    7.69
   6   4 -15   49.51    7.03
   6  -4 -15   49.57    7.89
   6   4 -14   12.12    3.18
   6  -4 -14    8.13    3.24
   6  -4 -14   12.51    4.44
   6  -4 -13   81.79    9.56
   6  -4 -13   90.34   10.20
   6   4 -13   87.99    9.17
   6  -4 -12  441.69   21.91
   6  -4 -12  396.84   20.61
   6   4 -12  378.19   18.77
  -6   4 -11  143.65    9.72
   6  -4 -11  174.02   13.39
   6  -4 -11  135.40   12.23
   6   4 -11  151.46   11.93
   6   4 -10   36.53    6.02
  -6   4 -10   34.02    4.52
   6  -4 -10   49.04    7.26
   6  -4 -10   38.87    6.30
   6   4  -9  113.39   10.03
   6   4  -9  117.35    7.41
   6  -4  -9  125.03   11.18
  -6   4  -9  112.82    8.54
   6  -4  -9  105.22   10.28
   6   4  -8  461.93   15.67
   6  -4  -8  511.79   22.17
   6   4  -8  511.45   21.25
   6  -4  -8  487.30   22.18
   6   4  -7   35.26    5.73
   6   4  -7   31.45    4.22
   6  -4  -7   36.53    5.96
   6  -4  -7   37.22    6.03
   6   4  -6   67.94    7.97
   6   4  -6   72.88    4.49
   6   4  -6   72.15    6.54
   6  -4  -6   75.87    8.61
   6  -4  -6   73.71    8.61
   6   4  -5  521.20   21.30
   6  -4  -5  523.63   21.68
   6   4  -5  530.84   12.35
   6   4  -5  523.77   17.72
   6  -4  -5  547.28   22.44
   6  -4  -4    1.82    1.86
   6   4  -4    2.72    1.98
   6   4  -4    0.88    1.21
   6   4  -4    0.40    0.65
   6  -4  -4    2.42    2.49
   6   4  -3  192.29   12.98
   6  -4  -3  201.18   13.33
   6   4  -3  235.58   12.37
   6   4  -3  232.30    8.92
   6  -4  -3  216.63   13.75
   6   4  -2  111.77    9.69
   6   4  -2  100.19    8.48
   6  -4  -2  118.52   10.38
   6  -4  -2  104.61    9.56
   6   4  -1   88.66    8.51
   6   4  -1   93.20    7.82
   6  -4  -1   73.75    8.07
   6  -4  -1   85.95    8.71
   6  -4   0  117.27   10.12
   6   4   0  137.04   10.51
   6  -4   0  139.58   10.66
   6   4   0  140.18    9.91
   6  -4   1   86.87    8.60
   6   4   1   94.44    8.80
   6  -4   1   91.12    8.85
   6   4   1   74.88    7.53
   6  -4   2  110.62    9.87
   6   4   2  106.45    9.11
   6   4   2  115.10    9.83
   6  -4   2   88.03    8.58
   6  -4   3  215.68   13.90
   6   4   3  212.19   13.27
   6  -4   3  231.75   13.84
   6   4   3  227.13   13.55
   6   4   4    3.02    1.47
   6   4   4    2.28    1.60
   6  -4   4    3.29    2.08
   6  -4   4    3.30    1.60
   6  -4   5  506.29   21.27
   6   4   5  551.38   21.26
   6  -4   5  489.98   20.35
   6   4   5  522.84   20.97
   6  -4   6   81.55    8.57
   6   4   6   76.86    8.14
   6  -4   6   70.79    7.63
   6   4   6   83.85    8.56
   6  -4   7   36.01    5.81
   6   4   7   27.53    4.88
   6   4   7   29.92    5.45
   6   4   8  488.34   20.36
   6  -4   8  463.18   20.40
   6   4   8  504.83   21.48
   6   4   9  128.58   10.48
   6  -4   9  120.83   10.38
   6   4   9  133.45   11.01
   6   4  10   30.69    5.26
   6  -4  10   36.45    5.59
   6   4  10   42.21    6.83
   6   4  11  161.84   11.69
   6  -4  11  143.99   11.68
   6   4  11  154.97   12.17
   6   4  12  391.58   18.69
   6   4  12  393.67   20.07
   6  -4  12  387.76   19.36
   6   4  13   67.30    7.90
   6  -4  13   61.32    7.66
   6   4  13   81.87    9.74
   6   4  14   16.71    3.81
   6  -4  14   16.42    3.99
   6   4  14    5.67    3.63
   6   4  15   56.18    7.03
   6  -4  15   39.34    6.33
   6   4  15   42.07    6.90
   6   4  16   37.52    6.16
   6  -4  16   50.00    7.59
   6   4  16   45.24    7.68
   6   4  17   69.42    8.55
   6  -4  17   57.88    8.34
   6   4  17   62.45    8.95
   6   4  18  246.22   17.57
   6   4  19    2.15    2.06
   6   4  20   19.38    5.37
   6   4  21   30.58    6.88
   6   4  22   23.77    5.79
   6   4  23   26.85    6.16
   6   4  24   48.84    8.53
   6   4  25   10.60    5.47
   6   4  26   12.35    4.83
   6  -5 -26    9.84    3.89
   6  -5 -25   16.19    5.63
   6  -5 -24    4.95    2.25
   6  -5 -23    1.83    3.12
   6  -5 -22   17.61    6.34
   6  -5 -21    6.43    3.17
   6  -5 -21   22.79    7.68
   6  -5 -20    3.43    1.67
   6  -5 -20    5.62    3.52
   6  -5 -19    2.50    2.90
   6  -5 -19    1.37    1.90
   6  -5 -18   16.10    5.55
   6  -5 -18   16.57    5.11
   6  -5 -17   30.71    5.81
   6  -5 -17   25.41    6.38
   6   5 -16   13.76    3.95
   6  -5 -16   15.37    5.47
   6  -5 -16   13.63    4.58
   6   5 -15   13.86    3.88
   6  -5 -15   20.72    5.11
   6  -5 -15   17.83    4.90
   6   5 -14   16.77    4.56
   6  -5 -14   18.61    5.74
   6  -5 -14   21.44    5.94
   6  -5 -13   68.87    9.62
   6  -5 -13   68.43    9.34
   6   5 -13   82.81    9.40
   6   5 -12    5.09    2.17
   6  -5 -12   10.85    3.73
   6  -5 -12    8.11    4.19
   6   5 -11   -0.75    2.74
   6  -5 -11    2.76    1.75
   6   5 -10   18.91    4.88
  -6   5 -10   13.20    3.55
   6  -5 -10   14.38    4.10
   6  -5 -10   10.96    3.89
   6   5  -9   34.74    5.49
  -6   5  -9   31.44    4.93
   6  -5  -9   42.51    7.17
   6  -5  -9   35.05    6.52
   6   5  -8   17.84    4.12
   6   5  -8   29.50    4.72
  -6   5  -8   16.98    4.06
   6  -5  -8   21.65    4.93
   6  -5  -8   30.18    5.46
   6  -5  -7   19.16    5.07
   6   5  -7   28.86    5.10
   6   5  -7   13.63    3.53
  -6   5  -7   15.75    4.06
   6  -5  -7   14.63    3.61
  -6   5  -6    9.27    2.65
   6  -5  -6    8.32    3.12
   6   5  -6    7.90    2.18
   6   5  -6   13.04    2.99
   6  -5  -6   12.63    4.39
   6   5  -5   43.58    6.63
   6  -5  -5   29.77    5.98
   6   5  -5   39.37    5.36
   6  -5  -5   43.21    6.83
   6   5  -4   98.20    9.52
   6  -5  -4   99.04    9.47
   6  -5  -4   86.02    9.58
   6   5  -4   94.28    8.29
   6   5  -3   93.13    9.45
   6  -5  -3   96.97    9.92
   6  -5  -3   91.08    9.56
   6   5  -3   90.79    8.29
   6   5  -2   71.58    8.20
   6  -5  -2   62.09    7.83
   6  -5  -2   74.87    8.56
   6   5  -2   73.93    7.67
   6  -5  -1   22.81    5.32
   6   5  -1   23.01    4.22
   6  -5  -1   20.96    4.43
   6   5  -1   33.65    5.48
   6   5   0   22.62    4.79
   6  -5   0   25.23    5.33
   6   5   0   19.70    4.82
   6  -5   0   25.26    4.92
   6   5   1   19.48    4.23
   6   5   1   22.51    4.34
   6  -5   1   29.12    5.90
   6  -5   1   24.87    5.44
   6   5   2   82.78    8.50
   6   5   2   74.07    8.30
   6  -5   2   67.90    7.64
   6  -5   2   65.78    8.18
   6   5   3   98.93    9.60
   6  -5   3   92.60    9.38
   6  -5   3   73.65    8.33
   6   5   4   83.97    8.73
   6   5   4   82.33    8.83
   6  -5   4   86.87    9.10
   6  -5   4   91.59    9.25
   6   5   5   38.75    6.36
   6  -5   5   45.21    6.77
   6   5   5   42.88    6.36
   6  -5   5   27.84    5.09
   6  -5   6    5.68    1.17
   6   5   6   11.20    3.67
   6   5   6   13.96    3.92
   6  -5   6    8.01    3.13
   6  -5   7   19.51    4.74
   6   5   7   21.97    5.29
   6   5   7   23.51    4.99
   6  -5   7   19.21    4.41
   6   5   8   33.41    5.62
   6  -5   8   18.19    4.22
   6   5   8   33.11    6.08
   6  -5   8   21.74    5.20
   6  -5   9   20.82    5.06
   6   5   9   32.36    5.64
   6  -5   9   26.93    4.33
   6   5   9   36.73    5.76
   6  -5  10    7.47    1.86
   6   5  10    6.72    2.29
   6   5  11    2.68    1.91
   6   5  11    2.39    2.88
   6  -5  11   -1.22    2.14
   6   5  12    9.71    3.72
   6  -5  12    7.33    3.00
   6   5  12   11.29    3.17
   6   5  13   59.15    8.01
   6   5  13   83.27    9.66
   6   5  14   15.02    4.12
   6  -5  14   12.07    3.94
   6   5  14   17.93    4.15
   6   5  15   16.14    4.66
   6  -5  15   11.37    4.23
   6   5  15    6.74    3.66
   6   5  16   19.02    5.48
   6   5  16   16.38    4.25
   6  -5  16   14.20    4.08
   6   5  17   25.47    5.48
   6   5  17   28.60    6.44
   6   5  18   11.68    3.89
   6   5  18   13.64    4.03
   6   5  19    2.49    2.86
   6   5  20    4.32    3.31
   6   5  21   12.73    4.78
   6   5  22   22.31    5.23
   6   5  23   -0.25    2.29
  -6   5  23   -3.08    2.69
   6   5  24   -1.93    4.00
   6   5  25   17.71    5.45
   6   5  26   12.52    5.17
   6  -6 -25    7.74    3.61
   6  -6 -24   65.97   10.28
   6  -6 -23    3.35    3.57
   6  -6 -22   97.53   12.35
   6  -6 -21   29.09    6.98
   6  -6 -21   36.76    7.60
   6  -6 -20    8.12    4.22
   6  -6 -20   -0.71    3.37
   6  -6 -19   16.34    5.17
   6  -6 -19   14.91    5.66
   6  -6 -18  163.81   14.93
   6  -6 -17   25.55    6.71
   6  -6 -17   35.49    7.20
   6   6 -16    1.37    2.38
   6  -6 -16   -0.49    2.22
   6  -6 -16   -0.04    2.23
   6   6 -15    4.41    2.63
   6  -6 -15   13.56    3.92
   6  -6 -15   21.46    5.65
   6  -6 -14    3.87    3.08
   6   6 -14    4.88    3.30
   6  -6 -14    3.06    4.26
   6   6 -13    5.04    3.11
   6  -6 -13   16.77    5.28
   6  -6 -13   11.89    4.40
   6   6 -12  171.02   14.11
   6  -6 -12  151.34   13.97
   6  -6 -12  171.04   14.67
   6   6 -11   35.08    6.39
   6  -6 -11   37.00    6.29
   6  -6 -11   26.98    5.98
   6   6 -10    1.64    2.81
  -6   6 -10    5.70    3.33
   6  -6 -10    3.58    3.40
   6  -6 -10    4.81    3.80
   6   6  -9   39.47    6.83
  -6   6  -9   41.73    6.60
   6  -6  -9   31.11    6.24
   6  -6  -9   43.35    7.75
   6   6  -8  426.93   21.68
  -6   6  -8  356.98   19.00
   6  -6  -8  395.03   21.32
   6  -6  -8  392.95   21.92
   6   6  -7   71.96    8.99
  -6   6  -7   73.73    8.55
   6  -6  -7   76.95    9.61
   6  -6  -7   82.71   10.00
   6   6  -7   73.12    7.94
  -6   6  -6    2.37    1.51
   6   6  -6   -1.31    2.38
   6  -6  -6    0.05    1.95
   6  -6  -6    1.82    2.49
   6   6  -6   -0.23    1.14
   6   6  -5   55.28    7.64
  -6   6  -5   54.94    7.49
   6  -6  -5   38.33    6.17
   6  -6  -5   63.47    8.62
   6   6  -5   51.71    6.70
   6   6  -4  183.86   13.98
  -6   6  -4  189.14   13.49
   6  -6  -4  189.86   14.26
   6  -6  -4  168.69   13.96
   6  -6  -3    3.58    2.08
   6   6  -3    3.00    2.47
   6   6  -3    4.07    2.32
  -6   6  -3    2.36    2.34
   6  -6  -3    1.17    2.55
   6   6  -2  344.60   17.97
   6   6  -2  329.05   18.62
   6  -6  -2  386.81   20.01
  -6   6  -2  336.62   18.19
   6  -6  -2  338.54   19.50
   6   6  -1   65.35    7.81
   6   6  -1   81.49    9.18
   6  -6  -1   53.00    7.39
  -6   6  -1   76.47    8.60
   6  -6  -1   66.85    9.02
   6  -6   0    5.60    3.63
   6   6   0    5.29    1.88
   6   6   0    4.26    2.30
   6  -6   0    2.51    1.41
   6   6   1   90.29    9.86
   6   6   1   64.78    8.15
   6  -6   1   79.10    8.79
   6  -6   1   71.92    8.98
   6   6   2  358.41   19.69
   6   6   2  334.47   18.22
   6  -6   2  341.82   18.45
   6  -6   2  344.17   19.45
   6  -6   3    2.20    2.38
   6   6   3    3.25    2.97
   6   6   3    7.57    2.91
   6  -6   3    0.82    2.16
   6   6   4  196.80   14.59
   6   6   4  182.29   13.71
   6  -6   4  179.97   13.66
   6  -6   4  198.21   14.63
   6   6   5   56.57    7.88
   6   6   5   53.18    7.81
   6  -6   5   62.97    8.02
   6  -6   5   52.36    7.52
   6  -6   6    1.72    2.40
   6   6   6   -1.83    2.60
   6   6   6    0.20    1.65
   6  -6   6   -0.36    1.88
   6   6   7   65.84    8.51
   6   6   7   67.15    8.80
   6  -6   7   63.80    8.27
   6  -6   7   68.44    9.03
   6  -6   8  389.21   21.03
   6   6   8  387.19   20.92
   6  -6   8  390.06   20.05
   6   6   8  384.02   20.78
   6   6   9   50.98    7.74
   6  -6   9   32.70    6.22
   6   6   9   43.02    7.12
   6  -6   9   36.47    5.95
   6  -6  10    5.29    3.57
   6   6  10    6.00    3.46
   6   6  10    1.95    1.40
   6  -6  10    2.43    1.72
   6   6  11   32.43    6.84
   6   6  11   35.45    6.20
   6  -6  11   27.78    6.07
   6  -6  11   41.27    7.10
   6   6  12  139.85   12.91
   6   6  12  172.98   14.19
   6  -6  12  132.76   12.81
   6  -6  12  140.37   13.05
   6  -6  13   17.90    4.87
   6   6  13   11.15    2.63
   6   6  13   14.03    4.68
   6  -6  13   13.78    3.84
   6   6  14    4.65    3.20
   6  -6  14   -0.12    2.02
   6   6  14    4.01    2.68
   6   6  15    5.50    4.07
   6  -6  15    9.88    4.61
   6   6  15   12.08    4.07
   6   6  16    1.90    2.26
   6   6  16   -0.92    1.86
   6   6  17   21.24    5.86
   6   6  17   24.85    5.09
   6   6  18  180.10   15.59
  -6   6  18  171.28   15.25
   6   6  18  198.20   16.20
  -6   6  19   23.02    6.39
   6   6  19   17.82    5.63
   6   6  20   -3.16    3.79
  -6   6  20    7.36    3.78
   6   6  21   47.65    8.18
  -6   6  21   39.37    7.19
  -6   6  22   88.70   12.29
   6   6  22   91.89   11.92
  -6   6  23    4.28    3.78
   6   6  23    4.04    2.43
   6   6  24   38.94    8.14
   6   6  25   12.49    4.51
   6  -7 -23   10.27    4.70
   6  -7 -22    2.93    3.40
   6  -7 -21   39.33    8.57
   6  -7 -21   26.61    6.85
   6  -7 -20   18.49    4.21
   6  -7 -20   18.93    5.44
   6  -7 -19   26.62    6.34
   6  -7 -19   11.94    4.19
   6  -7 -18   45.06    8.21
   6  -7 -18   40.31    8.17
   6  -7 -17    7.08    3.28
   6  -7 -17    8.94    3.21
   6  -7 -16   15.33    4.55
   6  -7 -16   14.72    5.06
   6   7 -15   24.99    6.41
   6  -7 -15   15.19    5.22
   6  -7 -15   24.11    6.53
   6   7 -14    9.51    2.96
   6  -7 -14    8.97    4.14
   6   7 -13   33.08    6.76
   6  -7 -13   40.09    7.45
   6  -7 -13   41.95    8.29
   6   7 -12   11.65    3.09
   6  -7 -12   13.55    4.23
   6  -7 -12   16.84    5.65
   6  -7 -11   13.01    5.23
   6   7 -11    7.57    4.48
   6  -7 -11    7.27    3.72
   6   7 -10   47.72    7.54
   6  -7 -10   60.42    9.22
   6  -7 -10   52.29    8.62
   6   7  -9    9.99    4.06
  -6   7  -9    9.46    3.85
   6  -7  -9   13.65    4.19
   6  -7  -9    2.26    2.67
   6   7  -8   78.15   10.11
  -6   7  -8   70.06    8.76
   6  -7  -8   82.96   10.58
   6  -7  -8   86.16   10.34
   6   7  -7   23.34    5.64
  -6   7  -7   25.62    6.12
   6  -7  -7   29.06    6.14
   6  -7  -7   18.16    5.49
   6   7  -6   17.13    5.48
   6   7  -6    9.65    3.74
  -6   7  -6    6.55    3.36
   6  -7  -6    9.80    3.27
   6  -7  -6    6.29    3.81
   6   7  -5   23.77    5.91
   6   7  -5   25.35    5.27
   6  -7  -5   24.26    5.47
  -6   7  -5   25.25    5.52
   6  -7  -5   19.95    4.63
   6   7  -4  104.30   10.41
   6   7  -4   78.81    9.76
   6  -7  -4   90.69   10.59
   6  -7  -4   95.09   10.73
   6   7  -3   36.58    6.10
   6   7  -3   32.09    7.10
   6  -7  -3   38.85    6.70
   6  -7  -3   29.15    6.22
  -6   7  -3   38.53    6.43
   6   7  -2  131.10   12.29
   6   7  -2  128.72   11.84
  -6   7  -2  137.32   12.69
   6  -7  -2  179.38   14.37
   6  -7  -2  135.83   13.22
   6  -7  -1   11.08    3.79
   6   7  -1   17.32    4.76
  -6   7  -1   15.12    4.46
   6  -7  -1   10.92    3.54
   6   7  -1   17.11    4.59
   6  -7   0    2.66    3.29
   6   7   0    5.57    3.44
  -6   7   0    1.37    3.17
   6   7   0    4.69    2.59
   6  -7   0    3.91    2.58
   6  -7   1   11.99    3.84
   6   7   1   16.80    4.76
  -6   7   1   17.35    5.33
   6   7   1   19.89    4.44
   6  -7   1   16.84    4.75
   6   7   2  125.96   12.15
   6   7   2  131.32   12.37
  -6   7   2  140.84   12.52
   6  -7   2  116.17   11.96
   6  -7   2  144.00   13.17
   6  -7   3   39.15    6.92
   6   7   3   38.62    7.49
   6   7   3   43.30    7.08
  -6   7   3   34.95    6.48
   6  -7   3   44.40    6.73
   6   7   4   98.13   11.09
   6   7   4  108.03   11.37
  -6   7   4   93.85   10.72
   6  -7   4  112.95   11.36
   6  -7   4  102.53   11.49
   6  -7   5   27.48    6.10
   6   7   5   21.82    6.12
  -6   7   5   22.89    5.08
   6   7   5   22.49    4.81
   6  -7   5   26.32    6.11
   6  -7   6    7.47    2.63
   6   7   6   13.02    4.38
  -6   7   6   12.04    4.42
   6   7   6    4.56    2.20
   6  -7   6    9.94    3.29
   6  -7   7   24.64    5.51
   6   7   7   17.07    4.89
  -6   7   7   14.02    4.88
   6   7   7   21.16    4.95
   6  -7   7   23.85    5.54
   6   7   8   80.12   10.24
   6   7   8   90.85   10.49
  -6   7   8   68.30    8.84
   6  -7   8   70.23    9.63
   6  -7   8   67.01    9.35
   6  -7   9    9.50    3.79
   6   7   9    7.44    3.67
   6   7   9   11.69    4.34
  -6   7   9    2.46    3.29
   6  -7   9    3.44    2.13
   6  -7  10   34.41    6.96
   6   7  10   49.85    8.11
   6   7  10   48.07    7.44
  -6   7  10   54.45    8.59
   6  -7  11   22.02    5.63
   6   7  11   15.54    4.82
   6   7  11   15.39    4.60
  -6   7  11   23.72    6.19
   6  -7  12   16.96    5.25
   6   7  12   11.74    5.15
   6   7  12   12.96    4.08
   6  -7  13   44.83    8.34
   6   7  13   49.68    8.34
   6   7  13   30.64    6.94
  -6   7  13   26.25    6.16
   6   7  14   10.12    4.15
  -6   7  14    3.66    2.62
   6   7  15   20.90    5.72
   6   7  15   16.10    5.22
  -6   7  15   19.36    5.61
   6   7  16   19.78    6.07
   6   7  16   26.35    6.80
  -6   7  16   19.08    5.80
   6   7  17    3.34    3.16
  -6   7  17    3.44    3.08
   6   7  18   30.09    6.12
  -6   7  18   43.01    8.83
   6   7  18   55.18    9.24
  -6   7  19   19.43    5.84
   6   7  19   16.32    5.05
   6   7  20   14.43    5.42
  -6   7  20   12.57    4.74
   6   7  21   33.46    7.63
  -6   7  21   26.84    6.72
  -6   7  22    7.77    4.09
   6   7  22    3.43    2.69
  -6   7  23    0.09    3.88
   6   7  23   14.10    5.16
   6  -8 -20   18.32    5.57
   6  -8 -20   17.66    5.77
   6  -8 -19   22.60    6.38
   6  -8 -19   23.58    7.07
   6  -8 -18   42.81    7.77
   6  -8 -18   35.32    8.51
   6  -8 -17   15.08    5.45
   6  -8 -17   22.86    5.95
   6  -8 -16   30.67    6.96
   6  -8 -16   15.80    6.92
   6  -8 -15   35.23    7.86
   6  -8 -15   20.12    4.88
   6   8 -14   48.46    8.35
   6  -8 -14   40.49    7.60
   6  -8 -14   26.14    6.10
   6   8 -13   57.75    9.64
   6  -8 -13   52.11    9.14
   6  -8 -13   62.60    9.78
   6   8 -12   51.35    8.94
   6  -8 -12   46.04    7.89
   6  -8 -12   52.30    9.22
   6   8 -11   29.45    7.30
   6  -8 -11   30.29    6.61
   6  -8 -11   33.10    7.20
   6   8 -10   26.06    6.47
   6  -8 -10   19.33    5.68
   6  -8 -10   23.06    5.75
   6   8  -9   25.25    6.59
  -6   8  -9   27.44    7.39
   6  -8  -9   14.40    3.94
   6  -8  -9   13.37    5.09
   6   8  -8  133.76   13.34
  -6   8  -8  116.10   12.25
   6  -8  -8  120.59   12.87
   6  -8  -8  116.86   13.01
   6   8  -7   51.08    8.60
  -6   8  -7   52.12    8.44
   6  -8  -7   39.96    7.29
   6  -8  -7   41.96    7.55
   6   8  -6   16.31    5.39
   6  -8  -6   18.40    4.68
  -6   8  -6   12.05    3.96
   6  -8  -6    9.14    2.46
   6   8  -5   39.94    7.30
  -6   8  -5   39.86    7.60
   6  -8  -5   39.85    7.11
   6  -8  -5   41.92    7.78
   6   8  -4   75.34   10.46
   6   8  -4   77.14    9.64
  -6   8  -4   77.95    9.76
   6  -8  -4   54.52    8.33
   6  -8  -4   49.35    8.24
  -6   8  -3    3.46    2.57
   6   8  -3    1.02    1.96
   6   8  -3   -0.34    1.33
   6  -8  -3    1.04    1.70
   6  -8  -3   -0.31    2.41
   6   8  -2   74.64    9.69
   6   8  -2   68.34    9.08
  -6   8  -2   73.63    9.82
   6  -8  -2   73.62    9.48
   6  -8  -2   80.07   10.60
   6   8  -1    9.88    4.36
   6   8  -1   19.34    5.39
  -6   8  -1   15.54    5.30
   6  -8  -1   28.80    6.58
   6  -8  -1   15.50    4.44
   6   8   0    2.32    2.55
   6  -8   0   -3.10    4.06
  -6   8   0    1.58    2.44
   6  -8   0    2.36    2.57
   6   8   0    5.08    3.14
   6   8   1   20.30    5.52
   6   8   1   19.39    5.55
  -6   8   1   18.86    5.14
   6  -8   1   24.75    5.80
   6  -8   1   25.62    6.07
   6   8   2   92.01   10.87
   6   8   2   80.46   10.28
  -6   8   2   95.79   11.15
   6  -8   2   78.66   10.22
   6  -8   2   63.59    9.73
  -6   8   3    1.70    2.72
   6   8   3   -0.83    2.08
   6  -8   3   -1.60    2.78
   6   8   3    2.58    3.20
   6  -8   3    0.18    2.52
   6   8   4   53.96    8.79
   6   8   4   57.98    8.69
  -6   8   4   63.67    9.12
   6  -8   4   52.61    8.70
   6  -8   5   32.52    6.63
   6   8   5   45.76    7.85
   6   8   5   40.21    7.42
  -6   8   5   36.40    7.06
   6  -8   6   11.81    4.47
   6   8   6   23.63    6.81
   6   8   6    6.10    2.21
  -6   8   6   19.90    5.64
   6  -8   7   42.16    7.72
   6   8   7   54.31    9.48
   6   8   7   48.07    8.18
  -6   8   7   46.21    8.28
   6   8   8  103.77   11.57
   6   8   8  117.31   12.69
  -6   8   8  139.25   13.69
   6  -8   8   96.97   11.59
  -6   8   9   20.82    5.38
   6  -8   9    9.52    4.23
   6   8   9   19.71    5.33
   6   8   9   20.93    5.71
   6  -8  10   23.85    5.76
  -6   8  10   18.78    6.19
   6   8  10   23.98    6.99
   6   8  10   21.24    5.91
   6  -8  11   23.17    5.84
   6   8  11   28.71    5.78
   6   8  11   32.80    7.83
  -6   8  11   34.82    6.87
   6  -8  12   44.01    8.30
   6   8  12   50.22    8.71
  -6   8  12   69.04    9.89
   6   8  12   39.10    7.44
   6   8  13   45.32    7.89
   6   8  13   68.12   10.24
  -6   8  13   61.59    9.79
  -6   8  14   28.24    6.68
   6   8  14   20.72    6.42
   6   8  14   25.70    6.65
   6   8  15   31.92    6.61
   6   8  15   20.11    5.39
   6   8  16   19.26    5.74
   6   8  16   13.86    5.22
  -6   8  16   29.99    7.07
   6   8  17   17.91    5.98
   6   8  17   11.80    3.39
  -6   8  17    8.31    3.72
   6   8  18   51.48    9.34
  -6   8  18   36.83    7.61
   6   8  18   53.36    9.62
  -6   8  19   15.78    6.04
   6   8  19   26.29    6.44
  -6   8  20   12.50    5.11
   6   8  20   23.12    6.65
   6  -9 -17    4.59    4.80
   6  -9 -17    0.58    2.58
   6  -9 -16    2.09    2.44
   6  -9 -16    6.05    4.64
   6  -9 -15    0.20    2.62
   6  -9 -15    8.39    4.61
   6  -9 -14   17.79    5.43
   6  -9 -14    6.58    3.75
   6  -9 -13    6.76    5.22
   6   9 -13    3.99    4.07
   6  -9 -13    9.67    4.04
   6   9 -12   34.37    7.51
   6  -9 -12   17.03    5.64
   6  -9 -12   22.84    5.76
   6   9 -11    0.45    2.64
   6  -9 -11   -0.95    2.84
   6  -9 -11    5.53    3.97
   6   9 -10    1.06    2.34
   6  -9 -10    7.29    4.19
   6  -9 -10    4.63    4.73
   6   9  -9    4.57    2.94
   6  -9  -9    5.38    2.90
   6  -9  -9   11.95    5.32
   6   9  -8   13.25    4.78
  -6   9  -8    7.51    3.30
   6  -9  -8    3.55    3.37
   6  -9  -8   14.44    5.40
   6   9  -7    7.57    3.76
  -6   9  -7   13.46    3.70
   6  -9  -7    8.52    2.68
   6  -9  -7    8.36    4.17
   6   9  -6   29.01    6.78
  -6   9  -6    7.29    3.55
   6  -9  -6   26.42    7.14
   6  -9  -6   24.08    6.88
   6   9  -5   17.38    4.46
  -6   9  -5   17.56    5.19
   6  -9  -5   11.06    3.69
   6  -9  -5   14.42    4.54
   6   9  -4    2.95    3.22
  -6   9  -4    2.18    2.81
   6  -9  -4    5.23    4.63
   6  -9  -4   -1.77    2.48
   6   9  -3    8.55    3.22
  -6   9  -3    6.99    3.85
   6  -9  -3    4.51    2.53
   6  -9  -3    6.90    3.57
   6   9  -3    4.21    2.98
   6   9  -2    0.96    2.84
  -6   9  -2   -0.34    1.96
   6   9  -2    0.64    2.48
   6  -9  -2    3.31    2.84
   6   9  -1   17.61    5.67
  -6   9  -1   28.13    6.33
   6   9  -1   15.45    4.56
   6  -9  -1   16.44    5.17
   6   9   0   19.97    4.88
   6   9   0   22.80    5.97
   6  -9   0   10.87    4.35
  -6   9   0   11.66    4.55
   6   9   1   21.81    5.15
  -6   9   1   16.59    4.91
   6   9   1   20.47    5.38
   6  -9   1   15.97    5.93
   6   9   2    3.41    3.43
  -6   9   2   -0.10    2.10
   6   9   2   -0.19    1.95
   6  -9   2    1.42    3.06
   6   9   3    7.38    3.28
   6   9   3    9.26    4.24
  -6   9   3    4.67    3.01
   6  -9   3    5.59    3.27
  -6   9   4    1.85    1.73
   6   9   4    1.26    3.96
   6  -9   4    0.94    2.71
   6   9   4    0.31    1.78
   6   9   5   13.62    4.41
  -6   9   5   10.82    4.57
   6   9   5   15.15    5.37
   6  -9   5   16.27    4.91
   6   9   6   13.98    4.99
  -6   9   6   11.17    3.34
   6   9   6   11.03    4.63
   6   9   7    2.10    1.79
  -6   9   7    9.98    4.17
   6   9   7    3.19    2.59
   6  -9   7    7.15    4.30
   6   9   8    7.02    4.21
  -6   9   8   16.45    5.43
   6   9   8    9.55    3.85
   6  -9   8    7.51    3.33
   6   9   9    2.73    2.22
  -6   9   9    3.41    3.97
   6   9   9    0.77    1.83
   6   9  10    6.12    3.63
   6  -9  10    5.12    3.90
   6   9  10    8.23    4.06
  -6   9  10   11.81    4.77
   6   9  11   -5.15    5.25
   6   9  11    1.26    2.23
  -6   9  11    4.26    4.11
   6   9  12   18.29    5.83
   6   9  12   20.68    5.51
  -6   9  12    8.39    4.84
   6   9  13    0.63    2.67
   6   9  13    4.07    3.48
  -6   9  13    3.25    3.93
   6   9  14   12.01    5.51
   6   9  14   15.19    5.17
  -6   9  14    4.60    3.77
   6   9  15   -2.64    3.25
   6   9  15    2.74    2.73
  -6   9  15    4.07    2.66
   6   9  16    8.12    5.42
   6   9  16   -4.52    5.17
  -6   9  16    3.56    2.26
   6   9  17   -3.08    3.56
   6   9  17   -9.02    7.04
  -6   9  17    3.56    3.17
   6 -10 -13    5.62    2.79
   6 -10 -13   -3.55    3.57
   6  10 -12    7.31    4.27
   6 -10 -12   13.27    4.88
   6 -10 -12   13.52    4.76
   6  10 -11   10.84    5.04
   6 -10 -11   10.23    5.43
   6 -10 -11    7.84    5.04
   6  10 -10    1.19    1.94
   6 -10 -10    5.26    2.47
   6 -10 -10   -2.14    4.78
   6  10  -9    7.32    4.17
   6 -10  -9    6.28    2.63
   6  10  -8   44.75    8.56
   6 -10  -8   30.34    7.51
   6  10  -7    8.74    2.66
  -6  10  -7    7.90    3.82
   6 -10  -7    4.08    2.85
  -6  10  -6    9.57    4.08
   6  10  -6    5.54    2.45
   6 -10  -6    6.62    3.88
   6  10  -5   11.40    4.50
   6 -10  -5   14.69    4.40
   6  10  -4   23.64    6.13
  -6  10  -4   30.67    7.24
   6 -10  -4   30.11    7.49
   6  10  -3    3.40    2.97
  -6  10  -3    1.40    2.69
   6 -10  -3   -0.28    2.03
   6  10  -2   38.74    8.00
  -6  10  -2   43.02    8.58
   6 -10  -2   52.49    8.83
   6  10  -1   17.53    5.90
   6  10  -1   15.91    5.20
  -6  10  -1    9.23    4.16
   6 -10  -1    9.18    4.82
   6  10   0    9.10    3.85
  -6  10   0    2.63    2.28
   6  10   0    7.00    4.51
   6 -10   0    1.22    3.11
   6  10   1   14.47    5.86
  -6  10   1   23.86    6.59
   6  10   1    4.86    3.01
   6 -10   1   20.66    6.90
   6  10   2   50.51    9.16
   6  10   2   36.90    7.36
  -6  10   2   28.43    6.35
   6 -10   2   50.48    9.46
   6  10   3    1.83    3.59
  -6  10   3    0.61    1.90
   6  10   3    2.36    2.16
   6 -10   3    7.07    4.14
   6  10   4   23.41    6.67
  -6  10   4   26.76    6.48
   6 -10   4   22.26    5.72
   6  10   5   17.30    5.63
  -6  10   5    9.67    4.61
   6  10   5   15.49    4.91
   6 -10   5   20.49    6.18
   6  10   6   11.69    4.31
  -6  10   6   22.81    6.39
   6  10   6   13.00    4.49
   6 -10   6   15.42    6.66
  -6  10   7    7.99    3.62
   6  10   7    9.51    4.56
   6  10   7    9.57    3.47
   6 -10   7   12.77    5.36
   6  10   8   43.20    8.29
   6 -10   8   39.38    8.36
  -6  10   8   43.86    8.90
   6  10   8   40.36    8.24
   6  10   9   10.31    4.55
   6  10   9    1.54    1.76
  -6  10   9   11.87    5.37
   6 -10   9    2.25    3.42
   6  10  10   -1.23    3.51
   6  10  10    3.18    3.78
  -6  10  10   -1.99    4.16
  -6  10  11   10.11    3.72
   6  10  11   13.21    5.81
   6  10  11    3.31    1.41
   6  10  12    9.18    5.57
   6  10  12    3.84    4.40
  -6  10  12   15.98    5.77
   6  10  13   -0.78    2.55
   6  10  13    5.68    3.16
  -6  10  13    7.65    4.44
   6 -11  -5   -1.32    3.22
   6  11  -5    0.54    2.04
  -6  11  -5   -2.58    3.32
   6  11  -4   -4.10    2.14
  -6  11  -4   -3.21    2.92
   6  11  -3    2.79    3.28
  -6  11  -3    2.30    4.85
   6 -11  -3   -2.87    3.44
   6  11  -2    5.80    3.88
  -6  11  -2    9.01    5.07
   6 -11  -2    1.94    3.35
   6  11  -1    9.46    4.50
  -6  11  -1    7.73    2.84
   6 -11  -1    5.67    3.06
   6  11   0    9.82    4.35
  -6  11   0   11.17    4.60
   6 -11   0    3.48    2.33
   6  11   1    6.96    3.71
   6 -11   1    9.62    4.55
   6  11   1   16.99    6.22
  -6  11   1    6.32    3.88
   6  11   2   -1.92    4.15
  -6  11   2    0.38    3.03
   6  11   2   -1.65    1.96
   6  11   3    6.92    4.69
  -6  11   3    6.78    3.17
   6  11   3   14.26    5.36
   6 -11   3    3.82    3.07
   6  11   4    9.86    4.54
  -6  11   4   -0.70    2.94
   6  11   4    5.71    2.65
   6 -11   4    1.40    2.89
   6  11   5   -1.76    3.32
  -6  11   5   -2.89    3.60
   6  11   5    6.84    3.36
   6 -11   5    3.75    2.54
   7   0 -28   -3.09    4.83
   7   0 -27   -1.29    2.59
   7   0 -26   -0.72    2.80
   7   0 -25   10.57    5.46
   7   0 -24    3.57    1.61
   7   0 -23    0.28    2.62
   7   0 -22   -0.27    1.89
   7   0 -21   -1.72    3.56
   7   0 -20   -0.05    1.30
   7   0 -19   -2.04    2.41
   7   0 -18    3.03    2.19
   7   0 -17    3.56    3.34
   7   0 -16   -1.11    2.25
   7   0 -15    0.84    2.42
   7   0 -14    0.28    1.81
   7   0 -14    1.95    1.98
   7   0 -13    1.14    1.50
   7   0 -13   -0.22    1.96
   7   0 -12   -0.32    1.19
   7   0 -12   -0.28    1.98
   7   0 -11   -0.68    0.89
   7   0 -11    2.50    2.23
   7   0 -10    0.24    1.36
   7   0 -10   -1.01    1.26
   7   0  -9   -0.51    1.52
   7   0  -9    1.47    2.17
   7   0  -8   -0.86    1.18
   7   0  -8    1.04    1.35
   7   0  -8   -0.56    0.91
   7   0  -7    1.01    1.06
   7   0  -7    0.49    1.45
   7   0  -7   -0.35    1.37
   7   0  -6   -1.14    1.13
   7   0  -6    0.57    1.81
   7   0  -6    0.73    1.53
   7   0  -5    0.87    1.57
   7   0  -5    1.31    1.41
   7   0  -5    0.57    1.45
   7   0  -4    0.92    1.86
   7   0  -4    0.21    0.88
   7   0  -4   -0.36    1.32
   7   0  -3    0.92    1.03
   7   0  -3   -0.87    1.23
   7   0  -3   -0.82    1.41
   7   0  -2   -0.53    0.99
   7   0  -2   -0.67    0.85
   7   0  -2    0.28    0.96
   7   0  -1    0.47    1.63
   7   0  -1   -0.19    1.08
   7   0  -1    0.17    0.95
   7   0   0    0.31    1.64
   7   0   0    0.65    1.80
   7   0   1   -0.10    0.90
   7   0   1    0.61    0.82
   7   0   2   -0.91    1.59
   7   0   2    0.52    0.93
   7   0   3    0.22    1.34
   7   0   3   -0.22    1.03
   7   0   4    0.46    1.63
   7   0   4   -0.52    1.14
   7   0   5    1.92    2.06
   7   0   5   -0.53    0.87
   7   0   6   -0.25    1.14
   7   0   6   -0.08    1.20
   7   0   7    0.09    1.80
   7   0   7    0.49    0.75
   7   0   8   -0.46    1.96
   7   0   8    0.12    0.75
   7   0   9    0.65    1.90
   7   0   9    0.56    1.59
   7   0  10    0.40    1.46
   7   0  10   -0.91    1.09
   7   0  11    0.62    1.49
   7   0  11   -0.64    1.05
   7   0  12    1.03    1.67
   7   0  12    0.70    0.83
   7   0  13   -1.19    1.67
   7   0  13    0.29    0.87
   7   0  14    1.88    2.15
   7   0  15    1.24    1.73
   7   0  16   -0.48    1.99
   7   0  17    1.86    2.46
   7   0  18    0.04    2.73
   7   0  19    1.65    3.05
   7   0  20    0.56    2.26
   7   0  21    0.41    2.03
   7   0  22   -1.36    2.49
   7   0  23    0.86    1.91
   7  -1 -29   -0.06    3.38
   7  -1 -28  124.81   13.39
   7  -1 -27    4.95    4.19
   7  -1 -26    5.16    4.49
   7  -1 -25   32.79    6.42
   7   1 -24  188.28   16.05
   7  -1 -24  174.86   15.55
   7   1 -23   18.52    4.74
   7  -1 -23    8.58    4.56
   7   1 -22   66.76    9.43
   7  -1 -22   66.05    9.78
   7   1 -21   54.57    8.72
   7  -1 -21   35.33    7.04
   7   1 -20   94.61   10.73
   7  -1 -20   74.86    9.87
   7  -1 -19   61.60    8.99
   7   1 -19   68.34    8.65
   7   1 -18   78.88    8.87
   7  -1 -18   63.47    8.25
   7   1 -17   43.83    6.77
   7  -1 -17   51.68    7.53
   7   1 -16  510.39   22.42
   7  -1 -16  599.68   25.64
   7   1 -15  135.34   11.16
   7  -1 -15  125.80   11.59
   7  -1 -15  115.27    9.54
   7   1 -14  945.98   29.27
   7  -1 -14  950.08   31.20
   7  -1 -14  891.65   26.70
   7  -1 -13   65.93    7.73
   7   1 -13   88.17    8.78
   7  -1 -13   89.29    8.31
   7   1 -13   93.06    9.12
   7  -1 -12  154.00   12.16
   7   1 -12  132.10   10.10
   7  -1 -12  129.82    9.75
   7   1 -12  142.28   11.07
   7   1 -12  138.51    8.02
   7   1 -11  194.91    9.78
   7   1 -11  191.01   12.11
   7  -1 -11  196.68   13.41
   7   1 -11  225.19   13.41
   7  -1 -11  178.71   11.40
   7  -1 -10   69.85    6.83
   7   1 -10   69.64    6.02
   7   1 -10   81.33    7.87
   7  -1 -10   72.67    7.90
   7   1 -10   81.79    7.92
   7  -1  -9   22.41    3.96
   7   1  -9   19.59    3.38
   7   1  -9   26.08    4.49
   7  -1  -9   18.08    4.18
   7  -1  -8  143.69    9.97
   7   1  -8  135.07    8.34
   7   1  -8  147.25   10.16
   7  -1  -8  162.81   11.65
   7   1  -8  145.83   10.36
   7  -1  -7  169.71   10.69
   7   1  -7  169.06    9.36
   7  -1  -7  174.33   11.76
   7   1  -7  167.52   10.74
   7   1  -7  170.75   11.25
   7  -1  -6  407.06   16.57
   7   1  -6  388.84   14.39
   7  -1  -6  372.53   17.14
   7   1  -6  405.93   16.29
   7   1  -6  372.70   16.47
   7  -1  -5  442.34   18.38
   7  -1  -5  454.89   17.44
   7   1  -5  473.03   18.34
   7   1  -5  418.50   15.01
   7   1  -5  453.67   17.09
   7  -1  -4  304.37   14.23
   7   1  -4  304.94   13.17
   7  -1  -4  305.87   15.07
   7   1  -4  285.22   13.52
   7   1  -4  304.18   14.60
   7  -1  -3  594.68   19.82
   7   1  -3  573.50   18.06
   7  -1  -3  602.10   21.30
   7   1  -3  566.12   18.91
   7   1  -3  590.33   19.90
   7  -1  -2 1060.91   26.67
   7  -1  -2 1125.91   28.46
   7   1  -2 1141.04   25.57
   7   1  -2 1037.48   25.48
   7   1  -2 1065.38   26.42
   7  -1  -1   30.60    4.50
   7  -1  -1   34.85    5.09
   7   1  -1   32.85    4.62
   7   1  -1   27.05    4.00
   7   1  -1   33.15    4.55
   7   1   0    3.66    1.92
   7   1   0    3.14    1.53
   7  -1   0    0.43    1.19
   7  -1   0    3.64    2.49
   7   1   1   29.91    4.26
   7  -1   1   30.96    4.66
   7  -1   1   31.96    5.03
   7   1   1   33.50    4.51
   7  -1   2 1061.94   27.15
   7   1   2 1056.73   25.30
   7   1   3  592.69   19.86
   7  -1   3  551.29   19.70
   7   1   3  562.86   18.36
   7   1   4  290.02   14.15
   7  -1   4  316.75   14.91
   7   1   4  298.03   13.32
   7   1   5  477.26   18.45
   7  -1   5  447.75   17.81
   7   1   5  471.08   16.59
   7   1   6  386.37   17.05
   7  -1   6  350.64   16.14
   7   1   6  378.41   14.73
   7   1   7  148.20   10.52
   7  -1   7  167.77   11.38
   7   1   7  150.12    9.41
   7   1   8  155.22   10.96
   7  -1   8  152.65   11.03
   7   1   8  160.57    9.61
   7  -1   9   21.93    4.38
   7   1   9   19.53    4.24
   7   1   9   21.47    3.52
   7   1  10   61.98    7.11
   7  -1  10   69.57    7.49
   7   1  10   79.32    6.65
   7   1  11  176.10   12.40
   7  -1  11  188.89   12.70
   7   1  11  184.69   10.17
   7   1  12  150.11   11.74
   7  -1  12  162.82   12.03
   7   1  12  160.08    9.39
   7   1  13   87.75    6.85
   7  -1  13   97.21    9.46
   7   1  14  900.06   29.78
   7  -1  14  955.46   29.71
   7   1  14  908.45   21.42
   7  -1  15  128.95   11.18
   7   1  15  105.31   10.40
   7   1  16  578.44   24.59
   7  -1  16  569.97   24.12
   7   1  17   55.82    8.00
   7  -1  17   61.05    7.83
   7   1  18   74.82    9.23
   7  -1  18   70.21    9.07
   7   1  19   78.11    9.74
   7  -1  19   57.43    8.30
   7   1  20   92.06   10.39
   7  -1  20   73.18    8.99
   7   1  21   44.26    8.00
   7  -1  21   62.48    9.16
   7   1  22   77.79   10.07
   7  -1  22   91.89   10.98
   7   1  23   12.29    4.95
   7   1  24  170.04   15.61
   7  -2 -28   16.42    4.67
   7  -2 -27    4.49    2.76
   7  -2 -26    0.64    2.16
   7  -2 -25    6.81    3.93
   7  -2 -24    9.05    3.87
   7  -2 -23   21.15    5.19
   7  -2 -22    4.70    3.85
   7  -2 -21   32.33    7.06
   7  -2 -20   19.17    5.50
   7  -2 -19   -0.59    1.62
   7   2 -19    9.05    5.54
   7   2 -18   93.78    9.92
   7  -2 -18   58.66    8.63
   7   2 -17   38.33    6.15
   7  -2 -17   47.35    7.83
   7  -2 -17   28.82    5.76
   7   2 -17   41.43    6.46
   7   2 -16  486.64   20.72
   7  -2 -16  475.09   23.27
   7   2 -16  518.65   23.14
   7  -2 -16  526.59   22.32
   7   2 -15  127.32   10.51
   7  -2 -15  116.27   11.64
   7  -2 -15  118.73   10.81
   7   2 -15  132.43   11.28
   7  -2 -14  109.67   10.30
   7   2 -14  126.98   10.49
   7   2 -14  117.42   10.29
   7   2 -13   86.42    8.41
   7  -2 -13   85.50    9.46
   7  -2 -13   81.85    8.66
   7   2 -13   87.60    9.08
   7   2 -12  195.41   12.01
   7  -2 -12  196.34   13.12
   7   2 -12  200.63   13.02
   7  -2 -12  219.61   14.63
   7  -2 -11   19.61    4.10
   7   2 -11   20.29    3.17
   7   2 -11   12.38    2.98
   7  -2 -11    9.91    3.29
   7   2 -11   14.91    3.53
   7   2 -10   78.03    5.89
   7  -2 -10   67.07    8.03
   7   2 -10   94.60    7.87
   7  -2 -10   99.36    9.03
   7   2 -10   87.07    8.56
   7   2  -9  204.67   11.68
   7   2  -9  210.87    9.80
   7   2  -9  200.25   12.80
   7  -2  -9  185.86   12.12
   7  -2  -9  188.50   13.22
   7  -2  -8  451.38   20.23
   7   2  -8  470.57   16.86
   7   2  -8  442.04   14.73
   7  -2  -8  470.74   19.30
   7   2  -7   18.02    3.37
   7  -2  -7   16.57    3.57
   7   2  -7   16.56    2.96
   7   2  -7   13.51    2.99
   7  -2  -7   21.34    4.34
   7  -2  -6   54.32    6.45
   7   2  -6   51.74    5.44
   7   2  -6   53.56    5.20
   7  -2  -6   46.20    6.28
   7   2  -6   41.74    5.83
   7  -2  -5  254.35   13.87
   7  -2  -5  276.02   15.24
   7   2  -5  287.66   12.77
   7   2  -5  285.22   12.49
   7   2  -5  269.87   14.01
   7  -2  -4   41.89    5.84
   7   2  -4   45.44    5.18
   7  -2  -4   46.21    6.08
   7   2  -4   41.00    4.85
   7   2  -4   40.65    5.56
   7  -2  -3  285.09   14.79
   7  -2  -3  294.70   15.28
   7   2  -3  269.19   12.40
   7   2  -3  272.97   12.51
   7   2  -3  267.78   13.95
   7   2  -2  125.33    8.65
   7  -2  -2  114.28    9.46
   7  -2  -2  128.14   10.19
   7   2  -2  131.27    8.84
   7   2  -2  112.23    9.06
   7   2  -1    2.82    1.53
   7   2  -1    1.31    1.65
   7  -2  -1    1.49    1.13
   7  -2  -1   -0.21    1.77
   7   2   0    1.48    1.42
   7  -2   0   -0.74    1.68
   7   2   0    2.76    1.44
   7  -2   0    1.74    1.59
   7   2   1    0.26    1.45
   7  -2   1    0.10    0.92
   7   2   1    1.79    1.42
   7  -2   1    2.41    1.87
   7   2   2  121.84    9.13
   7   2   2  110.73    8.83
   7  -2   2  120.59    9.62
   7  -2   2  119.95    9.73
   7   2   3  255.87   13.00
   7   2   3  292.95   14.32
   7  -2   3  282.30   14.84
   7   2   4   38.94    5.15
   7   2   4   43.49    5.58
   7  -2   4   34.48    5.25
   7   2   5  231.47   13.25
   7  -2   5  225.08   13.17
   7   2   6   49.74    6.53
   7  -2   6   45.26    6.25
   7   2   6   39.14    5.09
   7   2   7   19.46    3.63
   7   2   7   16.50    3.93
   7   2   8  462.33   17.33
   7   2   8  411.70   18.62
   7  -2   8  465.97   19.40
   7   2   9  195.20   12.95
   7  -2   9  221.17   13.41
   7   2   9  209.86   11.74
   7   2  10   87.03    7.57
   7   2  10   89.82    8.91
   7  -2  10   95.85    9.02
   7   2  11   16.58    3.57
   7  -2  11   17.06    3.93
   7   2  11   13.55    4.01
   7   2  12  195.08   11.50
   7  -2  12  192.04   13.41
   7   2  13   89.39    7.72
   7   2  13   93.32    9.82
   7  -2  13   73.20    8.46
   7   2  14  139.94    9.63
   7   2  14  140.58   12.03
   7  -2  14  122.02   10.91
   7   2  15  114.01    8.69
   7  -2  15  114.40   10.69
   7   2  15  132.77   11.97
   7   2  16  448.20   22.42
   7  -2  16  430.35   21.04
   7   2  17   45.67    7.39
   7  -2  17   48.42    7.35
   7   2  18   86.42    9.73
   7  -2  18   72.81    8.93
   7   2  19    0.68    2.92
   7  -2  19   -0.29    2.68
   7   2  20   24.04    4.86
   7  -2  20   14.60    4.81
   7   2  21   40.85    7.58
   7   2  22    8.52    3.08
   7   2  23   26.31    5.99
   7   2  24    6.44    4.13
   7   2  25   15.80    6.09
   7  -3 -28   29.69    7.34
   7  -3 -27    0.19    2.45
   7  -3 -26   35.10    7.29
   7  -3 -25    3.74    4.08
   7  -3 -24  158.30   15.53
   7  -3 -23   12.29    4.73
   7  -3 -22   -1.23    1.92
   7  -3 -21    2.10    1.69
   7  -3 -20  221.36   17.24
   7  -3 -19   26.38    6.68
   7  -3 -18  531.85   26.06
   7   3 -18  510.99   24.04
   7  -3 -17   32.61    6.20
   7  -3 -17   26.70    5.73
   7   3 -17   31.69    5.60
   7  -3 -16   20.43    4.93
   7  -3 -16   15.96    4.54
   7   3 -16   17.39    4.69
   7  -3 -15   32.70    6.36
   7  -3 -15   41.85    6.59
   7   3 -15   34.55    6.34
   7  -3 -14 1118.19   35.75
   7   3 -14 1103.99   33.25
   7  -3 -13   10.30    3.80
   7   3 -13    1.11    1.97
   7  -3 -13    5.93    3.10
   7   3 -13    9.39    3.18
   7  -3 -12 1208.53   35.82
   7   3 -12 1112.24   27.15
   7  -3 -12 1193.30   34.85
   7   3 -12 1195.24   33.42
   7   3 -11  112.37    8.36
   7  -3 -11  106.52   10.46
   7   3 -11  101.66    9.60
   7  -3 -11   84.93    9.27
   7  -3 -10   34.54    6.43
   7   3 -10   34.94    5.03
   7  -3 -10   41.40    6.68
   7   3 -10   39.69    6.01
   7   3  -9   27.94    3.89
   7  -3  -9   35.97    6.07
   7   3  -9   30.00    3.92
   7  -3  -9   27.36    5.44
   7   3  -9   37.21    5.81
   7   3  -8 1040.24   23.30
   7   3  -8 1087.23   23.70
   7  -3  -8 1045.39   30.60
   7   3  -8 1060.39   30.13
   7   3  -7   13.18    3.56
   7  -3  -7   22.10    4.38
   7  -3  -7   18.88    4.65
   7   3  -7   20.10    3.28
   7   3  -7   21.53    3.41
   7   3  -6  687.39   23.88
   7   3  -6  665.48   19.55
   7  -3  -6  610.69   23.94
   7   3  -6  639.30   18.15
   7  -3  -6  680.39   24.36
   7  -3  -5   79.59    8.18
   7   3  -5   53.13    6.46
   7   3  -5   56.47    5.78
   7  -3  -5   65.47    7.91
   7   3  -5   62.94    5.68
   7   3  -4    3.50    1.94
   7   3  -4    7.55    2.42
   7  -3  -4    1.48    1.20
   7  -3  -4    3.88    2.40
   7   3  -4    3.46    1.73
   7  -3  -3   20.72    5.25
   7   3  -3   26.36    4.43
   7   3  -3   24.74    4.33
   7  -3  -3   15.58    4.15
   7   3  -3   25.22    3.65
   7   3  -2 1150.38   30.05
   7  -3  -2 1123.39   30.88
   7   3  -2 1084.02   26.64
   7  -3  -2 1093.62   30.76
   7   3  -1   24.63    4.62
   7   3  -1   27.73    4.40
   7  -3  -1   22.58    4.39
   7  -3  -1   35.20    5.81
   7   3   0    1.14    1.67
   7   3   0    1.84    2.42
   7  -3   0    1.11    1.94
   7  -3   0    1.03    1.47
   7   3   1   35.35    5.39
   7  -3   1   37.53    5.54
   7   3   1   45.74    5.74
   7   3   2 1155.17   29.76
   7  -3   2 1162.81   31.22
   7   3   2 1131.75   29.01
   7  -3   2 1093.87   30.60
   7   3   3   30.17    5.03
   7  -3   3   23.39    4.27
   7   3   3   24.09    5.01
   7  -3   3   20.60    4.41
   7   3   4    3.54    2.25
   7   3   4    7.39    3.09
   7  -3   4    8.41    2.80
   7  -3   4    2.14    1.86
   7   3   5   53.75    6.25
   7  -3   5   73.10    7.98
   7   3   5   66.83    7.38
   7  -3   6  603.53   22.87
   7   3   6  656.91   23.52
   7   3   6  624.10   22.15
   7   3   7   20.55    4.11
   7   3   7   28.11    4.82
   7  -3   7   19.14    4.11
   7   3   8 1072.73   30.85
   7   3   8 1090.64   29.09
   7   3   9   21.62    4.71
   7  -3   9   26.29    4.86
   7   3  10   50.37    6.07
   7  -3  10   47.06    6.65
   7   3  11  108.16    9.12
   7  -3  11  118.84   10.62
   7   3  11  116.58   10.75
   7   3  12 1169.67   30.45
   7  -3  12 1157.60   33.52
   7   3  12 1254.00   35.72
   7   3  13    5.71    2.54
   7   3  13    5.12    2.37
   7  -3  13    9.19    3.54
   7   3  14 1133.29   30.50
   7  -3  14 1103.45   33.75
   7   3  14 1139.07   35.17
   7   3  15   33.47    6.25
   7   3  15   26.37    4.78
   7  -3  15   28.21    5.24
   7  -3  16   14.05    4.49
   7   3  16   12.38    4.15
   7   3  16   10.61    3.41
   7   3  17   27.38    6.19
   7  -3  17   38.64    6.28
   7  -3  18  521.83   24.71
   7   3  18  497.98   24.98
   7   3  19   18.77    4.85
   7  -3  19   34.98    6.76
   7   3  20  248.51   17.66
   7   3  21    1.72    2.86
   7   3  22    3.03    3.07
   7   3  23   16.71    5.32
   7   3  24  126.42   13.65
   7   3  25    4.57    2.64
   7   3  26   23.46    6.52
   7  -4 -27   13.64    4.82
   7  -4 -26    0.27    2.30
   7  -4 -25    4.96    4.20
   7  -4 -24    5.75    3.33
   7  -4 -23    3.08    3.16
   7  -4 -22   32.68    6.95
   7  -4 -21   20.26    4.86
   7  -4 -20    3.83    3.38
   7  -4 -19  193.96   16.15
   7  -4 -19  174.30   15.08
   7  -4 -18   67.70    9.49
   7  -4 -18   84.60   10.62
   7   4 -17   12.86    3.24
   7  -4 -17   11.15    4.59
   7  -4 -17    8.38    4.49
   7   4 -16   16.67    4.94
   7  -4 -16   17.99    5.27
   7  -4 -16   10.41    4.24
   7  -4 -15   57.50    9.02
   7  -4 -15   50.06    8.33
   7   4 -15   56.18    8.04
   7  -4 -14  142.53   13.09
   7  -4 -14  116.14   11.96
   7   4 -14  120.66   11.20
   7  -4 -13  109.79   11.77
   7  -4 -13  102.40   10.99
   7   4 -13  113.85   10.69
   7   4 -12   21.22    4.78
   7  -4 -12   30.47    5.77
   7  -4 -12   25.58    5.25
   7  -4 -11  209.44   15.33
   7  -4 -11  176.19   13.98
   7   4 -11  229.42   14.94
   7   4 -10   33.49    5.60
   7  -4 -10   29.64    5.38
   7  -4 -10   35.10    6.50
   7  -4  -9    7.65    3.44
   7   4  -9    4.01    1.80
   7  -4  -9    7.72    2.76
   7   4  -8   81.30    8.93
   7   4  -8   68.62    6.22
   7  -4  -8   90.42    9.63
   7  -4  -8   79.60    9.22
   7   4  -7  504.24   21.92
   7  -4  -7  521.20   23.05
   7   4  -7  519.47   17.99
   7  -4  -7  522.53   23.13
   7   4  -6   60.66    7.46
   7   4  -6   47.67    5.34
   7  -4  -6   58.89    7.91
   7  -4  -6   63.47    7.93
   7   4  -5    3.88    1.86
   7   4  -5    6.71    3.15
   7  -4  -5    8.56    3.11
   7  -4  -5    1.16    2.73
   7   4  -5    5.23    2.07
   7   4  -4    5.69    2.20
   7   4  -4    3.89    1.02
   7  -4  -4   10.06    3.73
   7  -4  -4   13.05    3.85
   7   4  -4    8.10    1.99
   7   4  -3   87.15    8.94
   7   4  -3   93.94    8.25
   7  -4  -3   87.28    9.04
   7   4  -3   81.36    6.31
   7  -4  -3   91.69    9.40
   7   4  -2    3.60    1.46
   7  -4  -2    2.63    1.21
   7   4  -2   10.90    3.04
   7  -4  -2   12.34    3.66
   7   4  -1    7.34    2.22
   7  -4  -1   19.31    3.99
   7   4  -1    4.02    1.69
   7  -4  -1   17.00    4.30
   7   4   0    2.44    2.28
   7  -4   0    0.08    1.42
   7   4   0    0.17    0.87
   7  -4   0   -1.10    1.59
   7   4   1   12.50    3.24
   7  -4   1    9.22    3.00
   7   4   1    4.11    2.89
   7  -4   1   12.67    3.03
   7   4   2   11.33    3.78
   7  -4   2    6.59    2.85
   7   4   2    5.05    2.30
   7  -4   2    6.13    2.24
   7  -4   3   89.89    9.24
   7   4   3   92.27    9.09
   7   4   3   94.37    8.94
   7  -4   3   86.92    9.02
   7   4   4    8.87    2.93
   7   4   4    6.03    2.60
   7  -4   4    5.63    2.55
   7  -4   4    4.43    2.73
   7   4   5   10.46    2.86
   7  -4   5    5.45    2.77
   7   4   5    2.97    2.05
   7  -4   5   10.01    3.10
   7   4   6   44.60    6.29
   7  -4   6   53.71    7.08
   7   4   6   44.19    6.38
   7  -4   6   57.69    7.55
   7   4   7  526.45   21.55
   7  -4   7  544.54   23.21
   7   4   7  536.29   22.69
   7  -4   7  514.92   22.50
   7   4   8   66.14    7.37
   7  -4   8   77.36    8.88
   7   4   8   74.29    8.38
   7   4   9    7.36    2.63
   7  -4   9    6.85    3.04
   7   4   9    6.72    3.25
   7   4  10   32.53    5.70
   7  -4  10   40.14    6.38
   7   4  10   28.85    5.00
   7   4  11  210.45   13.76
   7  -4  11  215.05   14.50
   7   4  11  197.17   14.38
   7   4  12   25.63    4.94
   7  -4  12   18.89    5.34
   7   4  12   20.45    5.13
   7   4  13  111.51   10.16
   7  -4  13  116.30   11.07
   7   4  13   85.16   10.21
   7   4  14  115.58   10.18
   7  -4  14  126.25   11.69
   7   4  14   98.40   10.46
   7   4  15   46.20    7.12
   7  -4  15   48.66    7.65
   7   4  15   46.14    7.68
   7   4  16   13.67    4.16
   7   4  16   18.27    5.21
   7  -4  16   23.10    5.48
   7   4  17    8.45    4.20
   7  -4  17    4.29    2.96
   7  -4  18   93.40   10.48
   7   4  18   63.39    9.11
   7   4  19  182.55   15.30
   7   4  20    3.52    3.58
   7   4  21   13.97    4.96
   7   4  22   38.74    8.26
   7   4  23    0.11    2.75
   7   4  24    5.39    3.14
   7   4  25   -1.00    3.71
   7   4  26   -0.22    2.44
   7   4  27   18.77    6.05
   7  -5 -26    3.43    2.89
   7  -5 -25    5.31    2.99
   7  -5 -24   87.15   11.89
   7  -5 -23    2.89    2.51
   7  -5 -22   68.64    9.97
   7  -5 -21   15.28    4.37
   7  -5 -20    6.28    3.15
   7  -5 -20    3.65    3.45
   7  -5 -19   41.81    8.25
   7  -5 -19   51.60    8.83
   7  -5 -18  235.05   18.32
   7  -5 -18  233.83   17.41
   7  -5 -17   68.57    9.88
   7   5 -17   60.59    9.62
   7  -5 -17   37.22    6.88
   7   5 -16    5.75    3.38
   7  -5 -16    4.85    3.17
   7  -5 -16    6.67    3.26
   7   5 -15   11.45    3.98
   7  -5 -15   14.53    4.86
   7  -5 -15   22.81    4.73
   7   5 -14   10.86    4.03
   7  -5 -14   11.83    4.75
   7  -5 -14    9.05    3.91
   7   5 -13    2.51    2.09
   7  -5 -13    0.65    2.50
   7  -5 -13    2.54    2.95
   7  -5 -12  225.64   16.54
   7  -5 -12  206.53   15.97
   7   5 -12  261.46   16.74
   7   5 -11   41.45    6.80
   7  -5 -11   44.18    7.11
   7  -5 -11   46.38    8.01
   7   5 -10    5.65    2.02
  -7   5 -10   11.07    3.01
   7  -5 -10    2.43    2.49
   7  -5 -10    9.98    3.50
   7  -5  -9    7.73    3.11
  -7   5  -9   18.51    3.92
   7   5  -9   19.97    4.88
   7  -5  -9   17.37    4.75
   7   5  -8  287.03   17.35
  -7   5  -8  254.30   14.54
   7  -5  -8  265.93   17.18
   7  -5  -8  254.19   17.24
   7   5  -7   73.73    7.54
   7   5  -7   61.86    7.97
   7  -5  -7   57.64    8.69
   7  -5  -7   57.92    8.70
   7  -5  -6   12.38    3.94
   7   5  -6    8.61    2.71
   7   5  -6   11.90    2.99
   7  -5  -6    8.54    2.62
   7   5  -5   46.98    7.09
   7   5  -5   30.04    4.98
   7  -5  -5   29.83    5.76
   7  -5  -5   34.10    6.53
   7   5  -4   46.98    6.85
   7  -5  -4   58.90    8.02
   7   5  -4   50.44    6.50
   7  -5  -4   73.22    8.88
   7   5  -3   69.09    8.47
   7   5  -3   55.57    6.86
   7  -5  -3   64.36    8.06
   7  -5  -3   49.79    7.05
   7   5  -2  298.53   17.22
   7   5  -2  326.72   16.39
   7  -5  -2  308.40   18.04
   7  -5  -1    9.49    3.85
   7   5  -1   18.86    4.83
   7   5  -1   12.70    3.24
   7  -5  -1   12.52    3.34
   7  -5   0    2.65    2.47
   7   5   0    5.97    2.51
   7   5   0    1.57    2.22
   7  -5   0    1.80    1.54
   7  -5   1   18.89    4.41
   7   5   1    7.80    3.77
   7   5   1   12.91    3.58
   7  -5   1   16.28    4.45
   7   5   2  319.08   17.53
   7  -5   2  282.31   16.98
   7   5   2  308.03   16.62
   7  -5   2  296.67   17.41
   7  -5   3   50.61    7.46
   7   5   3   57.81    7.85
   7  -5   3   69.03    8.09
   7   5   3   69.13    8.28
   7   5   4   60.80    7.49
   7  -5   4   33.71    6.05
   7  -5   4   58.82    7.82
   7   5   4   54.54    6.98
   7  -5   5   35.64    6.73
   7   5   5   30.91    5.62
   7  -5   5   35.19    6.11
   7   5   5   42.43    6.36
   7   5   6   14.25    3.80
   7  -5   6   10.53    4.07
   7  -5   6    8.57    3.55
   7   5   6   18.10    4.27
   7  -5   7   61.23    8.29
   7   5   7   64.25    7.97
   7  -5   7   66.15    8.23
   7   5   7   65.07    8.07
   7  -5   8  270.49   17.03
   7   5   8  290.85   16.82
   7  -5   8  241.15   15.78
   7   5   8  269.89   16.81
   7   5   9   13.07    4.02
   7  -5   9   16.10    4.71
   7   5   9   18.20    4.21
   7  -5   9   18.38    4.18
   7   5  10   12.91    4.01
   7  -5  10    4.59    2.78
   7   5  10    5.41    2.69
   7  -5  10    7.20    3.52
   7  -5  11   40.68    7.10
   7   5  11   55.34    7.36
   7   5  11   44.78    7.03
   7   5  12  267.12   16.64
   7   5  12  238.84   16.97
   7   5  13   -0.65    1.86
   7  -5  13    3.22    2.93
   7   5  13   -0.24    2.28
   7   5  14   11.09    3.76
   7  -5  14    8.37    3.98
   7   5  14   13.23    4.15
   7   5  15   13.75    4.84
   7  -5  15   14.08    5.79
   7   5  15   15.83    3.96
   7   5  16    3.95    1.99
   7  -5  16    1.70    2.07
   7   5  16    5.84    2.51
   7   5  17   61.63    8.64
   7   5  17   89.45   10.47
   7   5  18  249.98   18.18
   7   5  19   39.58    7.46
   7   5  20    2.50    3.08
   7   5  21   10.47    4.10
   7   5  22   61.97    9.69
   7   5  23    6.74    2.08
   7   5  24   86.93   12.27
   7   5  25    0.68    2.72
   7   5  26   -1.87    3.98
   7  -6 -24   -8.17    5.44
   7  -6 -23   -1.30    2.73
   7  -6 -22    1.41    2.61
   7  -6 -21   19.02    4.37
   7  -6 -21   16.38    5.43
   7  -6 -20    6.39    2.91
   7  -6 -20   -3.19    3.58
   7  -6 -19    0.66    1.90
   7  -6 -19    4.19    3.09
   7  -6 -18    1.94    3.06
   7  -6 -18    0.04    2.29
   7  -6 -17   -0.62    2.10
   7  -6 -17    1.51    2.85
   7   6 -16   -0.55    2.34
   7  -6 -16   -0.28    2.24
   7  -6 -16    0.23    2.01
   7  -6 -15    4.56    3.45
   7   6 -15   12.49    4.78
   7  -6 -15    3.78    2.59
   7   6 -14   14.06    4.18
   7  -6 -14   13.24    4.51
   7  -6 -14   14.88    4.46
   7  -6 -13   35.11    7.03
   7   6 -13   30.03    6.21
   7  -6 -13   33.27    7.36
   7   6 -12   22.36    5.37
   7  -6 -12   11.44    4.78
   7  -6 -12   13.11    4.55
   7   6 -11   17.78    5.34
   7  -6 -11   34.26    6.93
   7  -6 -11   28.72    6.06
   7   6 -10   17.13    5.49
   7  -6 -10    8.57    3.64
   7  -6 -10    8.31    3.21
   7   6  -9    0.50    1.88
  -7   6  -9    0.36    1.83
   7  -6  -9    5.61    3.39
   7  -6  -9    5.25    4.29
   7   6  -8    2.96    3.17
   7  -6  -8   -2.52    1.53
  -7   6  -8   -0.07    1.91
   7  -6  -8    2.18    1.40
  -7   6  -7    8.14    2.36
   7   6  -7    8.66    3.24
   7  -6  -7    3.22    2.81
   7  -6  -7    7.36    3.82
   7  -6  -6    2.26    2.10
   7   6  -6    1.32    2.26
  -7   6  -6    6.21    3.32
   7   6  -6    6.80    2.29
   7  -6  -6   -0.20    2.56
   7   6  -5   39.70    6.01
   7   6  -5   34.07    6.71
  -7   6  -5   45.47    6.94
   7  -6  -5   36.93    6.88
   7  -6  -5   35.66    6.88
   7  -6  -4   11.21    3.69
  -7   6  -4   11.33    3.65
   7   6  -4   19.12    4.91
   7  -6  -4   14.44    4.50
   7   6  -4   17.34    3.86
   7  -6  -3   -2.36    2.63
   7   6  -3    3.91    3.32
   7  -6  -3    1.29    2.47
   7   6  -3    7.84    2.36
   7  -6  -2   10.20    3.62
   7   6  -2   15.99    5.41
   7  -6  -2   14.67    3.94
   7   6  -2   12.79    3.54
   7  -6  -1   18.28    4.92
   7   6  -1   18.01    4.76
   7  -6  -1   14.79    4.23
   7   6  -1   24.83    4.92
   7   6   0    1.99    2.55
   7  -6   0    5.69    3.25
   7   6   0    3.63    2.26
   7  -6   0    4.55    3.74
   7   6   1   22.77    5.01
   7  -6   1   18.44    4.68
   7   6   1   18.38    4.88
   7  -6   1   22.51    5.40
   7   6   2   13.60    4.10
   7  -6   2   17.88    3.84
   7   6   2   13.70    4.52
   7  -6   2   11.82    3.64
   7   6   3    3.02    2.70
   7  -6   3    5.82    2.21
   7   6   3    1.70    2.92
   7  -6   3    5.05    4.08
   7   6   4   13.13    4.59
   7  -6   4   19.50    5.08
   7   6   4   16.82    3.97
   7  -6   4   17.08    5.20
   7   6   5   38.64    6.55
   7  -6   5   37.98    6.92
   7  -6   5   44.34    7.45
   7   6   5   39.83    6.74
   7   6   6   -0.32    2.20
   7  -6   6    3.13    2.79
   7   6   6    7.10    3.73
   7  -6   6    5.16    4.08
   7   6   7    8.94    3.63
   7  -6   7   12.78    4.63
   7   6   7    8.17    2.59
   7  -6   7    3.03    2.43
   7   6   8    2.05    2.95
   7  -6   8   -0.25    2.00
   7   6   8   -0.12    2.43
   7  -6   8    0.36    2.81
   7   6   9    2.10    2.37
   7  -6   9    0.92    1.53
   7   6   9    7.64    4.02
   7  -6   9    2.44    2.16
   7   6  10   12.98    4.22
   7  -6  10   12.03    4.08
   7   6  10   12.14    4.24
   7  -6  10   11.82    3.82
   7  -6  11   10.51    4.77
   7   6  11   22.60    5.35
   7  -6  11   14.61    5.43
   7   6  11   21.92    5.63
   7  -6  12    7.58    3.58
   7   6  12   16.95    4.99
   7  -6  12   13.91    4.85
   7   6  12   16.55    4.65
   7  -6  13   27.43    5.87
   7   6  13   41.84    7.32
   7  -6  13   46.79    8.48
   7   6  13   32.19    6.76
   7  -6  14   10.79    3.64
   7   6  14   12.69    4.02
   7   6  14    8.25    3.48
   7  -6  14   14.24    5.09
   7  -6  15    6.93    3.52
   7   6  15    0.99    2.20
   7   6  15    5.11    2.38
   7   6  16    2.92    2.30
   7   6  16    0.85    1.97
   7   6  17    1.82    2.07
   7   6  17   -1.29    2.69
   7   6  18    0.05    2.88
   7   6  19    1.78    2.28
   7   6  20   -1.81    3.21
  -7   6  21   20.95    5.37
   7   6  21   14.99    5.36
   7   6  22    0.53    3.39
  -7   6  22    3.79    3.90
   7   6  23    1.91    2.79
  -7   6  23    8.91    3.58
   7   6  24   -4.10    3.91
  -7   6  24    1.38    3.24
   7  -7 -22   15.10    5.58
   7  -7 -22   18.35    7.03
   7  -7 -21    8.11    3.22
   7  -7 -21    1.98    2.70
   7  -7 -20   22.13    6.38
   7  -7 -20   34.04    8.10
   7  -7 -19   -1.12    3.20
   7  -7 -19    5.38    4.40
   7  -7 -18  128.45   14.36
   7  -7 -18  102.71   12.63
   7  -7 -17   19.42    6.61
   7  -7 -17   22.65    5.35
   7  -7 -16   -2.24    3.31
   7  -7 -16   -0.17    2.06
   7   7 -15    3.48    3.38
   7  -7 -15    0.36    4.14
   7  -7 -15    0.69    3.04
   7   7 -14   28.30    6.42
   7  -7 -14   42.95    7.36
   7  -7 -14   45.26    8.24
   7   7 -13   11.13    4.98
   7  -7 -13    3.94    3.19
   7  -7 -13    6.37    3.73
   7   7 -12  179.54   14.97
   7  -7 -12  169.74   15.41
   7  -7 -12  160.01   15.20
   7   7 -11    8.83    4.19
   7  -7 -11    5.08    3.09
   7  -7 -11    3.11    3.69
   7   7 -10    0.06    2.07
   7  -7 -10    1.97    2.53
   7  -7 -10    2.70    4.20
  -7   7  -9    5.42    2.33
   7  -7  -9    4.61    3.51
   7  -7  -9    6.22    3.43
   7   7  -8  276.51   18.42
   7  -7  -8  270.14   19.31
  -7   7  -8  283.41   18.33
   7  -7  -8  314.83   19.98
   7   7  -7    7.88    3.27
  -7   7  -7   10.96    3.55
   7  -7  -7   12.87    5.35
   7  -7  -7   13.49    4.23
   7   7  -6   36.90    6.86
  -7   7  -6   42.35    7.20
   7  -7  -6   41.97    7.71
   7  -7  -6   38.24    7.11
  -7   7  -5   18.42    4.47
   7   7  -5   17.74    5.67
   7  -7  -5   14.28    5.04
   7   7  -5   22.14    5.08
   7  -7  -5   20.94    5.67
   7   7  -4   88.65   10.16
  -7   7  -4   94.99   10.48
   7  -7  -4   97.94   11.05
   7  -7  -4   94.04   11.25
   7   7  -4   99.15   10.28
   7  -7  -3    0.40    3.44
   7   7  -3   -1.04    3.25
  -7   7  -3   -2.44    2.74
   7  -7  -3   -2.67    2.41
   7   7  -3    2.45    3.32
   7  -7  -2  147.17   13.47
   7   7  -2  145.79   13.23
  -7   7  -2  153.44   13.58
   7  -7  -2  136.55   13.32
   7   7  -2  142.01   12.54
   7  -7  -1   14.62    4.84
   7   7  -1   16.74    4.83
   7   7  -1   17.06    4.42
  -7   7  -1   23.04    5.20
   7  -7  -1   16.54    4.71
   7  -7   0    0.06    2.26
   7   7   0    2.75    2.09
   7   7   0    0.08    1.44
   7  -7   0    6.64    4.95
  -7   7   0    6.90    4.19
   7  -7   1   23.86    5.80
   7   7   1   17.34    5.20
   7   7   1   22.01    5.44
  -7   7   1   11.86    3.19
   7  -7   1   27.26    5.63
   7   7   2  146.42   12.76
   7   7   2  168.64   14.23
  -7   7   2  171.23   14.02
   7  -7   2  131.44   13.11
   7  -7   2  136.68   13.47
   7  -7   3    6.64    3.67
   7   7   3   -0.99    1.65
   7   7   3    1.20    2.43
  -7   7   3    1.47    2.19
   7  -7   3    1.30    2.08
   7   7   4  103.97   11.24
   7   7   4  118.99   12.07
  -7   7   4  105.97   10.96
   7  -7   4  108.52   12.04
   7  -7   4  106.43   12.06
   7  -7   5   24.76    6.29
   7   7   5   14.56    5.52
   7   7   5   17.68    5.40
   7  -7   5   15.85    5.56
   7   7   6   41.47    6.95
   7   7   6   44.79    7.33
   7  -7   6   36.86    7.53
   7  -7   6   46.77    8.39
   7  -7   7    8.30    4.41
   7   7   7   15.59    4.64
   7   7   7   14.64    3.69
   7  -7   7    3.82    1.97
   7   7   8  290.86   18.92
   7   7   8  278.26   18.45
   7  -7   8  285.38   19.09
   7  -7   8  266.80   18.98
   7  -7   9    4.73    3.82
   7   7   9    6.53    3.32
   7   7   9    3.00    3.14
   7  -7   9   13.73    5.53
   7  -7  10   -0.86    2.19
   7   7  10   -0.39    2.70
   7   7  10   -0.89    2.57
   7  -7  10    0.35    3.43
   7  -7  11   14.07    4.30
   7   7  11    7.87    4.37
   7   7  11   10.04    4.18
   7   7  12  158.31   14.26
   7  -7  12  164.98   14.98
   7   7  12  147.46   14.66
   7   7  13   15.78    5.27
   7  -7  13   17.05    5.02
   7   7  13    7.28    2.48
  -7   7  13   15.80    4.76
   7  -7  14   45.76    8.08
   7   7  14   36.91    7.17
  -7   7  14   30.94    6.79
   7   7  14   29.31    6.78
   7   7  15    4.76    4.03
  -7   7  15    1.50    2.09
   7   7  15    0.03    1.84
   7   7  16    0.40    3.40
  -7   7  16   -0.84    3.74
   7   7  16    0.93    2.06
   7   7  17   16.25    4.77
   7   7  17   22.55    6.09
  -7   7  17    7.68    3.09
   7   7  18  108.34   12.84
  -7   7  18  115.86   13.45
   7   7  18  137.85   14.22
   7   7  19   -0.70    1.64
  -7   7  19    5.27    3.21
   7   7  20   42.08    8.53
  -7   7  20   38.21    7.91
  -7   7  21   13.38    5.13
   7   7  21    1.18    1.72
  -7   7  22   29.29    7.99
   7   7  22   29.65    7.09
   7  -8 -20   -2.18    2.68
   7  -8 -20    1.74    2.75
   7  -8 -19   -3.61    4.09
   7  -8 -19   -6.69    4.28
   7  -8 -18   -0.48    3.52
   7  -8 -18   -1.07    1.75
   7  -8 -17    4.76    3.57
   7  -8 -17    3.64    1.85
   7  -8 -16    0.31    2.64
   7  -8 -16   -2.98    2.55
   7   8 -15    7.55    5.00
   7  -8 -15    3.24    2.94
   7  -8 -15    3.37    3.69
   7   8 -14    8.97    4.69
   7  -8 -14   23.74    6.09
   7  -8 -14   18.79    6.40
   7  -8 -13    8.49    3.34
   7   8 -13   10.32    2.95
   7  -8 -13   10.34    4.05
   7   8 -12    1.01    3.58
   7  -8 -12   -0.59    3.53
   7  -8 -12   -0.55    1.66
   7  -8 -11   14.38    5.97
   7   8 -11    3.86    3.54
   7  -8 -11   14.67    5.18
   7   8 -10    0.45    1.63
   7  -8 -10   -2.12    4.21
   7  -8 -10   -1.01    3.02
   7   8  -9    9.58    3.07
   7  -8  -9   15.31    5.14
   7  -8  -9    5.57    3.20
   7   8  -8    3.31    3.93
  -7   8  -8    1.98    3.77
   7  -8  -8    5.33    3.71
   7  -8  -8    5.68    3.07
   7   8  -7    2.97    1.58
   7  -8  -7    7.16    4.16
  -7   8  -7    4.49    3.26
   7  -8  -7    0.86    2.21
   7   8  -6   20.89    5.85
  -7   8  -6    6.80    3.61
   7  -8  -6   10.15    3.62
   7  -8  -6   18.52    5.48
   7   8  -5    3.07    3.23
   7  -8  -5   10.06    3.97
  -7   8  -5    9.11    3.53
   7  -8  -5    7.93    4.86
   7   8  -4    7.21    4.30
   7   8  -4    2.43    1.71
  -7   8  -4    3.07    2.55
   7  -8  -4    7.28    3.16
   7  -8  -4    0.83    2.50
   7   8  -3   -1.31    1.41
   7   8  -3    3.17    2.74
  -7   8  -3    3.09    2.78
   7  -8  -3    1.77    2.72
   7  -8  -3    4.15    3.32
   7   8  -2    6.20    2.93
   7   8  -2    8.59    2.32
  -7   8  -2    7.00    3.29
   7  -8  -2    8.64    3.20
   7  -8  -2   10.63    4.29
   7  -8  -1    5.66    3.73
   7   8  -1    3.10    2.19
   7   8  -1    5.54    3.21
  -7   8  -1    1.21    3.28
   7  -8  -1    1.06    3.45
   7   8   0    0.86    2.24
   7   8   0    0.25    1.90
  -7   8   0    0.45    2.89
   7  -8   0    2.11    3.33
   7  -8   0   -1.15    2.41
   7   8   1    3.78    2.78
   7  -8   1    2.48    3.56
   7   8   1    2.06    2.31
  -7   8   1    3.98    2.30
   7  -8   1    2.08    3.19
   7  -8   2    3.13    2.02
   7   8   2    1.01    1.65
   7   8   2    7.23    2.78
   7  -8   2    3.48    2.97
   7  -8   3    2.26    3.60
   7   8   3    2.33    4.18
   7   8   3    0.22    2.41
  -7   8   3    0.98    2.32
   7  -8   3    4.88    4.44
   7  -8   4    6.36    3.46
  -7   8   4    3.36    3.56
   7   8   4    2.28    2.18
   7  -8   4    6.51    3.88
   7  -8   5    8.49    3.73
  -7   8   5   11.56    5.02
   7   8   5   10.95    4.97
   7   8   5    6.52    2.84
   7  -8   6   12.47    4.95
   7   8   6   15.85    4.94
   7   8   6    9.67    4.39
  -7   8   6   10.45    3.26
   7  -8   7    1.62    3.26
   7   8   7    1.49    2.34
   7   8   7    2.62    2.63
  -7   8   7    1.50    2.84
   7  -8   8    1.53    2.95
  -7   8   8    3.15    2.75
   7   8   8    7.04    4.55
   7   8   8   10.89    3.68
   7  -8   9   10.70    3.48
   7   8   9    7.15    3.48
   7   8   9   13.18    4.30
  -7   8   9    7.82    3.69
   7  -8  10    3.45    3.24
   7   8  10    2.80    3.25
   7   8  10   -1.74    3.28
  -7   8  10   -0.43    1.91
   7  -8  11    5.77    2.73
   7   8  11    4.92    2.66
   7   8  11    3.07    2.85
  -7   8  11   10.75    4.97
   7  -8  12   -0.17    2.34
   7   8  12    0.72    3.07
   7   8  12    4.40    4.62
  -7   8  12   -3.12    3.00
   7   8  13    1.84    3.48
   7   8  13    3.75    4.15
  -7   8  13   14.53    6.13
   7   8  14   11.65    4.90
   7   8  14    5.54    2.27
  -7   8  14   16.12    4.88
  -7   8  15    3.41    4.22
   7   8  15    3.54    2.73
   7   8  15   -4.43    4.00
   7   8  16   -5.66    5.17
  -7   8  16   -2.71    2.88
   7   8  16    1.44    3.21
   7   8  17    5.21    3.45
  -7   8  17   12.77    4.61
   7   8  17    7.02    3.41
   7   8  18   -0.41    3.45
  -7   8  18   -1.91    2.19
   7   8  18   -2.47    2.76
   7   8  19    0.23    2.91
  -7   8  19   -2.01    3.24
   7   8  20    0.10    2.01
  -7   8  20    6.09    4.33
   7  -9 -16    2.95    4.17
   7  -9 -16    3.98    2.44
   7  -9 -15   13.16    5.54
   7  -9 -15   17.04    5.81
   7   9 -14   73.38   11.39
   7  -9 -14   83.09   11.65
   7  -9 -14   66.30   10.55
   7   9 -13    8.86    3.58
   7  -9 -13    4.09    2.69
   7  -9 -13   -0.81    3.92
   7   9 -12  108.71   13.61
   7  -9 -12  126.27   14.85
   7  -9 -12  107.43   13.01
   7   9 -11    7.74    2.89
   7  -9 -11    3.67    2.51
   7  -9 -11   13.45    5.57
   7  -9 -10    4.41    2.50
   7   9 -10   -0.52    3.51
   7  -9  -9    4.60    3.30
   7   9  -9   16.45    5.32
   7  -9  -9    8.13    3.55
   7   9  -8  163.28   15.69
   7  -9  -8  200.21   16.89
   7  -9  -8  189.54   17.41
   7   9  -7    1.97    2.74
   7  -9  -7    2.57    3.76
  -7   9  -7    5.46    3.58
   7  -9  -7    7.28    4.13
   7   9  -6   46.29    8.50
   7  -9  -6   36.39    8.51
   7  -9  -6   54.24    9.04
  -7   9  -6   48.15    8.25
   7   9  -5    9.64    4.58
  -7   9  -5    8.60    3.79
   7  -9  -5    9.11    4.33
   7  -9  -5   10.25    4.68
   7   9  -4   45.87    8.10
  -7   9  -4   68.93    9.95
   7  -9  -4   60.66    9.70
   7  -9  -4   67.43   10.42
   7   9  -3    7.67    4.38
  -7   9  -3    6.10    4.25
   7  -9  -3    3.23    4.52
   7  -9  -3    4.23    2.71
   7   9  -2  107.72   12.08
   7   9  -2   85.20   10.90
  -7   9  -2  101.94   12.54
   7  -9  -2  125.25   13.29
   7  -9  -2   99.47   12.02
   7   9  -1    3.77    3.53
   7   9  -1    2.99    2.22
  -7   9  -1    6.43    3.66
   7  -9  -1   12.67    5.26
   7   9   0    3.01    3.64
   7   9   0    1.58    2.45
  -7   9   0    6.22    2.84
   7  -9   0    0.79    2.42
   7   9   1    8.87    3.78
   7   9   1    4.17    2.85
  -7   9   1    4.34    3.21
   7  -9   1    2.58    1.98
   7   9   2  102.55   11.92
   7   9   2   94.91   11.88
  -7   9   2  109.05   12.72
   7  -9   2  127.63   14.01
   7   9   3    0.41    2.95
   7   9   3    1.52    2.00
  -7   9   3   -0.24    2.38
   7  -9   3    4.86    3.88
   7   9   4   54.91    9.07
   7   9   4   70.70   10.44
  -7   9   4   74.63   10.32
   7  -9   4   53.87    8.69
   7   9   5   13.20    4.46
   7   9   5    9.54    4.23
  -7   9   5   10.09    4.13
   7  -9   5   15.89    5.53
   7   9   6   52.21    8.64
   7   9   6   49.67    8.62
  -7   9   6   35.02    7.03
   7  -9   6   46.25    7.99
   7   9   7    9.96    4.82
   7   9   7    3.75    3.14
  -7   9   7    2.20    2.51
   7  -9   7    2.51    2.80
   7   9   8  197.08   16.85
   7   9   8  192.16   16.82
  -7   9   8  179.94   16.32
   7  -9   8  233.75   19.44
   7   9   9    5.48    3.65
   7   9   9   12.04    4.87
  -7   9   9    8.68    3.97
   7  -9   9   10.72    5.30
   7   9  10    4.29    3.30
   7   9  10    7.77    4.18
  -7   9  10    8.32    4.25
   7  -9  10    5.80    3.92
   7   9  11    4.95    2.93
   7   9  11    6.69    3.93
  -7   9  11   11.81    4.17
   7  -9  11    9.47    3.99
   7   9  12  102.83   12.77
  -7   9  12  111.17   12.92
   7   9  12   87.69   11.84
   7   9  13    5.79    3.91
   7   9  13   -3.38    3.93
  -7   9  13    6.92    4.26
   7   9  14   49.02    9.20
  -7   9  14   82.58   11.26
   7   9  14   67.44   10.67
   7   9  15    4.45    3.18
  -7   9  15    8.76    4.28
   7   9  16    0.19    3.41
  -7   9  16    2.99    2.36
   7   9  16   -0.17    1.66
   7  10 -12    3.14    3.22
   7 -10 -12    2.43    4.00
   7 -10 -12    4.59    4.14
   7  10 -11   17.09    5.93
   7 -10 -11   20.96    6.57
   7 -10 -11   16.51    5.82
   7  10 -10    2.95    4.03
   7 -10 -10    4.38    4.25
   7 -10 -10    4.51    3.37
   7  10  -9    1.26    3.17
   7 -10  -9    0.14    3.79
   7 -10  -9   -0.73    3.10
   7  10  -8    6.14    4.17
   7 -10  -8    2.03    3.79
   7  10  -7   14.31    5.09
  -7  10  -7    4.23    2.86
   7  10  -6   -0.38    2.29
  -7  10  -6    0.95    3.06
   7 -10  -6    1.97    2.68
   7  10  -5   11.60    3.98
   7 -10  -5   16.76    5.57
   7  10  -4    2.09    1.99
  -7  10  -4    0.48    3.10
   7 -10  -4    5.61    4.09
   7  10  -3    3.33    2.79
  -7  10  -3    1.64    3.39
   7 -10  -3    3.16    4.38
   7  10  -2    0.31    1.64
  -7  10  -2   -0.13    2.69
   7 -10  -2   -0.18    3.37
   7  10  -1   -0.28    2.07
  -7  10  -1    4.79    3.66
   7 -10  -1   -2.05    3.52
  -7  10   0   -1.01    2.45
   7  10   0   -3.95    2.86
   7  10   0   -0.55    3.21
   7 -10   0    1.62    3.10
   7  10   1    4.68    2.31
   7  10   1    3.29    3.11
  -7  10   1    3.70    2.95
   7 -10   1   -0.12    3.55
   7  10   2   -2.18    2.70
   7  10   2    0.04    1.85
  -7  10   2   -1.32    1.85
   7 -10   2    1.60    3.83
   7  10   3   -0.75    2.93
   7  10   3   -0.80    2.65
  -7  10   3   -1.89    1.89
   7 -10   3    0.93    3.09
   7  10   4    8.33    4.89
   7  10   4    6.60    2.81
  -7  10   4    2.11    1.76
   7 -10   4    4.55    3.71
   7  10   5   17.77    6.05
   7  10   5   15.53    5.98
   7 -10   5   22.22    6.48
   7  10   6   -0.71    3.17
   7  10   6   -3.53    2.33
  -7  10   6    2.89    3.03
   7 -10   6    0.03    1.91
   7  10   7   22.59    6.16
   7  10   7   23.71    6.34
  -7  10   7   37.33    8.08
   7 -10   7   29.08    7.10
   7  10   8    4.68    4.01
   7  10   8    3.25    2.37
   7 -10   8    3.03    4.17
   7  10   9    5.74    3.93
   7  10   9    2.66    3.39
  -7  10   9    0.59    3.18
   7 -10   9    2.44    3.90
   7  10  10    5.17    3.97
   7  10  10   -0.68    3.53
  -7  10  10    2.58    3.11
   7  10  11   19.58    5.73
   7  10  11   12.61    5.68
  -7  10  11   22.51    6.43
   7  10  12    0.74    2.82
   7  10  12   -2.37    3.22
  -7  10  12    5.53    4.68
   7  11  -1    0.85    2.57
  -7  11  -1   -5.38    4.40
   7 -11  -1   -2.34    3.04
   7 -11   0   -5.19    4.25
   7  11   0    2.02    2.48
  -7  11   0   -2.21    1.79
   7  11   1    0.68    2.78
   7  11   1    4.28    4.43
  -7  11   1    0.62    3.17
   7 -11   1    2.26    4.46
   8   0 -27   26.63    6.86
   8   0 -26   80.87   11.99
   8   0 -25   49.54    8.85
   8   0 -24   15.06    6.25
   8   0 -23    2.36    2.22
   8   0 -22   12.80    4.40
   8   0 -21   79.98   10.26
   8   0 -20   14.05    4.73
   8   0 -19   59.07    8.67
   8   0 -18  181.11   14.72
   8   0 -17  258.26   17.39
   8   0 -16   30.34    6.25
   8   0 -15  250.58   16.08
   8   0 -14  106.90   10.63
   8   0 -13   68.33    8.65
   8   0 -13   88.37    7.96
   8   0 -12  607.67   23.97
   8   0 -12  616.76   20.60
   8   0 -11  536.73   19.14
   8   0 -11  561.36   22.63
   8   0 -10  103.42    8.62
   8   0 -10   94.90    9.24
   8   0  -9 1174.59   28.85
   8   0  -9 1267.08   33.13
   8   0  -8  841.77   24.14
   8   0  -8  841.02   26.53
   8   0  -8  834.35   26.64
   8   0  -7   17.27    4.20
   8   0  -7   14.44    3.30
   8   0  -7   11.36    3.27
   8   0  -6  458.08   17.72
   8   0  -6  446.79   19.13
   8   0  -6  444.12   19.01
   8   0  -5   51.32    5.93
   8   0  -5   48.66    6.30
   8   0  -5   62.09    7.18
   8   0  -4  840.40   24.11
   8   0  -4  862.39   25.93
   8   0  -4  892.79   25.87
   8   0  -3 1579.29   33.06
   8   0  -3 1585.10   35.26
   8   0  -3 1639.46   34.86
   8   0  -2  758.49   23.00
   8   0  -2  752.41   24.13
   8   0  -2  755.93   23.29
   8   0  -1   97.11    8.23
   8   0  -1   96.45    8.54
   8   0  -1  100.61    8.44
   8   0   0 1185.55   29.05
   8   0   0 1178.49   30.00
   8   0   0 1128.81   27.78
   8   0   1  113.87    9.19
   8   0   1   90.96    7.91
   8   0   2  764.64   23.89
   8   0   2  816.90   23.03
   8   0   3 1548.15   33.91
   8   0   3 1560.44   31.67
   8   0   4  851.29   25.52
   8   0   4  793.81   22.21
   8   0   5   43.78    5.83
   8   0   5   43.89    5.06
   8   0   6  458.52   19.35
   8   0   6  446.73   16.39
   8   0   7   18.84    4.45
   8   0   7   12.92    2.74
   8   0   8  889.80   27.73
   8   0   8  914.76   22.90
   8   0   9 1285.32   33.61
   8   0   9 1244.89   26.84
   8   0  10  111.53   10.07
   8   0  10  100.27    7.43
   8   0  11  549.16   22.40
   8   0  11  558.80   17.51
   8   0  12  667.23   25.46
   8   0  12  689.80   18.86
   8   0  13   94.62    7.19
   8   0  13  116.86   10.75
   8   0  14  132.87   11.70
   8   0  15  249.41   16.17
   8   0  16   27.18    5.48
   8   0  17  250.95   16.75
   8   0  18  176.57   14.54
   8   0  19   87.26   10.58
   8   0  20   11.73    3.53
   8   0  21   75.65   10.52
   8   0  22   18.25    4.71
   8   0  23    1.36    3.38
   8  -1 -28   10.51    4.23
   8  -1 -27   11.74    4.52
   8  -1 -26    2.13    2.09
   8  -1 -25   -3.33    3.24
   8  -1 -24    8.54    4.16
   8   1 -23    3.37    4.66
   8  -1 -23    2.30    2.80
   8   1 -22   14.93    4.82
   8  -1 -22   13.25    4.60
   8   1 -21    0.61    1.60
   8  -1 -21    2.87    1.45
   8   1 -20    2.54    2.70
   8  -1 -20    5.85    3.93
   8   1 -19   14.07    4.10
   8  -1 -19   22.09    5.13
   8   1 -18   43.27    6.83
   8  -1 -18   39.94    7.20
   8   1 -17   67.85    8.37
   8  -1 -17   62.16    8.54
   8  -1 -16   26.70    5.89
   8   1 -16   42.42    6.92
   8   1 -15   19.67    5.15
   8  -1 -15   13.35    3.87
   8  -1 -15   19.41    5.08
   8  -1 -14    5.05    2.31
   8   1 -14    5.47    2.68
   8  -1 -14    6.35    2.81
   8  -1 -13    2.83    2.00
   8   1 -13   10.63    2.88
   8  -1 -13    7.49    3.81
   8   1 -13    4.46    2.22
   8  -1 -12    4.66    1.95
   8   1 -12    6.95    3.26
   8   1 -12    5.92    2.30
   8  -1 -12    7.44    2.09
   8   1 -12    7.42    2.83
   8   1 -11   42.52    5.06
   8  -1 -11   33.84    5.80
   8   1 -11   48.59    6.62
   8   1 -11   42.23    6.53
   8  -1 -11   56.90    6.80
   8   1 -10   33.27    4.53
   8  -1 -10   28.72    4.58
   8   1 -10   30.55    5.52
   8  -1 -10   22.16    4.95
   8   1 -10   35.87    5.64
   8  -1  -9   18.32    4.12
   8   1  -9   20.38    3.53
   8  -1  -9   17.13    4.01
   8   1  -9   21.61    4.27
   8   1  -9   17.84    3.94
   8  -1  -8   27.16    4.62
   8   1  -8   34.96    4.71
   8  -1  -8   36.61    5.96
   8   1  -8   34.45    5.18
   8   1  -8   40.63    5.96
   8  -1  -7   64.00    7.21
   8   1  -7   66.25    6.48
   8   1  -7   56.74    6.99
   8  -1  -7   57.47    7.23
   8   1  -7   66.39    7.18
   8  -1  -6   17.90    4.04
   8   1  -6   19.42    3.59
   8  -1  -6   17.38    3.64
   8   1  -6   13.90    3.58
   8   1  -6   11.95    3.29
   8   1  -5    9.10    2.20
   8  -1  -5    8.54    3.03
   8  -1  -5    6.77    2.00
   8   1  -5    9.83    2.89
   8   1  -5   11.26    3.33
   8   1  -4   14.34    3.27
   8  -1  -4   15.91    3.41
   8   1  -4   21.92    3.61
   8  -1  -4   14.65    3.57
   8   1  -4   17.76    3.67
   8  -1  -3   55.75    6.46
   8   1  -3   50.09    5.80
   8  -1  -3   45.70    6.35
   8   1  -3   52.75    6.31
   8   1  -3   49.92    6.52
   8  -1  -2  101.60    8.68
   8   1  -2  102.62    8.84
   8   1  -2   94.72    7.86
   8  -1  -2   96.13    9.03
   8  -1  -1   95.54    8.47
   8  -1  -1   90.94    8.51
   8   1  -1   99.30    8.26
   8   1  -1   86.16    7.98
   8   1  -1   97.20    8.41
   8   1   0    0.74    1.45
   8   1   0    0.66    1.03
   8  -1   0    3.57    1.92
   8  -1   0    4.27    1.84
   8  -1   1   90.72    8.17
   8  -1   1   95.02    8.80
   8   1   1   96.45    8.28
   8   1   1  104.51    8.49
   8  -1   2   93.18    8.50
   8   1   2   94.24    8.40
   8   1   2   87.35    7.67
   8  -1   3   57.33    6.63
   8   1   3   47.88    5.77
   8   1   3   46.34    5.54
   8   1   4   15.94    3.06
   8   1   4   19.30    3.85
   8  -1   4   15.49    3.39
   8   1   5   14.32    3.05
   8   1   5   10.05    3.48
   8  -1   5   11.05    3.39
   8   1   6   14.20    3.22
   8  -1   6   15.92    3.67
   8   1   6   15.72    3.56
   8   1   7   50.65    6.30
   8  -1   7   62.94    7.35
   8   1   7   65.51    6.54
   8   1   8   33.58    5.38
   8  -1   8   46.65    6.49
   8   1   8   39.85    5.09
   8  -1   9   22.12    4.35
   8   1   9   19.40    3.26
   8   1   9   18.08    3.94
   8   1  10   26.38    4.97
   8  -1  10   34.90    5.70
   8   1  10   27.17    4.34
   8   1  11   44.98    6.31
   8  -1  11   44.45    6.78
   8   1  11   43.71    5.28
   8   1  12    6.51    2.17
   8  -1  12    3.02    1.31
   8   1  12    8.20    3.10
   8   1  13    2.20    1.63
   8  -1  13    3.54    2.18
   8   1  13    2.70    1.53
   8   1  14    5.16    2.00
   8   1  14    4.16    1.94
   8  -1  14   10.00    2.21
   8   1  15   13.40    3.62
   8  -1  15    9.06    3.42
   8   1  16   34.74    6.47
   8  -1  16   24.05    5.23
   8   1  17   55.32    7.64
   8  -1  17   60.57    8.42
   8   1  18   41.76    6.98
   8  -1  18   34.50    6.31
   8  -1  19   20.96    5.64
   8   1  19   23.78    6.34
   8  -1  20    9.84    4.21
   8   1  20    3.01    2.16
   8  -1  21    4.78    3.79
   8   1  21    8.42    4.09
   8  -1  22    3.24    2.11
   8   1  22   10.07    4.38
   8   1  23    6.50    3.12
   8   1  24   16.02    5.13
   8  -2 -28   26.08    6.65
   8  -2 -27   42.50    8.36
   8  -2 -26   11.27    4.86
   8  -2 -25   32.95    6.84
   8  -2 -24   52.51    8.89
   8  -2 -23   19.34    5.34
   8  -2 -22   47.15    8.05
   8  -2 -21   94.58   10.74
   8  -2 -20   18.25    5.94
   8  -2 -19   23.92    5.99
   8   2 -18   91.87   10.45
   8  -2 -18   98.25   11.33
   8   2 -17   63.88    8.25
   8  -2 -17   60.40    8.94
   8   2 -17   68.62    8.72
   8   2 -16   84.94    9.21
   8  -2 -16   67.11    9.16
   8  -2 -16   62.00    8.40
   8   2 -16   89.35    9.97
   8   2 -15  195.85   13.80
   8  -2 -15  225.49   16.47
   8  -2 -15  169.65   13.08
   8   2 -15  199.22   14.36
   8   2 -14   70.86    8.14
   8  -2 -14   74.30    9.13
   8  -2 -14   62.04    7.93
   8   2 -14   88.17    9.59
   8  -2 -13   20.42    4.93
   8  -2 -13   25.82    5.86
   8   2 -13   20.02    4.26
   8   2 -13   30.34    4.93
   8   2 -12  167.20   11.84
   8  -2 -12  164.66   13.24
   8  -2 -12  154.14   12.23
   8   2 -12  183.44   13.10
   8   2 -11  273.00   14.73
   8  -2 -11  282.18   17.17
   8   2 -11  261.22   15.53
   8  -2 -11  251.84   15.17
   8  -2 -10   29.74    4.89
   8   2 -10   33.24    4.32
   8   2 -10   39.91    5.37
   8  -2 -10   30.79    5.50
   8   2 -10   44.55    6.48
   8   2  -9  136.03    8.70
   8   2  -9  111.40    9.12
   8  -2  -9  141.60   11.93
   8   2  -9  133.84   10.87
   8  -2  -9  121.41   10.34
   8  -2  -8  158.37   11.84
   8   2  -8  195.73   10.68
   8   2  -8  187.54   11.60
   8   2  -8  204.76   13.40
   8  -2  -8  194.52   13.78
   8  -2  -7  158.46   11.44
   8   2  -7  138.76    9.34
   8  -2  -7  158.20   12.44
   8   2  -7  151.46   10.41
   8   2  -7  138.89   10.99
   8   2  -6   19.09    4.06
   8   2  -6   11.55    2.69
   8  -2  -6   14.79    3.30
   8  -2  -6   17.34    4.19
   8   2  -6   17.67    4.07
   8  -2  -5  253.28   14.58
   8   2  -5  225.11   13.57
   8  -2  -5  265.18   15.45
   8   2  -5  233.45   12.72
   8   2  -5  254.99   12.74
   8  -2  -4  294.37   15.76
   8  -2  -4  277.64   16.11
   8   2  -4  311.59   14.60
   8   2  -4  322.68   14.50
   8   2  -4  298.91   15.83
   8  -2  -3  286.94   15.38
   8   2  -3  272.91   13.45
   8  -2  -3  264.68   15.61
   8   2  -3  305.36   14.48
   8   2  -3  250.35   14.31
   8  -2  -2  517.89   20.84
   8  -2  -2  518.31   21.73
   8   2  -2  532.67   19.09
   8   2  -2  515.66   18.74
   8   2  -2  502.02   19.76
   8   2  -1  472.82   18.18
   8  -2  -1  488.20   20.16
   8  -2  -1  480.41   20.68
   8   2  -1  462.11   18.92
   8   2   0  197.07   11.88
   8  -2   0  183.36   12.36
   8  -2   0  199.48   13.61
   8   2   0  194.47   12.30
   8   2   1  435.88   18.16
   8  -2   1  476.32   19.92
   8  -2   1  413.71   18.99
   8   2   2  489.72   19.39
   8  -2   2  500.12   20.65
   8  -2   2  554.31   22.13
   8   2   2  526.22   19.89
   8   2   3  267.81   14.05
   8   2   3  261.00   14.37
   8  -2   3  251.83   14.76
   8  -2   3  239.73   14.59
   8   2   4  312.68   15.21
   8   2   4  296.34   15.53
   8  -2   4  282.56   15.64
   8   2   5  266.43   14.09
   8   2   5  229.99   14.02
   8  -2   5  243.31   14.58
   8   2   6   16.24    3.48
   8  -2   6   16.91    3.74
   8   2   6   20.60    4.46
   8   2   7  140.66   10.20
   8   2   7  120.51   10.07
   8  -2   7  125.25   10.58
   8   2   8  201.59   12.11
   8   2   8  185.77   13.07
   8  -2   8  186.21   12.92
   8   2   9  109.58    8.82
   8   2   9  109.39   10.14
   8  -2   9  106.28    9.95
   8   2  10   37.04    5.16
   8  -2  10   44.69    6.39
   8   2  10   27.19    5.37
   8   2  11  269.50   14.23
   8   2  11  273.21   16.53
   8  -2  11  279.73   16.56
   8   2  12  152.09   10.68
   8   2  12  194.39   14.18
   8  -2  12  166.16   12.85
   8   2  13   25.68    4.31
   8  -2  13   31.72    6.13
   8   2  13   25.38    5.32
   8   2  14   71.79    7.42
   8   2  14   91.26    9.93
   8  -2  14   81.83    9.38
   8   2  15  188.31   14.76
   8  -2  15  173.78   13.75
   8   2  15  178.93   11.45
   8   2  16   88.17   10.03
   8  -2  16   83.13    9.73
   8   2  17   63.03    8.90
   8  -2  17   68.30    9.34
   8   2  18   86.03   10.47
   8  -2  18  103.94   11.46
   8   2  19   25.98    6.99
   8  -2  19   16.38    4.72
   8   2  20   11.73    2.84
   8  -2  20   12.93    5.03
   8   2  21   99.95   11.98
   8  -2  21   91.27   11.21
   8   2  22   38.13    7.82
   8   2  23   16.81    5.31
   8   2  24   47.21    9.22
   8   2  25   33.49    7.47
   8  -3 -27   -0.73    2.58
   8  -3 -26   -4.69    3.56
   8  -3 -25    3.33    3.18
   8  -3 -24    0.55    2.07
   8  -3 -23    3.37    2.29
   8  -3 -22    2.96    2.18
   8  -3 -21    0.05    2.46
   8  -3 -20    1.20    2.84
   8  -3 -19   12.88    4.82
   8  -3 -18   19.62    5.57
   8   3 -18   18.50    4.96
   8  -3 -17  138.72   13.67
   8  -3 -17  149.04   13.18
   8   3 -17  165.62   13.74
   8  -3 -16  124.00   12.54
   8  -3 -16   89.42   10.47
   8   3 -16  109.28   11.23
   8  -3 -15   70.05    9.16
   8  -3 -15   52.99    8.17
   8   3 -15   51.20    7.55
   8  -3 -14   62.17    8.89
   8  -3 -14   38.23    6.75
   8   3 -14   54.40    7.61
   8   3 -13   31.96    5.69
   8  -3 -13   31.04    5.79
   8  -3 -13   44.58    7.08
   8   3 -12    4.74    1.86
   8  -3 -12    2.74    2.71
   8   3 -12   -0.47    0.77
   8  -3 -12    3.98    2.36
   8   3 -11   34.85    5.00
   8  -3 -11   47.31    6.99
   8  -3 -11   34.18    6.24
   8   3 -11   42.20    6.41
   8   3 -10   57.18    6.11
   8  -3 -10   67.67    8.76
   8  -3 -10   66.11    8.43
   8   3 -10   51.54    6.97
   8   3  -9   62.59    6.30
   8   3  -9   45.37    5.18
   8  -3  -9   57.71    7.91
   8  -3  -9   69.15    8.36
   8   3  -9   69.63    8.03
   8  -3  -8   57.40    7.99
   8   3  -8   52.71    5.77
   8   3  -8   54.07    5.80
   8  -3  -8   55.91    7.47
   8   3  -8   56.01    7.27
   8  -3  -7   76.75    9.47
   8   3  -7   86.85    7.37
   8   3  -7   65.56    6.53
   8   3  -7   62.90    7.25
   8  -3  -7   83.75    9.35
   8  -3  -6   38.86    6.33
   8   3  -6   31.56    4.92
   8   3  -6   29.46    4.27
   8  -3  -6   20.71    4.83
   8   3  -6   28.55    4.37
   8   3  -5    6.55    3.32
   8  -3  -5    6.33    1.73
   8   3  -5   12.01    3.08
   8   3  -5    8.33    2.65
   8  -3  -5   12.52    3.95
   8   3  -4   -0.78    1.55
   8  -3  -4    0.22    1.33
   8   3  -4    0.59    1.54
   8  -3  -4    0.05    2.06
   8   3  -4   -0.58    1.41
   8   3  -3   40.77    6.16
   8  -3  -3   41.01    6.11
   8   3  -3   42.96    5.64
   8  -3  -3   40.85    6.30
   8   3  -3   41.86    4.99
   8   3  -2   46.52    6.22
   8  -3  -2   42.49    6.37
   8   3  -2   37.99    5.25
   8  -3  -2   51.42    7.32
   8   3  -2   42.54    5.46
   8   3  -1   24.86    4.56
   8  -3  -1   17.04    4.28
   8   3  -1   16.43    3.32
   8  -3  -1   17.45    4.47
   8   3   0   13.51    3.13
   8  -3   0   11.54    3.39
   8  -3   0    5.16    2.42
   8   3   0    4.77    2.07
   8   3   1   17.96    3.98
   8  -3   1   12.31    3.39
   8  -3   1   16.03    4.04
   8   3   1   20.94    4.33
   8   3   2   46.66    6.30
   8  -3   2   52.08    6.68
   8   3   2   45.80    6.12
   8  -3   2   49.36    6.92
   8   3   3   43.43    6.12
   8  -3   3   46.27    6.69
   8   3   3   47.40    6.38
   8  -3   3   47.12    6.95
   8   3   4    1.44    1.29
   8   3   4   -1.38    2.07
   8  -3   4    0.64    1.41
   8  -3   4   -0.12    1.22
   8   3   5   12.40    3.72
   8   3   5    9.21    3.04
   8  -3   5    7.55    3.08
   8   3   6   27.85    4.78
   8  -3   6   30.13    5.43
   8   3   6   25.13    5.14
   8   3   7   77.23    8.10
   8  -3   7   70.24    8.07
   8   3   8   60.81    7.20
   8  -3   8   49.78    6.80
   8   3   8   58.77    7.54
   8   3   9   58.69    6.98
   8  -3   9   49.14    7.01
   8   3   9   60.23    7.80
   8   3  10   59.06    6.70
   8  -3  10   36.27    6.26
   8   3  10   55.79    7.89
   8   3  11   45.08    6.14
   8  -3  11   36.95    6.60
   8   3  11   41.56    6.86
   8   3  12    2.29    2.16
   8   3  12    2.24    2.33
   8  -3  12    1.35    1.58
   8   3  13   31.74    5.46
   8   3  13   44.43    7.48
   8  -3  13   50.11    7.53
   8   3  14   33.28    6.35
   8   3  14   52.75    6.87
   8  -3  14   53.07    8.12
   8   3  15   62.26    7.54
   8   3  15   59.93    8.34
   8  -3  15   59.72    8.13
   8   3  16  113.52   11.52
   8  -3  16  109.08   11.10
   8   3  17  132.93   13.11
   8  -3  17  151.22   13.07
   8  -3  18    9.70    3.45
   8   3  18   14.72    4.93
   8  -3  19   10.03    3.58
   8   3  19   11.74    3.96
   8  -3  20    3.25    2.93
   8   3  20    2.90    3.39
   8   3  21   -0.92    2.40
   8   3  22   -1.38    2.89
   8   3  23    3.40    2.97
   8   3  24    4.15    2.56
   8   3  25    0.71    2.32
   8   3  26    3.46    3.39
   8  -4 -26    5.36    4.64
   8  -4 -25   51.26    8.76
   8  -4 -24   48.09    8.43
   8  -4 -23    3.25    4.07
   8  -4 -22   24.13    6.12
   8  -4 -21   48.78    8.41
   8  -4 -20   -1.25    2.20
   8  -4 -19   15.07    5.40
   8  -4 -19    6.89    4.10
   8  -4 -18   33.59    7.00
   8  -4 -18   29.88    6.46
   8   4 -18   36.69    6.79
   8  -4 -17    3.16    3.89
   8  -4 -17   13.04    4.59
   8   4 -17    9.99    4.04
   8  -4 -16  103.62   11.78
   8  -4 -16  122.17   12.09
   8   4 -16  109.96   11.81
   8  -4 -15  211.56   16.31
   8  -4 -15  173.05   15.02
   8   4 -15  182.07   14.71
   8  -4 -14   54.13    8.81
   8  -4 -14   55.09    8.31
   8   4 -14   58.18    8.27
   8  -4 -13   39.42    7.51
   8  -4 -13   43.41    7.47
   8   4 -13   46.25    7.46
   8  -4 -12   41.34    6.83
   8  -4 -12   50.02    7.70
   8   4 -12   38.12    6.46
   8  -4 -11  143.93   12.62
   8   4 -11  132.81   11.89
   8  -4 -10   25.60    5.62
   8  -4 -10   30.69    6.64
   8   4 -10   37.58    6.07
   8   4  -9   36.11    5.80
   8  -4  -9   37.20    6.21
   8  -4  -9   32.15    6.21
   8   4  -8   11.06    3.49
   8  -4  -8    7.20    2.84
   8   4  -8   12.08    3.04
   8  -4  -8    9.13    3.35
   8   4  -7  105.77   10.39
   8   4  -7  109.46    8.66
   8  -4  -7  108.77   11.07
   8  -4  -7   98.26   10.20
   8   4  -6   23.13    5.22
   8   4  -6   18.05    3.43
   8  -4  -6   28.76    5.94
   8  -4  -6   30.64    5.97
   8   4  -5  430.69   20.37
   8   4  -5  379.54   16.97
   8  -4  -5  341.49   19.20
   8   4  -5  393.39   14.87
   8  -4  -5  383.47   19.59
   8   4  -4  204.51   13.73
   8   4  -4  201.68   12.70
   8  -4  -4  194.32   14.45
   8   4  -4  185.17   10.32
   8  -4  -4  206.53   14.79
   8  -4  -3   62.33    8.27
   8   4  -3   62.03    7.83
   8   4  -3   49.55    6.22
   8  -4  -3   61.92    8.25
   8   4  -3   58.51    5.96
   8  -4  -2  367.27   19.54
   8   4  -2  356.64   18.31
   8   4  -2  335.79   16.67
   8  -4  -2  296.97   17.53
   8   4  -2  310.21   14.42
   8  -4  -1  589.01   24.07
   8   4  -1  657.52   25.05
   8   4  -1  619.83   22.92
   8  -4  -1  609.98   24.89
   8   4   0   58.96    7.53
   8  -4   0   71.94    8.51
   8   4   0   78.36    8.02
   8  -4   0   67.28    8.16
   8   4   1  624.90   24.22
   8  -4   1  602.49   24.84
   8   4   1  609.21   23.11
   8  -4   1  615.75   25.00
   8   4   2  337.95   17.94
   8  -4   2  358.26   19.08
   8   4   2  381.10   18.43
   8  -4   2  331.71   18.43
   8   4   3   55.57    7.40
   8  -4   3   48.50    7.17
   8   4   3   47.41    6.12
   8   4   4  212.73   14.17
   8  -4   4  213.96   14.95
   8   4   4  222.53   14.34
   8  -4   4  191.74   13.87
   8   4   5  416.87   19.67
   8  -4   5  412.76   20.62
   8   4   5  379.57   18.99
   8  -4   5  395.40   19.77
   8   4   6   24.97    5.52
   8   4   6   21.63    5.05
   8  -4   6   24.51    5.53
   8  -4   6    9.49    1.72
   8   4   7  110.87   10.34
   8   4   7  111.26   10.53
   8  -4   7  106.25   10.57
   8  -4   7  105.25   10.67
   8   4   8   16.57    4.25
   8   4   8   14.70    5.21
   8  -4   8   13.59    4.25
   8   4   9   26.77    5.40
   8   4   9   22.08    4.55
   8  -4   9   28.37    5.34
   8   4  10   38.68    6.45
   8  -4  10   32.09    6.02
   8   4  10   34.17    6.02
   8   4  11  130.80   11.51
   8  -4  11  115.13   11.25
   8   4  11  123.86   11.56
   8   4  12   43.65    6.87
   8  -4  12   46.91    7.47
   8   4  12   53.62    7.77
   8   4  13   47.22    7.00
   8  -4  13   56.20    8.17
   8   4  13   54.02    8.14
   8   4  14   65.42    7.89
   8  -4  14   62.24    8.62
   8   4  14   51.65    7.84
   8   4  15  190.90   14.04
   8  -4  15  176.23   14.76
   8   4  15  175.88   14.81
   8   4  16  140.53   11.94
   8  -4  16  123.70   13.01
   8   4  16  119.12   12.28
   8   4  17    7.11    3.28
   8  -4  17    6.28    2.57
   8   4  18   42.94    7.99
   8  -4  18   33.01    6.48
   8   4  19   28.85    6.82
   8   4  20    0.16    2.64
   8   4  21   38.98    7.80
   8   4  22   36.62    7.11
   8   4  23   -0.54    2.81
   8   4  24   50.32    9.52
   8   4  25   47.55    9.34
   8   4  26   -2.07    2.03
   8  -5 -25    4.93    3.69
   8  -5 -24   -0.16    2.21
   8  -5 -23    0.17    2.47
   8  -5 -22   -1.41    2.12
   8  -5 -21    3.61    2.20
   8  -5 -20   -0.56    2.72
   8  -5 -19    8.41    3.61
   8  -5 -19    3.46    2.81
   8  -5 -18    9.51    4.69
   8  -5 -18   11.97    5.13
   8   5 -17   18.24    5.58
   8  -5 -17   17.56    5.80
   8  -5 -17   19.47    5.51
   8  -5 -16   41.17    8.08
   8  -5 -16   43.88    8.12
   8   5 -16   38.00    7.45
   8   5 -15   44.61    7.29
   8  -5 -15   36.22    7.43
   8  -5 -15   32.65    6.84
   8   5 -14   40.08    6.98
   8  -5 -14   39.75    7.77
   8  -5 -14   32.29    6.31
   8   5 -13   13.00    4.35
   8  -5 -13   15.78    5.79
   8  -5 -13   13.63    5.28
   8   5 -12   28.76    5.92
   8  -5 -12   24.49    5.85
   8  -5 -12   18.92    5.54
   8   5 -11   23.53    5.35
   8  -5 -11   13.62    3.98
   8  -5 -11   17.05    5.10
   8  -5 -10    0.66    2.63
   8   5 -10    1.70    1.68
  -8   5 -10   -2.26    1.50
   8  -5 -10   -0.24    1.76
   8  -5  -9   13.57    4.45
   8   5  -9    5.73    2.92
   8  -5  -9    9.37    3.54
   8  -5  -8   23.07    5.66
   8   5  -8   19.59    4.97
   8  -5  -8   17.93    5.08
   8   5  -7   73.60    8.78
   8   5  -7   82.71    8.37
   8  -5  -7   66.24    8.95
   8  -5  -7   63.89    9.21
   8  -5  -6   29.10    5.85
   8   5  -6   28.35    5.73
   8  -5  -6   27.68    6.26
   8   5  -6   27.76    4.83
   8   5  -5   17.50    4.24
   8  -5  -5   18.11    4.68
   8   5  -5   17.63    4.28
   8  -5  -5   14.72    3.37
   8   5  -4   64.07    8.71
   8   5  -4   62.41    7.51
   8  -5  -4   71.79    8.99
   8  -5  -4   65.76    8.80
   8   5  -3   49.48    7.37
   8   5  -3   66.79    7.55
   8  -5  -3   61.32    8.46
   8  -5  -3   49.40    8.06
   8   5  -2   41.17    6.57
   8   5  -2   36.53    5.95
   8  -5  -2   21.43    4.01
   8  -5  -2   34.33    6.21
   8   5  -1   15.46    4.80
   8  -5  -1   14.89    3.88
   8   5  -1   16.72    3.95
   8  -5  -1   15.42    4.63
   8   5   0   23.49    4.70
   8  -5   0   14.49    4.07
   8   5   0   20.14    4.19
   8   5   1   26.05    5.24
   8  -5   1   17.58    5.19
   8   5   1   24.68    4.93
   8  -5   1   17.50    4.62
   8   5   2   28.47    5.70
   8  -5   2   38.40    6.54
   8   5   2   34.38    6.24
   8  -5   2   31.02    5.57
   8  -5   3   55.94    8.04
   8   5   3   46.80    7.07
   8   5   3   50.73    7.37
   8  -5   3   48.62    7.64
   8  -5   4   72.52    9.11
   8   5   4   64.66    7.83
   8   5   4   54.16    7.61
   8  -5   4   70.97    8.48
   8   5   5   18.98    4.64
   8  -5   5   28.64    5.84
   8   5   5   23.63    5.29
   8  -5   5   21.76    5.02
   8   5   6   24.10    4.60
   8  -5   6   22.54    5.21
   8   5   6   28.26    5.86
   8  -5   6   13.43    4.21
   8  -5   7   66.95    9.36
   8   5   7   63.79    8.48
   8   5   7   68.07    8.43
   8  -5   7   59.48    8.10
   8   5   8   26.57    5.57
   8  -5   8   15.93    4.82
   8   5   8   22.01    5.28
   8  -5   8   23.81    5.61
   8   5   9    3.26    2.62
   8  -5   9    6.70    1.42
   8   5   9    4.56    2.03
   8  -5   9    8.46    3.62
   8   5  10    0.37    2.05
   8  -5  10    5.78    3.39
   8   5  10   -0.02    1.69
   8  -5  10    1.90    3.02
   8   5  11   20.50    4.61
   8  -5  11   13.95    4.43
   8   5  11   15.11    4.21
   8   5  12   23.39    4.93
   8  -5  12   13.82    4.23
   8   5  12   16.48    5.16
   8   5  13   17.51    4.95
   8  -5  13   10.24    4.49
   8   5  13    6.77    2.79
   8   5  14   25.92    5.31
   8  -5  14   31.60    6.40
   8   5  14   39.30    7.28
   8   5  15   46.10    7.07
   8  -5  15   27.23    6.16
   8   5  15   34.42    6.51
   8   5  16   35.20    6.48
   8  -5  16   35.98    6.58
   8   5  16   46.02    8.00
   8   5  17   23.36    5.51
   8   5  17   14.35    5.42
   8  -5  17   18.58    5.91
   8   5  18    8.05    3.85
   8   5  19    8.70    3.81
   8   5  20    1.93    2.53
   8   5  21    8.48    4.61
   8   5  22    1.23    2.84
   8   5  23   -2.53    2.36
   8   5  24    1.12    3.38
   8   5  25    1.58    2.48
   8  -6 -23    0.32    2.09
   8  -6 -22    4.03    3.83
   8  -6 -21   41.03    8.12
   8  -6 -20    9.71    3.33
   8  -6 -20    0.65    1.83
   8  -6 -19   14.36    5.29
   8  -6 -19   10.96    4.27
   8  -6 -18   47.69    8.92
   8  -6 -18   38.63    7.94
   8  -6 -17   26.13    5.83
   8  -6 -17   25.35    6.33
   8   6 -16   22.44    5.42
   8  -6 -16   29.29    6.68
   8  -6 -16   27.07    6.92
   8  -6 -15  106.18   12.24
   8  -6 -15  111.38   12.77
   8   6 -15   86.70   10.99
   8  -6 -14   45.47    8.16
   8  -6 -14   40.96    7.77
   8   6 -14   56.95    8.96
   8   6 -13    3.03    2.41
   8  -6 -13    3.87    1.99
   8  -6 -13    5.35    3.08
   8   6 -12   83.78   10.63
   8  -6 -12   84.76   10.75
   8  -6 -12   55.78    8.88
   8   6 -11  140.02   13.15
   8  -6 -11  141.06   13.48
   8  -6 -11  134.05   13.44
   8   6 -10   27.77    5.92
   8  -6 -10   20.39    5.57
   8  -6 -10   26.49    6.10
   8   6  -9  106.07   11.22
  -8   6  -9   94.78   10.08
   8  -6  -9   82.14   10.38
   8  -6  -9   91.36   10.84
   8   6  -8   45.39    7.79
  -8   6  -8   57.29    7.79
   8  -6  -8   45.21    7.91
   8  -6  -8   48.72    7.80
   8  -6  -7   23.75    5.90
   8   6  -7   25.08    5.26
  -8   6  -7   38.03    6.24
   8  -6  -7   27.24    6.71
   8   6  -6  199.59   15.12
   8  -6  -6  180.87   14.66
   8   6  -6  164.64   12.62
  -8   6  -6  170.56   13.58
   8  -6  -6  160.12   14.78
   8   6  -5  208.90   15.63
   8   6  -5  213.67   14.39
   8  -6  -5  223.93   16.93
   8  -6  -5  240.42   17.23
   8  -6  -4   29.09    6.26
   8   6  -4   20.94    4.91
   8   6  -4   15.73    4.25
   8  -6  -4   18.46    4.72
   8   6  -3   53.92    8.07
   8  -6  -3   55.36    8.51
   8   6  -3   67.21    8.18
   8  -6  -3   51.20    8.44
   8   6  -2   81.49    9.59
   8  -6  -2   76.40    9.36
   8   6  -2   58.80    8.19
   8  -6  -2   76.88    9.50
   8   6  -1   79.13    9.82
   8  -6  -1   63.15    9.29
   8   6  -1  102.82   10.37
   8  -6  -1   78.77    9.88
   8   6   0  105.27   10.78
   8  -6   0   95.54   10.89
   8   6   0  113.53   10.75
   8  -6   0  108.18   11.52
   8   6   1   95.93   10.61
   8  -6   1  100.31   10.71
   8  -6   1   90.13   10.73
   8   6   2   77.26    9.17
   8  -6   2   63.79    8.44
   8   6   2   64.90    8.59
   8  -6   2   79.60    9.71
   8   6   3   63.55    8.37
   8  -6   3   67.60    9.24
   8   6   3   59.57    8.17
   8  -6   3   57.40    8.31
   8  -6   4   14.06    4.14
   8   6   4   22.56    5.19
   8   6   4   10.21    3.96
   8  -6   4    9.81    4.11
   8   6   5  212.62   15.75
   8  -6   5  212.77   16.50
   8   6   5  219.15   15.57
   8  -6   5  242.06   17.13
   8   6   6  202.28   14.88
   8  -6   6  180.55   15.36
   8   6   6  219.58   15.74
   8  -6   6  196.82   15.32
   8  -6   7   16.75    5.20
   8   6   7   34.44    6.04
   8   6   7   26.17    5.84
   8  -6   7   25.70    6.40
   8  -6   8   51.52    8.53
   8   6   8   42.73    7.08
   8  -6   8   46.02    8.30
   8  -6   9   84.93   10.68
   8   6   9   79.98    9.77
   8  -6   9   80.25    9.68
   8   6   9   91.66   10.45
   8   6  10   20.54    5.30
   8  -6  10   29.10    6.27
   8   6  10   32.35    6.25
   8  -6  10   20.37    5.16
   8  -6  11  152.87   13.86
   8   6  11  155.09   13.74
   8   6  11  143.47   13.58
   8  -6  11  133.56   13.45
   8  -6  12   67.81    9.86
   8   6  12   83.49   10.01
   8   6  12   63.35    8.96
   8  -6  12   77.97   10.78
   8   6  13   -2.57    3.11
   8   6  13    4.59    3.07
   8  -6  13    3.18    2.72
   8  -6  13    3.49    3.13
   8  -6  14   48.85    9.11
   8   6  14   43.39    7.52
   8   6  14   53.83    8.53
   8  -6  14   65.70    9.20
   8   6  15  123.95   12.23
   8   6  15  125.92   12.79
   8   6  16   20.39    5.11
   8  -6  16   13.82    5.29
   8   6  16   27.83    6.55
   8   6  17   16.98    5.61
   8   6  17   29.74    6.78
   8   6  18   49.80    8.60
   8   6  19   10.99    4.28
   8   6  20    3.85    4.13
   8   6  21   26.16    7.04
   8   6  22    8.84    3.62
   8   6  23    2.55    2.43
  -8   6  23    1.83    2.88
   8  -7 -21   -1.35    3.03
   8  -7 -21   -3.75    5.00
   8  -7 -20    1.47    2.33
   8  -7 -20    0.76    2.42
   8  -7 -19    0.38    3.12
   8  -7 -19   13.79    5.83
   8  -7 -18   12.30    4.52
   8  -7 -18    8.03    4.67
   8  -7 -17    8.44    4.84
   8  -7 -17    5.93    3.62
   8   7 -16    2.38    3.13
   8  -7 -16   -2.03    2.23
   8  -7 -16    7.54    4.49
   8   7 -15    0.71    3.65
   8  -7 -15    3.83    4.07
   8  -7 -15   -0.24    2.95
   8   7 -14   10.26    3.50
   8  -7 -14    7.17    3.73
   8  -7 -14    0.45    2.96
   8   7 -13    7.72    3.73
   8  -7 -13   10.63    4.97
   8  -7 -13    4.40    1.86
   8   7 -12   36.83    7.02
   8  -7 -12   37.62    7.75
   8  -7 -12   44.18    8.13
   8   7 -11   54.18    8.62
   8  -7 -11   51.14    8.93
   8  -7 -11   63.69    9.61
   8   7 -10   38.64    7.27
   8  -7 -10   20.94    6.25
   8  -7 -10   32.52    7.27
   8   7  -9    4.02    2.16
   8  -7  -9    6.14    3.72
   8  -7  -9    5.69    4.18
   8   7  -8   38.23    6.98
  -8   7  -8   39.02    6.77
   8  -7  -8   51.23    8.54
   8  -7  -8   57.57    9.06
   8   7  -7   43.76    7.39
   8  -7  -7   49.90    8.64
   8  -7  -7   57.46    8.88
  -8   7  -7   41.75    6.94
   8   7  -6   12.17    4.40
   8  -7  -6   19.00    6.11
  -8   7  -6   15.31    4.72
   8  -7  -6   14.97    4.47
   8   7  -5   68.46    9.44
   8  -7  -5   92.88   11.03
  -8   7  -5   75.25    9.72
   8  -7  -5   65.20    9.54
   8  -7  -4   28.61    6.52
   8   7  -4   34.68    6.29
   8  -7  -4   23.66    6.28
   8   7  -4   39.51    6.57
  -8   7  -4   27.15    6.13
   8   7  -3   54.01    8.85
  -8   7  -3   57.94    8.25
   8  -7  -3   50.75    8.88
   8   7  -3   31.53    5.82
   8  -7  -3   42.24    7.93
   8  -7  -2   33.72    6.62
   8   7  -2   38.20    6.91
  -8   7  -2   35.33    6.59
   8   7  -2   31.97    5.88
   8  -7  -2   28.10    6.52
   8   7  -1   68.02    9.03
  -8   7  -1   57.44    8.38
   8  -7  -1   77.25   10.71
   8  -7  -1   65.32    9.17
   8   7   0   87.87   10.35
  -8   7   0   93.28   10.73
   8  -7   0   66.97    9.40
   8   7   0  104.56   10.93
   8  -7   0  115.02   11.95
   8   7   1   65.73    9.02
   8  -7   1   55.04    8.59
   8   7   1   73.29    9.31
   8  -7   1   64.39    9.89
   8  -7   2   37.82    7.47
   8   7   2   40.98    7.70
   8  -7   2   43.79    7.74
   8   7   2   33.63    6.65
   8   7   3   37.76    6.23
   8  -7   3   63.58    9.27
   8   7   3   44.59    6.94
   8  -7   3   63.34    9.01
   8  -7   4   25.47    5.94
   8   7   4   22.61    4.90
   8  -7   4   39.77    7.31
   8   7   4   37.85    7.01
   8   7   5   71.62    9.08
   8  -7   5   69.34    9.67
   8   7   5   72.65    9.28
   8  -7   5   79.69   10.12
   8  -7   6   18.94    4.95
   8   7   6   17.81    4.88
   8  -7   6   12.88    4.42
   8   7   6   14.08    3.56
   8  -7   7   40.41    7.24
   8   7   7   33.05    6.40
   8  -7   7   50.64    8.65
   8   7   7   39.53    7.30
   8   7   8   60.66    8.90
   8  -7   8   49.80    8.26
   8   7   8   53.13    8.05
   8  -7   8   48.51    8.54
   8  -7   9    4.81    3.42
   8   7   9    0.34    2.15
   8  -7   9   -2.27    3.27
   8   7   9   -2.35    3.19
   8  -7  10   24.15    5.54
   8   7  10   25.96    5.76
   8  -7  10   26.41    6.42
   8   7  10   30.30    6.84
   8   7  11   50.78    8.45
   8  -7  11   22.17    4.60
   8  -7  11   46.06    8.51
   8   7  11   49.34    7.43
   8  -7  12   34.83    6.75
   8   7  12   35.85    7.07
   8   7  12   51.67    7.98
   8  -7  13    8.33    4.91
   8   7  13   10.44    4.54
   8   7  13    3.84    1.86
   8  -7  14   -1.47    2.65
   8   7  14    8.11    4.11
   8   7  14    4.92    3.28
   8   7  15    0.71    3.39
   8   7  15    1.47    2.41
   8   7  16   13.86    6.34
   8   7  16    5.84    3.89
   8   7  17   -0.68    2.92
  -8   7  17    6.59    2.75
   8   7  17    1.17    2.33
  -8   7  18    7.48    4.19
   8   7  18    5.30    2.86
   8   7  19    3.34    3.10
  -8   7  19    5.19    2.29
   8   7  20    6.98    4.39
  -8   7  20    8.51    4.17
   8   7  21    7.88    4.19
  -8   7  21   10.99    5.94
   8  -8 -19    5.54    3.37
   8  -8 -19    2.42    3.64
   8  -8 -18   18.20    6.10
   8  -8 -18   25.84    6.26
   8  -8 -17   61.88    9.50
   8  -8 -17   42.04    8.53
   8  -8 -16    0.09    2.49
   8  -8 -16   -0.36    2.05
   8   8 -15   19.31    5.79
   8  -8 -15   15.00    3.87
   8  -8 -15   30.55    7.40
   8  -8 -14   27.24    7.41
   8   8 -14   26.82    6.80
   8  -8 -14   22.56    6.52
   8   8 -13   -0.62    1.70
   8  -8 -13    3.94    2.82
   8  -8 -13    2.26    3.79
   8   8 -12   57.05    9.11
   8  -8 -12   45.65    7.89
   8  -8 -12   37.04    7.97
   8   8 -11   92.77   12.07
   8  -8 -11   83.59   11.51
   8  -8 -11   81.65   11.36
   8  -8 -10    6.29    4.33
   8  -8 -10    1.84    1.76
   8   8  -9   52.75    8.88
   8  -8  -9   60.14    9.42
   8  -8  -9   60.75   10.03
   8   8  -8   40.87    7.75
   8  -8  -8   58.49    9.49
  -8   8  -8   74.06   11.01
   8  -8  -8   70.88   10.14
   8   8  -7   15.20    4.45
   8  -8  -7   20.95    5.85
   8  -8  -7   12.14    3.96
  -8   8  -7   14.04    4.29
   8   8  -6   24.93    5.58
  -8   8  -6   22.59    6.15
   8  -8  -6   18.20    5.29
   8  -8  -6   20.38    5.17
   8   8  -5   74.53   10.09
  -8   8  -5   71.91    9.89
   8  -8  -5   73.22   11.04
   8  -8  -5   83.72   11.41
   8   8  -4    7.22    3.40
   8  -8  -4   15.67    5.10
   8  -8  -4   11.70    4.67
   8   8  -3   10.90    4.05
   8  -8  -3    7.37    3.53
   8   8  -3   11.87    4.52
  -8   8  -3   12.75    3.73
   8  -8  -3    5.04    3.34
   8   8  -2   50.95    8.22
  -8   8  -2   48.24    8.66
   8  -8  -2   78.33   10.21
   8  -8  -2   47.36    8.53
   8   8  -2   50.89    7.95
   8  -8  -1   37.87    7.86
   8   8  -1   24.11    5.97
  -8   8  -1   38.84    7.27
   8  -8  -1   45.49    8.04
   8   8  -1   38.96    7.04
   8  -8   0    3.28    2.00
   8   8   0    2.86    2.07
  -8   8   0    3.73    2.37
   8  -8   0    9.22    4.04
   8  -8   1   22.80    6.12
   8   8   1   28.87    6.68
   8  -8   1   19.94    4.80
   8   8   1   25.09    5.49
   8  -8   2   41.74    8.02
   8   8   2   51.38    8.64
  -8   8   2   45.90    7.66
   8  -8   2   42.50    8.28
   8   8   2   48.71    7.83
   8  -8   3    3.53    2.11
   8   8   3    5.25    3.43
  -8   8   3   11.80    4.21
   8  -8   3   13.29    4.85
   8   8   3    6.89    3.45
   8  -8   4   11.47    4.37
   8   8   4   31.34    7.05
  -8   8   4   12.34    4.46
   8  -8   4   15.35    4.92
   8   8   4   29.38    6.71
   8   8   5   71.26   10.05
  -8   8   5   89.20   10.72
   8  -8   5   82.02   10.92
   8  -8   5   73.71   10.48
   8   8   5   92.76   11.15
   8  -8   6   32.88    7.38
   8   8   6   16.39    4.87
  -8   8   6   26.44    6.67
   8   8   6   22.20    5.60
   8  -8   7   28.67    6.53
  -8   8   7   26.45    6.89
   8   8   7   17.07    5.73
   8   8   7   14.40    5.89
   8   8   8   58.69    9.20
  -8   8   8   59.98    9.22
   8  -8   8   74.64   10.71
   8   8   8   63.35    9.04
   8  -8   9   56.24    9.02
   8   8   9   73.87   10.24
  -8   8   9   49.31    8.63
   8   8   9   67.65    9.73
   8  -8  10    7.67    3.78
   8   8  10    4.94    2.01
  -8   8  10    6.86    4.34
   8   8  10   12.72    4.06
   8   8  11   84.57   11.67
  -8   8  11   78.44   11.00
   8  -8  11   85.35   11.38
   8   8  11  120.72   12.85
   8  -8  12   43.88    7.96
   8   8  12   58.18    9.17
  -8   8  12   45.26    7.91
   8   8  12   57.48    8.78
   8  -8  13    3.01    3.66
   8   8  13    5.59    4.76
  -8   8  13    3.78    3.35
   8   8  13    3.26    3.33
   8   8  14   13.18    4.25
  -8   8  14   14.13    4.99
   8   8  15   26.71    6.68
  -8   8  15   30.52    7.11
   8   8  15   24.85    6.12
   8   8  16    1.14    2.54
  -8   8  16    3.86    3.45
   8   8  16   -0.10    3.09
   8   8  17   76.59   11.29
   8   8  17   68.89   10.02
   8   8  18   27.30    6.85
  -8   8  18   34.58    7.58
   8   8  19    4.77    3.21
  -8   8  19    1.28    3.35
   8  -9 -15   11.81    4.01
   8  -9 -15   13.13    5.30
   8   9 -14    6.62    4.05
   8  -9 -14    8.28    5.33
   8  -9 -14    9.78    4.70
   8   9 -13    7.74    4.09
   8  -9 -13   11.65    4.40
   8  -9 -13   10.74    3.63
   8   9 -12    6.97    3.76
   8  -9 -12    2.23    2.96
   8  -9 -12    3.18    2.45
   8   9 -11    5.43    3.73
   8  -9 -11    5.25    2.29
   8  -9 -11    4.86    3.58
   8  -9 -10    7.57    3.69
   8   9 -10    6.66    3.58
   8  -9 -10    6.11    3.80
   8   9  -9    2.03    3.04
   8  -9  -9    1.25    3.90
   8  -9  -9    4.36    2.03
   8   9  -8    6.18    3.18
   8  -9  -8    4.82    4.10
   8  -9  -8   12.01    5.38
   8   9  -7   -1.17    2.32
   8  -9  -7    0.04    2.34
  -8   9  -7    3.32    3.33
   8  -9  -7   -0.79    2.22
   8   9  -6    0.85    1.83
  -8   9  -6    0.11    3.03
   8  -9  -6    0.93    3.44
   8  -9  -6    3.95    3.54
   8   9  -5   14.76    4.56
  -8   9  -5   19.18    5.70
   8  -9  -5   17.18    6.03
   8  -9  -5   13.50    4.23
   8   9  -4    4.36    2.77
  -8   9  -4    5.11    3.63
   8  -9  -4    1.65    2.29
   8  -9  -4    3.68    2.70
  -8   9  -3    1.58    2.22
   8   9  -3    6.51    4.28
   8  -9  -3    7.57    4.47
   8  -9  -3   11.19    4.25
   8   9  -2    3.16    1.95
  -8   9  -2    7.53    2.99
   8  -9  -2   16.78    5.22
   8   9  -2   13.76    6.34
   8  -9  -2   16.34    5.27
   8   9  -1    5.67    2.15
  -8   9  -1   10.95    4.40
   8  -9  -1    5.42    3.39
   8   9  -1    0.23    1.95
   8  -9  -1   10.56    4.78
   8   9   0    0.04    1.90
  -8   9   0    2.04    2.86
   8   9   0    4.85    3.36
   8  -9   0   -2.55    3.22
   8   9   1    5.53    3.74
  -8   9   1    7.57    3.75
   8   9   1    4.38    4.45
   8  -9   1   13.92    5.14
   8   9   2   12.71    4.07
  -8   9   2   11.72    4.45
   8  -9   2   10.97    4.86
   8   9   2    9.55    4.40
   8   9   3   11.39    4.55
   8   9   3    5.81    3.77
  -8   9   3    3.35    2.35
   8  -9   3    4.90    2.93
   8   9   4    6.68    4.63
   8   9   4   -0.51    2.78
  -8   9   4    4.35    4.50
   8  -9   4    2.46    3.07
   8   9   5   16.31    5.51
  -8   9   5   14.80    4.94
   8   9   5   26.12    6.55
   8  -9   5   21.75    6.51
   8   9   6    4.48    3.89
   8   9   6    1.54    2.54
  -8   9   6    1.73    2.77
   8  -9   6   -0.13    2.84
   8  -9   7   -0.41    2.25
   8   9   7    3.00    3.87
  -8   9   7    3.26    2.69
   8   9   7   -0.79    3.32
   8  -9   8   10.73    3.96
   8   9   8    6.39    3.03
   8   9   8   13.32    5.25
  -8   9   8    7.53    3.52
   8  -9   9   -0.36    3.63
   8   9   9   -1.16    2.42
  -8   9   9   -4.30    3.98
   8   9   9    3.79    4.15
   8  -9  10    6.78    3.52
   8   9  10   15.14    5.36
  -8   9  10    5.62    2.59
   8   9  10    8.93    4.62
   8  -9  11   -2.17    5.52
   8   9  11   -0.97    2.35
  -8   9  11    7.01    4.19
   8   9  11    4.83    3.99
   8   9  12    7.41    4.19
  -8   9  12    9.42    3.79
   8   9  12    6.77    3.63
   8   9  13   10.96    5.27
  -8   9  13   15.29    4.94
   8   9  13    9.41    4.21
   8   9  14    3.43    1.97
  -8   9  14    8.67    4.27
   8   9  14    6.66    3.90
  -8   9  15   16.97    5.58
   8   9  15   10.61    3.80
   8   9  15   15.46    3.85
   8  10 -10    1.12    2.62
   8 -10 -10   -3.92    4.84
   8 -10 -10    0.68    3.21
   8  10  -9   23.74    6.45
   8 -10  -9   35.26    9.60
   8 -10  -9   27.59    7.49
   8  10  -8   21.94    7.33
   8 -10  -8   19.00    6.90
   8 -10  -8   28.47    7.19
   8  10  -7    9.60    4.02
   8 -10  -7    2.62    2.40
   8  10  -6    0.64    4.26
  -8  10  -6    0.19    3.61
   8 -10  -6    2.40    3.59
   8  10  -5   28.01    6.43
  -8  10  -5   41.28    8.39
   8 -10  -5   38.62    7.82
   8  10  -4   16.69    4.48
  -8  10  -4   13.78    5.56
   8 -10  -4   10.61    4.29
   8  10  -3   -0.23    1.88
  -8  10  -3   -0.27    2.28
   8 -10  -3    1.68    2.69
   8  10  -2   10.99    4.99
  -8  10  -2    9.59    4.16
   8 -10  -2   17.79    5.59
   8  10  -1   17.55    5.64
  -8  10  -1    6.31    4.58
   8 -10  -1   16.82    5.45
   8  10   0    3.73    4.31
  -8  10   0   -1.08    3.26
   8 -10   0    3.16    3.23
   8  10   0   -2.67    3.26
   8  10   1   16.89    5.64
  -8  10   1   20.89    5.12
   8 -10   1    8.77    4.55
   8  10   1   16.98    5.35
   8  10   2   10.72    4.59
  -8  10   2   19.22    5.72
   8 -10   2    7.87    3.28
   8  10   2   12.59    6.03
   8  10   3    3.56    5.33
  -8  10   3   -1.23    2.08
   8 -10   3    1.30    3.83
   8  10   3    0.10    2.85
   8  10   4   12.20    5.49
   8  10   4   11.97    4.68
  -8  10   4   14.96    4.39
   8 -10   4   24.95    7.71
   8  10   5   38.31    7.87
   8  10   5   18.34    5.77
  -8  10   5   34.61    8.10
   8 -10   5   33.27    7.92
   8  10   6    3.84    2.70
   8  10   6   -1.14    2.02
  -8  10   6    4.89    3.88
   8 -10   6   -3.12    2.66
   8  10   7   16.12    5.16
   8  10   7   -0.73    4.16
  -8  10   7   11.06    3.98
   8 -10   7    0.62    2.85
   8  10   8   26.90    6.57
  -8  10   8   15.82    6.89
   8 -10   8   16.36    5.39
   8  10   8   13.08    4.91
   8  10   9   24.88    7.35
  -8  10   9   29.59    7.14
   8 -10   9   25.30    6.33
   8  10   9   31.53    6.85
   8  10  10   -0.92    3.64
  -8  10  10    2.51    2.34
   8  10  10   -3.04    3.33
   8 -10  10   -1.01    2.63
   9   0 -26    0.01    2.80
   9   0 -25    3.02    3.55
   9   0 -24   -4.95    3.94
   9   0 -23   -4.75    3.36
   9   0 -22    1.22    2.79
   9   0 -21    2.46    2.68
   9   0 -20    0.62    2.18
   9   0 -19    0.89    3.07
   9   0 -18    3.85    3.13
   9   0 -17   -2.36    3.23
   9   0 -16    0.93    2.14
   9   0 -15    1.73    1.87
   9   0 -14    0.61    2.47
   9   0 -13    0.23    1.20
   9   0 -13    2.08    2.67
   9   0 -12    2.48    1.82
   9   0 -12    0.34    2.28
   9   0 -11    1.24    1.24
   9   0 -11   -1.69    2.43
   9   0 -10    1.80    1.96
   9   0 -10    0.26    1.15
   9   0  -9   -0.32    1.69
   9   0  -9   -1.88    1.25
   9   0  -8    0.08    1.05
   9   0  -8    0.50    2.13
   9   0  -7   -0.23    1.84
   9   0  -7    0.67    1.28
   9   0  -7    0.10    1.69
   9   0  -6   -0.47    1.69
   9   0  -6   -0.61    1.37
   9   0  -6   -0.83    1.56
   9   0  -5    0.41    2.14
   9   0  -5   -1.42    2.44
   9   0  -5    0.53    1.00
   9   0  -4    0.99    1.07
   9   0  -4   -0.33    1.11
   9   0  -4   -0.40    1.67
   9   0  -3   -0.01    0.82
   9   0  -3    0.80    1.90
   9   0  -3    0.36    1.02
   9   0  -2   -0.69    1.05
   9   0  -2    0.81    1.94
   9   0  -2    0.55    0.99
   9   0  -1    2.33    1.81
   9   0  -1   -0.23    1.74
   9   0  -1   -0.08    0.90
   9   0   0    1.31    1.37
   9   0   0    0.75    1.60
   9   0   0    0.08    1.55
   9   0   1   -1.20    0.94
   9   0   1   -0.19    1.65
   9   0   2   -0.46    1.21
   9   0   2    0.26    1.08
   9   0   3   -0.85    1.79
   9   0   3    0.05    1.03
   9   0   4   -0.19    1.65
   9   0   4    0.69    1.47
   9   0   5    1.34    1.45
   9   0   5   -1.32    1.35
   9   0   6    0.63    1.04
   9   0   6   -0.80    1.43
   9   0   7    1.97    2.41
   9   0   7    0.19    1.40
   9   0   8   -1.23    1.71
   9   0   8   -0.03    1.42
   9   0   9   -0.90    1.32
   9   0   9    1.78    1.08
   9   0  10    0.45    1.97
   9   0  10   -0.30    1.21
   9   0  11    0.94    1.86
   9   0  11   -0.28    1.29
   9   0  12    3.49    3.06
   9   0  12   -0.62    0.80
   9   0  13   -0.17    1.87
   9   0  13   -0.05    1.43
   9   0  14    0.16    1.83
   9   0  15   -0.04    2.30
   9   0  16   -0.70    1.41
   9   0  17   -1.04    1.92
   9   0  18    0.42    3.38
   9   0  19   -1.72    2.97
   9   0  20    3.68    2.26
   9   0  21    0.34    2.32
   9   0  22    0.26    3.73
   9   0  23    2.71    2.69
   9   0  24   -3.82    2.65
   9  -1 -28   20.47    5.62
   9  -1 -27   51.31    8.61
   9  -1 -26   31.44    7.58
   9  -1 -25   13.31    3.84
   9  -1 -24   -0.12    2.28
   9  -1 -23   28.14    6.78
   9   1 -22   67.20   10.71
   9  -1 -22   49.51    8.24
   9   1 -21  113.48   12.09
   9  -1 -21  109.67   12.56
   9   1 -20    9.70    3.05
   9  -1 -20   16.38    5.22
   9   1 -19   55.32    8.07
   9  -1 -19   53.66    8.40
   9   1 -18    3.52    3.38
   9  -1 -18    5.96    3.93
   9   1 -17  527.28   24.51
   9  -1 -17  502.74   24.91
   9  -1 -16   74.71    9.43
   9   1 -16   53.95    7.82
   9   1 -15  292.61   17.69
   9  -1 -15  294.72   18.42
   9  -1 -14    5.27    3.33
   9   1 -14    1.52    1.19
   9  -1 -14    2.31    1.99
   9  -1 -13    4.42    2.91
   9  -1 -13   -0.42    1.46
   9   1 -13   -1.74    3.02
   9   1 -13    2.13    1.66
   9   1 -12  108.75   10.24
   9  -1 -12  102.61   10.55
   9   1 -12   87.90    9.47
   9  -1 -12   73.63    8.08
   9   1 -11  835.21   24.81
   9   1 -11  850.01   28.87
   9  -1 -11  880.57   30.40
   9   1 -11  891.21   29.48
   9  -1 -11  866.14   27.80
   9  -1 -10   41.04    5.98
   9   1 -10   46.07    5.89
   9   1 -10   39.49    6.29
   9   1 -10   55.87    7.32
   9  -1 -10   44.42    6.83
   9  -1  -9  523.66   21.34
   9  -1  -9  561.73   23.81
   9   1  -9  564.15   20.10
   9   1  -9  564.01   22.43
   9   1  -9  574.58   23.10
   9  -1  -8  203.85   13.12
   9   1  -8  153.82   10.96
   9  -1  -8  167.78   12.95
   9   1  -8  197.60   13.28
   9   1  -8  131.05   10.92
   9  -1  -7  219.29   13.71
   9   1  -7  207.46   12.33
   9  -1  -7  190.49   13.71
   9   1  -7  213.60   13.50
   9   1  -7  172.96   12.61
   9  -1  -6  195.41   12.94
   9   1  -6  184.95   11.44
   9  -1  -6  190.40   13.57
   9   1  -6  187.98   12.77
   9   1  -6  192.97   12.77
   9  -1  -5  490.00   20.20
   9   1  -5  496.62   19.16
   9  -1  -5  497.05   21.67
   9   1  -5  498.96   20.57
   9   1  -5  426.27   18.82
   9  -1  -4  325.97   16.45
   9   1  -4  311.04   15.13
   9  -1  -4  302.73   16.49
   9   1  -4  354.99   17.21
   9  -1  -3  445.23   19.24
   9   1  -3  461.84   18.69
   9  -1  -3  477.22   21.12
   9   1  -3  477.79   19.95
   9   1  -3  450.76   19.41
   9  -1  -2  231.92   13.96
   9   1  -2  262.13   13.97
   9  -1  -2  222.90   14.19
   9   1  -2  263.12   14.66
   9   1  -2  254.40   14.52
   9  -1  -1  708.90   24.27
   9   1  -1  738.78   23.78
   9  -1  -1  714.03   26.15
   9   1  -1  750.47   24.81
   9   1  -1  754.62   24.80
   9  -1   0 1094.88   30.51
   9   1   0 1154.45   30.28
   9  -1   0 1145.10   31.95
   9   1   0 1074.70   29.36
   9  -1   1  692.86   24.32
   9  -1   1  769.53   26.21
   9   1   1  747.50   24.72
   9   1   1  764.18   24.50
   9  -1   2  247.95   14.90
   9   1   2  254.29   14.61
   9   1   2  260.99   14.54
   9  -1   3  465.32   20.20
   9   1   3  459.71   19.73
   9   1   3  438.05   18.46
   9  -1   4  305.52   16.59
   9   1   4  297.81   15.91
   9   1   4  334.93   15.95
   9  -1   5  488.75   20.73
   9   1   5  531.20   21.36
   9   1   5  477.35   19.02
   9  -1   6  187.34   12.99
   9   1   6  197.61   11.92
   9   1   6  196.77   13.32
   9  -1   7  187.28   13.26
   9   1   7  203.84   12.14
   9   1   7  192.70   13.40
   9  -1   8  153.87   11.91
   9   1   8  183.17   11.63
   9   1   8  186.20   13.21
   9  -1   9  549.53   22.96
   9   1   9  591.95   20.79
   9   1   9  562.52   23.40
   9  -1  10   44.72    6.65
   9   1  10   44.46    5.75
   9   1  10   49.61    7.38
   9   1  11  870.12   30.24
   9  -1  11  884.85   30.25
   9   1  11  899.76   25.92
   9   1  12   81.65    9.40
   9   1  12   82.37    7.59
   9   1  13    2.25    1.68
   9  -1  13    0.60    1.86
   9   1  13    3.35    2.29
   9  -1  14    8.51    3.24
   9   1  14    3.88    3.35
   9   1  14    2.62    1.06
   9  -1  15  288.98   18.19
   9   1  15  260.13   17.52
   9  -1  16   62.25    8.62
   9   1  16   83.71   10.20
   9  -1  17  413.81   22.68
   9   1  17  480.68   24.10
   9  -1  18    4.84    3.29
   9   1  18    4.70    3.10
   9  -1  19   53.33    8.52
   9   1  19   54.30    8.15
   9  -1  20   23.15    6.09
   9   1  20   16.15    5.66
   9  -1  21  106.91   12.06
   9   1  21   96.89   11.71
   9   1  22   41.69    8.09
   9  -1  22   48.85    8.58
   9   1  23   25.72    5.97
   9   1  24    1.74    3.68
   9   1  25   22.25    6.16
   9  -2 -27   -2.01    2.16
   9  -2 -26    9.33    4.85
   9  -2 -25    1.12    1.72
   9  -2 -24    2.93    3.12
   9  -2 -23    1.57    1.54
   9  -2 -22    8.15    2.99
   9  -2 -21    1.36    3.50
   9  -2 -20   -1.40    4.03
   9  -2 -19    1.27    2.52
   9  -2 -18   13.24    4.78
   9   2 -17    3.27    3.30
   9  -2 -17    6.01    1.73
   9   2 -17    3.65    3.43
   9   2 -16   13.76    4.37
   9  -2 -16   11.89    3.00
   9   2 -16    9.70    3.42
   9  -2 -16    2.22    3.07
   9  -2 -15    1.47    1.57
   9   2 -15    0.02    1.51
   9  -2 -15    0.08    2.55
   9   2 -15    1.97    2.67
   9  -2 -14    5.71    2.84
   9   2 -14    5.87    2.70
   9  -2 -14    2.82    2.93
   9   2 -14    6.87    3.15
   9  -2 -13    4.09    2.42
   9   2 -13    4.16    2.36
   9  -2 -13    2.60    2.07
   9   2 -13    4.44    2.41
   9  -2 -12   23.90    5.31
   9   2 -12   23.52    4.18
   9  -2 -12   17.72    4.45
   9   2 -12   21.20    4.71
   9  -2 -11   20.61    4.89
   9   2 -11   11.46    3.00
   9  -2 -11   15.14    4.20
   9   2 -11   14.76    3.40
   9  -2 -10    1.41    1.22
   9   2 -10    0.80    0.95
   9   2 -10    1.37    1.49
   9  -2 -10    1.93    1.86
   9   2 -10    3.26    2.44
   9   2  -9    3.26    1.99
   9  -2  -9    0.80    1.21
   9   2  -9    2.84    2.18
   9   2  -9    0.94    1.53
   9  -2  -9    5.79    2.58
   9  -2  -8   38.29    6.25
   9   2  -8   31.37    4.95
   9  -2  -8   39.45    6.61
   9   2  -8   39.94    5.51
   9   2  -8   49.11    7.12
   9   2  -7   16.38    4.04
   9  -2  -7   24.46    4.96
   9   2  -7   24.74    4.31
   9  -2  -7   33.39    5.87
   9   2  -7   20.88    4.21
   9   2  -6    8.26    2.70
   9   2  -6   10.68    4.20
   9  -2  -6   10.40    3.27
   9  -2  -6   12.52    4.05
   9   2  -6    9.10    3.26
   9   2  -5   -0.59    2.73
   9   2  -5    2.56    0.95
   9  -2  -5    2.46    1.49
   9  -2  -5    0.25    1.67
   9   2  -5    2.20    1.79
   9   2  -4    8.86    2.49
   9   2  -4    5.84    2.05
   9  -2  -4   10.57    3.58
   9  -2  -4    5.84    2.56
   9   2  -4    2.08    1.35
   9   2  -3   10.17    3.18
   9   2  -3   10.59    3.39
   9  -2  -3   13.07    3.91
   9  -2  -3   15.09    4.84
   9   2  -3   12.93    3.10
   9   2  -2   12.50    3.68
   9   2  -2   17.82    3.75
   9  -2  -2   20.12    3.92
   9  -2  -2   16.34    4.26
   9   2  -2   11.65    3.14
   9  -2  -1   66.73    7.83
   9  -2  -1   58.75    7.56
   9   2  -1   61.53    7.21
   9   2  -1   73.23    7.58
   9   2  -1   76.30    8.08
   9   2   0   22.88    4.44
   9  -2   0   21.04    4.56
   9  -2   0   32.61    5.49
   9   2   0   26.25    4.83
   9   2   1   67.16    7.68
   9  -2   1   67.89    7.89
   9  -2   1   62.58    7.88
   9   2   1   64.29    7.06
   9   2   2    8.17    2.53
   9   2   2    9.45    2.93
   9  -2   2   18.46    4.10
   9  -2   2   17.33    4.47
   9   2   3    8.47    2.35
   9   2   3   11.56    2.79
   9  -2   3   14.84    3.78
   9  -2   3    7.24    2.69
   9   2   4    7.84    2.81
   9   2   4    3.86    2.79
   9  -2   4    6.41    2.47
   9   2   5    5.52    2.70
   9   2   5    2.44    1.34
   9  -2   5    1.68    1.03
   9   2   6   14.30    3.36
   9   2   6   12.43    3.70
   9  -2   6    4.78    1.93
   9   2   7   28.16    5.55
   9  -2   7   26.12    5.23
   9   2   7   24.88    4.54
   9   2   8   44.69    6.61
   9  -2   8   37.88    5.88
   9   2   8   37.09    5.54
   9   2   9    2.55    1.91
   9   2   9    2.46    2.44
   9  -2   9    2.82    2.60
   9   2  10   -0.95    1.47
   9   2  10    0.72    1.76
   9  -2  10    0.66    2.06
   9   2  11   12.97    3.49
   9   2  11   11.25    3.46
   9  -2  11   12.78    4.10
   9   2  12   19.92    4.16
   9   2  12   33.68    6.29
   9  -2  12   22.78    4.89
   9   2  13    5.15    2.02
   9   2  13    5.79    2.73
   9  -2  13    8.50    2.75
   9   2  14    4.46    2.08
   9  -2  14    9.19    3.66
   9   2  15    1.50    1.94
   9  -2  15   -0.22    2.44
   9   2  16   12.80    4.92
   9  -2  16   19.85    5.23
   9   2  17    3.40    2.11
   9  -2  17    3.72    2.58
   9   2  18    6.81    2.44
   9  -2  18   22.39    5.37
   9   2  19   -1.22    1.98
   9  -2  19   -2.35    2.02
   9   2  20    0.53    2.27
   9  -2  20    0.95    2.18
   9   2  21    3.25    3.50
   9  -2  21   -0.28    2.63
   9   2  22    0.16    2.86
   9   2  23    1.92    2.78
   9   2  24    0.90    3.37
   9   2  25    9.33    6.44
   9   2  26    7.83    3.27
   9  -3 -26    7.99    3.98
   9  -3 -25   81.65   11.48
   9  -3 -24   29.95    7.46
   9  -3 -23    2.22    2.83
   9  -3 -22   96.07   12.02
   9  -3 -21  105.48   12.14
   9  -3 -20   -0.91    2.62
   9  -3 -19   34.88    7.65
   9   3 -19   29.28    6.39
   9  -3 -18   89.03   11.01
   9   3 -18   82.59   10.65
   9  -3 -17   66.65    9.33
   9  -3 -17   54.35    8.47
   9   3 -17   43.45    6.93
   9  -3 -16  510.13   25.54
   9  -3 -16  483.21   25.09
   9   3 -16  468.08   23.48
   9  -3 -15   70.78    9.70
   9  -3 -15   72.29    9.82
   9   3 -15   76.68    9.55
   9  -3 -14  105.51   11.27
   9  -3 -14   98.29   11.02
   9   3 -14   99.81   10.78
   9  -3 -13   92.42   11.01
   9  -3 -13   77.12    9.63
   9   3 -13   98.00   10.50
   9  -3 -12  450.70   22.90
   9  -3 -12  414.15   22.03
   9   3 -12  453.66   22.36
   9  -3 -11  556.35   25.37
   9  -3 -11  579.25   25.82
   9   3 -11  627.61   25.86
   9  -3 -10  755.72   29.36
   9   3 -10  731.86   27.84
   9  -3 -10  664.77   26.77
   9  -3  -9    4.48    2.18
   9   3  -9    3.36    1.60
   9  -3  -9    3.55    1.52
   9   3  -9    4.73    1.89
   9   3  -8  114.81    9.49
   9  -3  -8  126.71   11.68
   9   3  -8  138.24    9.74
   9   3  -8  113.99   10.52
   9  -3  -8  121.79   11.20
   9  -3  -7 1279.85   36.07
   9  -3  -7 1270.93   37.26
   9   3  -7 1200.36   30.84
   9   3  -7 1243.23   30.16
   9   3  -7 1302.00   35.96
   9  -3  -6   77.30    8.80
   9  -3  -6   65.58    8.61
   9   3  -6   64.36    7.10
   9   3  -6   71.58    7.26
   9   3  -6   72.85    8.34
   9  -3  -5 1736.37   41.81
   9  -3  -5 1627.39   42.33
   9   3  -5 1737.89   35.79
   9   3  -5 1786.38   36.89
   9   3  -5 1664.97   40.34
   9  -3  -4  698.57   26.46
   9  -3  -4  735.77   28.00
   9   3  -4  696.63   22.98
   9   3  -4  704.77   23.80
   9   3  -4  776.76   26.94
   9   3  -3    0.57    1.27
   9  -3  -3   -0.85    1.81
   9   3  -3    2.00    1.65
   9  -3  -3    1.07    2.19
   9   3  -3    0.61    1.28
   9   3  -2   48.67    6.42
   9  -3  -2   44.70    6.72
   9  -3  -2   37.64    7.00
   9   3  -2   34.52    5.22
   9   3  -2   38.71    5.86
   9   3  -1 2440.05   47.35
   9   3  -1 2521.45   45.62
   9  -3  -1 2523.37   50.16
   9  -3  -1 2480.23   50.52
   9   3   0    7.81    2.98
   9  -3   0    6.29    3.53
   9   3   0   10.29    3.51
   9  -3   0    9.27    3.59
   9   3   1 2526.66   48.11
   9   3   1 2458.50   46.31
   9  -3   1 2488.96   50.18
   9  -3   1 2490.12   50.85
   9   3   2   34.24    5.59
   9   3   2   40.14    6.03
   9  -3   2   30.04    5.86
   9  -3   2   31.51    6.81
   9   3   3   -0.11    1.79
   9  -3   3    0.48    2.46
   9   3   3    4.84    3.15
   9  -3   3    3.83    2.61
   9   3   4  770.29   26.59
   9   3   4  692.25   25.44
   9  -3   4  739.52   27.24
   9  -3   4  704.53   27.00
   9   3   5 1792.44   40.22
   9   3   5 1854.89   42.39
   9  -3   5 1752.84   42.47
   9   3   6   69.48    8.06
   9   3   6   75.32    8.66
   9  -3   6   66.35    8.02
   9   3   7 1306.14   34.36
   9   3   7 1309.39   35.99
   9  -3   7 1296.74   36.76
   9   3   8  130.64   10.87
   9   3   8  145.59   12.25
   9  -3   8  117.03   10.89
   9   3   9    5.72    2.48
   9  -3   9    5.02    1.89
   9   3   9    4.56    3.06
   9   3  10  716.28   25.77
   9  -3  10  714.23   28.12
   9   3  11  572.71   23.17
   9   3  11  580.34   25.20
   9  -3  11  582.52   25.69
   9   3  12  436.92   20.45
   9   3  12  484.14   23.34
   9  -3  12  412.02   21.83
   9   3  13   92.95    9.72
   9   3  13   87.80   10.26
   9  -3  13   98.06   10.31
   9   3  14   82.39    8.96
   9   3  14   90.45   10.67
   9  -3  14  100.87   10.85
   9   3  15   51.18    7.19
   9  -3  15   59.65    8.42
   9   3  16  486.73   24.96
   9  -3  16  504.70   25.07
   9   3  17   62.35    9.41
   9  -3  17   47.53    7.75
   9   3  18   96.32   11.55
   9  -3  18  100.22   11.12
   9  -3  19   18.85    5.53
   9   3  19   31.62    6.84
   9  -3  20    4.37    3.31
   9   3  20    1.31    1.61
   9   3  21  120.83   13.52
   9   3  22   85.71   11.65
   9   3  23    7.14    3.19
   9   3  24   14.16    6.05
   9   3  25   61.43   10.45
   9   3  26    5.78    4.72
   9  -4 -26    7.45    2.80
   9  -4 -25   -1.10    1.86
   9  -4 -24    2.10    2.82
   9  -4 -23   13.88    4.74
   9  -4 -22    2.72    2.73
   9  -4 -21    2.75    3.38
   9  -4 -20    0.81    1.85
   9  -4 -19    5.21    3.02
   9  -4 -18    5.13    3.16
   9  -4 -18    7.26    2.84
   9   4 -18    5.54    2.78
   9  -4 -17  176.57   15.67
   9  -4 -17  171.92   15.46
   9   4 -17  151.48   13.70
   9  -4 -16   -0.85    2.48
   9  -4 -16    3.15    3.02
   9   4 -16    1.99    3.98
   9   4 -15    8.96    4.16
   9  -4 -15   10.10    4.22
   9  -4 -15    9.00    4.10
   9   4 -14   33.59    6.75
   9  -4 -14   17.76    5.12
   9  -4 -14   24.78    6.00
   9   4 -13    1.98    1.70
   9  -4 -13    1.20    1.57
   9  -4 -13   -0.61    2.11
   9  -4 -12   65.42    9.34
   9  -4 -12   71.23    9.51
   9   4 -12   71.58    9.23
   9  -4 -11  224.80   16.49
   9  -4 -11  252.10   17.37
   9   4 -11  233.04   16.06
   9   4 -10    3.92    3.16
   9  -4 -10    2.37    2.67
   9  -4 -10    8.20    3.87
   9  -4  -9  171.01   14.30
   9  -4  -9  185.09   14.73
   9   4  -9  158.91   12.86
   9  -4  -8  136.70   12.86
   9   4  -8  108.39    9.66
   9  -4  -8  116.34   11.63
   9   4  -8  110.86   10.98
   9   4  -7   -0.60    2.36
   9  -4  -7    1.58    2.56
   9   4  -7    1.22    1.68
   9  -4  -7    1.64    2.23
   9   4  -6  188.13   12.18
   9  -4  -6  197.53   15.44
   9  -4  -6  198.07   14.98
   9   4  -6  226.80   15.37
   9   4  -5   72.32    8.92
   9   4  -5   99.33    9.06
   9  -4  -5   89.30   10.21
   9  -4  -5   85.06    9.76
   9  -4  -4   65.59    8.33
   9   4  -4   75.75    8.88
   9   4  -4   64.28    7.47
   9  -4  -4   62.63    8.48
   9   4  -4   75.77    7.55
   9   4  -3   24.41    5.36
   9  -4  -3   23.78    5.49
   9   4  -3   25.26    4.83
   9  -4  -3   28.30    5.23
   9   4  -3   21.28    4.15
   9   4  -2  134.05   11.67
   9  -4  -2  155.55   13.17
   9   4  -2  148.23   11.37
   9  -4  -2  149.77   13.02
   9   4  -2  133.44    9.94
   9   4  -1    1.68    2.01
   9  -4  -1    2.62    3.35
   9  -4  -1   -0.94    3.04
   9   4  -1    4.17    2.90
   9   4   0  418.46   20.46
   9  -4   0  427.68   21.28
   9   4   0  464.34   20.79
   9  -4   0  435.35   22.23
   9   4   1    0.31    1.50
   9  -4   1    1.33    1.43
   9  -4   1   -1.52    1.77
   9   4   1    4.51    2.07
   9   4   2  139.32   11.48
   9  -4   2  140.76   12.17
   9   4   2  147.62   11.88
   9  -4   2  162.70   13.53
   9   4   3   24.98    5.27
   9   4   3   23.83    5.15
   9  -4   3   25.59    5.55
   9  -4   3   16.54    4.56
   9   4   4   61.38    7.84
   9  -4   4   61.02    8.18
   9   4   4   59.01    7.66
   9  -4   4   79.19    9.53
   9   4   5   87.24    9.64
   9  -4   5   92.06   10.00
   9   4   5  112.91   10.81
   9  -4   5  101.81   10.77
   9   4   6  240.32   15.64
   9  -4   6  222.88   15.43
   9   4   6  196.10   14.09
   9  -4   6  232.38   16.27
   9   4   7    0.68    1.23
   9   4   7    0.49    2.38
   9  -4   7    0.12    2.66
   9  -4   7    1.07    2.41
   9   4   8  118.96   11.04
   9  -4   8  123.55   11.80
   9   4   8  122.49   11.42
   9  -4   9  177.24   14.39
   9   4   9  192.70   14.33
   9   4  10    5.60    3.19
   9   4  10    0.91    1.98
   9  -4  10    2.43    2.50
   9   4  11  245.09   15.93
   9  -4  11  231.40   16.38
   9   4  11  247.86   16.98
   9   4  12   66.20    8.41
   9  -4  12   80.74    9.81
   9   4  12   57.37    8.07
   9   4  13    2.51    2.00
   9   4  13    5.58    3.41
   9  -4  13    1.58    1.79
   9   4  14   26.21    6.48
   9   4  14   23.24    5.80
   9  -4  14   21.43    5.92
   9   4  15   10.05    4.58
   9   4  15   12.38    4.41
   9  -4  15   14.30    3.98
   9   4  16    4.69    3.25
   9  -4  16    4.88    3.17
   9  -4  17  228.85   17.43
   9   4  17  185.71   15.93
   9  -4  18    3.22    2.00
   9   4  18    2.39    2.55
   9  -4  19   -0.96    2.24
   9   4  19    3.84    2.58
   9   4  20   -2.28    3.87
   9   4  21    8.01    5.28
   9   4  22    0.75    3.06
   9   4  23   18.15    5.60
   9   4  24    1.79    2.95
   9   4  25    1.85    2.60
   9   4  26    8.11    4.31
   9  -5 -24    1.28    3.60
   9  -5 -23    7.13    2.78
   9  -5 -22   16.10    4.28
   9  -5 -21   58.74    9.68
   9  -5 -20   12.43    4.58
   9  -5 -19   11.98    3.83
   9  -5 -19   14.55    5.91
   9   5 -18    5.06    3.84
   9  -5 -18   -1.18    2.25
   9  -5 -18    3.58    3.82
   9   5 -17    9.26    4.22
   9  -5 -17   22.17    6.19
   9  -5 -17   11.67    4.08
   9   5 -16   20.38    5.88
   9  -5 -16   22.37    5.40
   9  -5 -16   22.20    6.04
   9  -5 -15  178.89   15.83
   9  -5 -15  215.55   17.58
   9   5 -15  189.45   15.79
   9   5 -14   25.48    5.50
   9  -5 -14   25.70    6.64
   9  -5 -14   15.16    4.60
   9   5 -13    5.38    2.57
   9  -5 -13    2.86    1.93
   9  -5 -13    3.54    3.16
   9  -5 -12   37.75    7.11
   9   5 -12   44.11    7.64
   9  -5 -12   42.09    7.18
   9  -5 -11  234.11   17.07
   9  -5 -11  235.82   17.49
   9   5 -11  263.58   18.07
   9  -5 -10   12.77    4.65
   9   5 -10   12.26    4.44
   9  -5 -10    6.56    4.23
   9  -5  -9    5.78    3.00
   9   5  -9    7.46    3.37
   9  -5  -9    4.02    1.97
   9  -5  -8    2.46    2.49
   9   5  -8   -0.44    1.87
   9  -5  -8   -0.42    2.41
   9   5  -7   60.51    8.24
   9  -5  -7   44.67    7.88
   9  -5  -7   66.16    9.63
   9  -5  -6   24.81    5.57
   9   5  -6   22.28    5.07
   9  -5  -6   25.59    6.20
   9   5  -6   21.64    4.23
   9   5  -5  394.37   20.94
   9   5  -5  444.60   20.26
   9  -5  -5  411.48   21.96
   9  -5  -5  422.01   22.37
   9   5  -4   42.14    6.79
   9   5  -4   32.97    5.84
   9  -5  -4   47.34    7.90
   9  -5  -4   45.04    7.48
   9   5  -3   16.22    4.84
   9  -5  -3   12.11    4.57
   9  -5  -3   11.57    3.32
   9   5  -3    9.42    2.50
   9   5  -2    8.26    3.23
   9   5  -2   12.07    4.55
   9  -5  -2   12.70    4.67
   9  -5  -2   13.15    4.27
   9   5  -1  434.81   22.10
   9   5  -1  425.83   20.60
   9  -5  -1  468.22   23.75
   9  -5  -1  376.05   20.91
   9  -5   0   45.28    7.85
   9   5   0   35.91    6.66
   9   5   0   42.99    6.62
   9  -5   0   31.85    6.32
   9  -5   1  407.58   21.79
   9   5   1  395.53   20.61
   9   5   1  388.25   19.84
   9  -5   1  385.62   21.52
   9   5   2    9.56    4.38
   9   5   2   14.38    4.54
   9  -5   2   15.82    3.99
   9  -5   2   18.36    5.12
   9   5   3   19.38    4.98
   9   5   3   16.17    4.41
   9  -5   3    5.99    4.04
   9  -5   3   15.29    3.48
   9   5   4   32.46    6.35
   9  -5   4   35.99    6.56
   9   5   4   39.87    6.90
   9  -5   4   49.42    7.74
   9  -5   5  439.63   22.79
   9   5   5  479.03   22.81
   9  -5   5  418.78   22.59
   9   5   6   23.31    5.22
   9   5   6   22.80    5.55
   9  -5   6   15.21    5.33
   9  -5   6   20.23    5.34
   9   5   7   51.54    7.37
   9  -5   7   58.95    8.42
   9   5   7   68.84    8.82
   9  -5   7   61.45    8.77
   9   5   8    0.21    2.68
   9   5   8   -0.40    1.64
   9  -5   8   -0.85    1.54
   9  -5   8    1.70    2.33
   9   5   9   12.76    4.13
   9   5   9   11.22    3.66
   9  -5   9   10.12    4.66
   9  -5   9   14.30    4.85
   9   5  10   21.25    5.55
   9   5  10    8.29    3.35
   9  -5  10   10.62    3.06
   9  -5  10   14.92    4.89
   9   5  11  258.72   17.21
   9  -5  11  241.89   17.57
   9   5  11  271.89   18.03
   9  -5  11  225.35   17.02
   9   5  12   33.26    6.69
   9  -5  12   34.73    6.80
   9   5  12   40.67    6.86
   9   5  13    5.18    2.95
   9   5  13    9.32    4.30
   9  -5  13    2.46    1.79
   9   5  14   16.19    4.81
   9   5  14   18.50    4.55
   9  -5  14   13.16    4.78
   9   5  15  179.58   14.62
   9  -5  15  196.88   16.73
   9   5  15  204.50   16.89
   9   5  16   24.57    5.73
   9   5  16   17.86    5.54
   9  -5  16   17.06    5.10
   9   5  17    7.16    3.96
   9  -5  17    7.19    3.36
   9   5  18    1.32    2.19
   9   5  19   21.72    5.74
   9   5  20    3.72    2.73
   9   5  21   53.13    8.92
   9   5  22   27.20    6.37
   9   5  23    6.58    2.76
   9   5  24    1.09    2.31
   9  -6 -23    4.09    2.93
   9  -6 -22    7.41    3.68
   9  -6 -21    6.33    4.63
   9  -6 -20    2.51    3.83
   9  -6 -20   -4.94    3.10
   9  -6 -19   10.00    4.48
   9  -6 -19   13.07    5.88
   9  -6 -18   12.98    4.01
   9  -6 -18    9.57    5.30
   9   6 -17    7.01    3.60
   9  -6 -17    9.01    5.63
   9  -6 -17   14.46    6.00
   9   6 -16   23.31    6.08
   9  -6 -16   20.89    6.21
   9  -6 -16   21.88    5.85
   9   6 -15   41.66    7.84
   9  -6 -15   33.23    7.11
   9  -6 -15   31.46    7.60
   9   6 -14    6.54    2.86
   9  -6 -14    4.80    3.83
   9  -6 -14    8.54    4.25
   9   6 -13   19.11    5.67
   9  -6 -13   15.78    5.33
   9  -6 -13   23.86    6.53
   9   6 -12   -0.17    2.35
   9  -6 -12    8.49    4.42
   9  -6 -12    6.38    4.59
   9   6 -11   -2.13    3.24
   9  -6 -11   -0.83    2.61
   9  -6 -11   -0.87    2.06
   9   6 -10   29.11    6.12
   9  -6 -10   23.70    6.26
   9  -6 -10   20.71    5.90
   9  -6  -9    3.64    3.28
   9   6  -9   12.33    4.41
  -9   6  -9   -2.99    1.93
   9  -6  -9    5.91    3.16
   9   6  -8   49.96    7.69
  -9   6  -8   56.02    8.23
   9  -6  -8   63.41    9.16
   9  -6  -8   54.29    8.55
   9   6  -7   52.07    7.46
   9  -6  -7   43.47    7.05
   9  -6  -7   52.54    8.98
   9  -6  -6    0.61    2.26
   9   6  -6    0.99    2.40
   9  -6  -6    4.04    3.29
   9   6  -5    6.75    3.46
   9  -6  -5    2.20    3.06
   9   6  -5    6.58    1.48
   9  -6  -5    7.94    4.20
   9  -6  -4   20.42    5.65
   9   6  -4   17.20    4.33
   9   6  -4   15.87    4.07
   9  -6  -4   15.49    5.18
   9  -6  -3    5.96    2.76
   9   6  -3    9.24    3.38
   9   6  -3    5.48    2.74
   9  -6  -3    5.62    3.66
   9  -6  -2    9.05    3.63
   9   6  -2    6.83    3.16
   9   6  -2    1.57    1.32
   9  -6  -2    2.38    3.12
   9   6  -1   52.28    8.04
   9   6  -1   43.86    7.03
   9  -6  -1   61.80    9.04
   9  -6  -1   48.38    8.12
   9   6   0   79.14    9.62
   9   6   0   79.76    9.59
   9  -6   0   67.85    9.38
   9  -6   0   69.39    9.53
   9   6   1   58.52    8.32
   9   6   1   68.79    8.35
   9  -6   1   56.00    8.61
   9  -6   1   56.00    8.28
   9  -6   2    6.50    3.93
   9   6   2    4.30    1.52
   9   6   2    1.15    1.33
   9  -6   2    5.56    3.98
   9   6   3    8.55    3.89
   9  -6   3   12.45    4.39
   9   6   3    6.59    3.86
   9  -6   3    3.88    3.88
   9   6   4   18.20    5.03
   9  -6   4   14.97    4.95
   9   6   4   12.20    2.79
   9  -6   4   18.20    4.81
   9   6   5    9.09    4.62
   9  -6   5    2.75    2.88
   9   6   5    6.23    2.96
   9  -6   5    7.13    2.46
   9   6   6    1.69    2.86
   9  -6   6   -1.09    3.54
   9   6   6    2.84    2.90
   9  -6   6    0.56    2.40
   9  -6   7   54.72    8.65
   9   6   7   69.07    9.23
   9  -6   7   63.33    9.13
   9  -6   8   57.45    8.63
   9   6   8   63.95    8.73
   9   6   8   47.30    8.33
   9  -6   8   73.23   10.19
   9   6   9    9.21    3.20
   9  -6   9    6.34    3.80
   9   6   9    7.43    3.20
   9  -6   9    3.51    2.32
   9   6  10   21.13    5.25
   9  -6  10   30.62    7.30
   9   6  10   19.40    4.83
   9  -6  10   32.79    6.83
   9   6  11    2.32    2.64
   9  -6  11    1.22    2.09
   9   6  11    0.79    2.24
   9  -6  11    5.97    4.11
   9   6  12    4.84    4.27
   9  -6  12    8.43    3.61
   9   6  12    7.43    4.45
   9  -6  12    6.21    4.30
   9   6  13   13.04    4.69
   9  -6  13   18.35    5.58
   9   6  13   21.74    5.25
   9  -6  13   19.36    5.93
   9   6  14    9.98    4.55
   9  -6  14    6.24    3.64
   9   6  14    3.54    2.39
   9  -6  14    0.01    2.76
   9   6  15   53.15    8.47
   9  -6  15   48.75    8.59
   9   6  15   42.76    8.08
   9  -6  15   48.46    8.75
   9   6  16   25.73    5.65
   9  -6  16   17.80    6.01
   9   6  16   28.88    7.07
   9   6  17   10.20    3.58
   9   6  18    8.97    5.11
   9   6  19   14.66    4.94
   9   6  20   -3.92    3.01
   9   6  21   -0.24    3.01
   9   6  22   11.79    4.56
   9   6  23    1.31    2.87
   9  -7 -21   41.32    8.48
   9  -7 -21   44.67   11.19
   9  -7 -20   14.18    6.32
   9  -7 -20   15.40    5.55
   9  -7 -19    6.11    3.52
   9  -7 -19    6.27    4.76
   9  -7 -18   -1.30    2.46
   9  -7 -18   15.12    5.25
   9  -7 -17   35.22    7.53
   9  -7 -17   33.44    7.82
   9   7 -16    9.70    5.06
   9  -7 -16    5.60    4.38
   9  -7 -16   -0.08    3.06
   9  -7 -15  151.14   15.25
   9  -7 -15  161.93   16.23
   9   7 -15  146.17   14.33
   9  -7 -14   -1.75    3.36
   9  -7 -14    0.55    2.00
   9   7 -13   19.31    6.42
   9  -7 -13   14.44    5.47
   9  -7 -13    5.80    3.30
   9   7 -12    4.43    2.56
   9  -7 -12    3.49    3.99
   9  -7 -12   10.28    5.35
   9   7 -11  169.18   15.52
   9  -7 -11  164.38   15.78
   9  -7 -11  175.50   16.65
   9   7 -10   17.13    5.72
   9  -7 -10   16.36    5.54
   9  -7 -10   11.96    3.93
   9   7  -9   33.55    7.18
   9  -7  -9   38.47    7.17
   9  -7  -9   46.69    8.16
   9   7  -8   11.59    4.02
  -9   7  -8   13.29    4.29
   9  -7  -8   14.82    4.65
   9  -7  -8   15.73    5.59
   9   7  -7    5.21    3.98
  -9   7  -7    7.86    3.72
   9  -7  -7    3.24    2.63
   9  -7  -7    8.04    4.32
   9   7  -6   45.79    8.24
  -9   7  -6   66.26    9.50
   9  -7  -6   70.02   10.07
   9  -7  -6   51.41    8.53
   9   7  -5  246.68   17.84
  -9   7  -5  219.26   16.86
   9  -7  -5  242.95   17.60
   9  -7  -5  227.45   18.05
   9  -7  -4    4.56    3.33
   9   7  -4    8.70    4.34
   9   7  -4    2.48    1.90
  -9   7  -4   -0.07    2.37
   9  -7  -4   -1.20    2.35
   9  -7  -3   14.44    4.40
   9   7  -3   30.77    6.23
   9   7  -3   28.54    6.61
  -9   7  -3   27.19    6.15
   9  -7  -3   19.02    6.34
   9  -7  -2    0.01    2.96
   9   7  -2    1.06    2.14
   9   7  -2    2.44    2.93
   9  -7  -2    2.62    1.76
   9   7  -1  134.57   13.02
   9   7  -1  112.60   11.73
   9  -7  -1  117.89   12.60
   9  -7  -1  120.31   12.58
   9   7   0  237.62   17.49
   9  -7   0  245.48   18.10
   9  -7   0  216.88   17.61
   9   7   1  125.99   12.75
   9  -7   1  117.53   13.26
   9   7   1  101.86   11.31
   9  -7   1  125.12   13.63
   9  -7   2    7.13    4.41
   9   7   2   -0.96    3.25
   9   7   2   10.63    3.77
   9  -7   2    1.84    2.24
   9  -7   3   21.62    5.46
   9   7   3   25.61    6.07
   9   7   3   28.59    5.93
   9  -7   3   19.05    5.32
   9  -7   4    3.49    1.83
   9   7   4    1.47    3.74
   9  -7   4   -0.28    3.42
   9   7   4    0.09    2.15
   9   7   5  215.29   16.38
   9  -7   5  193.19   16.87
   9  -7   5  225.45   18.11
   9   7   6   66.76    9.40
   9  -7   6   70.89    9.79
   9   7   6   45.56    7.40
   9  -7   6   58.55    8.90
   9  -7   7    4.05    3.27
   9   7   7    2.92    1.63
   9   7   7    6.37    2.94
   9  -7   7    8.41    4.68
   9  -7   8   11.17    4.99
   9   7   8   18.63    5.25
   9   7   8   11.50    4.28
   9  -7   8   13.38    4.01
   9   7   9   43.17    7.33
   9   7   9   43.47    7.70
   9  -7   9   32.51    7.60
   9  -7   9   53.29    9.13
   9  -7  10   15.81    5.71
   9   7  10   17.44    4.74
   9   7  10   12.15    3.36
   9  -7  10   20.54    6.21
   9   7  11  199.27   16.33
   9   7  11  174.27   15.22
   9  -7  11  168.65   15.85
   9  -7  11  184.36   15.87
   9  -7  12    1.29    2.32
   9   7  12    9.31    4.21
   9   7  12    1.70    1.61
   9  -7  12    5.74    3.86
   9  -7  13   16.22    5.51
   9   7  13   14.40    4.38
   9   7  13   10.19    4.57
   9  -7  14    6.60    4.49
   9   7  14    3.14    4.01
   9   7  14    0.85    2.39
   9   7  15  134.98   14.17
   9   7  15  133.17   14.12
   9  -7  15  144.66   15.70
   9   7  16   -0.21    4.45
   9   7  16    6.85    2.95
   9   7  17   25.39    6.31
   9   7  17   31.55    7.09
   9   7  18    4.73    3.41
   9   7  19    1.69    1.99
   9   7  20   10.66    4.94
  -9   7  20    7.66    4.54
   9   7  21   21.07    6.43
  -9   7  21   24.05    6.33
   9  -8 -18    6.28    4.29
   9  -8 -18    7.44    4.08
   9  -8 -17    5.13    4.06
   9  -8 -17    1.76    3.00
   9   8 -16   -3.27    2.62
   9  -8 -16    0.95    2.26
   9  -8 -16   -5.27    3.88
   9   8 -15   -3.14    3.80
   9  -8 -15    7.70    3.91
   9  -8 -15    0.40    3.33
   9  -8 -14   -1.19    3.65
   9  -8 -14    3.12    2.57
   9   8 -13    1.54    2.88
   9  -8 -13   -4.24    4.45
   9  -8 -13    1.15    2.22
   9   8 -12    2.13    3.17
   9  -8 -12    7.44    3.73
   9  -8 -12    1.52    2.64
   9   8 -11    8.11    3.73
   9  -8 -11    8.46    2.60
   9  -8 -11    8.99    5.15
   9   8 -10    7.39    4.85
   9  -8 -10    9.35    5.06
   9  -8 -10    8.72    4.19
   9   8  -9    1.53    3.47
   9  -8  -9    3.41    3.11
   9  -8  -9    1.50    2.45
   9   8  -8    6.47    3.41
   9  -8  -8   11.72    4.66
   9  -8  -8   10.21    4.78
   9   8  -7    5.25    3.14
  -9   8  -7   10.62    4.29
   9  -8  -7    8.65    3.37
   9  -8  -7    6.08    3.65
   9   8  -6   35.14    7.29
  -9   8  -6   45.68    7.75
   9  -8  -6   23.49    5.84
   9  -8  -6   31.07    7.17
   9   8  -5    1.75    1.90
  -9   8  -5    0.47    2.27
   9  -8  -5    7.73    3.79
   9  -8  -5    3.25    1.75
   9   8  -4    7.14    3.42
  -9   8  -4    8.43    5.15
   9  -8  -4   10.89    4.97
   9  -8  -4    7.27    3.88
   9  -8  -3    9.97    4.60
   9   8  -3    7.15    3.68
  -9   8  -3    2.22    2.71
   9   8  -3   18.67    6.41
   9  -8  -3    9.39    4.32
   9  -8  -2   12.42    4.28
   9   8  -2   19.34    4.82
   9   8  -2   14.74    4.42
  -9   8  -2   22.65    5.52
   9  -8  -2   11.87    4.54
   9  -8  -1    0.36    1.73
   9   8  -1   -5.68    4.21
   9   8  -1    4.53    4.13
  -9   8  -1    2.43    3.88
   9  -8  -1    1.08    2.14
   9  -8   0    7.94    4.54
   9   8   0   15.19    5.76
   9   8   0    4.59    2.51
  -9   8   0    6.07    3.78
   9  -8   0   17.97    5.93
   9  -8   1    3.07    1.97
   9   8   1   -1.92    2.33
   9   8   1   -1.55    2.85
  -9   8   1    1.05    2.75
   9  -8   1    1.59    2.91
   9  -8   2    9.92    4.75
   9   8   2   26.58    5.84
  -9   8   2   22.02    5.25
   9   8   2   33.07    6.97
   9  -8   2   22.40    6.49
   9  -8   3    9.93    5.01
   9   8   3   14.63    5.33
  -9   8   3    9.85    4.33
   9   8   3    3.18    3.39
   9  -8   3   23.55    5.59
   9  -8   4    8.59    5.07
   9   8   4    3.14    2.56
  -9   8   4    4.40    2.81
   9   8   4    3.41    2.56
   9  -8   4    3.79    2.57
   9  -8   5   -0.72    2.03
   9   8   5   -1.53    3.21
  -9   8   5    1.31    2.64
   9   8   5    0.49    2.66
   9  -8   5    1.72    3.15
   9  -8   6   26.18    6.66
   9   8   6   29.20    5.84
  -9   8   6   21.08    6.01
   9   8   6   32.03    6.61
   9  -8   6   23.90    6.78
   9  -8   7    7.95    5.24
   9   8   7   14.48    5.10
  -9   8   7   14.10    4.68
   9   8   7   14.00    4.58
   9  -8   8    2.02    3.97
   9   8   8    4.87    3.13
  -9   8   8    3.99    3.95
   9   8   8   10.20    4.27
   9  -8   9    5.28    4.69
   9   8   9    4.12    3.69
  -9   8   9   -0.08    3.02
   9   8   9    4.04    1.49
   9   8  10    2.79    2.56
  -9   8  10    3.04    1.86
   9   8  10    7.59    3.70
  -9   8  11    2.91    3.15
   9  -8  11    7.81    3.37
   9   8  11    8.11    3.87
   9   8  11    4.39    3.65
   9  -8  12    0.52    3.52
   9   8  12    0.80    3.29
  -9   8  12    9.96    4.54
   9   8  12    2.72    2.71
   9  -8  13   -3.09    3.92
   9   8  13    5.43    4.44
  -9   8  13    4.81    3.17
   9   8  13    0.51    1.55
   9   8  14    5.22    2.77
   9   8  14    2.29    2.70
  -9   8  14    7.93    4.50
   9   8  15    3.68    3.02
   9   8  15   -0.85    2.50
  -9   8  15   -1.71    3.04
   9   8  16    2.71    4.26
   9   8  16   -3.27    3.63
  -9   8  16   -0.88    2.21
   9   8  17   -3.03    4.29
   9   8  17    2.67    3.19
  -9   8  17   -1.53    2.96
   9   8  18    8.04    3.41
  -9   8  18    6.27    4.35
   9   9 -14    3.30    2.46
   9  -9 -14   -2.70    3.65
   9  -9 -14    0.02    2.84
   9   9 -13    9.03    4.75
   9  -9 -13    1.47    3.53
   9  -9 -13    5.91    4.13
   9   9 -12   -0.85    2.82
   9  -9 -12    5.30    3.74
   9  -9 -12    2.72    3.14
   9   9 -11   45.54    8.50
   9  -9 -11   53.61    9.20
   9  -9 -11   46.78    9.61
   9   9 -10   54.11    9.74
   9  -9 -10   66.03   10.17
   9  -9 -10   46.58    9.25
   9   9  -9   38.73    8.12
   9  -9  -9   39.71    8.79
   9  -9  -9   43.86    8.41
   9   9  -8    3.67    3.43
   9  -9  -8    2.90    1.97
   9  -9  -8    6.12    4.33
   9   9  -7   31.92    7.16
   9  -9  -7   29.93    7.80
   9  -9  -7   33.22    7.42
   9   9  -6   44.05    8.59
  -9   9  -6   33.50    7.37
   9  -9  -6   22.38    6.77
   9  -9  -6   33.54    7.13
   9   9  -5  151.92   15.03
  -9   9  -5  147.76   14.76
   9  -9  -5  150.75   15.48
   9  -9  -5  160.96   16.14
   9   9  -4    9.11    3.76
  -9   9  -4    5.49    3.84
   9  -9  -4   10.06    4.95
   9  -9  -4   12.78    4.44
   9   9  -3   -0.96    2.43
  -9   9  -3    1.26    2.36
   9  -9  -3   -0.13    3.61
   9  -9  -3   -1.04    2.03
   9   9  -2    0.14    1.93
  -9   9  -2   -0.31    1.76
   9  -9  -2   -0.75    4.06
   9  -9  -2   -0.70    2.35
   9   9  -1   48.58    8.71
  -9   9  -1   68.50    9.98
   9  -9  -1   72.71   11.10
   9   9  -1   57.83    9.76
   9  -9  -1   65.75   10.42
   9   9   0   68.53   10.61
  -9   9   0   66.83    9.99
   9  -9   0   71.62   10.83
   9   9   0   59.87    8.95
   9  -9   0   44.90    9.19
   9   9   1   78.49   10.87
  -9   9   1   64.22    9.49
   9   9   1   48.98    9.03
   9  -9   1   71.09   11.09
   9   9   2    1.24    2.51
  -9   9   2    0.63    1.80
   9   9   2   -1.96    1.78
   9  -9   2    1.07    2.71
   9  -9   3    0.28    2.23
   9   9   3    0.08    2.98
  -9   9   3   -1.69    2.45
   9   9   3    0.44    2.70
   9  -9   4    9.60    3.91
   9   9   4    5.55    3.01
  -9   9   4    4.15    3.41
   9   9   4    9.82    3.57
   9   9   5  147.88   15.21
  -9   9   5  147.20   14.86
   9   9   5  143.58   14.57
   9  -9   5  151.29   15.65
   9  -9   6   32.78    7.63
   9   9   6   50.70    8.67
  -9   9   6   47.22    8.50
   9   9   6   40.11    7.71
   9  -9   7   29.79    7.67
   9   9   7   35.46    8.00
  -9   9   7   46.96    8.20
   9   9   7   26.37    5.69
   9  -9   8    2.91    3.32
  -9   9   8    0.88    2.83
   9   9   8    3.83    4.24
   9   9   8    3.24    3.61
   9  -9   9   33.42    7.77
   9   9   9   56.02    9.92
  -9   9   9   42.85    8.45
   9   9   9   34.83    7.36
   9  -9  10   35.40    8.42
   9   9  10   71.10   11.26
  -9   9  10   68.83   10.90
   9   9  10   67.72   10.20
   9  -9  11   48.12    9.72
   9   9  11   45.94    8.93
  -9   9  11   54.63    9.73
   9   9  11   48.87    9.13
   9  -9  12    6.69    4.35
   9   9  12   13.05    4.63
  -9   9  12    2.50    3.89
   9   9  12    0.69    2.49
   9   9  13   -1.15    3.69
   9   9  13    0.42    2.49
  -9   9  13    0.65    2.37
  -9   9  14    1.43    3.36
   9   9  14    0.03    1.51
   9  10  -8   38.86    8.23
   9 -10  -8   49.02    9.35
   9 -10  -8   61.60   10.59
   9  10  -7    8.76    4.45
   9 -10  -7    7.42    3.43
   9 -10  -7    4.70    1.83
   9  10  -6   65.45   10.94
   9 -10  -6   82.85   12.26
   9  10  -5   25.30    6.39
  -9  10  -5   25.91    6.64
   9 -10  -5   26.63    6.94
   9  10  -4    6.68    3.12
  -9  10  -4    5.13    3.18
   9 -10  -4    2.70    2.06
   9  10  -3    4.85    4.33
  -9  10  -3    3.12    3.93
   9 -10  -3    0.16    2.59
   9  10  -2   33.29    7.25
  -9  10  -2   45.06    8.94
   9 -10  -2   34.55    8.02
   9  10  -1    7.50    3.64
  -9  10  -1    4.78    4.01
   9 -10  -1   15.54    5.63
   9  10   0   91.02   11.89
  -9  10   0   88.57   11.55
   9  10   1   12.64    4.04
  -9  10   1    4.04    3.98
   9 -10   1    8.76    4.82
   9  10   1    3.33    4.40
   9  10   2   52.88    8.84
  -9  10   2   48.24    8.93
   9  10   2   38.68    7.88
   9 -10   2   42.43    8.55
  -9  10   3    2.44    2.31
   9  10   3   -2.05    1.59
   9 -10   3    1.51    2.47
   9  10   4    4.49    3.47
  -9  10   4    7.37    3.78
   9  10   4   12.09    4.64
   9 -10   4    7.46    4.47
   9  10   5   13.15    5.03
  -9  10   5   22.93    6.32
   9  10   5   19.82    5.54
   9 -10   5   13.49    4.35
   9  10   6  100.71   11.57
  -9  10   6   85.89   11.89
   9 -10   6   91.79   13.09
   9  10   6   62.80   10.53
   9  10   7    6.75    3.37
  -9  10   7   12.90    5.43
   9  10   7    2.29    3.23
   9 -10   7    9.01    5.72
   9  10   8   46.90    8.93
  -9  10   8   53.73    9.46
   9  10   8   50.79    9.20
   9 -10   8   61.11   10.71
  10   0 -25   15.42    3.90
  10   0 -24   55.78    9.84
  10   0 -23   93.39   11.65
  10   0 -22   37.27    7.63
  10   0 -21  172.00   15.66
  10   0 -20   36.17    7.80
  10   0 -19   73.28    9.32
  10   0 -18  183.94   15.51
  10   0 -17  241.79   17.83
  10   0 -16  106.09   12.05
  10   0 -15  267.79   17.60
  10   0 -14  162.02   13.97
  10   0 -13  229.36   15.70
  10   0 -12  278.97   16.33
  10   0 -12  287.90   17.90
  10   0 -11  258.17   15.40
  10   0 -11  292.62   17.95
  10   0 -10   82.88    8.49
  10   0 -10   74.53    9.39
  10   0  -9  262.81   15.33
  10   0  -9  247.04   16.27
  10   0  -8  235.81   14.39
  10   0  -8  188.23   14.11
  10   0  -7  113.12   10.00
  10   0  -7  108.05   10.65
  10   0  -7  131.78   11.13
  10   0  -6   58.68    7.05
  10   0  -6   59.84    7.94
  10   0  -6   55.46    7.63
  10   0  -5  228.16   14.09
  10   0  -5  241.35   15.55
  10   0  -5  254.03   15.34
  10   0  -4  293.55   15.95
  10   0  -4  309.24   17.58
  10   0  -3  246.04   14.68
  10   0  -3  262.70   16.39
  10   0  -3  272.61   15.59
  10   0  -2  221.69   13.95
  10   0  -2  240.14   15.24
  10   0  -2  199.96   13.25
  10   0  -1  123.46   10.59
  10   0  -1  121.55   10.77
  10   0  -1   88.72    8.79
  10   0   0    0.29    1.81
  10   0   0    0.36    1.33
  10   0   0    2.05    1.49
  10   0   1  117.83   10.39
  10   0   1   94.71    9.65
  10   0   1  121.61    9.97
  10   0   2  187.95   13.12
  10   0   2  191.10   12.45
  10   0   3  222.57   14.30
  10   0   3  255.44   14.67
  10   0   4  263.99   15.74
  10   0   4  281.09   15.21
  10   0   5  247.77   15.34
  10   0   5  198.40   12.89
  10   0   6   59.49    8.16
  10   0   6   59.51    6.83
  10   0   7  128.40   11.46
  10   0   7  118.40    9.82
  10   0   8  205.32   14.34
  10   0   8  214.68   13.01
  10   0   9  235.54   15.53
  10   0   9  201.98   12.69
  10   0  10   96.26    9.93
  10   0  10  103.20    8.98
  10   0  11  298.65   17.96
  10   0  11  235.60   13.63
  10   0  12  279.06   17.55
  10   0  12  290.11   14.68
  10   0  13  214.29   15.79
  10   0  14  128.56   12.15
  10   0  15  269.74   18.25
  10   0  16   80.56   10.17
  10   0  17  240.94   17.53
  10   0  18  165.79   14.92
  10   0  19   74.90   10.89
  10   0  20   62.47    9.47
  10   0  21  162.26   15.14
  10   0  22   46.64    8.45
  10   0  23   82.76   11.55
  10   0  24   41.06    7.96
  10  -1 -27    1.72    4.18
  10  -1 -26    9.17    5.63
  10  -1 -25    1.00    3.13
  10  -1 -24   -1.52    2.08
  10  -1 -23    4.51    4.29
  10  -1 -22    7.16    4.16
  10  -1 -21    5.82    3.32
  10   1 -20    2.81    3.69
  10  -1 -20    9.10    3.91
  10   1 -19    8.58    4.41
  10  -1 -19    7.61    3.01
  10   1 -18    1.30    2.54
  10  -1 -18    7.98    3.41
  10   1 -17    9.02    4.45
  10  -1 -17   10.25    4.62
  10   1 -16    4.79    3.33
  10  -1 -16    9.31    4.20
  10   1 -15   16.57    5.06
  10  -1 -15   21.97    5.30
  10  -1 -14    4.73    3.97
  10   1 -14    1.55    2.01
  10  -1 -14    1.37    1.80
  10   1 -13   35.92    6.44
  10  -1 -13   16.72    4.17
  10   1 -13   33.94    6.84
  10  -1 -13   32.70    6.01
  10  -1 -12   27.28    5.26
  10   1 -12   30.64    5.57
  10  -1 -12   22.47    5.03
  10   1 -12   31.89    5.73
  10  -1 -11    0.87    1.45
  10   1 -11    0.46    1.42
  10  -1 -11   -1.29    1.34
  10   1 -11    0.93    1.88
  10   1 -11    2.55    2.38
  10  -1 -10    7.09    2.20
  10   1 -10    4.99    2.55
  10  -1 -10    4.81    2.78
  10   1 -10    1.02    1.28
  10   1 -10    2.68    1.38
  10  -1  -9    6.69    3.34
  10   1  -9   11.72    3.32
  10  -1  -9    3.07    3.04
  10   1  -9   11.71    3.96
  10   1  -9    8.48    2.44
  10  -1  -8    1.10    1.08
  10   1  -8    1.62    1.39
  10  -1  -8    1.32    2.73
  10   1  -8    2.13    2.28
  10   1  -8    4.93    3.67
  10  -1  -7   36.34    5.85
  10  -1  -7   43.40    6.77
  10   1  -7   23.88    4.51
  10   1  -7   25.89    5.15
  10   1  -7   51.38    7.37
  10  -1  -6   25.23    5.26
  10   1  -6   22.36    4.94
  10  -1  -6   25.38    5.50
  10   1  -6   20.23    4.34
  10   1  -6   25.11    4.48
  10  -1  -5    1.56    1.19
  10  -1  -5    2.21    3.10
  10   1  -5   -0.18    1.37
  10   1  -5   -0.43    1.23
  10   1  -5    0.84    1.82
  10  -1  -4    1.84    1.63
  10  -1  -4    4.88    2.31
  10   1  -4    6.67    2.66
  10   1  -4    4.30    2.44
  10   1  -4    3.00    1.73
  10  -1  -3   10.22    3.24
  10  -1  -3    6.07    3.00
  10   1  -3    3.74    2.54
  10   1  -3    6.44    2.55
  10   1  -3    2.04    1.24
  10   1  -2    4.91    2.74
  10  -1  -2   12.63    4.13
  10  -1  -2    9.52    2.92
  10   1  -2   13.33    3.96
  10   1  -2   11.77    2.85
  10  -1  -1   29.01    5.40
  10   1  -1   35.11    5.40
  10   1  -1   36.44    5.49
  10  -1  -1   23.72    5.11
  10   1  -1   45.61    6.51
  10   1   0   24.23    4.51
  10  -1   0   27.61    5.20
  10   1   0   33.09    5.63
  10  -1   0   28.26    5.59
  10   1   0   27.84    5.05
  10   1   1   24.91    4.62
  10  -1   1   34.23    5.58
  10  -1   1   27.59    5.34
  10   1   1   30.51    5.35
  10   1   2    9.08    3.46
  10   1   2   13.94    3.47
  10  -1   2    4.87    2.51
  10  -1   2    8.34    3.68
  10   1   3    2.36    1.25
  10   1   3    5.76    2.46
  10  -1   3    2.71    1.95
  10   1   4    3.67    2.15
  10   1   4    6.50    3.09
  10  -1   4    4.10    2.19
  10   1   5    1.15    1.59
  10   1   5    0.56    1.38
  10  -1   5   -0.72    1.94
  10   1   6   13.16    3.98
  10   1   6   25.84    5.17
  10  -1   6   22.23    5.23
  10   1   7   36.16    5.87
  10   1   7   37.19    5.78
  10  -1   7   30.49    5.71
  10   1   8    2.78    1.44
  10   1   8   -0.95    2.01
  10  -1   8    0.53    2.16
  10   1   9    7.65    3.30
  10   1   9    4.02    2.59
  10  -1   9   10.37    3.64
  10   1  10    1.98    2.24
  10   1  10    6.59    3.57
  10  -1  10    1.33    2.21
  10   1  11    1.02    1.43
  10   1  11    0.15    1.38
  10  -1  11   -1.20    2.61
  10   1  12   29.74    5.86
  10   1  12   23.48    4.03
  10  -1  12   29.51    6.01
  10   1  13   29.32    5.71
  10  -1  13   37.61    7.29
  10   1  13   33.60    5.39
  10  -1  14    3.12    3.36
  10   1  14   -1.78    2.13
  10  -1  15   20.46    5.83
  10   1  15   19.82    4.80
  10  -1  16    3.58    2.39
  10   1  16   13.83    4.59
  10  -1  17   14.02    4.97
  10   1  17    9.89    4.26
  10   1  18    3.56    3.55
  10  -1  18    2.90    2.81
  10   1  19    2.18    2.99
  10  -1  19    4.54    1.83
  10   1  20    6.47    1.78
  10  -1  20   10.77    4.27
  10   1  21   13.56    4.89
  10  -1  21    7.64    3.65
  10   1  22    3.79    4.40
  10  -1  22    2.71    2.15
  10   1  23   -0.69    3.60
  10  -1  23    2.02    4.01
  10   1  24    2.36    3.75
  10   1  25    6.36    6.09
  10  -2 -26    6.96    1.98
  10  -2 -25   31.46    7.67
  10  -2 -24   47.95    9.02
  10  -2 -23   15.86    5.24
  10  -2 -22   35.06    7.40
  10  -2 -21   41.25    8.26
  10  -2 -20   15.88    5.95
  10  -2 -19   47.58    8.39
  10  -2 -18  117.67   12.55
  10  -2 -17  124.97   12.92
  10   2 -17  129.14   12.83
  10  -2 -16   61.92    9.27
  10   2 -16   52.93    8.15
  10   2 -15  162.18   13.46
  10  -2 -15  135.13   13.18
  10  -2 -15  113.54   12.13
  10   2 -15  146.77   13.17
  10   2 -14   82.82    9.21
  10  -2 -14   99.96   11.30
  10  -2 -14   82.47   10.35
  10   2 -14  106.57   11.16
  10   2 -13   90.02    9.31
  10  -2 -13   71.02    9.45
  10   2 -13   68.63    8.66
  10  -2 -13   80.31    9.42
  10   2 -12  206.91   14.20
  10  -2 -12  198.38   15.41
  10   2 -12  215.16   15.07
  10  -2 -12  204.25   15.18
  10  -2 -11  389.93   21.65
  10   2 -11  397.05   19.52
  10   2 -11  404.01   20.77
  10  -2 -11  365.72   19.74
  10  -2 -10   98.19   10.24
  10   2 -10   98.02    9.23
  10   2 -10   87.99    9.34
  10  -2 -10   96.79   10.47
  10   2 -10  109.16   10.81
  10  -2  -9  168.33   13.31
  10   2  -9  175.79   11.96
  10  -2  -9  182.74   14.23
  10   2  -9  183.66   13.23
  10   2  -9  172.20   13.29
  10  -2  -8  192.67   14.10
  10   2  -8  202.26   12.58
  10  -2  -8  181.07   14.43
  10   2  -8  183.14   13.23
  10   2  -8  194.29   14.54
  10  -2  -7   76.95    8.93
  10   2  -7   82.00    7.99
  10  -2  -7   86.40   10.00
  10   2  -7   77.41    8.48
  10   2  -7   86.41    9.50
  10  -2  -6   59.91    7.78
  10   2  -6   78.35    7.96
  10  -2  -6   76.27    9.53
  10   2  -6   88.60    9.10
  10   2  -6   86.69    9.19
  10   2  -5  256.15   14.50
  10  -2  -5  269.28   16.98
  10   2  -5  275.49   15.70
  10   2  -5  297.13   16.98
  10  -2  -4  134.22   11.61
  10  -2  -4  149.49   12.65
  10   2  -4  170.16   12.03
  10   2  -4  170.06   12.21
  10   2  -4  165.13   12.75
  10  -2  -3  236.99   15.30
  10  -2  -3  236.46   16.16
  10   2  -3  242.94   14.89
  10   2  -3  244.80   14.44
  10   2  -3  226.82   15.04
  10  -2  -2  401.13   19.87
  10  -2  -2  374.50   20.00
  10   2  -2  390.96   18.71
  10   2  -2  396.56   18.69
  10   2  -2  380.86   19.14
  10  -2  -1  309.65   17.47
  10  -2  -1  261.71   16.85
  10   2  -1  297.28   16.61
  10   2  -1  280.83   15.84
  10   2  -1  252.53   15.66
  10  -2   0   60.83    7.88
  10  -2   0   56.20    7.98
  10   2   0   63.08    7.64
  10   2   0   44.48    6.63
  10  -2   1  297.38   17.51
  10  -2   1  286.77   17.25
  10   2   1  293.55   16.41
  10   2   1  288.35   16.00
  10  -2   2  367.29   19.43
  10  -2   2  397.11   20.65
  10   2   2  379.70   18.71
  10   2   2  390.38   18.95
  10  -2   3  244.18   15.68
  10  -2   3  235.85   15.82
  10   2   3  248.99   15.00
  10   2   3  253.32   15.55
  10   2   4  156.74   12.42
  10  -2   4  134.21   11.73
  10  -2   4  160.02   13.38
  10   2   4  128.04   10.77
  10   2   5  273.09   16.36
  10  -2   5  271.54   17.05
  10   2   5  245.34   14.85
  10   2   6   65.58    8.06
  10  -2   6   93.27   10.06
  10   2   6   97.29    9.29
  10   2   7   87.81    9.56
  10  -2   7   87.10    9.56
  10   2   7   90.91    9.22
  10   2   8  181.12   13.71
  10  -2   8  183.26   14.00
  10   2   8  188.61   13.00
  10   2   9  195.82   14.43
  10  -2   9  154.39   12.95
  10   2   9  171.98   12.41
  10   2  10   95.24   10.21
  10  -2  10  104.30   10.99
  10   2  10  103.55    9.61
  10   2  11  373.53   20.39
  10  -2  11  381.68   20.95
  10   2  11  381.11   18.56
  10   2  12  220.57   15.92
  10  -2  12  184.36   14.73
  10   2  12  203.39   13.45
  10   2  13   64.42    8.67
  10  -2  13   73.36    9.70
  10   2  13   78.73    8.41
  10   2  14   91.81   10.82
  10  -2  14  117.64   12.05
  10   2  14   92.81    9.32
  10   2  15  160.74   14.26
  10  -2  15  158.16   14.27
  10   2  16   43.10    7.86
  10  -2  16   37.56    7.51
  10   2  17  131.65   12.94
  10  -2  17  129.32   13.09
  10   2  18  110.23   11.91
  10  -2  18  102.78   11.75
  10   2  19   30.11    6.50
  10  -2  19   41.58    8.06
  10   2  20    4.68    2.47
  10  -2  20   18.07    6.28
  10   2  21   54.75    9.29
  10  -2  21   46.81    8.86
  10   2  22   39.62    8.15
  10  -2  22   31.88    7.46
  10   2  23   14.33    5.91
  10   2  24   24.41    4.90
  10   2  25   42.74    9.15
  10   2  26    5.25    4.67
  10  -3 -26    5.58    3.55
  10  -3 -25   -1.26    2.05
  10  -3 -24    3.88    2.80
  10  -3 -23    1.00    2.83
  10  -3 -22   -0.64    2.73
  10  -3 -21    3.09    3.34
  10  -3 -20   -0.13    2.95
  10  -3 -19    0.46    1.92
  10   3 -19   -1.25    3.23
  10  -3 -18    3.66    2.62
  10   3 -18    2.43    2.51
  10  -3 -17   -0.84    2.02
  10   3 -17    1.54    3.59
  10  -3 -16    8.41    3.55
  10   3 -16    3.03    1.76
  10  -3 -16    9.17    3.48
  10  -3 -15    0.75    1.78
  10  -3 -15   -0.79    1.71
  10   3 -15    1.31    3.04
  10  -3 -14    0.80    1.67
  10  -3 -14    2.53    1.83
  10   3 -14    1.11    2.32
  10  -3 -13   19.26    5.03
  10  -3 -13   24.28    5.71
  10   3 -13    6.58    2.47
  10   3 -12   11.35    4.01
  10  -3 -12    6.91    2.62
  10  -3 -12    9.26    3.64
  10   3 -11    4.34    2.26
  10  -3 -11    0.30    1.55
  10  -3 -11    0.36    2.82
  10   3 -10   28.23    5.80
  10  -3 -10   17.36    4.46
  10  -3 -10   22.48    5.15
  10   3  -9    9.95    3.31
  10  -3  -9    9.09    4.12
  10  -3  -9    5.45    1.53
  10   3  -9    3.60    2.51
  10   3  -8    0.70    1.63
  10   3  -8    0.66    1.52
  10  -3  -8    0.39    2.64
  10  -3  -8    3.82    2.95
  10   3  -8   -0.65    2.05
  10  -3  -7   25.38    5.27
  10   3  -7   33.49    5.44
  10   3  -7   30.46    4.93
  10  -3  -7   33.40    6.71
  10   3  -7   38.71    6.32
  10   3  -6   14.33    4.64
  10   3  -6   14.34    4.22
  10  -3  -6   17.10    4.40
  10  -3  -6   17.26    4.78
  10   3  -6   14.08    4.13
  10   3  -5    3.42    3.22
  10   3  -5    2.10    1.10
  10  -3  -5    0.22    1.84
  10  -3  -5    2.88    3.68
  10   3  -5    0.66    1.93
  10   3  -4   22.11    5.34
  10   3  -4   20.00    4.43
  10  -3  -4   22.66    5.32
  10  -3  -4   19.33    4.75
  10   3  -4   17.83    4.38
  10   3  -3    2.20    1.67
  10  -3  -3    1.75    1.96
  10   3  -3    0.11    2.02
  10  -3  -3    2.48    1.88
  10   3  -3    2.21    1.61
  10   3  -2   10.56    1.90
  10  -3  -2    7.16    3.37
  10   3  -2   12.83    3.50
  10  -3  -2    5.95    3.18
  10   3  -2    6.01    2.81
  10   3  -1   19.31    4.71
  10  -3  -1   22.81    5.18
  10   3  -1   19.47    4.22
  10  -3  -1   20.72    5.19
  10   3  -1   16.71    4.44
  10   3   0   14.48    4.08
  10  -3   0    9.38    2.78
  10   3   0    8.38    3.45
  10  -3   0    5.70    2.88
  10   3   1   14.03    4.12
  10  -3   1   14.94    3.94
  10   3   1   19.68    4.63
  10  -3   1   24.64    5.63
  10   3   2    9.85    3.41
  10  -3   2    3.65    1.91
  10   3   2    6.23    3.83
  10  -3   2    6.18    2.87
  10   3   3    0.88    2.41
  10  -3   3    4.50    3.03
  10   3   3    3.48    3.00
  10  -3   3    1.33    2.40
  10  -3   4   16.55    4.68
  10   3   4   21.74    5.28
  10  -3   4   15.16    4.82
  10   3   5    1.61    2.41
  10  -3   5    3.11    2.18
  10   3   5   -1.25    2.05
  10  -3   5    1.69    2.30
  10   3   6   18.03    4.75
  10  -3   6   13.85    4.47
  10   3   6   15.50    4.35
  10  -3   6   16.47    4.39
  10   3   7   37.68    6.59
  10   3   7   39.37    6.90
  10  -3   7   40.65    7.00
  10   3   8    2.43    2.18
  10  -3   8    0.71    2.28
  10   3   8    0.77    2.03
  10   3   9    5.59    2.45
  10  -3   9    4.08    2.78
  10   3   9    4.27    1.61
  10   3  10   28.12    5.09
  10  -3  10   27.09    5.88
  10   3  10   26.77    5.10
  10   3  11    3.18    2.83
  10  -3  11    3.65    3.46
  10   3  11    1.36    2.57
  10   3  12    6.62    3.96
  10  -3  12   13.50    4.07
  10   3  12    5.77    2.37
  10   3  13   12.88    3.91
  10  -3  13   12.57    3.35
  10   3  13   22.61    5.41
  10   3  14   -4.59    3.82
  10  -3  14    1.17    1.93
  10   3  14    0.61    2.15
  10  -3  15    1.65    2.77
  10   3  15   -1.92    2.61
  10  -3  16    4.65    2.27
  10   3  16   11.20    4.44
  10  -3  17   -2.20    2.97
  10   3  17    3.83    3.27
  10  -3  18    2.64    2.07
  10   3  18   -0.92    2.13
  10   3  19    1.39    2.13
  10  -3  19   -5.44    4.55
  10   3  20    1.32    3.21
  10  -3  20   -1.56    3.08
  10   3  21    3.56    2.64
  10   3  22   -0.53    2.01
  10   3  23   -0.03    1.59
  10   3  24   -1.55    2.73
  10   3  25    0.15    2.37
  10   3  26    3.18    2.18
  10  -4 -25   32.27    7.54
  10  -4 -24   33.17    6.80
  10  -4 -23   -0.23    1.99
  10  -4 -22   42.24    7.89
  10  -4 -21   24.44    6.51
  10  -4 -20    6.33    3.28
  10  -4 -19   22.15    6.15
  10   4 -19   36.04    7.67
  10  -4 -18   82.89   11.27
  10   4 -18   67.18   10.02
  10  -4 -17   71.33   10.56
  10  -4 -17   58.18    9.38
  10   4 -17   69.19    9.48
  10  -4 -16   57.81    8.71
  10  -4 -16   46.66    9.12
  10   4 -16   38.40    7.39
  10  -4 -15   89.26   10.96
  10  -4 -15  103.81   12.48
  10   4 -15   87.15   10.50
  10  -4 -14   70.56   10.00
  10  -4 -14   77.39   10.47
  10   4 -14   99.17   11.06
  10  -4 -13   61.84    9.39
  10  -4 -13   60.36    9.08
  10   4 -13   58.87    8.76
  10  -4 -12  139.33   13.64
  10  -4 -12  107.09   11.79
  10   4 -12  125.36   12.55
  10  -4 -11  235.11   17.05
  10  -4 -11  231.31   17.34
  10   4 -11  258.73   17.36
  10  -4 -10   75.10    9.73
  10  -4 -10   78.45   10.17
  10   4 -10   93.31   10.38
  10  -4  -9   99.08   11.37
  10  -4  -9   76.65   10.14
  10   4  -9   81.20    9.95
  10  -4  -8  100.71   11.40
  10  -4  -8  128.13   12.83
  10   4  -8  108.85   10.92
  10   4  -7   32.03    6.27
  10  -4  -7   29.56    6.33
  10   4  -7   31.40    5.19
  10  -4  -7   39.43    7.04
  10   4  -6   34.41    5.28
  10  -4  -6   51.65    8.13
  10   4  -6   36.00    6.42
  10  -4  -6   39.01    7.00
  10  -4  -5  168.66   14.07
  10  -4  -5  164.07   14.28
  10   4  -5  171.54   12.53
  10   4  -5  185.99   14.15
  10  -4  -4   69.71    8.87
  10   4  -4   70.90    8.20
  10  -4  -4   50.12    8.05
  10   4  -4   64.38    8.37
  10   4  -3   68.76    8.57
  10  -4  -3   63.49    8.91
  10   4  -3   72.54    8.35
  10  -4  -3   59.22    8.17
  10   4  -3   69.87    7.58
  10   4  -2  228.05   15.81
  10  -4  -2  263.42   17.66
  10   4  -2  216.09   14.47
  10  -4  -2  261.41   17.83
  10   4  -2  225.33   14.09
  10   4  -1  250.64   16.44
  10  -4  -1  249.17   16.72
  10   4  -1  219.50   14.50
  10  -4  -1  235.07   17.08
  10   4   0  137.21   12.12
  10  -4   0  130.78   12.20
  10   4   0  142.18   11.81
  10  -4   0  119.94   12.12
  10   4   1  222.62   15.26
  10  -4   1  235.28   16.31
  10   4   1  236.32   15.43
  10  -4   1  238.41   16.91
  10   4   2  255.18   16.47
  10  -4   2  248.72   16.92
  10   4   2  225.60   15.28
  10  -4   2  251.37   17.12
  10   4   3   72.95    9.24
  10  -4   3   72.15    9.10
  10   4   3   59.68    8.18
  10  -4   3   60.70    8.76
  10   4   4   71.57    9.28
  10  -4   4   60.88    8.67
  10   4   4   81.62    9.18
  10  -4   4   78.75    9.51
  10   4   5  152.13   12.85
  10  -4   5  131.84   12.46
  10   4   5  147.56   12.96
  10  -4   5  177.31   14.54
  10   4   6   39.43    6.53
  10  -4   6   48.76    7.84
  10   4   6   38.95    6.30
  10  -4   6   31.15    5.95
  10   4   7   34.82    5.90
  10  -4   7   30.54    6.12
  10  -4   7   32.67    6.81
  10   4   7   17.03    4.17
  10   4   8  127.42   11.96
  10  -4   8  126.07   12.46
  10   4   8  122.34   11.61
  10  -4   8  130.78   12.85
  10   4   9   92.58   10.07
  10  -4   9   71.01    9.43
  10   4   9   81.26   10.08
  10   4  10   77.73    9.08
  10  -4  10   72.21    9.21
  10   4  10   65.63    8.91
  10   4  11  247.72   16.68
  10  -4  11  226.93   16.90
  10   4  11  252.70   17.55
  10   4  12  103.33   10.80
  10  -4  12  121.49   12.38
  10   4  12   95.40   11.39
  10   4  13   73.59    9.29
  10  -4  13   86.63   10.92
  10   4  13   78.38    9.80
  10   4  14   92.06   10.50
  10  -4  14   95.32   11.19
  10   4  14   94.07   11.08
  10   4  15   91.69   10.79
  10  -4  15   83.94   10.94
  10   4  15   95.85   11.44
  10  -4  16   32.03    7.17
  10   4  16   38.46    7.43
  10   4  17   67.53   10.07
  10  -4  17   60.43    9.60
  10   4  18   73.58   10.76
  10  -4  18   82.40   11.36
  10  -4  19   25.87    6.47
  10   4  19   21.25    5.35
  10   4  20   11.75    4.51
  10   4  21   25.08    6.64
  10   4  22    6.84    2.26
  10   4  23   10.73    4.37
  10   4  24   33.86    8.12
  10   4  25   25.05    6.53
  10  -5 -23   -0.51    2.87
  10  -5 -22    0.16    3.73
  10  -5 -21   14.27    4.50
  10  -5 -20    0.51    1.82
  10  -5 -19    6.63    4.54
  10  -5 -18    1.46    1.77
  10  -5 -18   -1.46    2.90
  10   5 -18    0.87    2.94
  10   5 -17    0.85    1.83
  10  -5 -17    3.20    2.85
  10  -5 -17    7.22    4.59
  10   5 -16   20.38    6.03
  10  -5 -16   11.13    3.99
  10  -5 -16   12.71    4.15
  10   5 -15   23.62    6.32
  10  -5 -15   21.35    6.16
  10  -5 -15   18.61    6.81
  10   5 -14    0.73    2.68
  10  -5 -14    0.19    2.36
  10  -5 -14    5.20    3.01
  10   5 -13    0.47    2.73
  10  -5 -13   -1.68    2.60
  10  -5 -13    0.42    2.21
  10  -5 -12    0.19    1.71
  10   5 -12    2.60    2.30
  10  -5 -12    2.00    1.88
  10  -5 -11    7.30    2.72
  10   5 -11    3.78    2.73
  10  -5 -11    6.83    2.45
  10  -5 -10   15.07    5.22
  10   5 -10   10.72    3.09
  10  -5 -10   24.90    5.45
  10  -5  -9    0.70    3.79
  10   5  -9    9.60    4.17
  10  -5  -9    9.68    2.33
  10   5  -8   19.55    5.81
  10  -5  -8   25.43    5.87
  10  -5  -8   31.63    7.02
  10   5  -7   28.35    6.05
  10  -5  -7   15.17    4.98
  10  -5  -7   19.80    5.67
  10   5  -6    9.63    4.63
  10  -5  -6    3.06    2.81
  10   5  -6   13.81    4.31
  10  -5  -6    5.04    2.69
  10   5  -5   11.52    4.42
  10  -5  -5    4.22    2.31
  10   5  -5   13.30    3.89
  10  -5  -5    5.81    3.09
  10   5  -4   44.42    7.09
  10  -5  -4   34.27    7.84
  10   5  -4   30.82    5.74
  10  -5  -4   38.80    7.21
  10   5  -3   11.69    4.17
  10  -5  -3   17.45    5.27
  10  -5  -3    5.98    3.17
  10   5  -3   22.05    4.91
  10   5  -2   60.51    8.34
  10   5  -2   58.57    7.48
  10  -5  -2   47.61    7.87
  10  -5  -2   35.20    6.89
  10   5  -1  104.69   11.12
  10   5  -1  126.09   11.55
  10  -5  -1  120.37   12.16
  10  -5   0  103.79   11.13
  10   5   0  100.98   10.59
  10   5   0  106.77   10.95
  10  -5   0  101.99   11.56
  10  -5   1  110.62   11.29
  10   5   1  123.19   12.01
  10   5   1  131.00   11.81
  10  -5   1  129.71   12.82
  10   5   2   53.56    7.91
  10  -5   2   58.28    8.85
  10   5   2   45.67    7.27
  10  -5   2   34.82    6.65
  10   5   3   19.75    4.79
  10   5   3   21.07    5.13
  10  -5   3   13.42    4.29
  10  -5   3   14.98    4.57
  10   5   4   42.22    7.34
  10  -5   4   35.48    6.91
  10   5   4   47.25    7.70
  10  -5   4   31.25    5.96
  10   5   5   11.81    3.41
  10   5   5    9.36    4.46
  10  -5   5   17.52    5.19
  10  -5   5   18.94    5.32
  10   5   6    8.92    3.72
  10   5   6    7.40    3.53
  10  -5   6    2.35    1.76
  10  -5   6    7.06    4.32
  10   5   7   14.18    4.35
  10   5   7   13.33    4.67
  10  -5   7   16.32    4.40
  10  -5   7   15.06    3.73
  10   5   8   26.69    5.98
  10   5   8   31.53    6.42
  10  -5   8   26.05    5.60
  10  -5   8   35.69    7.44
  10   5   9    1.43    1.48
  10   5   9    5.48    1.93
  10  -5   9    3.76    2.59
  10  -5   9    0.65    2.33
  10   5  10   21.06    5.09
  10   5  10   25.50    5.32
  10  -5  10   18.18    4.71
  10  -5  10   22.43    5.85
  10   5  11    8.03    2.30
  10   5  11   -0.58    1.93
  10  -5  11    9.32    3.21
  10  -5  11    7.88    5.34
  10   5  12    4.14    2.91
  10   5  12    1.20    1.93
  10  -5  12    0.20    2.40
  10  -5  12    2.36    4.56
  10   5  13    2.11    3.00
  10   5  13    0.04    3.35
  10  -5  13    4.92    3.49
  10   5  14    4.89    3.15
  10   5  14    2.49    2.36
  10  -5  14    0.13    3.29
  10   5  15   22.73    5.84
  10   5  15   18.70    6.61
  10  -5  15   22.93    5.77
  10   5  16   22.25    5.34
  10  -5  16   13.03    5.67
  10   5  17    2.54    3.67
  10  -5  17    2.90    2.96
  10  -5  18    4.11    4.01
  10   5  18   10.46    4.47
  10   5  19    7.89    3.79
  10   5  20   -0.55    2.57
  10   5  21   15.58    5.07
  10   5  22    7.21    4.21
  10   5  23    2.25    3.08
  10  -6 -22   18.88    6.10
  10  -6 -21   53.47    9.45
  10  -6 -20   31.49    7.89
  10  -6 -19    9.10    4.64
  10  -6 -19   13.55    6.05
  10  -6 -18   42.37    8.60
  10  -6 -18   26.70    6.69
  10   6 -17   29.38    7.19
  10  -6 -17   43.97    7.87
  10  -6 -17   31.93    7.58
  10   6 -16   41.62    8.00
  10  -6 -16   47.23    9.07
  10  -6 -16   37.21    8.07
  10  -6 -15  100.15   12.33
  10  -6 -15  112.61   13.36
  10   6 -15  108.05   12.44
  10  -6 -14   54.42    9.70
  10  -6 -14   61.29   10.05
  10   6 -14   79.53   11.21
  10  -6 -13   48.92    8.54
  10  -6 -13   49.44    9.11
  10   6 -13   57.24    9.16
  10   6 -12   43.91    7.86
  10  -6 -12   52.00    8.92
  10  -6 -12   52.27    9.12
  10  -6 -11   57.52    9.36
  10  -6 -11   53.56    9.14
  10   6 -11   55.70    8.53
  10  -6 -10   34.71    7.50
  10   6 -10   38.97    7.65
  10  -6 -10   33.49    7.22
  10   6  -9   74.82   10.39
  10  -6  -9   58.64    9.21
  10  -6  -9   71.29   10.25
  10   6  -8   62.37    9.15
  10  -6  -8   88.03   11.41
  10  -6  -8   73.60   10.66
  10  -6  -7   15.67    4.33
  10   6  -7   19.26    5.62
  10  -6  -7   32.95    7.43
  10   6  -6   40.73    6.93
  10  -6  -6   28.94    6.29
  10  -6  -6   40.36    8.30
  10   6  -5   87.40   10.67
  10   6  -5  106.25   10.85
  10  -6  -5   94.99   11.42
  10  -6  -5  109.14   12.30
  10   6  -4   60.57    8.95
  10   6  -4   56.81    8.09
  10  -6  -4   60.83    8.79
  10  -6  -4   60.87    9.17
  10  -6  -3    1.50    1.93
  10   6  -3    4.55    3.78
  10  -6  -3    3.53    2.26
  10   6  -3    0.33    1.92
  10   6  -2   34.28    6.04
  10   6  -2   48.33    8.10
  10  -6  -2   39.54    8.24
  10  -6  -2   41.09    7.73
  10   6  -1   95.18   11.09
  10   6  -1  113.71   11.54
  10  -6  -1   94.86   11.57
  10  -6  -1   84.41   10.69
  10   6   0  123.58   12.35
  10   6   0  116.16   12.12
  10  -6   0  117.76   12.59
  10  -6   0  107.06   11.93
  10   6   1  101.27   11.43
  10   6   1   95.87   10.70
  10  -6   1   94.49   11.55
  10  -6   1  115.12   11.96
  10   6   2   58.11    8.33
  10   6   2   39.12    7.09
  10  -6   2   44.67    8.14
  10  -6   2   51.50    8.10
  10   6   3    1.24    2.87
  10   6   3    3.30    2.21
  10  -6   3    2.05    1.95
  10  -6   3   -0.28    1.83
  10  -6   4   61.99    9.73
  10   6   4   54.16    8.42
  10   6   4   56.97    8.60
  10  -6   4   49.83    8.49
  10  -6   5   96.46   10.94
  10   6   5   85.29   10.38
  10   6   5   85.83   10.75
  10  -6   5  107.44   12.26
  10   6   6   23.54    5.33
  10  -6   6   28.67    6.81
  10   6   6   40.05    7.45
  10  -6   6   36.72    7.16
  10   6   7   12.98    4.26
  10   6   7   22.92    5.73
  10  -6   7   13.50    4.18
  10  -6   7   22.88    5.90
  10  -6   8   75.78   10.21
  10   6   8   74.16   10.37
  10   6   8   94.30   10.92
  10  -6   8   72.74   10.22
  10  -6   9   58.13    9.41
  10   6   9   74.12    9.63
  10   6   9   89.36   10.76
  10  -6   9   66.67   10.40
  10   6  10   47.60    8.04
  10   6  10   42.24    7.73
  10  -6  10   29.00    7.21
  10  -6  11   41.49    8.47
  10   6  11   43.97    7.40
  10   6  11   54.01    8.78
  10  -6  11   59.08   10.30
  10  -6  12   50.74    9.10
  10   6  12   41.61    7.10
  10   6  12   47.95    8.35
  10  -6  12   37.39    7.42
  10  -6  13   59.96    9.66
  10   6  13   48.42    8.05
  10   6  13   42.29    8.02
  10  -6  13   35.80    7.90
  10   6  14   88.15   11.68
  10  -6  14   54.64    8.91
  10   6  14   70.36    9.70
  10  -6  14   70.02   10.65
  10  -6  15   90.62   11.82
  10   6  15  125.40   13.68
  10   6  15  117.58   13.06
  10   6  16   40.75    7.98
  10   6  16   54.70    8.43
  10  -6  16   35.27    7.34
  10  -6  16   48.63    9.29
  10   6  17   61.24    9.60
  10   6  18   35.19    7.77
  10   6  19   18.63    5.86
  10   6  20   41.36    7.89
  10   6  21   62.22    9.24
  10   6  22   27.71    7.35
  10  -7 -19    2.71    3.03
  10  -7 -19    3.07    3.96
  10  -7 -18    6.93    2.21
  10  -7 -18    4.44    4.47
  10  -7 -17    0.84    2.33
  10  -7 -17   -2.70    2.91
  10   7 -16    4.38    2.31
  10  -7 -16   13.42    4.10
  10  -7 -16    9.13    2.95
  10   7 -15    8.16    4.18
  10  -7 -15    8.30    3.63
  10  -7 -15    1.57    2.84
  10   7 -14    9.69    4.17
  10  -7 -14   15.02    5.36
  10  -7 -14   11.76    4.57
  10   7 -13   14.36    5.19
  10  -7 -13   12.86    4.46
  10  -7 -13    4.70    2.88
  10   7 -12    3.84    1.98
  10  -7 -12    8.13    3.84
  10  -7 -12    5.41    3.96
  10   7 -11   28.96    6.62
  10  -7 -11   30.60    6.15
  10  -7 -11   32.55    7.67
  10   7 -10   41.97    8.34
  10  -7 -10   25.11    6.47
  10  -7 -10   37.03    7.57
  10   7  -9   19.88    5.71
  10  -7  -9   20.67    6.10
  10  -7  -9   17.64    5.49
  10  -7  -8   27.23    6.42
  10   7  -8   23.80    5.17
  10  -7  -8   10.70    4.27
  10  -7  -7    4.42    4.04
  10   7  -7    3.46    1.95
 -10   7  -7   -1.27    1.99
  10  -7  -7   -2.53    2.74
  10  -7  -6   12.45    5.00
  10   7  -6    3.80    1.91
 -10   7  -6    8.66    4.33
  10  -7  -6   14.22    4.71
  10  -7  -5    5.32    3.60
  10   7  -5    4.72    3.93
 -10   7  -5    6.85    2.85
  10  -7  -5    1.39    2.38
  10   7  -4   -2.33    1.86
  10  -7  -4    7.95    3.91
  10   7  -4    6.85    4.20
  10  -7  -4    4.49    2.77
  10  -7  -3    9.88    3.97
  10   7  -3   11.11    4.24
  10   7  -3    7.88    4.42
  10  -7  -3    8.93    4.15
  10  -7  -2   25.25    6.15
  10   7  -2   12.67    3.77
  10   7  -2   13.27    3.84
  10  -7  -2   14.45    6.08
  10   7  -1   49.80    7.89
  10   7  -1   49.39    8.10
  10  -7  -1   55.40    8.77
  10  -7  -1   54.00    9.07
  10  -7   0   17.89    4.96
  10   7   0   27.37    6.12
  10   7   0   14.72    4.53
  10  -7   0   25.81    6.35
  10   7   1   53.97    8.52
  10  -7   1   40.00    7.38
  10   7   1   45.37    7.82
  10  -7   1   40.32    8.18
  10  -7   2   15.40    5.23
  10   7   2   21.07    5.65
  10   7   2   10.60    3.40
  10  -7   2   14.97    4.76
  10  -7   3   13.12    3.92
  10   7   3   11.85    4.58
  10   7   3   11.52    4.38
  10  -7   3   11.31    4.47
  10  -7   4   13.88    4.80
  10   7   4    3.57    3.37
  10   7   4    4.56    2.76
  10  -7   4    8.08    4.21
  10  -7   5    5.16    3.00
  10   7   5    1.25    2.08
  10   7   5    3.53    2.33
  10  -7   5    6.86    4.93
  10  -7   6   -2.25    2.30
  10   7   6    9.95    4.31
  10   7   6    9.99    3.03
  10  -7   6    6.17    3.49
  10  -7   7    6.20    3.14
  10   7   7    3.60    4.33
  10   7   7    5.28    3.15
  10  -7   7    0.21    2.74
  10  -7   8   20.67    5.19
  10   7   8   21.50    6.03
  10   7   8   23.92    5.93
  10  -7   8   23.31    7.07
  10  -7   9   23.51    5.93
  10   7   9   31.35    6.80
  10   7   9   21.27    6.02
  10  -7   9   19.23    5.00
  10  -7  10   27.27    7.38
  10   7  10   26.12    5.85
  10   7  10   17.14    5.49
  10  -7  10   28.86    7.26
  10  -7  11   16.17    5.48
  10   7  11   23.88    6.21
  10  -7  11   23.24    6.38
  10  -7  12    3.61    2.31
  10   7  12    0.85    2.59
  10   7  12    0.58    2.27
  10   7  13    3.72    3.31
  10  -7  13    4.77    2.80
  10   7  13    5.88    4.03
  10  -7  13    8.06    3.78
  10   7  14   15.64    5.30
  10  -7  14    2.26    2.46
  10   7  14   14.98    5.02
  10   7  15    8.04    4.19
  10  -7  15   11.71    6.10
  10   7  15    8.37    3.76
  10   7  16    6.36    3.71
  10   7  16   10.99    4.43
  10   7  17   -0.50    2.94
  10   7  18   10.01    3.85
  10   7  19    0.49    2.06
  10  -8 -17    0.78    2.12
  10  -8 -17    8.81    4.22
  10   8 -16    1.36    5.27
  10  -8 -16    8.28    6.42
  10  -8 -16    2.53    3.25
  10   8 -15   34.39    7.30
  10  -8 -15   46.95    8.80
  10  -8 -15   36.34    7.78
  10   8 -14   39.58    8.28
  10  -8 -14   39.92    8.27
  10  -8 -14   44.58    8.59
  10   8 -13   18.13    5.75
  10  -8 -13   15.76    5.52
  10  -8 -13   24.43    6.53
  10   8 -12   14.25    5.76
  10  -8 -12   27.78    6.67
  10  -8 -12   10.79    4.96
  10   8 -11   10.50    3.78
  10  -8 -11   23.77    6.50
  10  -8 -11   29.16    7.28
  10   8 -10    3.23    2.41
  10  -8 -10    8.70    3.79
  10  -8 -10   11.01    4.78
  10   8  -9   42.58    8.28
  10  -8  -9   46.60    8.45
  10  -8  -9   36.90    7.95
  10   8  -8   41.03    8.26
  10  -8  -8   63.17   10.56
  10  -8  -8   56.13    9.93
  10   8  -7    3.41    2.60
 -10   8  -7    7.28    5.01
  10  -8  -7    1.00    2.53
  10   8  -6   55.23    9.28
 -10   8  -6   54.68    8.98
  10  -8  -6   68.67   10.38
  10  -8  -6   60.28   10.27
  10   8  -5   81.84   10.83
 -10   8  -5   86.75   11.56
  10  -8  -5  100.30   12.66
  10  -8  -5  111.16   12.92
  10   8  -4   66.64    9.75
 -10   8  -4   54.79    8.95
  10  -8  -4   86.69   12.04
  10  -8  -4   78.10   10.89
  10  -8  -3   20.26    6.34
  10   8  -3   18.94    5.98
 -10   8  -3    9.60    3.47
  10  -8  -3   12.90    4.00
  10  -8  -2   10.57    4.20
  10   8  -2   15.29    4.78
  10   8  -2   19.33    5.58
 -10   8  -2   26.48    6.22
  10  -8  -2   24.75    7.09
  10  -8  -1   15.10    5.89
  10   8  -1   16.68    4.27
  10   8  -1   27.41    6.92
 -10   8  -1   27.66    5.98
  10  -8  -1   20.73    5.69
  10  -8   0   32.90    7.54
  10   8   0   43.88    8.15
 -10   8   0   36.60    6.68
  10   8   0   38.92    7.97
  10  -8   0   25.61    6.94
  10  -8   1   28.98    6.79
  10   8   1   30.87    6.87
  10   8   1   20.36    5.57
 -10   8   1   21.27    5.67
  10  -8   1   22.70    6.65
  10  -8   2   20.80    5.83
  10   8   2   11.74    4.22
  10   8   2   12.64    4.35
 -10   8   2   12.62    3.92
  10  -8   2    3.28    3.04
  10  -8   3   16.06    5.31
  10   8   3   13.42    4.84
  10   8   3   20.56    5.92
 -10   8   3   12.99    4.56
  10  -8   3   18.43    5.44
  10  -8   4   43.51    8.38
  10   8   4   46.22    8.32
  10   8   4   65.57    9.36
  10  -8   4   64.83   10.73
  10   8   5  122.73   13.42
  10   8   5  101.64   11.82
  10  -8   5   80.76   12.01
  10  -8   5  112.49   12.61
  10   8   6   60.86    9.50
  10   8   6   71.76   10.32
  10  -8   6   45.17    8.07
  10  -8   6   68.00   10.25
  10  -8   7   11.37    4.37
  10   8   7   11.59    4.21
  10   8   7   18.41    5.53
  10  -8   7   19.55    6.81
  10   8   8   53.30    9.11
  10   8   8   50.94    8.61
  10  -8   8   59.41    9.88
  10   8   9   58.31    9.55
  10   8   9   45.43    8.26
  10  -8  10   11.57    4.21
  10   8  10   23.14    6.64
  10  -8  11   28.92    7.28
  10   8  11   21.08    6.62
  10   8  11   30.35    7.15
  10  -8  12   15.13    5.53
  10   8  12   19.68    6.07
  10   8  12   16.91    4.99
  10  -8  13    8.84    4.17
  10   8  13   13.76    6.57
  10   8  13   14.49    5.82
  10   8  14   42.96    7.83
  10   8  14   30.49    7.30
 -10   8  14   31.09    6.40
  10   8  15   45.82    9.42
  10   8  15   38.54    7.77
 -10   8  15   41.89    7.59
  10   8  16    8.63    4.83
  10   8  16    4.33    2.52
 -10   8  16    4.33    2.81
  10   8  17    4.68    2.41
 -10   8  17    6.55    5.20
  10   9 -13    2.22    3.73
  10  -9 -13    2.65    3.33
  10  -9 -13    5.60    3.71
  10   9 -12   -0.69    3.39
  10  -9 -12   -3.93    3.84
  10  -9 -12    0.02    3.41
  10   9 -11   12.43    5.25
  10  -9 -11   14.44    5.52
  10  -9 -11   15.13    4.79
  10  -9 -10    5.90    3.21
  10  -9 -10    5.71    3.89
  10   9  -9   -0.03    2.50
  10  -9  -9    4.07    3.82
  10  -9  -9    0.14    3.82
  10   9  -8   15.58    4.98
  10  -9  -8    4.72    2.76
  10  -9  -8    6.79    5.02
  10   9  -7    5.55    3.73
  10  -9  -7   -3.36    5.43
  10  -9  -7    8.07    4.76
  10   9  -6    1.96    2.77
  10  -9  -6    6.90    4.08
  10  -9  -6    6.39    3.91
  10   9  -5   -1.90    2.99
 -10   9  -5    6.98    3.77
  10  -9  -5   -2.57    4.08
  10  -9  -5   -0.50    2.43
  10   9  -4    9.78    4.31
 -10   9  -4    9.03    5.23
  10  -9  -4    6.76    4.85
  10  -9  -4    5.73    3.75
  10   9  -3    1.60    2.09
 -10   9  -3   11.63    4.54
  10  -9  -3   14.72    6.05
  10  -9  -3    5.61    4.01
  10   9  -2   -1.15    2.66
 -10   9  -2    0.81    1.74
  10  -9  -2    3.05    3.06
  10  -9  -2    4.04    3.97
  10   9  -1    6.92    4.09
  10   9  -1   -5.28    2.85
 -10   9  -1    2.82    2.88
  10  -9  -1    8.71    4.15
  10  -9  -1    8.70    4.63
  10   9   0    9.66    4.82
  10   9   0   11.70    2.86
 -10   9   0    8.25    4.16
  10  -9   0    7.09    4.78
  10  -9   0    4.95    3.31
  10  -9   1    5.67    3.78
  10   9   1    7.47    4.01
  10   9   1   11.47    4.35
 -10   9   1   12.19    5.60
  10  -9   1    5.27    4.12
  10  -9   2    3.13    4.16
  10   9   2    7.37    4.05
  10   9   2    0.93    2.24
 -10   9   2    2.59    3.41
  10  -9   3    4.90    3.00
  10   9   3   18.14    5.94
  10   9   3    0.13    2.21
 -10   9   3   19.91    5.35
  10  -9   4   12.48    5.35
  10   9   4   11.04    4.21
  10   9   4    9.45    4.68
 -10   9   4    6.85    4.06
  10  -9   5   -0.26    1.80
  10   9   5    1.17    3.68
  10   9   5    3.79    3.38
 -10   9   5   -2.39    1.76
  10  -9   6    5.44    2.62
  10   9   6   12.06    5.46
  10   9   6    1.53    2.23
 -10   9   6    3.93    4.46
  10  -9   7    5.24    2.67
  10   9   7    2.18    3.32
  10   9   7    6.50    4.07
 -10   9   7    5.63    4.07
  10  -9   8    2.83    4.33
  10   9   8    9.61    4.16
  10   9   8    7.21    5.04
 -10   9   8    1.49    1.94
  10  -9   9    3.15    4.05
  10   9   9   -2.34    2.04
  10   9   9   -1.62    2.12
 -10   9   9   -1.34    2.71
  10  -9  10    0.47    2.54
  10   9  10    1.07    3.93
  10   9  10   -0.80    3.06
 -10   9  10    9.94    4.73
  10  -9  11    1.64    3.57
  10   9  11    4.50    3.42
  10   9  11    7.97    3.97
 -10   9  11   14.40    5.57
  10  -9  12    4.81    4.74
  10   9  12   -2.27    4.05
  10   9  12    3.01    3.44
 -10   9  12    3.31    3.78
  10   9  13    1.45    2.90
 -10   9  13    2.38    2.43
  10  10  -6   22.66    6.46
  10 -10  -6   23.58    7.06
  10 -10  -6   26.33    8.04
  10  10  -5   11.51    4.32
  10 -10  -5   15.53    7.56
  10  10  -4   24.21    6.69
 -10  10  -4   20.26    6.54
  10 -10  -4   20.10    5.65
  10  10  -3    2.93    2.26
 -10  10  -3    4.72    2.86
  10 -10  -3    3.55    4.08
  10  10  -2   26.45    6.29
 -10  10  -2   22.10    6.91
  10 -10  -2   23.75    6.65
  10  10  -1    7.81    3.95
 -10  10  -1   16.77    5.55
  10 -10  -1    4.70    3.61
  10  10   0    3.50    3.28
 -10  10   0    5.78    4.13
  10 -10   0    3.11    2.86
  10  10   1   -0.86    2.56
 -10  10   1    1.38    2.27
  10  10   2   23.45    7.27
  10  10   2   11.89    4.31
 -10  10   2   29.70    7.91
  10 -10   2   19.69    6.70
  10  10   3   -0.61    3.31
  10  10   3    3.22    2.40
 -10  10   3    2.56    2.10
  10 -10   3    9.24    5.43
  10  10   4   12.49    4.93
  10  10   4   12.86    4.79
 -10  10   4   13.79    6.54
  10 -10   4   19.41    6.82
  10  10   5   15.98    5.90
  10  10   5   26.17    6.00
 -10  10   5   18.43    5.80
  10 -10   5    3.84    3.13
  10  10   6   28.09    7.72
  10  10   6   22.74    5.54
 -10  10   6   26.89    7.14
  10 -10   6   24.27    6.95
  11   0 -24   -2.19    2.27
  11   0 -23   -3.99    3.48
  11   0 -22   -3.26    3.46
  11   0 -21   -2.71    3.28
  11   0 -20   -3.22    3.55
  11   0 -19   -0.09    1.89
  11   0 -18    3.56    2.69
  11   0 -17    1.44    3.21
  11   0 -16    0.49    1.88
  11   0 -15    2.34    2.79
  11   0 -14   -0.46    1.79
  11   0 -13   -0.64    1.46
  11   0 -12   -2.45    2.65
  11   0 -12   -1.90    2.69
  11   0 -11   -0.08    1.21
  11   0 -11    0.78    2.62
  11   0 -10    0.94    2.29
  11   0 -10    1.99    2.25
  11   0  -9    0.82    1.28
  11   0  -9   -1.00    2.23
  11   0  -8    0.25    1.84
  11   0  -8   -1.92    1.72
  11   0  -7    1.66    1.80
  11   0  -7    0.04    1.29
  11   0  -6    0.15    1.98
  11   0  -6    0.09    2.01
  11   0  -6    1.05    2.29
  11   0  -5    0.27    1.06
  11   0  -5    0.54    2.54
  11   0  -5   -0.28    1.53
  11   0  -4    2.71    2.63
  11   0  -4    0.23    2.52
  11   0  -4    2.42    3.09
  11   0  -3   -0.83    1.62
  11   0  -3   -0.44    1.53
  11   0  -3   -0.75    1.43
  11   0  -2   -1.44    1.65
  11   0  -2    1.53    2.26
  11   0  -2   -1.12    1.61
  11   0  -1   -1.67    1.46
  11   0  -1   -1.14    1.36
  11   0  -1    0.89    2.03
  11   0   0    2.08    3.09
  11   0   0    1.41    2.24
  11   0   0   -1.44    2.77
  11   0   1   -0.63    1.62
  11   0   1    0.24    2.44
  11   0   1    0.74    1.68
  11   0   2   -1.03    2.28
  11   0   2   -1.21    2.23
  11   0   3    0.70    2.30
  11   0   3   -0.31    2.02
  11   0   4   -0.28    2.21
  11   0   4   -0.46    1.92
  11   0   5   -0.27    2.10
  11   0   5   -0.08    1.07
  11   0   6    0.74    2.03
  11   0   6    0.90    1.58
  11   0   7    0.05    1.92
  11   0   7   -0.98    1.49
  11   0   8   -1.34    2.57
  11   0   8    0.49    2.16
  11   0   9    0.36    2.10
  11   0   9   -0.29    1.44
  11   0  10   -0.83    2.35
  11   0  10   -0.77    1.87
  11   0  11   -0.58    1.40
  11   0  11    0.69    1.35
  11   0  12    1.10    3.18
  11   0  12   -0.09    1.36
  11   0  13   -1.11    1.93
  11   0  14    2.89    3.01
  11   0  15   -0.84    2.07
  11   0  16    1.66    2.11
  11   0  17    1.07    2.93
  11   0  18    0.11    1.73
  11   0  19   -2.09    2.42
  11   0  20    0.03    3.22
  11   0  21    1.18    2.58
  11   0  22   -0.41    2.98
  11   0  23    0.18    3.21
  11   0  24   -1.60    2.42
  11  -1 -26    9.45    4.88
  11  -1 -25   28.92    7.98
  11  -1 -24   51.96    9.60
  11  -1 -23   14.02    4.31
  11  -1 -22    0.31    3.46
  11  -1 -21   16.56    5.83
  11   1 -20   -0.80    4.12
  11  -1 -20   17.75    5.03
  11   1 -19   62.20    9.76
  11  -1 -19   58.44    9.02
  11   1 -18  240.04   18.09
  11  -1 -18  222.84   17.69
  11   1 -17   23.52    6.67
  11  -1 -17   33.97    6.92
  11   1 -16    0.20    2.72
  11  -1 -16    6.09    3.11
  11   1 -15   64.23    8.77
  11  -1 -15   61.31    8.89
  11   1 -14  199.25   15.35
  11  -1 -14  216.71   16.35
  11   1 -13  428.76   22.62
  11  -1 -13  440.48   23.27
  11  -1 -13  430.52   21.44
  11  -1 -12  486.48   22.93
  11   1 -12  490.65   24.07
  11  -1 -12  470.94   24.36
  11   1 -12  537.11   25.14
  11  -1 -11   14.82    4.39
  11   1 -11   25.86    5.99
  11  -1 -11   19.97    5.54
  11   1 -11   24.57    5.73
  11  -1 -10  216.57   15.14
  11   1 -10  210.85   14.27
  11  -1 -10  231.84   16.63
  11   1 -10  222.51   15.81
  11   1 -10  226.59   16.18
  11  -1  -9  192.28   14.42
  11   1  -9  203.91   13.96
  11   1  -9  215.29   15.30
  11   1  -9  203.21   14.92
  11  -1  -8  189.71   14.19
  11   1  -8  225.89   14.58
  11  -1  -8  214.14   15.74
  11   1  -8  233.10   15.87
  11   1  -8  236.83   15.82
  11  -1  -7  262.58   16.63
  11   1  -7  250.55   15.37
  11  -1  -7  267.66   17.24
  11   1  -7  266.06   16.50
  11   1  -7  278.23   17.05
  11  -1  -6  169.74   13.29
  11   1  -6  158.70   12.11
  11  -1  -6  153.44   13.13
  11   1  -6  194.36   13.79
  11   1  -6  171.08   13.18
  11  -1  -5   51.24    7.16
  11   1  -5   40.91    6.38
  11  -1  -5   46.37    7.53
  11   1  -5   52.12    7.41
  11   1  -5   50.75    7.06
  11  -1  -4   31.56    6.16
  11   1  -4   34.07    5.64
  11   1  -4   41.61    6.66
  11  -1  -4   33.37    6.32
  11   1  -4   25.22    4.78
  11  -1  -3  322.39   17.89
  11   1  -3  282.65   16.03
  11  -1  -3  288.89   17.80
  11   1  -3  305.95   17.64
  11   1  -3  317.55   17.70
  11  -1  -2  777.59   28.28
  11   1  -2  784.01   27.24
  11  -1  -2  750.20   28.87
  11   1  -2  798.47   28.90
  11   1  -2  770.91   27.01
  11  -1  -1   49.06    7.00
  11   1  -1   48.95    7.27
  11  -1  -1   54.97    7.99
  11   1  -1   49.61    7.10
  11   1  -1   43.96    6.70
  11   1   0    4.66    2.76
  11  -1   0    3.17    2.12
  11  -1   0    2.68    2.71
  11   1   0    4.29    1.76
  11   1   0    1.66    1.80
  11  -1   1   53.14    7.31
  11   1   1   49.09    7.02
  11  -1   1   36.90    6.84
  11   1   1   56.73    7.52
  11  -1   2  859.95   29.57
  11   1   2  845.09   29.01
  11  -1   2  820.14   29.96
  11   1   2  879.01   28.51
  11  -1   3  299.68   17.62
  11   1   3  269.52   16.65
  11  -1   3  300.16   18.33
  11   1   3  269.53   15.80
  11  -1   4   36.72    6.46
  11   1   4   33.31    5.67
  11   1   4   34.99    5.53
  11  -1   5   40.75    6.73
  11   1   5   46.39    7.11
  11   1   5   42.06    6.34
  11  -1   6  157.32   12.93
  11   1   6  164.61   13.23
  11   1   6  144.03   11.42
  11  -1   7  231.47   15.92
  11   1   7  256.67   16.65
  11   1   7  250.75   15.19
  11  -1   8  224.51   15.83
  11   1   8  260.52   17.11
  11   1   8  231.93   14.66
  11  -1   9  218.73   15.64
  11   1   9  243.47   16.60
  11   1   9  233.63   14.41
  11  -1  10  195.54   15.00
  11   1  10  205.69   15.34
  11   1  10  229.56   14.42
  11   1  11   28.92    5.63
  11   1  11   24.76    5.33
  11  -1  11   21.28    4.75
  11  -1  12  498.19   24.26
  11   1  12  502.71   24.71
  11   1  12  455.15   20.23
  11  -1  13  437.50   23.20
  11   1  13  426.43   22.56
  11   1  13  432.74   19.52
  11  -1  14  202.25   16.02
  11   1  14  212.41   16.28
  11  -1  15   87.20   10.57
  11   1  15   79.05    9.88
  11   1  16    4.47    2.78
  11  -1  16    2.34    1.96
  11   1  17   29.35    6.33
  11  -1  17   24.02    6.11
  11  -1  18  241.10   18.65
  11   1  18  257.91   19.28
  11  -1  19   51.25    9.00
  11   1  19   62.98    9.52
  11   1  20   12.67    4.36
  11  -1  20   15.12    5.20
  11   1  21   17.34    5.63
  11  -1  21   16.81    5.32
  11   1  22    0.23    3.67
  11  -1  22   -0.32    2.22
  11   1  23   10.06    4.45
  11  -1  23    9.46    5.26
  11   1  24   66.91   10.67
  11   1  25   33.64    8.04
  11  -2 -25    2.25    2.43
  11  -2 -24   -0.04    2.42
  11  -2 -23   32.57    7.08
  11  -2 -22    0.78    2.85
  11  -2 -21   -3.30    2.15
  11  -2 -20   14.65    5.37
  11  -2 -19    0.60    1.65
  11  -2 -18    0.53    1.58
  11  -2 -17    1.27    2.49
  11  -2 -16    1.57    2.26
  11   2 -16    1.80    2.15
  11  -2 -15   -2.42    1.67
  11  -2 -15   -1.26    1.89
  11   2 -15    2.17    3.07
  11  -2 -14   15.60    3.88
  11   2 -14   13.82    4.75
  11  -2 -14   17.86    3.87
  11   2 -14   20.59    5.25
  11  -2 -13   21.64    5.49
  11   2 -13   24.51    5.55
  11  -2 -13   16.23    5.94
  11   2 -13   22.69    6.10
  11  -2 -12    6.00    2.78
  11   2 -12    1.15    2.27
  11  -2 -12    2.93    2.45
  11   2 -12   -0.38    1.67
  11  -2 -11    0.97    1.48
  11   2 -11    2.97    1.90
  11  -2 -11    0.54    2.07
  11   2 -11    3.64    2.91
  11  -2 -10    5.37    2.05
  11  -2 -10    1.47    1.48
  11   2 -10    2.42    1.93
  11   2 -10    2.37    1.83
  11  -2  -9    5.35    2.46
  11  -2  -9    6.48    3.02
  11   2  -9    5.02    2.55
  11   2  -9    4.40    3.26
  11   2  -9    2.06    1.41
  11  -2  -8   65.47    8.57
  11   2  -8   66.49    7.74
  11  -2  -8   69.71    9.43
  11   2  -8   87.29    9.52
  11   2  -8   62.12    8.45
  11  -2  -7   15.17    4.21
  11  -2  -7   20.37    5.17
  11   2  -7   19.97    4.83
  11   2  -7   25.31    4.90
  11   2  -7   14.10    3.95
  11   2  -6    2.66    1.82
  11  -2  -6    1.19    1.65
  11  -2  -6    1.90    1.30
  11   2  -6    1.15    1.40
  11   2  -6    3.30    3.08
  11  -2  -5   35.95    6.53
  11  -2  -5   32.77    6.21
  11   2  -5   36.40    5.45
  11   2  -5   37.46    6.95
  11   2  -5   28.92    5.23
  11   2  -4    2.55    2.22
  11   2  -4    5.82    2.57
  11  -2  -4    7.68    3.60
  11  -2  -4    5.86    3.05
  11   2  -4    4.74    3.33
  11  -2  -3  390.30   20.85
  11   2  -3  392.14   19.32
  11  -2  -3  413.14   21.89
  11   2  -3  378.01   19.40
  11   2  -2   16.29    4.50
  11   2  -2   12.40    3.58
  11  -2  -2   21.70    5.07
  11  -2  -2   12.36    3.88
  11   2  -2   13.47    3.57
  11  -2  -1  274.11   17.30
  11  -2  -1  253.26   17.18
  11   2  -1  260.14   16.32
  11   2  -1  272.61   16.11
  11   2  -1  262.91   16.24
  11   2   0    3.60    2.03
  11   2   0    1.27    1.64
  11  -2   0    1.55    1.81
  11  -2   0    2.99    2.14
  11   2   0    0.14    1.68
  11  -2   1  280.57   17.64
  11  -2   1  267.55   17.61
  11   2   1  251.28   15.78
  11   2   1  267.96   16.45
  11   2   2   15.78    4.45
  11   2   2   17.11    4.47
  11  -2   2   14.75    4.73
  11  -2   2   19.50    4.47
  11  -2   3  351.79   19.72
  11  -2   3  364.40   20.51
  11   2   3  365.17   19.47
  11   2   3  382.10   19.56
  11   2   4    3.78    2.01
  11   2   4    5.47    3.45
  11  -2   4    3.23    1.74
  11  -2   4   -0.21    3.21
  11   2   5   29.54    5.48
  11  -2   5   30.17    5.97
  11   2   5   33.74    5.99
  11   2   6    4.94    2.22
  11   2   6    4.81    3.07
  11  -2   6    2.19    2.71
  11   2   7   20.21    4.92
  11   2   7   19.89    4.40
  11  -2   7   18.15    4.45
  11   2   8   73.58    9.46
  11  -2   8   69.18    9.14
  11   2   8   80.02    8.85
  11   2   9    6.35    2.90
  11   2   9    9.65    3.47
  11  -2   9    1.32    2.01
  11   2  10    2.27    1.73
  11   2  10    4.16    3.57
  11  -2  10    4.62    3.32
  11   2  11    6.20    2.97
  11   2  11    5.34    2.38
  11  -2  11    3.86    3.13
  11   2  12    2.17    1.99
  11  -2  12    1.92    1.54
  11   2  13   27.84    5.40
  11   2  13   12.66    4.11
  11  -2  13   24.59    5.87
  11   2  14   21.63    5.35
  11  -2  14   11.72    4.28
  11   2  15   -0.33    3.02
  11  -2  15    1.41    3.63
  11   2  16    0.99    2.78
  11  -2  16    6.51    4.06
  11   2  17    3.59    3.93
  11  -2  17    3.21    1.83
  11   2  18    6.58    3.03
  11  -2  18    3.34    2.84
  11   2  19   -0.69    3.43
  11  -2  19    0.96    2.11
  11   2  20    8.97    3.39
  11  -2  20    6.47    3.23
  11   2  21   -0.83    3.55
  11  -2  21    1.98    2.39
  11   2  22    2.62    4.85
  11  -2  22    2.22    4.21
  11   2  23   41.67    8.60
  11   2  24   -2.23    3.27
  11   2  25    9.26    4.93
  11  -3 -25   80.49   11.93
  11  -3 -24   64.62   10.39
  11  -3 -23   57.21    9.89
  11  -3 -22   17.09    6.34
  11  -3 -21   17.30    4.38
  11  -3 -20   37.78    8.70
  11  -3 -19   28.01    6.70
  11   3 -19   23.78    6.36
  11  -3 -18   84.30   11.75
  11   3 -18   67.31   10.27
  11  -3 -17   59.36    9.30
  11   3 -17   62.08    9.23
  11  -3 -16    0.50    2.79
  11   3 -16   -0.65    1.63
  11  -3 -15   30.04    6.92
  11  -3 -15   21.83    5.15
  11   3 -15   27.58    6.44
  11  -3 -14  116.06   12.45
  11  -3 -14   79.21   11.25
  11   3 -14  104.78   11.63
  11  -3 -13   81.82   10.25
  11  -3 -13   80.40   10.53
  11   3 -13  102.58   11.21
  11  -3 -12  111.24   11.89
  11   3 -12   81.37    9.65
  11  -3 -12   91.59   10.88
  11  -3 -11  166.56   14.81
  11   3 -11  136.34   13.17
  11  -3 -11  148.88   13.53
  11  -3 -10   27.21    5.79
  11  -3 -10   46.77    8.68
  11   3 -10   45.20    7.48
  11  -3  -9  681.18   29.46
  11   3  -9  738.34   29.23
  11  -3  -9  634.13   27.85
  11  -3  -8  258.10   17.42
  11   3  -8  213.07   14.20
  11  -3  -8  227.73   16.86
  11   3  -8  243.06   16.71
  11  -3  -7   56.05    8.30
  11  -3  -7   69.04    9.18
  11   3  -7   79.35    8.76
  11   3  -7   50.39    7.19
  11   3  -7   79.58    9.42
  11  -3  -6   56.30    8.31
  11  -3  -6   51.05    7.95
  11   3  -6   60.77    7.68
  11   3  -6   52.83    7.34
  11   3  -6   71.10    9.06
  11  -3  -5  427.06   22.51
  11  -3  -5  473.41   24.21
  11   3  -5  498.56   21.92
  11   3  -5  459.28   20.73
  11   3  -5  489.61   22.90
  11  -3  -4  264.60   17.53
  11  -3  -4  235.56   17.28
  11   3  -4  269.07   15.82
  11   3  -4  239.91   15.11
  11   3  -4  261.98   16.76
  11  -3  -3 1706.03   44.65
  11  -3  -3 1755.41   46.17
  11   3  -3 1756.50   41.48
  11   3  -3 1678.58   42.65
  11  -3  -2  286.37   18.33
  11  -3  -2  294.24   19.19
  11   3  -2  307.37   17.39
  11   3  -2  301.28   17.27
  11   3  -2  301.17   17.84
  11  -3  -1 1440.88   41.00
  11  -3  -1 1353.91   40.36
  11   3  -1 1418.06   37.84
  11   3  -1 1376.36   38.33
  11  -3   0   58.66    8.32
  11  -3   0   78.68    9.50
  11   3   0   69.49    8.12
  11   3   0   59.03    7.64
  11   3   1 1536.17   39.97
  11  -3   1 1462.50   41.18
  11  -3   1 1543.10   43.09
  11   3   2  301.77   17.87
  11  -3   2  308.11   18.53
  11  -3   2  340.10   20.34
  11   3   2  262.84   16.66
  11   3   3 1690.22   42.22
  11  -3   3 1686.79   44.18
  11  -3   3 1716.13   45.68
  11   3   3 1650.15   41.40
  11   3   4  240.43   16.21
  11  -3   4  269.21   17.63
  11  -3   4  228.43   16.78
  11   3   4  242.81   15.86
  11   3   5  454.33   22.48
  11  -3   5  462.84   23.37
  11  -3   5  427.91   22.97
  11   3   5  502.13   22.52
  11   3   6   46.91    6.99
  11  -3   6   48.67    7.87
  11  -3   6   60.18    8.61
  11   3   6   43.42    7.01
  11   3   7   64.42    8.82
  11  -3   7   95.80   10.59
  11   3   7   77.06    8.89
  11   3   8  233.85   16.44
  11  -3   8  198.42   15.48
  11   3   8  221.52   15.12
  11   3   9  682.63   28.36
  11  -3   9  693.37   29.21
  11   3   9  690.22   26.94
  11   3  10   28.80    5.03
  11  -3  10   42.01    7.05
  11   3  10   34.82    6.02
  11  -3  11  145.68   13.80
  11   3  11  172.61   14.22
  11   3  12   89.98   10.37
  11  -3  12  100.30   11.16
  11   3  12  107.94   10.93
  11   3  13   97.62   10.35
  11  -3  13   86.53   10.78
  11   3  13  106.57   11.03
  11   3  14   74.58   10.37
  11  -3  14  104.75   11.74
  11   3  14   83.99    9.40
  11   3  15   28.36    5.64
  11  -3  15   26.93    6.55
  11   3  16    0.43    2.12
  11  -3  16    1.79    2.50
  11   3  17   54.80    8.73
  11  -3  17   64.55    9.84
  11   3  18  104.20   12.36
  11  -3  18  101.33   12.09
  11   3  19   15.74    4.61
  11  -3  19   34.36    7.17
  11   3  20   28.23    6.76
  11  -3  20   25.95    6.99
  11   3  21    8.00    2.46
  11  -3  21   14.95    5.46
  11   3  22   20.35    5.14
  11   3  23   52.58    9.32
  11   3  24   59.84   10.17
  11   3  25   53.55    9.75
  11  -4 -24   11.26    5.20
  11  -4 -23    1.51    2.31
  11  -4 -22   35.82    7.77
  11  -4 -21   15.43    5.38
  11  -4 -20    4.77    2.79
  11  -4 -19    4.18    3.72
  11   4 -19    6.09    3.09
  11  -4 -18   -0.25    1.97
  11   4 -18    0.01    2.07
  11  -4 -17    3.46    3.65
  11  -4 -17    2.99    2.51
  11   4 -17    1.47    2.29
  11  -4 -16    3.43    4.29
  11  -4 -16    1.56    3.44
  11   4 -16    5.49    3.54
  11  -4 -15    6.58    2.51
  11   4 -15    4.62    2.83
  11  -4 -15    5.65    3.39
  11   4 -14   -2.40    3.11
  11  -4 -14    1.58    3.48
  11  -4 -14    2.57    3.55
  11   4 -13    0.58    1.68
  11  -4 -13    2.02    3.65
  11  -4 -13    2.76    3.32
  11   4 -12   47.20    7.51
  11  -4 -12   37.77    7.46
  11  -4 -12   42.68    8.20
  11   4 -11   14.78    4.74
  11  -4 -11   10.10    3.28
  11  -4 -11   15.54    4.57
  11  -4 -10   29.15    6.42
  11  -4 -10   47.96    8.30
  11   4 -10   45.60    7.39
  11   4  -9   10.57    3.33
  11  -4  -9    1.70    2.11
  11  -4  -9   11.05    4.10
  11  -4  -8  110.19   12.01
  11   4  -8  122.52   12.21
  11  -4  -8   97.79   10.96
  11   4  -7    7.96    3.86
  11   4  -7   19.36    4.23
  11  -4  -7   16.74    5.00
  11  -4  -7   11.52    4.82
  11   4  -6    7.47    2.85
  11  -4  -6    7.64    3.22
  11   4  -6    3.97    2.84
  11  -4  -6    6.46    2.75
  11   4  -5    5.31    2.64
  11  -4  -5    1.74    2.19
  11   4  -5    2.48    2.04
  11  -4  -5    6.48    4.08
  11  -4  -4  732.77   29.69
  11  -4  -4  718.34   30.38
  11   4  -4  695.03   26.73
  11   4  -4  714.23   28.76
  11   4  -3   69.29    8.74
  11  -4  -3   64.31    9.09
  11  -4  -3   80.92   10.01
  11   4  -3   72.24    8.82
  11   4  -2  161.79   12.91
  11  -4  -2  197.46   15.68
  11  -4  -2  178.75   15.34
  11   4  -2  187.68   13.71
  11   4  -2  166.66   13.78
  11   4  -1  239.25   15.82
  11  -4  -1  254.01   17.73
  11  -4  -1  251.62   17.80
  11   4  -1  220.37   14.82
  11   4  -1  249.28   16.68
  11   4   0    3.77    2.51
  11  -4   0    0.81    3.03
  11   4   0    3.00    2.57
  11  -4   0    0.96    3.06
  11   4   1  228.46   15.99
  11  -4   1  240.11   16.92
  11   4   1  242.38   16.22
  11  -4   1  246.26   17.71
  11   4   2  165.94   13.69
  11  -4   2  181.89   14.73
  11   4   2  156.01   12.88
  11  -4   2  139.69   13.46
  11   4   3   83.13    9.94
  11  -4   3   67.28    9.54
  11   4   3   75.06    8.83
  11  -4   3   71.80    9.60
  11   4   4  714.12   28.32
  11  -4   4  739.39   29.95
  11   4   4  694.48   28.24
  11  -4   4  694.21   29.85
  11   4   5   -0.23    2.49
  11  -4   5    5.19    3.18
  11   4   5    2.04    3.63
  11  -4   5   -0.64    1.78
  11   4   6   10.17    3.77
  11  -4   6    7.63    1.86
  11   4   6    4.87    4.00
  11  -4   6    4.00    2.59
  11   4   7    9.83    2.49
  11  -4   7   18.36    4.81
  11   4   7   14.27    4.55
  11  -4   7   16.08    4.87
  11   4   8   90.76   10.09
  11   4   8  113.08   11.69
  11  -4   8  100.15   11.19
  11  -4   8   93.21   11.13
  11   4   9    0.70    2.31
  11  -4   9    2.03    2.88
  11   4   9    1.58    1.91
  11  -4   9    6.26    4.39
  11   4  10   54.07    8.15
  11   4  10   50.79    7.97
  11  -4  10   28.71    6.39
  11   4  11    9.98    2.21
  11  -4  11   12.18    4.21
  11   4  11   18.72    5.15
  11   4  12   32.95    6.14
  11  -4  12   45.35    7.90
  11   4  12   41.72    6.81
  11   4  13   -0.67    2.08
  11  -4  13   -0.11    2.75
  11   4  13    0.70    2.81
  11   4  14    0.27    2.43
  11  -4  14    1.17    1.74
  11   4  14    0.52    2.90
  11  -4  15    4.42    2.05
  11   4  15    6.91    4.03
  11  -4  16    0.07    2.65
  11   4  16    0.65    2.10
  11  -4  17   -1.63    3.35
  11   4  17   -0.60    2.69
  11  -4  18    1.60    4.22
  11   4  18    0.63    1.80
  11  -4  19    6.81    4.38
  11   4  19    4.17    2.91
  11   4  20    9.84    3.89
  11   4  21   12.11    4.78
  11   4  22   18.00    5.54
  11   4  23   24.01    6.17
  11   4  24   12.49    5.14
  11  -5 -22   38.87    7.94
  11  -5 -21    3.20    3.25
  11  -5 -20   37.12    7.49
  11  -5 -19   34.91    7.92
  11   5 -19   -6.79    3.35
  11  -5 -18   31.91    7.24
  11  -5 -18   26.61    6.62
  11   5 -18   43.64    8.10
  11  -5 -17   27.23    7.19
  11  -5 -17   11.28    4.51
  11   5 -17   21.08    6.50
  11   5 -16    6.20    2.73
  11  -5 -16   -1.13    3.65
  11  -5 -16    7.09    5.16
  11   5 -15   21.85    5.93
  11  -5 -15   19.99    5.30
  11  -5 -15   10.82    4.37
  11  -5 -14   78.99   10.89
  11  -5 -14   71.12   10.68
  11   5 -14   76.16   10.24
  11  -5 -13   39.79    7.89
  11  -5 -13   55.23    9.49
  11   5 -13   55.71    9.24
  11  -5 -12   11.26    4.57
  11   5 -12   21.87    5.50
  11  -5 -12   21.65    6.47
  11   5 -11    2.64    2.97
  11  -5 -11   -0.42    3.09
  11  -5 -11    3.52    3.80
  11   5 -10   -0.80    2.86
  11  -5 -10    1.11    3.19
  11  -5 -10    1.14    2.11
  11  -5  -9   48.74    8.68
  11  -5  -9   63.22    9.40
  11   5  -9   72.51    9.64
  11  -5  -8  297.42   20.39
  11  -5  -8  277.24   19.38
  11   5  -8  287.08   19.00
  11  -5  -7   29.81    6.76
  11  -5  -7   46.24    8.05
  11   5  -7   45.01    7.38
  11   5  -6   36.76    6.70
  11  -5  -6   36.73    6.75
  11  -5  -6   41.07    7.88
  11   5  -5   10.66    3.80
  11  -5  -5    3.79    3.53
  11   5  -5    9.79    4.00
  11  -5  -5   10.69    5.04
  11   5  -4  280.99   17.93
  11   5  -4  296.61   18.22
  11  -5  -4  324.12   20.91
  11  -5  -4  279.10   19.13
  11   5  -3   54.87    8.50
  11   5  -3   53.10    7.58
  11  -5  -3   42.48    7.70
  11  -5  -3   50.64    7.77
  11  -5  -2  115.44   12.55
  11   5  -2  105.89   11.61
  11   5  -2   91.72   10.23
  11  -5  -2  114.14   12.70
  11   5  -1  181.45   14.62
  11  -5  -1  187.79   15.55
  11   5  -1  182.89   14.41
  11  -5  -1  160.99   15.06
  11   5   0    1.10    1.89
  11  -5   0    3.64    3.09
  11  -5   0    0.52    3.52
  11   5   0    2.93    1.72
  11   5   1  193.24   15.16
  11   5   1  176.36   14.42
  11  -5   1  164.95   14.99
  11   5   2   84.42    9.78
  11  -5   2   86.11   10.93
  11   5   2  108.22   11.15
  11  -5   2   99.86   11.83
  11   5   3   52.70    7.94
  11  -5   3   58.58    9.02
  11   5   3   59.78    8.39
  11  -5   3   47.41    8.08
  11   5   4  260.17   18.02
  11  -5   4  309.53   20.37
  11   5   4  328.81   19.95
  11  -5   4  278.42   19.63
  11   5   5    4.77    2.93
  11  -5   5    3.44    4.45
  11  -5   5    4.28    4.58
  11   5   5    4.61    2.69
  11   5   6   31.01    6.40
  11  -5   6   20.37    5.07
  11  -5   6   32.61    7.04
  11   5   6   23.15    6.36
  11   5   7   44.15    7.90
  11   5   7   48.35    8.23
  11  -5   7   39.56    7.73
  11  -5   7   41.88    8.70
  11   5   8  299.63   18.98
  11  -5   8  310.41   20.31
  11   5   8  270.89   18.44
  11  -5   8  276.02   19.63
  11   5   9   88.04   10.60
  11  -5   9   85.74   11.28
  11   5   9   80.99   10.12
  11  -5   9   61.50    9.29
  11   5  10    6.32    3.71
  11  -5  10   -0.43    2.19
  11  -5  10    1.16    2.52
  11   5  10    0.01    1.38
  11   5  11    2.63    2.69
  11  -5  11    1.01    3.01
  11  -5  11   -0.75    2.37
  11   5  11   -0.49    2.65
  11   5  12   23.66    5.59
  11  -5  12   12.69    4.73
  11  -5  12   14.00    4.45
  11   5  12   22.08    5.62
  11   5  13   66.68    9.61
  11  -5  13   68.06   10.26
  11   5  13   53.06    8.92
  11  -5  13   78.14   11.41
  11   5  14   87.47   11.41
  11  -5  14   50.08    9.11
  11   5  14   76.88   10.31
  11   5  15   25.04    6.27
  11  -5  15   11.89    4.72
  11   5  15   19.70    5.71
  11  -5  16    3.56    2.42
  11   5  16    6.88    3.91
  11  -5  17   15.19    5.16
  11   5  17   26.68    6.26
  11   5  18   50.06    8.85
  11  -5  18   49.16   10.00
  11   5  19   22.61    5.83
  11   5  20   25.14    6.26
  11   5  21    5.51    4.20
  11   5  22   23.34    6.44
  11  -6 -21    9.79    4.83
  11  -6 -20   19.09    6.82
  11  -6 -19   -2.07    3.55
  11  -6 -19   23.11    9.16
  11   6 -18    5.34    4.66
  11  -6 -18   -2.88    3.68
  11  -6 -18    3.49    2.43
  11   6 -17   -0.74    2.53
  11  -6 -17   -2.57    3.02
  11  -6 -17    0.48    4.06
  11   6 -16    4.50    3.98
  11  -6 -16   -0.98    3.59
  11  -6 -16    0.89    2.74
  11   6 -15    5.71    4.36
  11  -6 -15    7.76    4.89
  11  -6 -15   11.30    4.96
  11   6 -14   36.02    8.44
  11  -6 -14   21.53    5.97
  11  -6 -14   18.64    5.43
  11   6 -13    8.06    2.26
  11  -6 -13   12.52    4.78
  11   6 -12    2.98    3.58
  11  -6 -12    3.37    2.23
  11  -6 -12   -0.37    2.01
  11  -6 -11    2.68    3.91
  11   6 -11    5.40    3.58
  11  -6 -11    2.99    2.08
  11  -6 -10   56.94    9.22
  11  -6 -10   51.94    9.19
  11   6 -10   57.40    8.69
  11  -6  -9    0.14    2.00
  11   6  -9    6.11    3.76
  11  -6  -9   12.04    4.66
  11  -6  -8   32.62    6.91
  11   6  -8   31.60    5.47
  11  -6  -8   31.87    6.51
  11  -6  -7    7.21    3.11
  11   6  -7    6.09    2.07
  11  -6  -7    7.72    4.58
  11   6  -6   46.06    7.29
  11  -6  -6   32.68    7.50
  11  -6  -6   41.04    8.11
  11   6  -5    0.96    3.29
  11  -6  -5    6.60    2.17
  11   6  -4    5.09    2.56
  11  -6  -4    8.11    4.46
  11   6  -4   -0.47    2.29
  11  -6  -4   10.15    4.32
  11   6  -3    5.45    3.44
  11  -6  -3    0.80    3.04
  11  -6  -3    0.50    2.58
  11   6  -3   -0.42    1.80
  11   6  -2   88.99   10.47
  11   6  -2   80.17   10.20
  11  -6  -2   72.22   10.23
  11  -6  -2   84.77   11.20
  11   6  -1    4.46    2.20
  11  -6  -1    2.54    4.12
  11  -6  -1    8.33    4.20
  11   6  -1    9.40    2.70
  11   6   0    5.23    2.16
  11  -6   0    9.06    4.67
  11  -6   0    0.98    2.38
  11   6   0    2.29    2.71
  11   6   1   14.37    4.48
  11  -6   1   10.22    4.40
  11  -6   1    6.52    2.82
  11   6   1    0.93    1.26
  11   6   2   71.08    9.67
  11   6   2   71.20    9.21
  11  -6   2   86.60   11.87
  11  -6   2   70.94    9.56
  11   6   3    1.31    1.36
  11   6   3    1.80    2.44
  11  -6   3    3.34    1.84
  11  -6   3    0.89    2.28
  11   6   4    3.36    2.03
  11   6   4   -2.14    2.85
  11  -6   4    6.10    3.05
  11  -6   4    3.32    3.38
  11   6   5   11.23    4.63
  11   6   5    5.74    3.44
  11  -6   5   11.37    4.91
  11  -6   5    8.87    2.17
  11   6   6   51.91    8.46
  11  -6   6   42.01    7.91
  11   6   6   42.07    7.40
  11  -6   6   50.04    8.95
  11   6   7    6.96    3.82
  11   6   7    2.75    2.25
  11  -6   7    6.39    4.03
  11  -6   7   14.21    5.34
  11   6   8   35.47    7.01
  11  -6   8   30.45    7.41
  11   6   8   33.26    7.67
  11  -6   8   25.37    6.50
  11   6   9    4.57    3.87
  11   6   9    7.71    4.40
  11  -6   9    7.73    4.23
  11  -6   9    4.25    2.89
  11   6  10   60.43    9.04
  11  -6  10   43.86    8.27
  11   6  10   46.95    7.94
  11  -6  10   51.00    8.94
  11   6  11    3.78    3.55
  11   6  11    4.62    4.44
  11  -6  11   -1.07    3.25
  11  -6  11    3.72    4.49
  11   6  12    6.20    2.88
  11   6  12    1.78    4.08
  11  -6  12    2.36    2.14
  11  -6  12    0.91    2.14
  11   6  13   16.23    5.59
  11   6  13   10.30    4.54
  11  -6  13    9.24    4.17
  11  -6  13   15.46    5.12
  11   6  14   19.01    5.60
  11   6  14   20.95    5.75
  11  -6  14   17.67    5.54
  11  -6  14   18.72    6.11
  11   6  15    4.34    4.51
  11   6  15   10.92    3.94
  11  -6  15    7.83    4.08
  11  -6  15    9.09    5.39
  11   6  16    1.13    1.92
  11  -6  16    0.40    2.85
  11  -6  16   -0.02    4.44
  11  -6  17   -1.08    3.90
  11  -6  17    7.00    5.67
  11   6  17    0.41    3.39
  11  -6  18   -1.58    4.68
  11   6  18   -1.45    2.50
  11   6  19    8.36    4.56
  11   6  20   29.50    7.50
  11   6  21    4.87    3.63
  11  -7 -18   24.70    7.61
  11  -7 -18   18.27    5.70
  11   7 -17   10.08    5.54
  11  -7 -17    5.37    3.70
  11  -7 -17    2.96    3.29
  11   7 -16   -3.95    3.77
  11  -7 -16    1.20    2.12
  11   7 -15   23.01    7.01
  11  -7 -15   15.00    4.97
  11  -7 -15    7.92    3.36
  11  -7 -14   70.75   11.51
  11  -7 -14   49.32    9.10
  11   7 -14   57.31    9.94
  11  -7 -13   60.67    9.50
  11  -7 -13   67.02    9.94
  11   7 -13   69.96   10.58
  11   7 -12   28.03    6.41
  11  -7 -12   30.48    6.96
  11  -7 -12   39.87    8.61
  11   7 -11   15.56    5.31
  11  -7 -11    4.87    4.40
  11  -7 -11   18.39    5.99
  11   7 -10    6.96    3.79
  11  -7 -10    7.39    3.82
  11  -7 -10   -1.69    2.46
  11  -7  -9   33.44    7.13
  11   7  -9   33.03    6.91
  11  -7  -9   32.66    7.25
  11   7  -8  110.70   12.35
  11  -7  -8  119.79   13.70
  11  -7  -8  116.08   13.29
  11   7  -7  130.71   14.04
 -11   7  -7  137.95   14.74
  11  -7  -7  116.27   13.85
  11  -7  -7  119.48   13.86
  11  -7  -6   35.44    8.05
  11   7  -6   32.30    7.37
  11  -7  -6   38.70    8.23
  11  -7  -5    7.85    3.98
  11   7  -5    0.10    2.13
  11  -7  -5    5.18    3.53
  11   7  -4   52.11    8.87
  11  -7  -4   41.75    7.90
  11  -7  -4   49.01    8.46
  11   7  -3   96.80   11.83
  11   7  -3  100.26   11.70
  11  -7  -3   91.10   11.78
  11  -7  -3   83.77   12.11
  11  -7  -2   29.21    6.18
  11   7  -2   16.57    4.77
  11  -7  -2   27.26    6.71
  11   7  -2   27.04    6.29
  11   7  -1    1.37    1.85
  11  -7  -1    7.28    3.67
  11   7  -1    7.84    5.48
  11  -7  -1    0.25    2.30
  11   7   0    2.15    2.36
  11  -7   0    0.26    2.72
  11   7   0    2.56    2.72
  11  -7   0   -4.33    4.28
  11   7   1    1.24    3.17
  11  -7   1    0.61    2.96
  11   7   1    2.51    3.85
  11  -7   1    0.63    3.72
  11   7   2   33.69    7.21
  11  -7   2   31.54    6.93
  11   7   2   28.12    6.33
  11  -7   2   13.21    4.30
  11   7   3  123.17   13.01
  11   7   3  103.17   12.09
  11  -7   3  113.19   13.36
  11  -7   3   99.84   12.33
  11  -7   4   46.22    8.51
  11   7   4   46.00    8.06
  11   7   4   48.92    8.89
  11  -7   4   53.72    9.13
  11   7   5    3.42    3.02
  11   7   5    1.93    4.26
  11  -7   5    0.22    1.83
  11  -7   5    3.30    4.23
  11   7   6   41.13    7.92
  11   7   6   48.41    8.53
  11  -7   6   41.42    8.72
  11  -7   6   69.27   10.56
  11   7   7  132.73   13.76
  11   7   7  100.28   11.73
  11  -7   7  110.00   13.40
  11  -7   7  125.26   14.15
  11   7   8  142.06   14.52
  11   7   8  111.71   12.90
  11  -7   8  111.65   12.78
  11  -7   8  112.46   13.54
  11   7   9   30.28    5.96
  11   7   9   28.76    6.87
  11  -7   9   21.93    6.44
  11  -7   9   34.87    8.49
  11   7  10    4.49    2.69
  11   7  10    3.62    2.17
  11  -7  10    7.95    4.60
  11  -7  10   -1.75    2.77
  11   7  11    4.85    4.05
  11   7  11    8.48    4.17
  11  -7  11    2.43    3.84
  11  -7  11   10.46    4.39
  11   7  12   34.84    7.47
  11   7  12   36.74    6.92
  11  -7  12   24.67    7.82
  11  -7  12   30.71    8.14
  11   7  13   61.39    9.99
  11  -7  13   61.29    9.75
  11   7  13   68.43   10.17
  11  -7  13   56.35   10.02
  11   7  14   61.65   10.03
  11  -7  14   48.22    9.05
  11   7  14   50.49    8.62
  11   7  15   17.18    5.37
  11   7  15   10.11    4.29
  11  -7  15   19.87    6.12
  11   7  16   11.72    5.57
  11   7  17    4.29    4.30
  11   7  18   26.01    6.62
  11   8 -15    1.04    2.73
  11  -8 -15    7.28    3.64
  11  -8 -15    0.82    2.30
  11   8 -14   -1.49    3.62
  11  -8 -14   -5.41    5.53
  11  -8 -14    3.99    3.61
  11   8 -13    9.79    5.54
  11  -8 -13   -0.32    4.05
  11  -8 -13    6.68    4.95
  11   8 -12   -2.48    4.06
  11  -8 -12    3.28    3.69
  11  -8 -12    0.03    1.88
  11   8 -11    7.42    4.47
  11  -8 -11    4.65    4.71
  11  -8 -11    0.68    1.95
  11   8 -10    4.66    2.64
  11  -8 -10   -1.24    4.37
  11  -8 -10    4.53    3.43
  11   8  -9   10.93    4.24
  11  -8  -9    0.01    2.42
  11  -8  -9   13.21    5.02
  11  -8  -8    0.73    2.15
  11  -8  -8    0.54    2.14
  11   8  -7    4.63    3.97
  11  -8  -7   -1.64    4.15
  11  -8  -7   -3.29    2.90
  11   8  -6    9.31    3.82
 -11   8  -6   -3.97    3.02
  11  -8  -6    5.44    3.59
  11  -8  -6   -2.12    3.79
  11  -8  -5    5.56    3.14
  11   8  -5   -0.90    2.21
 -11   8  -5    5.46    4.14
  11  -8  -5    9.05    4.14
  11  -8  -4   -2.10    2.17
  11   8  -4    3.94    3.20
 -11   8  -4    6.97    3.58
  11  -8  -4   -0.48    2.12
  11  -8  -3   -0.58    2.33
  11   8  -3    2.70    3.05
 -11   8  -3   -3.56    3.86
  11  -8  -3    0.10    2.39
  11  -8  -2    2.32    3.48
  11   8  -2    5.77    2.46
 -11   8  -2   -1.85    4.62
  11  -8  -2   -1.35    2.87
  11  -8  -1   31.41    7.41
  11   8  -1   22.48    6.32
  11   8  -1   41.83    8.18
 -11   8  -1   29.88    6.62
  11  -8  -1   39.32    8.93
  11  -8   0    3.56    3.95
  11   8   0   -2.34    3.74
  11   8   0    7.03    4.62
 -11   8   0   -0.76    2.97
  11  -8   0    4.65    2.47
  11  -8   1   31.28    6.86
  11   8   1   35.57    7.56
  11   8   1   37.68    8.06
  11  -8   1   37.61    8.24
  11  -8   2    5.23    5.41
  11   8   2    4.22    2.85
  11   8   2    1.51    1.73
  11  -8   2    8.12    5.64
  11  -8   3    3.89    2.48
  11   8   3   -2.70    3.26
  11   8   3   -0.56    3.60
  11  -8   3    0.41    4.30
  11  -8   4   -1.12    4.48
  11   8   4   -5.81    4.73
  11   8   4    1.23    3.28
  11  -8   4    3.56    3.89
  11  -8   5    2.27    1.91
  11   8   5    8.40    4.65
  11   8   5    4.24    2.76
  11  -8   5    1.26    3.11
  11  -8   6    5.25    2.25
  11   8   6    9.35    5.90
  11   8   6    1.87    3.25
  11  -8   6   10.80    5.54
  11  -8   7   -0.41    2.95
  11   8   7    3.40    3.76
  11   8   7    0.97    2.08
  11  -8   7    1.74    3.12
  11  -8   8   13.74    5.97
  11   8   8    6.90    4.21
  11   8   8   10.17    4.94
  11  -8   8    4.98    2.59
  11  -8   9    5.30    4.59
  11   8   9    0.66    2.52
  11   8   9   -1.31    1.81
  11  -8  10    0.03    2.59
  11   8  10    3.54    3.37
  11   8  10    3.43    3.46
  11  -8  11    4.19    3.35
  11   8  11    0.35    2.74
  11   8  11    0.88    1.37
  11  -8  12    2.06    3.29
  11   8  12   -1.73    2.02
  11   8  12   -0.20    2.13
  11   8  13    2.62    3.06
  11   8  13   -0.99    2.51
  11  -8  14    0.42    3.44
  11   8  14    5.82    3.73
  11   8  14    0.46    2.83
  11   8  15    1.30    2.70
  11   8  15    3.61    3.10
  11   9 -11   -1.95    2.43
  11  -9 -11    2.88    3.20
  11   9 -10    4.08    3.62
  11  -9 -10    6.25    5.17
  11  -9 -10   -1.85    2.40
  11   9  -9   26.43    6.45
  11  -9  -9   35.35    7.79
  11  -9  -9   25.81    6.26
  11   9  -8   14.68    4.47
  11  -9  -8   15.42    6.14
  11  -9  -8   25.72    7.97
  11   9  -7   60.64    9.89
  11  -9  -7   52.42    9.46
  11  -9  -7   43.31    9.47
  11   9  -6   15.54    5.63
  11  -9  -6    6.66    3.64
  11  -9  -6   11.94    3.70
  11   9  -5   16.72    4.73
 -11   9  -5   20.95    6.89
  11  -9  -5   17.53    5.61
  11  -9  -5   12.87    5.27
  11   9  -4   16.05    5.25
 -11   9  -4    4.10    4.68
  11  -9  -4    5.08    4.02
  11  -9  -4    4.93    5.00
  11   9  -3  148.86   15.18
 -11   9  -3  121.97   13.61
  11  -9  -3  120.70   13.91
  11  -9  -3  161.15   15.86
  11   9  -2   25.27    6.57
 -11   9  -2   23.61    6.44
  11  -9  -2   24.79    7.71
  11  -9  -2   34.66    7.58
  11  -9  -1   -4.87    4.54
  11   9  -1   -2.41    2.62
 -11   9  -1    6.69    4.74
  11  -9  -1    7.45    4.66
  11  -9   0    1.93    3.29
  11   9   0    5.49    3.80
  11   9   0    4.66    1.77
 -11   9   0   -0.90    2.94
  11  -9   0    6.17    5.89
  11  -9   1    0.51    2.34
  11   9   1    1.26    2.55
  11   9   1    6.45    4.84
 -11   9   1   -0.44    2.20
  11  -9   1   -3.53    2.59
  11  -9   2   14.74    5.28
  11   9   2   26.46    6.52
  11   9   2   19.10    5.74
 -11   9   2   24.86    6.35
  11  -9   2   14.25    5.42
  11   9   3  131.41   14.64
 -11   9   3  143.43   15.51
  11   9   3  154.45   16.04
  11  -9   3  158.15   16.79
  11  -9   4    4.41    3.98
  11   9   4   15.19    5.74
  11   9   4   10.45    3.91
 -11   9   4   15.75    5.16
  11  -9   5   20.05    5.71
  11   9   5   15.09    4.51
  11   9   5   12.22    3.99
 -11   9   5   30.35    7.84
  11  -9   6    8.50    4.54
  11   9   6   15.14    5.62
  11   9   6   15.34    5.78
 -11   9   6   20.67    6.21
  11   9   7   62.61   10.09
 -11   9   7   78.99   10.82
  11   9   7   66.81   10.37
  11  -9   7   70.68   11.60
  11  -9   8   31.94    9.09
  11   9   8   14.67    6.64
  11   9   8   16.19    5.81
 -11   9   8   22.11    6.08
  11  -9   9   16.93    6.67
  11   9   9   26.44    6.22
  11   9   9   28.30    6.08
 -11   9   9   16.76    4.95
  11  -9  10    1.74    4.03
 -11   9  10   -2.13    3.27
  11   9  10    2.37    4.10
  11   9  10   -0.40    1.97
  11  -9  11    5.00    3.47
  11   9  11    7.95    5.05
  11   9  11    0.83    2.96
 -11   9  11    5.13    3.79
  12   0 -23    8.58    5.76
  12   0 -22   13.86    5.81
  12   0 -21    1.85    2.42
  12   0 -20   43.56    8.42
  12   0 -19   84.63   11.51
  12   0 -18   55.10   10.17
  12   0 -17  170.99   15.34
  12   0 -16  107.73   11.72
  12   0 -15    4.33    2.62
  12   0 -14  258.06   18.13
  12   0 -13  440.05   24.19
  12   0 -12   -4.72    2.29
  12   0 -12  204.08   16.55
  12   0 -11  166.40   13.63
  12   0 -11  211.83   16.50
  12   0 -10  301.55   18.52
  12   0 -10  275.90   18.86
  12   0  -9   37.42    6.36
  12   0  -9   52.41    8.15
  12   0  -8  200.10   14.80
  12   0  -8  197.36   15.40
  12   0  -7   28.80    5.79
  12   0  -7   28.65    6.39
  12   0  -6  149.09   12.87
  12   0  -6  129.80   12.33
  12   0  -5  211.53   15.05
  12   0  -5  241.85   16.72
  12   0  -4  132.44   11.84
  12   0  -4  130.62   12.57
  12   0  -4  127.55   11.62
  12   0  -3   37.73    6.66
  12   0  -3   37.94    6.95
  12   0  -3   34.58    6.27
  12   0  -2  471.74   22.35
  12   0  -2  514.37   24.65
  12   0  -2  491.55   22.76
  12   0  -1 1054.36   33.86
  12   0  -1 1033.62   34.67
  12   0  -1 1030.64   33.05
  12   0   0  499.28   23.30
  12   0   0  507.53   24.05
  12   0   0  524.27   23.63
  12   0   1 1103.07   34.55
  12   0   1 1025.96   34.74
  12   0   1 1078.58   33.08
  12   0   2  475.20   22.87
  12   0   2  524.35   24.97
  12   0   2  491.09   22.44
  12   0   3   36.13    6.51
  12   0   3   45.99    6.93
  12   0   4  121.62   11.55
  12   0   4  140.01   11.75
  12   0   5  257.45   17.14
  12   0   5  243.58   15.36
  12   0   6  126.84   12.29
  12   0   6  131.42   11.58
  12   0   7   25.54    5.11
  12   0   7   22.59    4.77
  12   0   8  157.82   13.97
  12   0   8  181.58   13.42
  12   0   9   42.31    7.19
  12   0   9   54.63    7.71
  12   0  10  289.89   19.01
  12   0  10  296.26   17.27
  12   0  11  239.42   17.39
  12   0  12  196.22   15.76
  12   0  13  475.22   24.83
  12   0  14  281.89   19.37
  12   0  15   10.25    3.50
  12   0  16  139.15   13.90
  12   0  17  234.20   18.46
  12   0  18   45.18    8.18
  12   0  19   90.32   11.71
  12   0  20   41.81    8.98
  12   0  21    6.77    4.17
  12   0  22    6.00    3.16
  12   0  23   12.02    4.75
  12   0  24   25.39    7.74
  12  -1 -25    6.12    3.19
  12  -1 -24    2.31    1.89
  12  -1 -23    3.43    2.86
  12  -1 -22   17.87    6.05
  12  -1 -21    9.77    3.90
  12  -1 -20    6.08    3.03
  12  -1 -19    6.94    4.34
  12  -1 -18    4.59    2.95
  12   1 -18    1.86    2.12
  12   1 -17   17.60    4.69
  12  -1 -17   19.31    5.28
  12   1 -16    0.42    2.60
  12  -1 -16    6.74    3.66
  12   1 -15    8.16    4.14
  12  -1 -15   15.60    5.26
  12   1 -14    7.37    3.61
  12  -1 -14   11.00    4.44
  12  -1 -13   10.72    6.17
  12   1 -13    5.19    2.49
  12  -1 -13    5.28    3.96
  12  -1 -12    9.38    4.05
  12   1 -12    3.68    2.39
  12  -1 -12    9.54    3.43
  12   1 -12    8.05    4.26
  12  -1 -11   36.83    7.39
  12  -1 -11   48.68    8.06
  12   1 -11   54.81    7.95
  12   1 -11   44.37    7.76
  12   1 -10   37.22    6.20
  12  -1 -10   19.64    5.22
  12  -1 -10   33.38    6.90
  12   1 -10   35.65    6.66
  12   1 -10   37.13    6.66
  12  -1  -9   33.19    6.00
  12   1  -9   28.15    5.42
  12  -1  -9   35.10    7.28
  12   1  -9   36.51    6.43
  12   1  -9   36.48    6.64
  12  -1  -8   16.82    4.47
  12   1  -8   20.29    5.01
  12  -1  -8   26.19    6.10
  12   1  -8   21.74    4.92
  12   1  -8   18.12    4.70
  12  -1  -7    0.83    2.03
  12   1  -7    0.93    1.35
  12  -1  -7    0.20    1.68
  12   1  -7    1.27    2.28
  12   1  -7    2.66    1.84
  12  -1  -6   11.22    3.44
  12   1  -6   14.88    4.50
  12  -1  -6   15.00    3.98
  12   1  -6   12.40    3.50
  12   1  -6   12.60    3.80
  12   1  -5   36.91    6.38
  12  -1  -5   27.15    5.64
  12  -1  -5   54.53    8.20
  12   1  -5   34.65    6.44
  12   1  -5   34.00    6.51
  12  -1  -4   83.57    9.70
  12   1  -4   85.30    9.23
  12  -1  -4   87.19   10.50
  12   1  -4   74.65    9.30
  12   1  -4   59.64    8.40
  12  -1  -3  192.30   14.65
  12   1  -3  196.08   14.21
  12  -1  -3  199.37   15.71
  12   1  -3  207.31   15.71
  12   1  -3  185.02   13.95
  12  -1  -2   99.45   10.61
  12   1  -2  109.95   10.94
  12  -1  -2   99.68   11.27
  12   1  -2  118.25   11.75
  12   1  -2  122.23   11.35
  12  -1  -1   49.29    7.51
  12   1  -1   46.11    7.18
  12  -1  -1   45.35    7.46
  12   1  -1   45.55    7.52
  12   1  -1   41.85    6.56
  12   1   0   22.12    5.08
  12  -1   0   15.57    4.25
  12  -1   0   14.85    4.15
  12   1   0   19.17    5.31
  12   1   0   13.80    4.03
  12  -1   1   40.54    6.77
  12   1   1   42.20    6.89
  12  -1   1   40.69    7.68
  12   1   1   49.31    7.86
  12   1   1   39.95    6.43
  12  -1   2  112.91   11.12
  12   1   2  109.74   10.75
  12  -1   2  110.08   11.57
  12   1   2  143.14   12.05
  12  -1   3  179.93   14.20
  12   1   3  173.40   13.87
  12  -1   3  178.40   14.45
  12   1   3  177.31   13.44
  12  -1   4   69.60    9.10
  12   1   4   68.85    8.95
  12   1   4   89.58    9.51
  12  -1   5   36.84    6.92
  12   1   5   38.84    6.58
  12   1   5   33.50    6.11
  12   1   6    6.03    2.41
  12  -1   6   10.20    3.93
  12   1   6   13.14    3.99
  12   1   7   -0.20    1.13
  12  -1   7    0.20    1.96
  12   1   7    3.41    1.66
  12   1   8   19.26    4.60
  12  -1   8   13.48    4.24
  12   1   8   17.83    4.64
  12   1   9   19.50    4.85
  12  -1   9   38.53    7.12
  12   1   9   31.32    6.49
  12   1  10   40.75    7.13
  12  -1  10   35.50    6.63
  12   1  10   26.10    5.18
  12  -1  11   40.85    7.21
  12   1  11   48.03    7.74
  12   1  11   50.27    7.00
  12   1  12    4.61    3.16
  12  -1  12    7.41    3.73
  12   1  12    8.55    3.50
  12   1  13    2.92    3.07
  12  -1  13    7.76    3.38
  12   1  14    9.35    3.88
  12  -1  14    6.68    3.41
  12   1  15    3.57    2.03
  12  -1  15    6.25    2.96
  12   1  16   10.00    4.57
  12  -1  16    7.38    3.68
  12   1  17   18.86    5.20
  12  -1  17   26.58    7.58
  12   1  18    2.65    3.92
  12  -1  18    1.98    1.74
  12   1  19    1.99    2.49
  12  -1  19    3.06    2.99
  12   1  20    0.74    1.96
  12  -1  20    4.95    3.62
  12   1  21   10.53    4.90
  12  -1  21    4.73    3.42
  12   1  22   14.95    5.13
  12  -1  22   21.51    5.47
  12   1  23    6.18    5.06
  12  -1  23   -1.20    3.26
  12   1  24    4.83    5.07
  12   1  25   10.57    5.19
  12  -2 -24   26.08    6.32
  12  -2 -23    5.27    3.80
  12  -2 -22   11.69    2.64
  12  -2 -21   19.64    5.56
  12  -2 -20   22.48    6.06
  12  -2 -19   21.45    6.43
  12  -2 -18   70.31   10.89
  12  -2 -17   55.28    9.42
  12  -2 -16   15.74    5.69
  12   2 -16   22.66    5.54
  12  -2 -15   24.09    5.98
  12   2 -15   27.11    6.29
  12  -2 -14   69.24    9.68
  12   2 -14   92.52   10.54
  12  -2 -14   86.60   10.44
  12   2 -13  153.38   14.40
  12  -2 -13  129.02   13.32
  12   2 -13  155.37   14.32
  12  -2 -13  154.06   13.92
  12   2 -12  116.32   11.84
  12  -2 -12   99.22   11.47
  12   2 -12  106.38   11.63
  12  -2 -12  114.52   11.94
  12  -2 -11   56.18    8.35
  12   2 -11   50.27    8.33
  12  -2 -11   48.47    8.63
  12   2 -11   53.18    8.83
  12  -2 -10   56.96    8.58
  12  -2 -10   62.39    9.47
  12   2 -10   62.07    8.72
  12   2 -10   52.21    8.31
  12  -2  -9  124.15   12.10
  12   2  -9  120.59   11.39
  12  -2  -9  117.75   12.17
  12   2  -9  113.42   11.27
  12   2  -9  100.95   10.84
  12  -2  -8  192.52   15.35
  12   2  -8  177.81   13.54
  12  -2  -8  193.14   15.78
  12   2  -8  189.47   14.88
  12   2  -8  180.84   14.34
  12  -2  -7   72.39    9.29
  12   2  -7   89.93    9.72
  12  -2  -7   79.29   10.38
  12   2  -7   64.35    8.59
  12   2  -7   98.89   10.47
  12  -2  -6   68.00    8.82
  12   2  -6   47.30    7.19
  12  -2  -6   48.44    7.92
  12   2  -6   58.19    8.10
  12   2  -6   63.94    8.36
  12  -2  -5  119.63   12.21
  12   2  -5  128.14   11.21
  12  -2  -5  154.36   14.19
  12   2  -5  134.03   12.32
  12   2  -5  131.15   11.93
  12  -2  -4  233.10   16.31
  12   2  -4  243.68   15.84
  12  -2  -4  234.56   17.48
  12   2  -4  233.85   16.29
  12   2  -4  274.49   17.14
  12  -2  -3   36.29    7.02
  12   2  -3   36.33    6.35
  12  -2  -3   38.85    7.81
  12   2  -3   47.32    7.31
  12   2  -3   44.98    6.96
  12  -2  -2  317.39   19.02
  12   2  -2  332.34   18.53
  12  -2  -2  321.96   19.94
  12   2  -2  324.89   18.95
  12   2  -2  360.99   20.09
  12  -2  -1  519.80   24.53
  12   2  -1  485.39   22.37
  12  -2  -1  529.03   25.44
  12   2  -1  493.92   23.40
  12   2  -1  496.42   23.21
  12  -2   0  233.84   16.65
  12  -2   0  232.22   17.00
  12   2   0  246.11   16.26
  12   2   0  245.30   16.60
  12  -2   1  471.93   23.41
  12  -2   1  490.65   25.25
  12   2   1  432.72   21.65
  12   2   1  466.50   22.47
  12  -2   2  326.75   19.71
  12  -2   2  295.23   19.36
  12   2   2  282.11   17.72
  12   2   2  304.05   18.25
  12   2   3   31.38    5.69
  12   2   3   32.62    5.97
  12  -2   3   40.85    7.10
  12  -2   3   35.00    6.87
  12  -2   4  251.86   17.43
  12  -2   4  247.94   17.40
  12   2   4  232.62   16.11
  12   2   4  245.19   16.38
  12  -2   5  144.93   13.20
  12  -2   5  129.81   12.70
  12   2   5  136.32   12.44
  12   2   5  121.29   11.52
  12  -2   6   58.74    8.61
  12   2   6   53.60    8.27
  12   2   6   43.72    7.20
  12  -2   7   83.56   10.34
  12   2   7   86.25    9.96
  12   2   7   69.79    8.89
  12  -2   8  211.41   16.13
  12   2   8  174.36   13.82
  12   2   8  180.34   14.44
  12  -2   9   88.01   10.48
  12   2   9  117.34   11.46
  12   2   9   92.78   10.77
  12  -2  10   66.16    9.26
  12   2  10   56.72    7.99
  12   2  10   72.14    9.35
  12  -2  11   58.39    8.32
  12   2  11   57.48    8.10
  12   2  11   50.56    7.52
  12  -2  12  105.47   11.88
  12   2  12   89.50   10.03
  12   2  12  123.20   12.91
  12  -2  13  145.03   13.76
  12   2  13  139.42   12.62
  12   2  13  133.94   13.19
  12  -2  14   74.67   10.06
  12   2  14   95.19   11.53
  12   2  15   30.31    6.32
  12  -2  15   17.84    5.08
  12   2  16   20.00    4.90
  12  -2  16   37.36    7.67
  12  -2  17   49.64    8.92
  12   2  17   58.08    9.02
  12  -2  18   81.82   10.98
  12   2  18   76.94   10.95
  12   2  19   24.27    6.85
  12  -2  19   19.52    5.91
  12   2  20   23.74    6.62
  12  -2  20   27.15    6.15
  12   2  21   28.90    6.46
  12  -2  21   18.70    4.29
  12   2  22   20.33    5.38
  12  -2  22   24.39    5.65
  12   2  23    2.82    3.73
  12   2  24   31.33    7.34
  12  -3 -24   10.10    5.89
  12  -3 -23   12.71    4.44
  12  -3 -22   10.62    4.95
  12  -3 -21   10.37    4.92
  12  -3 -20    7.45    3.72
  12  -3 -19    1.89    2.35
  12   3 -19    1.12    2.51
  12  -3 -18   26.55    6.14
  12   3 -18   23.64    5.50
  12  -3 -17   -1.31    2.39
  12   3 -17    9.87    4.19
  12  -3 -16   -1.20    3.38
  12   3 -16    4.87    2.69
  12  -3 -15    0.33    2.06
  12  -3 -15    0.14    1.56
  12   3 -15    0.85    1.94
  12  -3 -14   11.39    3.83
  12  -3 -14    6.22    4.22
  12   3 -14    9.84    4.07
  12  -3 -13    0.05    2.83
  12  -3 -13    5.43    4.11
  12   3 -13    2.38    2.55
  12  -3 -12   66.15    9.61
  12   3 -12   65.55    9.46
  12  -3 -12   76.68    9.89
  12  -3 -11   40.20    7.25
  12  -3 -11   35.32    7.13
  12   3 -11   41.00    7.71
  12  -3 -10   47.99    8.06
  12  -3 -10   41.73    7.75
  12   3 -10   40.30    6.98
  12   3  -9   31.83    5.77
  12  -3  -9   22.14    6.03
  12  -3  -9   14.06    5.27
  12   3  -8   27.26    5.95
  12  -3  -8   25.34    6.12
  12  -3  -8   31.99    7.14
  12   3  -7    3.42    1.57
  12  -3  -7   11.38    3.67
  12  -3  -7    9.09    4.45
  12   3  -7    7.81    2.82
  12   3  -7   10.72    3.52
  12   3  -6   11.81    3.80
  12   3  -6    7.04    3.13
  12  -3  -6    7.86    3.80
  12  -3  -6    5.98    3.37
  12   3  -6    7.21    3.67
  12  -3  -5   22.45    5.72
  12   3  -5   31.23    6.18
  12  -3  -5   30.21    5.99
  12   3  -5   27.25    5.78
  12   3  -5   41.70    7.66
  12  -3  -4  179.02   14.88
  12  -3  -4  163.01   14.89
  12   3  -4  172.43   13.96
  12   3  -4  153.36   12.93
  12   3  -4  207.41   15.42
  12  -3  -3  338.25   20.72
  12  -3  -3  332.55   20.72
  12   3  -3  329.61   18.89
  12   3  -3  340.48   19.04
  12   3  -3  279.19   17.63
  12  -3  -2  162.25   14.19
  12  -3  -2  159.16   14.36
  12   3  -2  150.59   12.95
  12   3  -2  168.86   13.66
  12   3  -2  137.41   12.70
  12   3  -1   25.70    5.51
  12  -3  -1   32.68    6.36
  12  -3  -1   37.74    7.32
  12   3  -1   33.64    6.39
  12   3  -1   33.29    6.05
  12   3   0   23.24    4.89
  12   3   0   26.30    5.40
  12  -3   0   16.87    4.84
  12  -3   0   14.00    4.91
  12   3   0   23.63    5.46
  12  -3   1   48.87    7.80
  12  -3   1   45.21    8.33
  12   3   1   38.73    6.48
  12   3   1   31.27    6.78
  12  -3   2  153.17   13.81
  12  -3   2  152.09   14.28
  12   3   2  147.46   12.86
  12   3   2  166.43   13.57
  12  -3   3  361.99   20.94
  12  -3   3  350.72   21.21
  12   3   3  310.15   18.68
  12   3   3  308.07   18.73
  12   3   4  169.02   13.71
  12  -3   4  169.82   14.27
  12  -3   4  160.50   14.21
  12   3   5   22.20    4.88
  12   3   5   26.95    5.83
  12  -3   5   22.61    5.32
  12  -3   5   29.49    6.73
  12   3   6    3.21    3.12
  12   3   6    3.82    1.88
  12  -3   6   10.00    4.22
  12  -3   6    8.47    3.82
  12   3   7    8.25    2.55
  12   3   7    6.52    2.26
  12  -3   7    8.03    2.12
  12  -3   7    4.92    3.14
  12   3   8   28.28    5.98
  12   3   8   15.25    4.75
  12  -3   8   22.72    5.51
  12   3   9   19.22    4.57
  12   3   9   30.17    5.54
  12  -3   9   27.85    6.44
  12   3  10   50.42    7.77
  12   3  10   30.63    6.12
  12  -3  10   54.08    9.13
  12   3  11   28.20    6.18
  12   3  11   46.70    8.30
  12  -3  11   33.76    7.18
  12   3  12   81.77   10.48
  12  -3  12   72.78   10.15
  12   3  12   82.26    9.83
  12   3  13    3.51    2.41
  12   3  13   -1.48    1.88
  12  -3  13   -0.81    2.37
  12   3  14    2.14    2.53
  12  -3  14    3.49    3.89
  12   3  15    4.24    2.63
  12  -3  15    2.45    3.05
  12   3  16    2.16    2.78
  12  -3  16    0.82    1.81
  12   3  17    5.18    3.79
  12  -3  17    2.87    2.79
  12   3  18   15.10    5.78
  12  -3  18   10.13    4.55
  12   3  19    6.02    3.20
  12  -3  19   -4.55    3.44
  12   3  20    5.55    5.18
  12  -3  20    7.65    3.30
  12   3  21    5.45    4.14
  12  -3  21   11.74    4.75
  12   3  22    1.33    3.13
  12   3  23   10.12    3.37
  12   3  24    2.51    2.25
  12  -4 -23   29.67    7.35
  12  -4 -22   42.48    8.30
  12  -4 -21   15.54    5.56
  12  -4 -20   14.38    4.39
  12  -4 -19    5.06    4.26
  12   4 -19    3.31    2.37
  12  -4 -18   13.11    5.08
  12   4 -18   21.32    6.94
  12  -4 -17   10.09    4.28
  12   4 -17   17.53    5.51
  12   4 -16    8.76    4.80
  12  -4 -16    6.66    3.96
  12  -4 -15    5.57    3.69
  12  -4 -15   13.20    5.16
  12   4 -15    7.17    4.03
  12  -4 -14   18.42    5.71
  12  -4 -14   27.96    7.05
  12   4 -14   28.51    6.17
  12  -4 -13   33.15    7.52
  12  -4 -13   22.72    6.82
  12   4 -12    0.04    2.98
  12  -4 -12    4.56    3.96
  12  -4 -12    1.44    2.13
  12   4 -11    9.03    3.43
  12  -4 -11    5.24    3.64
  12  -4 -11    3.44    3.44
  12   4 -10   25.06    6.73
  12  -4 -10   25.34    5.75
  12  -4 -10   35.74    7.33
  12  -4  -9   62.53    9.46
  12   4  -9   67.27    9.26
  12  -4  -9   79.63    9.98
  12  -4  -8  213.49   17.48
  12   4  -8  189.30   15.97
  12  -4  -8  227.53   17.48
  12  -4  -7  243.15   18.17
  12   4  -7  207.04   16.03
  12  -4  -7  191.97   16.18
  12  -4  -6   66.43    9.39
  12  -4  -6   60.95    9.37
  12   4  -6   64.06    8.39
  12   4  -6   59.23    8.18
  12  -4  -5  139.91   13.46
  12  -4  -5  148.05   14.31
  12   4  -5  162.11   13.24
  12   4  -5  170.70   14.61
  12  -4  -4  385.75   22.31
  12  -4  -4  369.93   22.77
  12   4  -4  381.85   20.69
  12   4  -4  348.08   20.79
  12  -4  -3  240.57   17.68
  12  -4  -3  249.47   18.78
  12   4  -3  250.55   16.61
  12   4  -3  230.86   17.03
  12  -4  -2  314.79   20.06
  12  -4  -2  282.68   19.57
  12   4  -2  310.96   18.70
  12   4  -2  309.04   19.33
  12  -4  -1  124.52   12.96
  12  -4  -1  131.64   13.21
  12   4  -1  130.61   12.62
  12   4  -1  154.45   13.64
  12   4  -1  112.57   11.33
  12   4   0   31.65    5.87
  12  -4   0   26.06    5.90
  12   4   0   30.88    6.20
  12  -4   0   24.48    5.52
  12   4   0   21.44    5.60
  12   4   1  139.18   12.90
  12  -4   1  137.70   13.44
  12  -4   1  131.09   13.41
  12   4   1  150.03   13.38
  12   4   2  312.14   19.28
  12  -4   2  332.64   20.82
  12  -4   2  317.07   20.80
  12   4   2  290.22   18.81
  12   4   3  231.86   16.68
  12  -4   3  230.91   17.42
  12  -4   3  271.69   19.33
  12   4   3  209.74   16.32
  12   4   4  381.18   21.71
  12  -4   4  349.32   21.86
  12  -4   4  375.73   22.79
  12   4   4  370.71   21.07
  12   4   5  172.86   14.29
  12  -4   5  142.11   13.86
  12  -4   5  163.91   15.23
  12   4   5  170.34   14.41
  12   4   6   63.32    8.51
  12  -4   6   59.06    8.77
  12  -4   6   62.30    9.70
  12   4   6   71.68    9.38
  12   4   7  192.48   15.58
  12  -4   7  197.41   16.28
  12  -4   7  204.75   17.23
  12   4   7  218.68   16.39
  12   4   8  178.27   14.96
  12  -4   8  195.94   16.32
  12  -4   8  194.10   16.66
  12   4   8  201.21   15.77
  12   4   9   79.09   10.19
  12  -4   9   73.33   10.43
  12  -4   9   70.30    9.61
  12   4   9   73.80    9.45
  12   4  10   30.29    6.35
  12  -4  10   30.84    6.76
  12   4  10   31.84    6.34
  12  -4  10   42.26    8.14
  12   4  11    9.08    3.88
  12  -4  11    1.39    1.66
  12   4  11    4.64    3.55
  12   4  12    7.34    4.05
  12  -4  12    0.76    2.33
  12   4  12    3.16    1.57
  12   4  13   45.97    7.81
  12  -4  13   38.46    7.42
  12   4  13   38.14    7.22
  12   4  14   25.36    6.15
  12   4  14   38.64    7.96
  12  -4  14   41.94    7.98
  12  -4  15    1.50    2.70
  12   4  15   16.55    5.34
  12  -4  16   14.99    4.79
  12   4  16   14.76    5.08
  12  -4  17   14.60    5.90
  12   4  17   10.12    3.28
  12  -4  18    9.68    4.73
  12   4  18   21.38    5.49
  12  -4  19    7.66    4.32
  12   4  19   14.25    4.60
  12  -4  20   14.03    6.04
  12   4  20   12.03    3.98
  12   4  21   16.96    5.80
  12   4  22   59.99   10.28
  12   4  23   34.64    7.20
  12  -5 -21    6.77    3.57
  12  -5 -20    1.91    3.88
  12  -5 -19    0.93    3.32
  12   5 -19   26.88    7.89
  12  -5 -18    5.27    4.56
  12   5 -18   -0.20    3.40
  12  -5 -17   14.23    5.24
  12  -5 -17    9.97    4.87
  12   5 -17    5.64    4.17
  12  -5 -16    4.53    3.87
  12  -5 -16   -0.92    2.19
  12   5 -16    1.96    2.27
  12   5 -15    0.06    1.65
  12  -5 -15    2.61    2.23
  12  -5 -15    0.76    3.16
  12  -5 -14    0.68    2.60
  12   5 -14   -0.24    2.68
  12  -5 -14    1.12    3.17
  12   5 -13   17.38    4.80
  12  -5 -13   15.31    5.31
  12  -5 -13   14.74    5.55
  12   5 -12    8.67    3.47
  12  -5 -12   14.88    5.80
  12  -5 -12    8.81    4.51
  12   5 -11    8.22    4.62
  12  -5 -11   12.59    5.13
  12  -5 -11    9.24    5.94
  12   5 -10   39.91    7.30
  12  -5 -10   34.25    7.73
  12  -5 -10   31.89    7.44
  12   5  -9   17.03    4.71
  12  -5  -9   12.60    3.38
  12  -5  -9   16.10    6.15
  12   5  -8    7.33    4.64
  12  -5  -8    0.25    2.29
  12  -5  -8   -0.76    3.71
  12   5  -7   11.58    3.33
  12  -5  -7   13.85    5.23
  12  -5  -7    8.37    4.33
  12   5  -6    0.20    1.45
  12  -5  -6   -0.14    2.69
  12  -5  -6    0.74    2.48
  12   5  -5   -1.42    2.43
  12  -5  -5    3.65    3.15
  12   5  -5   -0.26    2.25
  12  -5  -5   -0.85    2.38
  12   5  -4    2.52    2.11
  12  -5  -4   -0.25    4.11
  12   5  -4    4.20    2.42
  12  -5  -4    0.03    1.92
  12  -5  -3   21.90    4.94
  12   5  -3   16.23    4.19
  12  -5  -3   28.85    6.65
  12   5  -3   33.08    7.19
  12  -5  -2   64.46    9.64
  12   5  -2   75.14    9.38
  12  -5  -2   72.92   10.27
  12   5  -2   73.88    9.13
  12  -5  -1   50.47    8.53
  12   5  -1   34.25    6.17
  12   5  -1   54.18    7.61
  12  -5  -1   40.84    7.29
  12   5   0    9.22    3.70
  12  -5   0    9.75    3.83
  12   5   0    9.27    3.60
  12  -5   0   10.81    4.03
  12   5   1   46.85    7.97
  12   5   1   36.79    6.93
  12  -5   1   36.52    7.00
  12  -5   1   26.91    6.81
  12   5   2   62.53    9.42
  12   5   2   63.37    9.03
  12  -5   2   46.37    7.63
  12  -5   2   61.44    9.74
  12   5   3   30.45    6.36
  12  -5   3   14.77    5.00
  12   5   3   25.33    6.35
  12  -5   3   34.46    7.77
  12   5   4    4.02    2.72
  12  -5   4    4.12    3.78
  12   5   4    2.12    1.74
  12  -5   4    2.09    2.41
  12   5   5    1.27    2.39
  12  -5   5    1.65    3.11
  12   5   5    3.29    3.11
  12  -5   5   -0.97    2.12
  12   5   6    0.33    1.69
  12  -5   6   -1.21    2.95
  12   5   6    0.79    2.50
  12  -5   6    2.28    2.65
  12   5   7    7.01    3.76
  12  -5   7   19.95    5.35
  12   5   7    9.66    3.54
  12  -5   7   10.28    4.99
  12   5   8    3.38    3.97
  12  -5   8    1.44    1.73
  12   5   8    7.13    4.25
  12  -5   8    3.22    2.05
  12   5   9   17.25    5.11
  12  -5   9   15.21    4.88
  12   5   9   21.78    5.97
  12  -5   9   12.38    4.79
  12   5  10   30.36    6.40
  12  -5  10   26.62    6.67
  12   5  10   24.91    5.05
  12  -5  10   39.34    6.73
  12   5  11   12.14    3.57
  12  -5  11    9.70    4.09
  12   5  11   16.37    5.43
  12  -5  11   15.68    5.44
  12   5  12   15.10    5.67
  12  -5  12   13.88    4.94
  12   5  12   10.02    4.10
  12  -5  12    5.93    2.94
  12   5  13   12.05    4.34
  12  -5  13   18.42    5.75
  12   5  13   12.77    4.41
  12  -5  13   15.21    5.84
  12   5  14    1.11    3.92
  12  -5  14   -0.47    3.49
  12   5  14    0.11    2.18
  12  -5  14    6.15    5.29
  12  -5  15    2.86    2.34
  12   5  15   -0.11    3.09
  12  -5  16   -2.03    3.97
  12   5  16    0.96    1.72
  12  -5  17   11.25    4.71
  12   5  17    8.81    3.69
  12  -5  18   10.83    5.62
  12   5  18    3.17    2.59
  12   5  19   13.78    4.25
  12   5  20    1.82    2.87
  12   5  21    2.18    3.16
  12  -6 -19   26.03    7.09
  12  -6 -18    4.44    4.43
  12   6 -18   15.16    6.27
  12   6 -17   25.39    6.51
  12  -6 -17   37.94    7.79
  12  -6 -17   35.02    8.04
  12   6 -16   26.01    6.70
  12  -6 -16   37.14    8.37
  12  -6 -16   21.18    6.46
  12   6 -15    8.09    4.97
  12  -6 -15   11.18    4.06
  12  -6 -15   10.04    4.63
  12  -6 -14   53.51    9.54
  12   6 -14   54.01    8.85
  12  -6 -14   44.03    8.82
  12  -6 -13   75.05   10.95
  12  -6 -13   85.88   11.99
  12   6 -13   82.62   11.47
  12  -6 -12    5.26    1.92
  12   6 -12   10.85    4.12
  12  -6 -12    8.98    5.23
  12  -6 -11   31.83    7.61
  12   6 -11   28.59    7.11
  12  -6 -11   36.49    7.06
  12  -6 -10   48.09    8.22
  12  -6 -10   56.06    9.46
  12   6 -10   50.68    8.83
  12  -6  -9   30.78    6.30
  12   6  -9   37.75    7.68
  12  -6  -9   22.34    6.88
  12  -6  -8  128.46   13.97
  12  -6  -8  136.45   14.11
  12   6  -8  131.21   13.37
  12  -6  -7  176.08   15.99
  12  -6  -7  146.91   14.77
  12   6  -7  155.39   14.41
  12   6  -6   13.75    5.77
  12  -6  -6   25.24    6.62
  12  -6  -6   25.73    6.37
  12  -6  -5   33.80    7.12
  12  -6  -5   41.93    8.55
  12   6  -5   52.81    8.95
  12   6  -4   95.78   11.13
  12   6  -4  114.57   13.05
  12  -6  -4  100.46   12.47
  12  -6  -4  101.84   12.09
  12   6  -3  159.53   14.48
  12   6  -3  129.13   12.75
  12  -6  -3  139.06   14.49
  12  -6  -3  167.46   15.56
  12   6  -2  132.43   13.52
  12   6  -2  139.84   13.51
  12  -6  -2  139.73   14.67
  12  -6  -2  125.93   13.66
  12   6  -1   27.06    5.96
  12  -6  -1   33.54    6.63
  12   6  -1   32.15    6.34
  12  -6  -1   45.35    8.73
  12   6   0    0.56    1.94
  12  -6   0   -0.25    1.95
  12  -6   0   -0.54    2.67
  12   6   0    1.68    2.32
  12   6   1   32.96    6.82
  12  -6   1   19.62    5.71
  12  -6   1   18.22    4.58
  12   6   1   28.75    6.26
  12  -6   2  129.62   13.91
  12   6   2  150.76   14.06
  12   6   2  147.54   14.08
  12  -6   2  145.34   15.01
  12  -6   3  164.01   15.55
  12   6   3  125.05   13.01
  12   6   3  137.09   13.84
  12  -6   3  128.09   14.17
  12  -6   4  109.31   12.66
  12   6   4  122.16   12.59
  12   6   4  116.22   12.30
  12  -6   4  131.49   14.03
  12   6   5   40.86    7.91
  12  -6   5   30.93    7.00
  12   6   5   52.83    8.46
  12  -6   5   50.41    9.49
  12   6   6   28.99    6.83
  12  -6   6   29.60    6.58
  12  -6   6   28.61    7.11
  12   6   6   20.36    5.50
  12   6   7  144.03   14.21
  12  -6   7  141.50   14.38
  12   6   7  143.96   14.20
  12  -6   7  151.39   15.54
  12   6   8  117.50   12.76
  12  -6   8  104.08   12.50
  12   6   8  128.28   13.36
  12  -6   8  123.86   13.81
  12   6   9   28.22    6.22
  12  -6   9   22.28    6.56
  12  -6   9   31.76    8.30
  12   6   9   22.65    6.00
  12   6  10   62.72    9.82
  12  -6  10   51.11    9.39
  12   6  10   47.26    8.58
  12  -6  10   76.31   11.49
  12   6  11   34.97    7.52
  12  -6  11   48.17    8.44
  12  -6  11   42.62    8.52
  12   6  11   34.37    7.01
  12   6  12   -2.09    2.47
  12  -6  12    4.60    3.30
  12  -6  12    5.18    2.22
  12   6  12    5.24    3.31
  12   6  13   74.58   10.49
  12  -6  13   63.15   11.37
  12   6  13   86.88   11.48
  12  -6  13   78.48   11.07
  12   6  14   53.16    9.04
  12   6  14   55.57    8.89
  12  -6  14   55.59    9.96
  12  -6  14   64.77   10.82
  12   6  15    6.45    4.64
  12  -6  15    6.77    4.26
  12  -6  15   12.48    5.38
  12   6  15   10.03    4.61
  12  -6  16   20.84    6.26
  12  -6  16   15.55    6.45
  12   6  16   25.73    6.78
  12  -6  17   40.92    8.71
  12   6  17   50.02    9.08
  12  -6  17   39.65    9.41
  12   6  18    2.12    2.41
  12  -6  18    7.04    5.75
  12   6  19   37.66    8.25
  12  -6  19   38.41   10.23
  12   7 -17   -1.21    3.66
  12  -7 -17    3.22    2.78
  12  -7 -17    3.31    2.58
  12  -7 -16    0.15    2.88
  12  -7 -16   -1.81    2.39
  12   7 -15   32.84    7.51
  12  -7 -15   32.21    7.11
  12  -7 -15   38.30    8.19
  12   7 -14    0.37    1.58
  12  -7 -14    8.96    4.36
  12  -7 -14    4.40    3.63
  12   7 -13    8.96    4.29
  12  -7 -13   12.49    5.02
  12  -7 -13   15.31    5.67
  12   7 -12   15.86    5.93
  12  -7 -12   17.86    5.58
  12  -7 -12    7.70    3.64
  12   7 -11    5.30    2.05
  12  -7 -11    0.83    2.69
  12  -7 -11   -1.98    2.70
  12   7 -10   18.54    5.08
  12  -7 -10   12.07    5.08
  12  -7 -10   21.79    6.31
  12  -7  -9   75.42   10.61
  12  -7  -9   43.91    9.32
  12   7  -9   64.14   10.10
  12  -7  -8   13.28    4.64
  12   7  -8    7.83    3.75
  12  -7  -8   11.96    3.76
  12  -7  -7   21.04    6.21
  12   7  -7   36.57    7.79
  12  -7  -7   21.01    6.00
  12  -7  -6    8.71    3.90
  12   7  -6    0.13    2.74
  12  -7  -6    4.96    3.69
  12  -7  -5    0.22    3.64
  12   7  -5    1.02    2.95
  12  -7  -5    1.93    2.09
  12  -7  -4   36.98    7.60
  12   7  -4   31.76    7.08
  12  -7  -4   42.93    8.56
  12  -7  -3   15.50    5.62
  12   7  -3   17.38    4.87
  12  -7  -3   16.10    6.51
  12  -7  -2   12.45    4.03
  12   7  -2   13.82    3.39
  12  -7  -2   33.91    7.88
  12   7  -2   26.91    6.88
  12   7  -1   26.89    5.98
  12  -7  -1   40.91    8.33
  12  -7  -1   39.75    8.53
  12   7  -1   34.55    7.29
  12   7   0   14.97    5.07
  12  -7   0   18.54    5.44
  12   7   0   15.90    5.58
  12   7   1   37.53    7.75
  12  -7   1   27.97    6.66
  12   7   1   38.10    6.67
  12  -7   1   45.10    8.81
  12   7   2   15.95    4.57
  12  -7   2   21.25    4.94
  12  -7   2    4.58    2.33
  12   7   2   19.07    6.08
  12   7   3   18.94    5.46
  12  -7   3    6.93    3.43
  12  -7   3   13.11    5.84
  12   7   3   17.74    4.96
  12   7   4   38.10    7.54
  12  -7   4   35.56    8.24
  12  -7   4   42.78    9.25
  12   7   4   32.36    7.04
  12   7   5    1.01    1.80
  12   7   5    5.70    3.98
  12  -7   5    2.66    2.24
  12  -7   5    5.85    3.83
  12   7   6    0.62    1.78
  12   7   6    2.42    3.49
  12  -7   6    0.87    2.91
  12  -7   6    0.03    2.13
  12   7   7   35.79    7.31
  12   7   7   17.47    5.90
  12  -7   7   34.01    7.52
  12  -7   7   24.09    6.07
  12   7   8   16.10    5.55
  12   7   8    4.53    3.50
  12  -7   8   10.83    5.23
  12  -7   8    3.51    4.59
  12   7   9   54.44    8.74
  12  -7   9   40.00    8.51
  12   7   9   55.84    9.30
  12  -7   9   67.34   10.52
  12   7  10   17.36    5.41
  12   7  10   13.59    5.01
  12  -7  10   18.77    5.98
  12  -7  10   16.37    3.58
  12   7  11   -1.71    3.38
  12   7  11    3.47    2.20
  12  -7  11   -0.11    3.51
  12  -7  11    3.06    2.40
  12   7  12    8.30    3.64
  12   7  12   17.17    5.52
  12  -7  12   13.51    5.32
  12  -7  12   16.24    7.34
  12   7  13   22.87    5.86
  12   7  13   17.75    5.23
  12  -7  13   21.70    7.17
  12  -7  13   21.92    6.53
  12   7  14    3.66    1.83
  12   7  14   10.35    6.01
  12  -7  14    2.39    4.19
  12  -7  14    6.56    5.81
  12   7  15   31.94    7.64
  12  -7  15   35.09    8.80
  12   7  15   28.20    6.70
  12  -7  16    1.71    4.84
  12   7  16    3.41    2.96
  12   7  17    5.67    4.38
  12   8 -13   31.47    7.56
  12  -8 -13   42.81    8.27
  12  -8 -13   25.22    6.06
  12   8 -12   40.18    7.93
  12  -8 -12   28.54    7.62
  12  -8 -12   35.92    8.53
  12   8 -11    6.42    3.97
  12  -8 -11    0.41    3.84
  12  -8 -11    7.21    3.06
  12   8 -10   10.36    5.68
  12  -8 -10    7.29    4.56
  12  -8 -10   12.29    5.40
  12   8  -9   16.16    5.68
  12  -8  -9   23.41    6.19
  12  -8  -9   19.09    6.59
  12   8  -8   13.03    4.81
  12  -8  -8   21.10    5.99
  12  -8  -8   17.97    5.43
  12   8  -7   61.31    9.64
  12  -8  -7   40.80    9.56
  12  -8  -7   53.04   10.02
  12  -8  -6   17.39    5.34
  12   8  -6   22.81    6.97
  12  -8  -6   15.23    5.44
  12  -8  -5    2.30    2.46
  12   8  -5    2.28    1.89
 -12   8  -5    4.73    3.21
  12  -8  -5    2.34    3.58
  12  -8  -4    9.75    4.18
  12   8  -4   14.61    5.16
 -12   8  -4    7.39    3.55
  12  -8  -4   20.77    7.02
  12   8  -3   53.64    8.91
 -12   8  -3   43.88    8.34
  12  -8  -3   50.05    9.51
  12  -8  -3   59.16   10.68
  12  -8  -2   19.12    6.11
  12   8  -2   25.50    6.53
 -12   8  -2    9.78    3.86
  12  -8  -2    9.96    4.69
  12  -8  -1    3.30    3.79
  12   8  -1   10.32    4.97
  12  -8  -1    4.02    5.11
  12   8  -1    9.41    4.98
  12  -8   0    3.16    2.17
  12   8   0    2.55    2.43
  12  -8   0    2.31    4.12
  12   8   0    2.79    3.05
  12  -8   1    3.42    3.72
  12   8   1    1.57    3.03
  12  -8   1   -3.17    4.42
  12   8   1    2.24    2.37
  12   8   2   13.94    5.07
  12  -8   2   17.61    5.83
  12   8   2   20.32    5.92
  12  -8   2   16.75    5.82
  12   8   3   61.39    9.55
  12  -8   3   49.46    9.05
  12   8   3   60.44    9.21
  12  -8   3   51.18    9.33
  12   8   4    5.22    2.42
  12  -8   4   17.01    6.04
  12   8   4   12.07    5.62
  12  -8   4    7.86    3.27
  12   8   5   11.30    4.31
  12  -8   5    3.22    2.69
  12   8   5    5.14    3.96
  12  -8   5    5.68    6.01
  12   8   6   27.05    6.68
  12  -8   6   17.25    5.17
  12   8   6   28.19    6.75
  12  -8   6   21.52    7.78
  12  -8   7   46.10    8.76
  12   8   7   45.40    9.09
  12   8   7   50.77    9.40
  12  -8   7   32.27    8.64
  12   8   8   19.47    5.35
  12  -8   8   16.49    5.91
  12   8   8   16.98    5.98
  12  -8   8    5.30    3.45
  12   8   9   18.10    5.28
  12  -8   9   24.93    7.06
  12   8   9   15.23    5.05
  12   8  10   11.88    6.13
  12  -8  10    3.25    4.05
  12   8  10    4.42    4.55
  12   8  11    2.54    2.13
  12  -8  11   -5.04    3.56
  12   8  11    6.33    4.71
  12   8  12   30.56    6.63
  12  -8  12   25.30    6.66
  12   8  12   32.74    7.98
  12  -8  13   29.17    6.83
  12   8  13   45.79    9.08
  12   8  13   49.34    9.79
  12   9  -8    6.44    2.29
  12  -9  -8    9.06    2.74
  12  -9  -8    6.53    4.74
  12   9  -7   -0.40    2.42
  12  -9  -7    4.80    3.78
  12  -9  -7    3.81    3.47
  12   9  -6    0.73    3.05
  12  -9  -6    7.56    4.47
  12  -9  -6    2.10    3.54
  12   9  -5    3.51    3.22
  12  -9  -5    8.02    3.64
  12  -9  -5   -2.25    3.91
  12   9  -4   -1.38    2.90
 -12   9  -4    0.35    2.72
  12  -9  -4    3.60    3.66
  12  -9  -4   -2.91    3.34
  12   9  -3   21.87    5.90
 -12   9  -3   20.63    6.39
  12  -9  -3   25.24    6.98
  12  -9  -3   18.01    6.50
  12  -9  -2    7.58    5.24
  12   9  -2   -1.33    3.79
 -12   9  -2   -0.34    3.58
  12  -9  -2    1.32    3.07
  12  -9  -1    3.24    5.16
  12   9  -1    7.75    4.86
 -12   9  -1   13.06    5.12
  12  -9  -1    6.79    4.70
  12  -9   0    2.63    2.39
  12   9   0    5.37    4.44
 -12   9   0    4.64    3.23
  12  -9   0   -1.49    3.13
  12   9   1   12.66    5.64
  12  -9   1   -2.45    5.10
  12   9   1    6.12    3.97
 -12   9   1   14.15    5.25
  12  -9   1    0.71    3.29
  12  -9   2   -3.30    4.22
  12   9   2    1.96    3.95
  12   9   2    1.18    2.50
 -12   9   2    1.12    2.35
  12  -9   2    0.37    3.13
  12  -9   3   28.10    7.14
  12   9   3   26.08    6.78
  12   9   3   22.52    5.37
 -12   9   3   12.74    3.69
  12  -9   4    1.27    4.42
  12   9   4    1.86    3.21
  12   9   4    2.47    4.34
 -12   9   4    0.50    3.79
  12  -9   5    7.27    4.27
  12   9   5    9.39    4.82
  12   9   5    4.56    5.76
 -12   9   5    5.12    2.84
  12  -9   6    7.09    3.26
  12   9   6    0.72    2.62
  12   9   6    1.12    2.80
 -12   9   6    4.75    3.31
  12  -9   7   -4.79    2.99
  12   9   7    4.53    2.78
  12   9   7    1.42    2.39
 -12   9   7   -0.04    3.29
  12  -9   8   -0.78    2.76
  12   9   8    2.51    2.49
  12   9   8    1.46    3.91
 -12   9   8    3.17    3.02
  13   0 -21    2.40    2.81
  13   0 -20    3.54    4.42
  13   0 -19   -2.26    3.37
  13   0 -18    1.15    3.80
  13   0 -17    0.61    3.78
  13   0 -16   -0.91    1.66
  13   0 -15   -0.90    2.37
  13   0 -14    3.98    4.05
  13   0 -13    1.04    1.73
  13   0 -12    2.80    4.51
  13   0 -11   -1.83    2.45
  13   0 -11   -1.78    3.52
  13   0 -10   -0.34    1.99
  13   0 -10    1.46    2.65
  13   0  -9    0.51    1.34
  13   0  -9   -0.76    2.98
  13   0  -8    1.67    2.29
  13   0  -8   -0.88    1.61
  13   0  -7    1.18    2.09
  13   0  -7    0.77    1.84
  13   0  -6    3.63    3.62
  13   0  -6   -0.72    1.64
  13   0  -5    0.54    2.20
  13   0  -5   -0.16    1.88
  13   0  -4    0.14    2.26
  13   0  -4   -2.10    2.12
  13   0  -3   -0.99    1.37
  13   0  -3    1.46    2.43
  13   0  -3    2.19    3.27
  13   0  -2   -0.27    2.70
  13   0  -2   -0.83    3.03
  13   0  -2   -0.85    1.82
  13   0  -1    0.13    1.80
  13   0  -1    0.46    2.45
  13   0  -1    1.34    3.13
  13   0   0    0.07    2.14
  13   0   0    2.70    3.22
  13   0   0   -1.40    2.22
  13   0   1    0.99    2.39
  13   0   1   -0.01    1.33
  13   0   1   -1.43    3.03
  13   0   2    1.48    1.56
  13   0   2    1.57    1.82
  13   0   2    1.53    2.54
  13   0   3    2.13    3.15
  13   0   3   -0.43    1.64
  13   0   3   -3.34    2.77
  13   0   4   -2.26    2.85
  13   0   4   -0.36    2.63
  13   0   5    0.86    2.44
  13   0   5    3.59    2.44
  13   0   6    0.98    1.73
  13   0   6   -0.25    2.06
  13   0   7   -0.13    1.55
  13   0   7    0.49    2.45
  13   0   8    0.16    1.46
  13   0   8   -1.17    2.13
  13   0   9    0.83    3.87
  13   0   9   -1.65    2.70
  13   0  10   -1.57    2.21
  13   0  11   -1.10    3.48
  13   0  12   -0.43    2.12
  13   0  13    0.36    2.19
  13   0  14    1.59    2.70
  13   0  15   -0.91    2.39
  13   0  16   -0.85    3.59
  13   0  17   -0.04    3.25
  13   0  18   -0.98    2.04
  13   0  19    1.45    2.32
  13   0  20    0.55    4.16
  13   0  21   -0.76    2.00
  13   0  22    0.70    2.35
  13   0  23    0.24    2.73
  13   0  24    2.68    3.59
  13  -1 -24    2.16    2.65
  13  -1 -23    8.78    5.06
  13  -1 -22    3.04    2.46
  13  -1 -21   85.19   11.17
  13  -1 -20   71.10   10.66
  13  -1 -19    5.88    4.54
  13  -1 -18    6.97    4.79
  13   1 -17   16.39    4.98
  13  -1 -17   20.18    4.41
  13   1 -16  106.53   12.26
  13  -1 -16  117.66   13.30
  13   1 -15   49.88    8.48
  13  -1 -15   38.88    7.68
  13   1 -14   86.32   11.01
  13  -1 -14   91.20   10.90
  13   1 -13   20.89    5.98
  13  -1 -13   16.38    5.62
  13  -1 -12   58.41    9.53
  13   1 -12   52.83    8.79
  13  -1 -12   61.58    9.29
  13  -1 -11    2.93    1.70
  13  -1 -11    6.86    3.81
  13   1 -11    4.58    1.72
  13  -1 -10  128.54   12.76
  13   1 -10  115.79   12.03
  13  -1 -10  114.83   12.85
  13   1 -10  122.23   12.61
  13   1 -10  137.19   13.17
  13  -1  -9  123.36   12.40
  13   1  -9  126.02   11.93
  13  -1  -9  133.81   13.79
  13   1  -9  149.03   13.77
  13   1  -9  121.68   11.76
  13  -1  -8   19.25    5.62
  13   1  -8   13.11    3.92
  13   1  -8   12.74    3.99
  13   1  -8   19.36    5.27
  13  -1  -7   37.74    7.20
  13   1  -7   53.20    7.65
  13   1  -7   48.06    7.80
  13  -1  -7   41.28    7.33
  13   1  -7   51.57    8.33
  13  -1  -6   69.30    9.36
  13   1  -6   69.40    8.94
  13  -1  -6   81.99   10.47
  13   1  -6   73.21    9.39
  13   1  -6   64.61    9.14
  13  -1  -5  343.09   20.28
  13   1  -5  308.35   18.80
  13  -1  -5  316.28   20.47
  13   1  -5  326.29   20.23
  13   1  -5  314.64   19.23
  13  -1  -4   50.17    7.68
  13   1  -4   39.64    6.85
  13  -1  -4   43.32    7.69
  13   1  -4   48.13    7.89
  13   1  -4   46.82    7.25
  13  -1  -3   81.53   10.07
  13   1  -3  101.17   10.82
  13  -1  -3  100.82   11.54
  13   1  -3   85.20   10.49
  13   1  -3   96.96   10.41
  13  -1  -2  125.77   12.49
  13   1  -2  121.72   11.69
  13  -1  -2  174.99   15.00
  13   1  -2  154.44   13.55
  13   1  -2  146.87   12.74
  13  -1  -1   92.10   10.57
  13   1  -1   93.42   10.33
  13  -1  -1   81.53   10.32
  13   1  -1   85.11   10.25
  13   1  -1   85.47    9.47
  13  -1   0 1222.27   37.99
  13   1   0 1214.56   36.98
  13  -1   0 1167.75   38.85
  13   1   0 1168.98   37.78
  13   1   0 1101.83   34.84
  13  -1   1   88.95   10.43
  13   1   1   74.43    9.54
  13  -1   1   90.28   10.66
  13   1   1  105.85   11.37
  13   1   1   82.94    9.89
  13  -1   2  131.50   12.60
  13   1   2  132.88   12.39
  13  -1   2  133.49   13.46
  13   1   2  112.40   11.64
  13   1   2  141.56   12.53
  13  -1   3  100.82   10.91
  13   1   3   81.04    9.41
  13  -1   3   74.73    9.94
  13   1   3   84.85    9.47
  13  -1   4   43.08    7.23
  13   1   4   49.51    7.87
  13  -1   4   47.44    7.94
  13   1   4   41.62    7.23
  13  -1   5  319.55   19.99
  13   1   5  334.95   19.76
  13   1   5  326.81   18.73
  13  -1   6   62.79    8.70
  13   1   6   53.29    7.96
  13   1   6   66.97    8.60
  13   1   7   40.12    7.51
  13  -1   7   27.91    6.12
  13   1   7   43.43    7.17
  13   1   8    7.42    3.44
  13  -1   8   12.60    3.26
  13   1   8   11.62    3.85
  13  -1   9  145.69   13.56
  13   1   9  157.24   13.98
  13   1   9  138.11   12.45
  13  -1  10  107.64   11.89
  13   1  10  123.27   12.75
  13   1  10  113.56   11.24
  13   1  11   -0.06    2.44
  13  -1  11    6.47    3.79
  13   1  11    0.76    2.72
  13  -1  12   70.55    9.70
  13   1  12   59.34    9.31
  13   1  12   60.50    8.35
  13   1  13   19.92    5.91
  13  -1  13   17.02    4.38
  13  -1  14   90.05   11.40
  13   1  14   88.35   11.08
  13   1  15   44.28    7.96
  13  -1  15   32.44    7.38
  13  -1  16   85.87   11.15
  13   1  16  124.47   13.70
  13   1  17   17.10    5.20
  13  -1  17   21.63    5.70
  13   1  18    2.23    1.92
  13  -1  18    1.21    3.11
  13   1  19    1.81    2.53
  13  -1  19    3.03    2.79
  13  -1  20   68.10   10.39
  13   1  20   71.97   10.77
  13  -1  21   62.22   10.30
  13   1  21   61.25   10.31
  13   1  22    6.18    4.48
  13  -1  22   19.65    6.11
  13   1  23    2.78    3.99
  13  -1  23    2.83    3.23
  13   1  24    7.69    2.75
  13  -1  24   -1.32    3.29
  13  -2 -23   25.92    7.35
  13  -2 -22    6.06    3.22
  13  -2 -21   21.79    5.73
  13  -2 -20    5.69    3.82
  13  -2 -19   -0.60    2.56
  13  -2 -18    2.71    2.75
  13  -2 -17   38.88    7.67
  13  -2 -16    3.02    2.17
  13  -2 -15    4.41    4.15
  13   2 -15    4.79    2.74
  13  -2 -14    7.03    4.05
  13   2 -14   13.56    3.63
  13  -2 -13    6.36    2.92
  13  -2 -13    8.91    4.87
  13   2 -13   17.67    5.61
  13   2 -12   54.55    9.33
  13  -2 -12   39.58    7.26
  13   2 -12   56.17    8.55
  13  -2 -12   54.04    8.87
  13  -2 -11  157.11   14.46
  13   2 -11  168.77   14.76
  13  -2 -11  166.51   15.44
  13   2 -11  162.90   14.71
  13  -2 -10    6.67    2.77
  13  -2 -10    6.88    3.12
  13   2 -10    5.79    3.60
  13   2 -10    2.75    2.66
  13  -2  -9    7.48    2.57
  13  -2  -9   12.40    4.43
  13   2  -9   16.43    4.98
  13   2  -9   17.96    4.86
  13  -2  -8   50.32    8.60
  13   2  -8   57.65    8.03
  13  -2  -8   70.69   10.12
  13   2  -8   60.05    8.83
  13   2  -8   42.39    7.63
  13  -2  -7   18.83    5.05
  13   2  -7   34.93    6.55
  13  -2  -7   38.23    7.12
  13   2  -7   32.54    6.80
  13   2  -7   34.12    6.33
  13  -2  -6   12.89    4.74
  13  -2  -6    3.53    1.66
  13   2  -6   13.08    4.66
  13   2  -6    5.14    3.16
  13   2  -6    3.58    2.81
  13  -2  -5    6.26    3.41
  13  -2  -5   -0.05    3.27
  13   2  -5   -0.85    1.72
  13   2  -5    0.76    1.74
  13   2  -5    0.23    1.69
  13  -2  -4   17.52    4.90
  13  -2  -4   16.24    6.01
  13   2  -4   15.65    5.23
  13   2  -4   26.05    5.69
  13   2  -4   10.94    4.27
  13  -2  -3   73.03    9.42
  13   2  -3   69.57    8.70
  13   2  -3   70.85    9.66
  13   2  -3   86.92   10.32
  13  -2  -2   35.65    6.82
  13   2  -2   41.21    6.81
  13  -2  -2   51.15    8.31
  13   2  -2   43.81    7.39
  13   2  -2   49.40    7.76
  13  -2  -1   44.99    7.77
  13   2  -1   51.53    7.63
  13  -2  -1   46.63    8.08
  13   2  -1   39.48    7.05
  13   2  -1   46.43    7.17
  13  -2   0  469.06   24.33
  13   2   0  551.71   25.01
  13  -2   0  515.94   26.09
  13   2   0  527.46   25.40
  13   2   0  541.06   24.89
  13   2   1   32.23    6.74
  13   2   1   40.26    6.43
  13  -2   1   53.74    8.09
  13  -2   1   49.87    8.53
  13   2   1   61.64    8.88
  13  -2   2   34.26    6.89
  13   2   2   32.74    6.52
  13  -2   2   30.84    7.22
  13   2   2   39.03    6.99
  13  -2   3   91.88   10.96
  13  -2   3   97.65   11.27
  13   2   3   94.11   10.31
  13   2   3   76.27    9.44
  13   2   4   13.09    5.25
  13   2   4   14.86    4.35
  13  -2   4   11.31    4.43
  13  -2   4   12.78    4.22
  13   2   5   -1.51    2.53
  13   2   5    1.26    1.98
  13  -2   5   -1.68    2.01
  13  -2   5    1.10    2.47
  13   2   6    4.37    1.69
  13   2   6    3.94    2.91
  13  -2   6    5.54    3.09
  13  -2   6    0.87    2.34
  13   2   7   37.10    6.45
  13   2   7   29.75    6.21
  13  -2   7   32.72    6.70
  13  -2   8   57.58    8.68
  13   2   8   50.52    8.25
  13   2   8   51.69    7.98
  13   2   9   13.82    4.11
  13   2   9   17.35    4.58
  13  -2   9   20.97    5.36
  13   2  10   15.31    4.64
  13   2  10    9.34    4.17
  13  -2  10   12.72    4.98
  13   2  11  154.73   14.39
  13   2  11  172.71   14.77
  13   2  12   43.49    7.30
  13  -2  12   34.76    6.92
  13   2  12   56.36    9.12
  13   2  13   12.20    4.02
  13  -2  13   12.25    5.27
  13   2  14    9.19    3.41
  13  -2  14    7.67    3.94
  13   2  15    4.13    2.72
  13  -2  15    1.59    2.58
  13   2  16    1.67    1.89
  13  -2  16    2.69    2.65
  13  -2  17   70.18    9.81
  13   2  17   62.52    8.94
  13   2  18    2.83    3.30
  13  -2  18    2.44    3.58
  13   2  19    0.10    1.82
  13  -2  19    1.40    2.32
  13   2  20    3.22    4.12
  13  -2  20   -4.55    4.78
  13   2  21   15.14    5.28
  13  -2  21   14.14    4.87
  13   2  22    5.21    5.01
  13  -2  22   10.29    6.36
  13   2  23   13.89    6.28
  13  -3 -22   31.05    7.48
  13  -3 -21   16.02    5.87
  13  -3 -20   19.33    5.68
  13  -3 -19   11.80    5.32
  13  -3 -18   17.30    4.76
  13   3 -18    9.00    4.08
  13  -3 -17   15.79    6.17
  13   3 -17   11.59    4.37
  13  -3 -16  205.67   17.62
  13   3 -16  204.82   17.37
  13  -3 -15   36.73    7.69
  13   3 -15   24.18    6.60
  13  -3 -14  102.97   12.46
  13  -3 -14  105.77   12.66
  13   3 -14  105.08   12.24
  13  -3 -13   40.20    7.43
  13  -3 -13   48.07    8.92
  13   3 -13   46.82    8.08
  13  -3 -12  144.08   14.52
  13   3 -12  148.97   14.11
  13  -3 -12  143.51   14.20
  13  -3 -11   10.53    3.55
  13  -3 -11    4.91    1.77
  13   3 -11   11.95    5.03
  13  -3 -10  311.46   20.87
  13   3 -10  320.74   20.04
  13  -3 -10  308.25   20.55
  13  -3  -9   33.53    7.34
  13  -3  -9   31.10    6.71
  13   3  -9   35.32    6.99
  13  -3  -8   40.94    7.84
  13  -3  -8   46.41    8.54
  13   3  -8   40.40    7.48
  13   3  -7   33.78    6.88
  13  -3  -7   32.90    7.25
  13  -3  -7   27.01    6.83
  13   3  -7   33.71    5.88
  13  -3  -6   64.52    9.61
  13   3  -6   66.81    9.01
  13  -3  -6   84.01   11.28
  13   3  -6   89.90   10.77
  13   3  -6   59.05    8.90
  13   3  -5    5.92    3.83
  13   3  -5    9.74    3.61
  13  -3  -5    8.70    2.83
  13  -3  -5    5.57    3.29
  13   3  -5    7.28    3.41
  13  -3  -4  254.84   18.34
  13  -3  -4  231.72   18.14
  13   3  -4  274.34   17.77
  13   3  -4  228.51   16.97
  13   3  -4  279.30   18.20
  13   3  -3   28.66    6.76
  13  -3  -3   42.61    7.71
  13  -3  -3   40.30    8.28
  13   3  -3   40.10    7.05
  13   3  -3   34.78    6.61
  13   3  -2    3.62    3.49
  13   3  -2   10.67    3.81
  13  -3  -2    4.68    2.87
  13  -3  -2    2.65    2.60
  13   3  -2    1.96    2.92
  13   3  -1   17.24    5.02
  13   3  -1   16.96    4.37
  13  -3  -1   14.84    4.71
  13  -3  -1   18.63    5.23
  13   3  -1   23.49    5.58
  13  -3   0   75.77    9.66
  13  -3   0   76.28   10.71
  13   3   0   93.33   11.04
  13   3   0   99.83   11.36
  13   3   0   98.73   11.02
  13   3   1   15.85    4.40
  13   3   1   19.16    5.14
  13  -3   1   20.99    5.78
  13  -3   1   13.42    5.38
  13   3   2    6.27    3.11
  13   3   2    3.81    2.32
  13  -3   2    1.19    2.13
  13  -3   2    0.71    3.60
  13   3   3   40.57    6.85
  13   3   3   28.55    6.09
  13  -3   3   27.99    5.47
  13  -3   4  226.50   17.49
  13  -3   4  255.04   18.63
  13   3   4  237.94   17.23
  13   3   4  254.43   17.73
  13   3   5   10.23    5.14
  13   3   5   14.02    4.50
  13  -3   5   13.79    4.32
  13  -3   5   12.74    5.15
  13  -3   6   65.70    9.54
  13  -3   6   72.62    9.76
  13   3   6   63.62    9.07
  13   3   6   60.52    8.98
  13  -3   7   43.83    7.73
  13  -3   7   27.57    6.63
  13   3   7   38.98    7.73
  13   3   7   43.60    7.44
  13  -3   8   39.73    7.02
  13  -3   8   44.35    7.72
  13   3   8   49.55    7.66
  13   3   8   47.45    8.21
  13   3   9   40.69    6.67
  13   3   9   32.15    6.72
  13  -3   9   38.24    7.60
  13  -3  10  297.75   20.49
  13   3  10  301.35   19.35
  13   3  10  288.57   19.78
  13   3  11   13.15    4.72
  13   3  11   11.75    4.22
  13  -3  11   15.43    5.41
  13  -3  12  160.39   15.38
  13   3  12  171.63   14.51
  13   3  13   47.08    8.70
  13   3  13   48.69    7.43
  13  -3  13   36.33    7.39
  13  -3  14  125.31   13.99
  13   3  14  119.12   12.70
  13   3  15   38.46    7.00
  13  -3  15   24.53    6.41
  13  -3  16  211.58   18.62
  13   3  16  244.87   18.74
  13   3  17   12.41    4.43
  13  -3  17   15.62    5.89
  13   3  18   16.45    4.76
  13  -3  18   10.79    5.17
  13   3  19    5.01    3.00
  13  -3  19   14.93    6.63
  13   3  20   28.25    6.51
  13  -3  20   17.16    5.63
  13   3  21   11.14    4.14
  13  -3  21   11.61    6.14
  13   3  22   55.45    9.99
  13  -4 -21   17.23    6.11
  13  -4 -20    6.00    4.16
  13   4 -20   13.05    6.96
  13  -4 -19   15.39    5.71
  13   4 -19   11.62    5.24
  13  -4 -18    3.98    4.28
  13   4 -18    1.00    2.09
  13  -4 -17   17.88    5.47
  13   4 -17   16.42    5.71
  13  -4 -16    6.98    5.58
  13  -4 -16    1.56    3.35
  13   4 -16    9.24    5.47
  13  -4 -15   13.94    6.19
  13  -4 -15   23.82    5.90
  13   4 -15   28.27    6.57
  13  -4 -14    8.88    4.95
  13  -4 -14    4.35    1.92
  13   4 -14    3.33    2.10
  13  -4 -13    2.95    2.04
  13  -4 -13    0.93    3.47
  13   4 -13   -1.59    2.69
  13  -4 -12   10.66    3.77
  13  -4 -12    8.99    3.41
  13   4 -12    9.24    4.08
  13   4 -11   -1.76    3.74
  13  -4 -11   -1.01    2.90
  13  -4 -11    0.36    1.92
  13   4 -10    7.59    4.11
  13  -4 -10    1.28    2.15
  13  -4 -10    5.31    2.15
  13  -4  -9  169.26   15.46
  13   4  -9  161.73   15.28
  13  -4  -9  158.41   15.10
  13   4  -8    1.12    2.40
  13  -4  -8    3.08    2.95
  13  -4  -8    1.28    2.68
  13   4  -7    5.28    3.29
  13  -4  -7    4.51    2.11
  13  -4  -6  102.49   12.15
  13  -4  -6   80.75   11.11
  13   4  -6   98.90   11.16
  13   4  -6   90.36   11.12
  13   4  -5    3.72    2.80
  13   4  -5    6.47    1.92
  13  -4  -5    1.83    2.76
  13   4  -4   32.76    6.67
  13   4  -4   20.12    5.18
  13  -4  -4   36.41    7.04
  13  -4  -4   22.53    5.44
  13   4  -3    3.37    2.36
  13   4  -3    8.76    2.90
  13  -4  -3   11.88    5.17
  13  -4  -3    8.86    3.15
  13  -4  -2  124.73   13.31
  13  -4  -2  149.05   15.05
  13   4  -2  144.94   13.42
  13   4  -2  146.52   13.56
  13  -4  -1   82.08   10.66
  13  -4  -1   83.25   11.14
  13   4  -1   93.06   10.51
  13   4  -1   84.26   10.62
  13   4   0    2.42    3.18
  13  -4   0    1.36    3.13
  13   4   0    1.92    2.32
  13  -4   0    1.33    3.91
  13   4   0    3.81    2.87
  13  -4   1   72.80   10.31
  13  -4   1   79.42   10.53
  13   4   1   82.90   10.42
  13   4   1   79.65    9.99
  13  -4   2  141.58   13.99
  13  -4   2  154.51   15.11
  13   4   2  138.08   13.42
  13   4   2  157.13   14.23
  13   4   3    6.94    4.02
  13  -4   3    4.28    2.36
  13   4   3   15.52    5.27
  13  -4   3    8.49    5.10
  13   4   4   22.75    6.05
  13  -4   4   15.23    5.15
  13   4   4   24.40    5.64
  13  -4   4   27.31    6.78
  13   4   5   -1.03    1.73
  13  -4   5    7.78    3.61
  13   4   5   11.04    4.18
  13  -4   5    1.07    3.26
  13   4   6   83.02   10.56
  13  -4   6   87.59   11.11
  13  -4   6  103.24   12.36
  13   4   6   95.62   10.84
  13   4   7    8.64    3.99
  13  -4   7   11.07    4.98
  13   4   7    9.03    3.61
  13  -4   7    9.64    3.57
  13   4   8   -0.43    1.94
  13  -4   8    1.66    3.37
  13   4   8    4.27    3.29
  13  -4   8    2.85    3.71
  13   4   9  150.83   14.70
  13  -4   9  160.28   15.24
  13  -4   9  177.22   15.96
  13   4   9  144.55   14.10
  13   4  10    9.72    4.32
  13  -4  10    1.45    2.01
  13   4  10    4.95    2.26
  13  -4  10    4.12    3.73
  13   4  11   -1.48    1.87
  13  -4  11    2.78    4.06
  13   4  11   -0.30    2.84
  13  -4  11    7.23    4.90
  13   4  12    8.13    3.70
  13  -4  12    5.29    3.44
  13   4  12   14.69    5.49
  13   4  13    1.66    3.17
  13  -4  13    1.66    2.91
  13   4  13    1.12    3.15
  13  -4  14    5.45    3.48
  13   4  14    2.40    2.52
  13  -4  15   25.06    6.78
  13   4  15   22.59    5.90
  13  -4  16    5.45    3.50
  13   4  16    9.03    3.73
  13  -4  17   19.92    6.81
  13   4  17   16.65    4.28
  13  -4  18    1.75    2.88
  13   4  18   -5.13    3.38
  13  -4  19   13.92    5.44
  13   4  19   16.17    5.31
  13   4  20    4.14    2.73
  13  -4  20   10.87    5.75
  13   4  21   12.88    4.61
  13  -5 -20    9.46    4.10
  13  -5 -19   12.05    5.43
  13   5 -19    1.32    2.36
  13  -5 -18    6.13    3.71
  13   5 -18    4.07    3.58
  13  -5 -17    5.62    5.80
  13   5 -17   15.00    5.80
  13  -5 -16   27.15    6.60
  13  -5 -16   27.27    7.17
  13   5 -16   23.11    6.22
  13  -5 -15    6.42    2.04
  13  -5 -15    9.48    4.55
  13   5 -15   16.28    5.73
  13   5 -14   28.54    6.46
  13  -5 -14   31.89    6.81
  13  -5 -14   31.42    7.77
  13   5 -13    8.20    5.31
  13  -5 -13   -0.34    2.98
  13  -5 -13    6.04    3.01
  13   5 -12   21.63    6.38
  13  -5 -12   13.27    4.66
  13  -5 -12   25.56    5.61
  13  -5 -11   67.76    9.83
  13  -5 -11   69.75   11.09
  13   5 -11   60.73    9.43
  13   5 -10   21.79    6.53
  13  -5 -10   24.87    5.68
  13  -5 -10   21.61    6.69
  13   5  -9    3.10    2.39
  13  -5  -9    5.83    3.33
  13  -5  -9    4.99    3.53
  13   5  -8   11.96    4.19
  13  -5  -8    8.99    3.73
  13  -5  -8    4.19    2.48
  13  -5  -7   45.43    9.00
  13   5  -7   54.02    8.49
  13  -5  -7   41.87    8.17
  13  -5  -6  104.07   12.23
  13   5  -6  100.43   11.32
  13  -5  -6  114.94   13.18
  13   5  -5   25.64    6.12
  13  -5  -5   19.42    5.93
  13  -5  -5   28.63    6.78
  13  -5  -4   76.52   10.50
  13  -5  -4   95.99   12.38
  13   5  -4   61.67    9.29
  13   5  -4   97.72   11.54
  13  -5  -3   56.99    9.52
  13  -5  -3   63.57    9.85
  13   5  -3   64.47    9.08
  13   5  -3   56.02    8.84
  13  -5  -2  189.61   16.30
  13  -5  -2  164.59   15.66
  13   5  -2  160.51   14.48
  13   5  -2  176.74   15.43
  13   5  -1  133.56   13.41
  13  -5  -1  115.78   12.86
  13  -5  -1  137.48   14.43
  13   5  -1  107.43   11.67
  13   5   0   25.37    5.88
  13  -5   0   14.06    4.56
  13   5   0   20.12    5.06
  13  -5   0    8.43    5.48
  13   5   1  111.38   11.76
  13  -5   1  127.08   13.40
  13  -5   1  115.27   13.03
  13   5   1  141.88   13.82
  13   5   2  157.00   14.32
  13  -5   2  166.04   15.89
  13   5   2  145.39   14.13
  13  -5   3   63.17   10.11
  13   5   3   72.91    9.85
  13  -5   3   71.14   10.98
  13   5   3   64.08    9.35
  13  -5   4   74.05   10.42
  13   5   4  113.10   12.17
  13  -5   4   97.64   12.70
  13   5   4   88.36   10.91
  13   5   5   17.59    5.24
  13  -5   5   22.50    6.08
  13   5   5   19.31    5.36
  13  -5   5   19.28    6.16
  13   5   6   75.98   10.22
  13  -5   6   97.12   12.12
  13   5   6  101.33   11.32
  13  -5   6   86.89   11.53
  13   5   7   46.64    8.43
  13   5   7   45.91    8.15
  13  -5   7   37.88    7.60
  13  -5   7   32.93    6.83
  13   5   8    7.32    2.65
  13  -5   8    7.04    2.48
  13   5   8    6.00    3.04
  13  -5   8   10.82    4.32
  13   5   9    4.92    2.87
  13  -5   9    0.12    4.25
  13   5   9    3.91    3.75
  13  -5   9    2.10    4.08
  13   5  10   29.85    6.75
  13  -5  10   26.06    5.91
  13   5  10   26.31    6.47
  13  -5  10   36.35    6.81
  13   5  11   52.99    8.78
  13  -5  11   83.27   11.31
  13   5  11   63.31    9.51
  13  -5  11   52.29    9.44
  13   5  12   21.99    6.01
  13  -5  12   11.81    6.06
  13   5  12   20.38    5.87
  13  -5  12   25.05    6.39
  13   5  13   11.10    4.03
  13  -5  13    8.20    4.45
  13   5  13    5.60    3.52
  13  -5  13    1.14    3.96
  13   5  14   13.60    4.49
  13  -5  14   13.34    5.49
  13   5  14   19.99    5.94
  13  -5  15   17.17    6.34
  13   5  15    5.30    4.35
  13  -5  15   13.20    5.74
  13  -5  16   27.65    7.35
  13   5  16   23.13    5.29
  13  -5  17   18.02    5.77
  13   5  17   30.27    7.20
  13  -5  18    7.29    4.18
  13   5  18   10.60    4.83
  13  -5  19    2.94    4.44
  13   5  19    8.03    4.60
  13   5  20   21.01    5.46
  13  -6 -18   -1.47    2.80
  13   6 -18   -0.52    2.28
  13  -6 -17   -1.92    3.20
  13  -6 -17   -2.91    4.46
  13   6 -17    2.39    4.03
  13   6 -16    1.45    2.27
  13  -6 -16    2.04    2.82
  13  -6 -16    0.48    3.16
  13   6 -15    5.14    3.97
  13  -6 -15    4.92    4.68
  13  -6 -15    0.16    2.39
  13  -6 -14    2.09    2.46
  13  -6 -14    5.45    4.28
  13   6 -13   11.27    4.71
  13  -6 -13   12.30    5.50
  13  -6 -13   13.84    4.34
  13  -6 -12    7.27    5.11
  13   6 -12    4.56    3.53
  13  -6 -12    2.56    3.87
  13  -6 -11    9.15    5.24
  13   6 -11   13.95    3.32
  13  -6 -11   12.16    5.17
  13   6 -10    3.74    2.26
  13  -6 -10    1.77    3.23
  13  -6 -10    0.40    2.41
  13   6  -9    2.34    2.53
  13  -6  -9    2.72    2.14
  13  -6  -9    7.94    3.40
  13   6  -8    2.13    2.97
  13  -6  -8    1.91    3.78
  13  -6  -8    4.65    5.00
  13   6  -7    1.00    2.89
  13  -6  -7    3.64    3.26
  13  -6  -7    8.25    4.45
  13   6  -6    1.74    1.81
  13  -6  -6    4.81    4.46
  13  -6  -6   -2.03    3.99
  13   6  -5    3.57    3.32
  13  -6  -5    1.74    1.66
  13  -6  -5    5.14    4.29
  13   6  -4    1.68    1.90
  13  -6  -4   -3.69    4.60
  13  -6  -4   -0.47    2.37
  13   6  -3   -0.49    1.79
  13  -6  -3    8.16    4.34
  13   6  -3    7.31    3.76
  13  -6  -3   13.01    4.56
  13   6  -2    8.41    3.27
  13  -6  -2   13.60    5.73
  13   6  -2   13.44    4.72
  13  -6  -2    5.29    4.71
  13   6  -1   13.62    5.04
  13  -6  -1   12.41    5.02
  13   6  -1    9.56    3.95
  13  -6  -1   16.25    6.15
  13   6   0    2.14    2.53
  13  -6   0    0.44    2.94
  13   6   0   -0.51    2.06
  13  -6   0    0.54    3.50
  13   6   1   16.34    5.60
  13  -6   1    6.23    4.28
  13  -6   1    6.85    2.81
  13   6   2   12.67    5.46
  13  -6   2    9.76    5.49
  13   6   2    7.13    3.00
  13  -6   2    9.48    4.31
  13   6   3   15.15    4.37
  13  -6   3   12.79    5.40
  13   6   3   16.18    4.71
  13  -6   3   11.21    3.86
  13   6   4   -1.94    3.24
  13  -6   4   -1.84    2.73
  13   6   4    1.29    2.68
  13  -6   4   -0.86    2.16
  13   6   5   -1.28    3.15
  13  -6   5    0.54    3.03
  13   6   5    0.72    1.54
  13  -6   5   -2.45    3.29
  13   6   6    0.65    3.63
  13  -6   6    6.54    4.49
  13   6   6    6.12    3.74
  13  -6   6    0.66    3.21
  13   6   7    5.19    2.06
  13  -6   7    1.15    2.51
  13   6   7    4.40    2.74
  13  -6   7    5.28    4.68
  13   6   8    2.45    2.04
  13  -6   8    6.54    3.69
  13   6   8    4.28    2.17
  13  -6   8    8.93    3.76
  13   6   9    4.08    3.61
  13  -6   9    9.50    4.58
  13   6   9    0.55    1.50
  13  -6   9    8.25    5.82
  13   6  10   11.13    4.52
  13  -6  10    4.57    2.15
  13   6  10    1.61    1.80
  13  -6  10    8.93    4.99
  13   6  11    6.86    4.02
  13  -6  11    7.25    3.71
  13   6  11   17.08    5.16
  13  -6  11    6.15    2.31
  13   6  12    2.41    3.57
  13  -6  12   -0.03    2.14
  13   6  12    1.06    2.09
  13  -6  12    1.00    3.00
  13   6  13    8.80    5.58
  13  -6  13   14.61    5.86
  13   6  13    7.92    3.52
  13  -6  13    5.40    3.48
  13   6  14    7.18    3.50
  13  -6  14    3.00    3.81
  13   6  14    7.16    2.72
  13  -6  14   12.21    2.65
  13  -6  15    4.67    3.68
  13   6  15    1.43    1.61
  13  -6  15   -2.79    4.04
  13  -6  16    3.01    4.00
  13   6  16    0.37    3.27
  13  -6  16   -5.72    5.82
  13  -6  17   -2.08    2.81
  13   6  17    5.48    4.14
  13  -6  17   -0.45    5.25
  13   6  18    3.44    1.98
  13  -6  18    1.12    4.02
  13   7 -15   10.50    4.97
  13  -7 -15    9.94    4.51
  13  -7 -15    7.31    3.91
  13   7 -14   12.85    5.25
  13  -7 -14    8.71    3.92
  13  -7 -14   13.34    5.77
  13   7 -13    2.84    2.01
  13  -7 -13    4.97    2.24
  13  -7 -13    4.53    3.72
  13   7 -12    5.22    3.72
  13  -7 -12    6.91    4.14
  13  -7 -12    7.74    5.69
  13   7 -11    6.68    3.65
  13  -7 -11   10.85    4.12
  13  -7 -11   18.96    6.45
  13  -7 -10   89.50   11.67
  13   7 -10   81.11   11.25
  13  -7  -9    8.05    4.39
  13   7  -9    4.32    3.56
  13  -7  -9   15.62    5.43
  13  -7  -8    7.07    2.09
  13  -7  -8   14.17    5.21
  13  -7  -7   10.92    4.61
  13   7  -7   16.03    6.10
  13  -7  -7    6.99    4.31
  13  -7  -6   45.90    8.90
  13  -7  -6   51.05   10.00
  13   7  -6   65.91   10.38
  13  -7  -5    3.10    3.59
  13   7  -5    7.57    3.56
  13  -7  -5    1.98    2.69
  13  -7  -4   32.41    7.51
  13   7  -4   45.04    8.06
  13  -7  -4   43.68    8.49
  13   7  -3   11.77    4.37
  13  -7  -3    4.30    3.04
  13  -7  -3   15.65    6.17
  13   7  -2   27.33    6.52
  13  -7  -2   37.85    6.96
  13   7  -2   34.87    8.11
  13  -7  -2   20.33    6.03
  13   7  -1   26.44    7.18
  13  -7  -1    6.15    3.05
  13   7  -1    9.17    3.82
  13  -7  -1   33.13    7.83
  13   7   0   16.88    5.42
  13  -7   0   10.09    4.72
  13   7   0    5.70    3.85
  13  -7   0   17.86    6.76
  13   7   1   13.58    5.18
  13  -7   1   11.30    3.93
  13  -7   1   13.73    6.02
  13   7   1   12.00    4.04
  13   7   2   16.61    4.79
  13  -7   2   23.00    5.75
  13  -7   2   25.69    6.94
  13   7   2   32.63    6.67
  13   7   3   21.42    6.34
  13  -7   3   12.00    3.92
  13  -7   3   26.30    7.95
  13   7   3   23.65    6.01
  13   7   4   28.62    6.47
  13  -7   4   20.21    5.97
  13   7   4   47.23    8.58
  13  -7   4   40.04    8.64
  13   7   5    6.60    3.94
  13  -7   5    3.70    3.50
  13  -7   5    9.44    4.44
  13   7   5    7.64    4.62
  13   7   6   61.18    9.46
  13  -7   6   45.77    8.85
  13   7   6   57.71    9.06
  13  -7   6   53.05   10.17
  13   7   7    8.81    2.99
  13  -7   7   24.25    7.14
  13  -7   7   12.24    5.93
  13   7   7   12.43    4.51
  13   7   8   11.98    4.43
  13  -7   8   12.28    5.49
  13  -7   8   13.28    3.95
  13   7   8   10.46    3.98
  13   7   9    5.99    2.49
  13  -7   9    6.07    2.26
  13  -7   9    5.81    2.69
  13   7   9   12.29    4.00
  13   7  10   72.53   11.09
  13  -7  10   54.18    9.66
  13   7  10   69.11   10.11
  13  -7  10   74.35   11.80
  13   7  11   23.65    7.11
  13  -7  11   23.58    6.20
  13  -7  11   11.74    5.54
  13   7  11   18.53    5.50
  13   7  12    7.41    3.81
  13  -7  12    0.75    2.68
  13  -7  12    7.68    4.10
  13   7  12    5.28    3.62
  13   7  13    4.81    2.77
  13  -7  13    5.03    5.42
  13  -7  13    2.73    5.36
  13   7  13    1.90    2.64
  13   7  14   17.89    6.02
  13  -7  14   15.21    6.51
  13   7  14    3.71    3.55
  13  -7  15   13.75    6.33
  13   7  15   10.70    4.22
  13   8 -11    3.35    2.47
  13  -8 -11    4.15    2.98
  13  -8 -11    9.58    3.74
  13   8 -10    2.72    2.33
  13  -8 -10    4.22    3.12
  13  -8 -10    2.80    2.65
  13   8  -9    2.41    2.72
  13  -8  -9   13.84    6.22
  13  -8  -9    4.70    5.13
  13   8  -8    6.75    3.67
  13  -8  -8    6.59    4.84
  13  -8  -8    1.91    3.74
  13  -8  -7    0.41    3.21
  13   8  -7   10.35    3.74
  13  -8  -7    4.63    3.63
  13  -8  -6    4.83    2.71
  13   8  -6    9.66    4.75
  13  -8  -6    6.89    4.16
  13  -8  -5   -0.47    3.21
  13   8  -5    2.68    4.13
  13  -8  -5    6.08    3.85
  13  -8  -4    1.77    1.99
  13   8  -4    0.13    1.81
 -13   8  -4    2.02    2.89
  13  -8  -4   -1.32    2.49
  13  -8  -3    4.51    2.38
  13   8  -3    1.59    2.86
  13  -8  -3    3.97    3.60
  13  -8  -2    7.27    4.54
  13   8  -2    2.59    2.53
  13  -8  -2    0.16    3.08
  13  -8  -1    0.67    3.89
  13   8  -1    3.94    3.05
  13  -8  -1    2.01    4.47
  13  -8   0    1.75    5.45
  13   8   0    3.58    2.72
  13  -8   0    0.84    5.67
  13   8   0    1.92    1.89
  13  -8   1    0.59    3.07
  13   8   1    1.47    2.61
  13  -8   1   -1.61    3.99
  13   8   1    2.47    4.23
  13  -8   2    0.25    2.98
  13   8   2    6.32    4.58
  13  -8   2    4.81    3.80
  13   8   2    5.46    3.04
  13  -8   3    2.07    3.39
  13   8   3    3.42    4.05
  13  -8   3    1.50    3.55
  13   8   3    0.03    2.51
  13  -8   4    4.93    3.69
  13   8   4   -0.04    2.18
  13  -8   4    1.79    3.86
  13   8   4    0.09    2.14
  13  -8   5    5.96    3.79
  13   8   5    2.59    3.56
  13  -8   5    5.18    4.99
  13   8   5    4.19    1.68
  13   8   6    7.56    3.98
  13  -8   6    2.54    3.38
  13  -8   6    6.78    4.29
  13   8   6    4.88    3.44
  13   8   7   13.33    4.58
  13  -8   7    9.48    5.48
  13  -8   7    1.13    2.96
  13   8   7    8.85    5.28
  13   8   8    3.07    1.82
  13  -8   8    2.37    3.44
  13  -8   8    5.60    3.21
  13   8   8    1.64    2.55
  13   8   9    2.85    2.46
  13  -8   9   -0.89    2.52
  13   8   9    3.85    2.71
  13   8  10   -3.30    4.43
  13  -8  10   -3.40    3.14
  13   8  10   -0.83    2.67
  13   8  11    1.75    2.51
  13  -8  11    6.30    3.02
  13   8  11    7.51    3.57
  13  -9  -3    5.98    3.08
  13   9  -3    6.69    4.70
 -13   9  -3    5.86    5.37
  13  -9  -3    2.27    2.82
  13  -9  -2   12.78    5.99
  13   9  -2    9.72    5.02
 -13   9  -2    3.75    4.32
  13  -9  -2   -1.20    3.13
  13  -9  -1   -1.96    3.22
  13   9  -1    7.18    4.93
 -13   9  -1   -0.17    2.16
  13  -9  -1    6.49    4.99
  13  -9   0   12.02    4.70
  13   9   0   14.63    5.00
 -13   9   0    4.35    3.64
  13  -9   0   10.77    5.91
  13  -9   1   -1.52    3.27
  13   9   1    4.47    3.37
 -13   9   1    5.75    5.66
  13  -9   1    4.80    4.68
  13  -9   2    3.51    4.25
  13   9   2    6.96    2.89
 -13   9   2    5.33    3.34
  13  -9   2    2.63    4.84
  13   9   2   -0.45    4.50
  13  -9   3   13.14    6.40
  13   9   3   11.01    6.31
 -13   9   3    5.20    4.13
  13  -9   3    3.94    3.13
  13   9   3    0.80    2.48
  14   0 -21    4.12    2.85
  14   0 -20   25.20    6.86
  14   0 -19   10.97    5.49
  14   0 -18    1.53    2.95
  14   0 -17    3.76    2.45
  14   0 -16   40.41    8.06
  14   0 -15   14.43    5.01
  14   0 -14   38.16    7.13
  14   0 -13   64.29    9.98
  14   0 -12  124.65   13.42
  14   0 -11   16.68    5.30
  14   0 -10  138.10   13.41
  14   0 -10  148.41   14.53
  14   0  -9   15.75    4.58
  14   0  -9   13.74    4.84
  14   0  -8   30.42    6.54
  14   0  -8   23.83    5.44
  14   0  -7  206.28   16.33
  14   0  -7  177.20   16.03
  14   0  -6  304.99   19.56
  14   0  -6  270.75   19.51
  14   0  -5  122.02   12.74
  14   0  -5  122.81   13.05
  14   0  -4  236.58   17.10
  14   0  -4  204.03   16.80
  14   0  -3  109.68   11.72
  14   0  -3   99.66   11.43
  14   0  -2   55.74    8.95
  14   0  -2   59.16    9.11
  14   0  -1  103.11   11.14
  14   0  -1  105.86   12.28
  14   0   0  178.90   14.91
  14   0   0  148.55   13.85
  14   0   0  174.10   14.44
  14   0   1  103.40   11.65
  14   0   1  121.49   12.55
  14   0   1  102.40   11.43
  14   0   2   54.85    8.63
  14   0   2   75.68   10.01
  14   0   2   64.81    8.72
  14   0   3   95.48   11.49
  14   0   3  106.81   12.14
  14   0   3  103.56   11.27
  14   0   4  221.15   16.62
  14   0   4  202.85   16.99
  14   0   4  228.28   16.52
  14   0   5  122.90   12.57
  14   0   5  133.28   12.61
  14   0   6  287.85   19.41
  14   0   6  321.62   19.50
  14   0   7  159.58   14.25
  14   0   8   24.25    6.20
  14   0   9   28.59    6.58
  14   0  10  161.96   14.85
  14   0  11   14.26    5.42
  14   0  12  132.65   13.74
  14   0  13  115.02   12.89
  14   0  14   35.08    7.02
  14   0  15   17.31    5.04
  14   0  16   56.26    9.35
  14   0  17    6.28    4.09
  14   0  18    1.23    3.31
  14   0  19    5.72    4.57
  14   0  20   39.30    7.93
  14   0  21   48.78    8.83
  14   0  22   24.52    6.92
  14   0  23    7.95    4.03
  14  -1 -22    5.93    3.94
  14  -1 -21   -3.82    3.54
  14  -1 -20    0.59    2.08
  14  -1 -19    4.88    3.19
  14  -1 -18    3.09    1.97
  14  -1 -17    0.37    2.97
  14   1 -16   17.09    6.85
  14  -1 -16    6.71    3.13
  14   1 -15    9.79    3.43
  14  -1 -15   16.69    6.35
  14   1 -14    6.24    2.84
  14  -1 -14    2.68    3.52
  14   1 -13    2.74    3.42
  14  -1 -13    3.42    4.11
  14   1 -12    0.29    2.48
  14  -1 -12    2.88    3.42
  14  -1 -11   -3.01    3.69
  14  -1 -11    3.99    2.65
  14   1 -11   -1.83    3.12
  14  -1 -10   10.61    4.25
  14  -1 -10    6.02    3.44
  14   1 -10    4.09    2.98
  14   1 -10    6.81    3.15
  14  -1  -9   26.52    6.03
  14   1  -9   15.74    4.85
  14  -1  -9   24.55    5.99
  14   1  -9   22.25    5.63
  14   1  -9   28.05    6.55
  14  -1  -8    8.41    2.93
  14   1  -8    1.98    1.91
  14  -1  -8    6.61    3.81
  14   1  -8    6.73    4.30
  14   1  -8   11.85    3.99
  14  -1  -7   40.99    7.43
  14   1  -7   37.01    7.28
  14  -1  -7   32.07    7.09
  14   1  -7   37.33    6.69
  14   1  -7   37.70    7.09
  14  -1  -6    8.04    4.63
  14   1  -6    7.92    4.08
  14  -1  -6    2.01    3.26
  14   1  -6    2.57    3.02
  14   1  -6    3.56    3.82
  14  -1  -5    2.15    1.61
  14   1  -5    1.97    2.68
  14  -1  -5    0.41    1.90
  14   1  -5    0.71    2.40
  14   1  -5    3.37    3.12
  14  -1  -4   12.83    3.56
  14   1  -4    9.80    3.36
  14  -1  -4   15.89    4.89
  14   1  -4    9.83    2.93
  14  -1  -3   21.38    5.21
  14  -1  -3   17.42    5.65
  14   1  -3   16.25    4.62
  14   1  -3   12.89    5.41
  14   1  -3   16.23    5.01
  14  -1  -2   52.15    9.07
  14   1  -2   52.08    7.88
  14  -1  -2   49.16    8.22
  14   1  -2   61.71    9.09
  14   1  -2   53.49    8.30
  14  -1  -1   61.18    8.69
  14   1  -1   70.46    9.58
  14  -1  -1   61.16    9.30
  14   1  -1   68.64   10.14
  14   1  -1   65.21    8.92
  14  -1   0   48.03    7.53
  14   1   0   66.78    8.93
  14  -1   0   45.65    8.06
  14   1   0   52.57    7.89
  14   1   0   49.64    7.50
  14  -1   1   58.89    8.66
  14   1   1   71.89    9.69
  14  -1   1   61.19    9.71
  14   1   1   76.06   10.34
  14   1   1   67.53    9.21
  14  -1   2   53.64    9.07
  14   1   2   68.24    9.12
  14  -1   2   54.03    8.81
  14   1   2   52.91    8.79
  14   1   2   57.92    8.21
  14   1   3   12.79    4.55
  14  -1   3   13.69    4.69
  14  -1   3   10.63    3.87
  14   1   3   15.71    4.87
  14   1   3   16.85    4.87
  14   1   4   16.39    4.83
  14  -1   4   25.81    5.97
  14  -1   4   22.16    6.03
  14   1   4   14.50    4.00
  14   1   5    1.81    2.56
  14  -1   5   -0.23    2.20
  14  -1   5    0.58    1.83
  14   1   5   -0.27    2.07
  14   1   6    5.95    3.51
  14  -1   6    6.93    3.46
  14   1   6    2.82    2.60
  14   1   7   41.60    7.53
  14  -1   7   35.89    7.18
  14   1   7   51.65    7.94
  14   1   8    3.59    2.14
  14  -1   8    3.34    3.31
  14   1   8    3.97    2.79
  14   1   9   21.57    6.20
  14  -1   9   27.35    6.56
  14   1   9   19.55    5.47
  14   1  10   -0.45    1.62
  14  -1  10    8.05    2.68
  14   1  10    7.81    4.26
  14   1  11    1.99    2.80
  14  -1  11    1.67    3.12
  14   1  11    3.02    2.86
  14   1  12   -0.54    2.39
  14  -1  12    4.65    3.33
  14   1  13    2.00    2.24
  14  -1  13    0.84    3.36
  14   1  14    2.51    1.85
  14  -1  14    7.78    3.79
  14   1  15    8.21    3.57
  14  -1  15   13.69    5.77
  14   1  16    5.16    3.74
  14  -1  16    8.29    4.67
  14   1  17   -0.69    2.63
  14  -1  17    1.11    3.92
  14   1  18   17.97    5.97
  14  -1  18    8.94    4.52
  14   1  19   10.76    4.77
  14  -1  19    4.40    4.10
  14   1  20    4.50    3.26
  14  -1  20    1.12    3.30
  14   1  21   -2.61    3.06
  14  -1  21    6.98    3.61
  14   1  22    4.53    3.56
  14  -1  22    1.81    2.60
  14  -2 -22   12.37    3.73
  14  -2 -21   16.53    5.50
  14  -2 -20   23.65    6.55
  14  -2 -19    5.70    2.25
  14  -2 -18    4.58    3.32
  14  -2 -17   17.38    5.88
  14  -2 -16   84.42   11.27
  14  -2 -15   19.91    5.27
  14  -2 -14   63.92    9.78
  14   2 -14   72.04   10.36
  14  -2 -13   22.91    6.52
  14  -2 -13   18.34    6.39
  14   2 -13   23.77    6.48
  14  -2 -12   42.85    7.71
  14  -2 -12   48.43    9.04
  14   2 -12   66.10    9.13
  14  -2 -11   11.11    4.54
  14  -2 -11    9.39    4.88
  14   2 -11    2.67    3.28
  14   2 -11    7.23    3.41
  14  -2 -10   50.88    8.98
  14  -2 -10   53.71    9.09
  14   2 -10   55.41    9.26
  14  -2  -9  105.30   12.49
  14  -2  -9  100.55   11.73
  14   2  -9   93.60   11.25
  14   2  -9   99.66   11.32
  14  -2  -8   10.18    3.69
  14   2  -8   23.15    6.03
  14  -2  -8   24.87    6.33
  14   2  -8   16.74    5.11
  14   2  -8   25.29    5.53
  14  -2  -7   18.41    5.21
  14  -2  -7   16.13    4.49
  14   2  -7   17.25    4.72
  14   2  -7   18.72    4.68
  14   2  -7   29.98    6.21
  14  -2  -6   83.01   10.68
  14  -2  -6   86.53   11.05
  14   2  -6  105.96   11.47
  14   2  -6  104.39   11.24
  14  -2  -5   86.04   10.79
  14   2  -5   64.56    9.76
  14  -2  -5   88.53   11.68
  14   2  -5   83.59   10.74
  14   2  -5   88.99   10.64
  14  -2  -4   95.09   11.51
  14   2  -4  112.54   11.78
  14  -2  -4  128.67   13.69
  14   2  -4  112.06   12.51
  14   2  -4  113.04   11.75
  14  -2  -3   23.38    5.47
  14  -2  -3   18.22    5.26
  14   2  -3   30.39    6.72
  14   2  -3   30.14    6.01
  14   2  -3   26.37    5.76
  14  -2  -2   13.17    5.37
  14  -2  -2   20.29    5.32
  14   2  -2    5.67    3.03
  14   2  -2   12.64    4.72
  14   2  -2    9.84    3.75
  14   2  -1   15.11    4.75
  14  -2  -1   15.45    5.16
  14  -2  -1   14.23    5.26
  14   2  -1    9.65    3.96
  14   2  -1   11.52    3.72
  14  -2   0  219.63   17.48
  14   2   0  227.86   16.58
  14  -2   0  234.23   18.23
  14   2   0  234.63   17.58
  14   2   0  211.23   16.31
  14   2   1   16.80    4.19
  14  -2   1   14.83    5.06
  14  -2   1   17.03    4.84
  14   2   1   14.90    4.83
  14   2   1   18.89    5.30
  14   2   2   11.28    4.00
  14  -2   2   14.09    3.97
  14  -2   2   15.73    5.04
  14   2   2   13.28    4.84
  14   2   2   13.02    4.42
  14   2   3   24.67    5.24
  14  -2   3   28.24    6.76
  14  -2   3   21.40    6.62
  14   2   3   29.01    6.99
  14  -2   4  105.67   12.20
  14   2   4  110.65   11.68
  14  -2   4  120.97   13.03
  14   2   4  107.50   11.85
  14  -2   5   76.03   10.37
  14   2   5   79.77   10.56
  14  -2   5   83.42   10.86
  14   2   5   85.66   10.34
  14  -2   6   76.24   10.39
  14   2   6   86.84   10.62
  14  -2   6   64.86    9.66
  14   2   6   87.47   10.28
  14   2   7   22.85    5.96
  14  -2   7   25.23    6.29
  14  -2   7   19.52    5.53
  14   2   7   21.58    5.87
  14   2   8   26.32    6.46
  14  -2   8   25.76    6.25
  14   2   8   36.69    6.63
  14  -2   9   89.87   10.81
  14   2   9  101.39   11.54
  14   2   9   87.87   10.83
  14  -2  10   57.47    9.36
  14   2  10   51.28    8.57
  14   2  10   61.95    9.03
  14   2  11    6.64    3.37
  14   2  11   -0.01    2.87
  14  -2  12   71.00   10.05
  14   2  12   63.78    9.73
  14   2  12   59.68    8.70
  14   2  13   14.48    3.79
  14  -2  13   14.41    5.38
  14  -2  14   78.07   11.48
  14   2  14   74.23   10.17
  14   2  15   24.91    6.30
  14  -2  15   32.59    7.10
  14  -2  16   63.21    9.99
  14   2  16   57.80    9.39
  14   2  17   11.23    3.88
  14  -2  17   28.79    6.74
  14   2  18    1.45    2.70
  14  -2  18   -0.47    2.82
  14   2  19    2.73    2.23
  14  -2  19    1.49    2.03
  14   2  20   38.60    8.44
  14  -2  20   31.14    7.65
  14   2  21   25.64    7.09
  14  -2  21   15.20    6.43
  14   2  22   15.57    5.03
  14  -2  22   17.89    6.01
  14  -3 -21   -0.75    3.01
  14  -3 -20   10.27    5.74
  14  -3 -19   -1.73    2.41
  14  -3 -18    5.01    4.52
  14   3 -18   -0.24    2.59
  14  -3 -17   -0.61    3.78
  14   3 -17    6.50    3.84
  14  -3 -16   13.37    5.32
  14   3 -16   13.31    4.74
  14  -3 -15    6.07    4.03
  14   3 -15    6.70    3.85
  14  -3 -14    0.33    2.54
  14   3 -14    3.47    2.88
  14  -3 -13    5.73    2.74
  14  -3 -13   10.87    4.47
  14   3 -13    8.19    4.42
  14  -3 -12    1.91    2.07
  14  -3 -12    0.79    2.44
  14   3 -12    2.37    2.38
  14  -3 -11    5.44    3.94
  14  -3 -11    8.02    3.67
  14   3 -11    7.00    4.34
  14  -3 -10   49.24    8.75
  14   3 -10   55.53    8.56
  14  -3 -10   48.51    8.28
  14  -3  -9    4.46    3.41
  14  -3  -9    8.45    4.35
  14   3  -9    4.25    1.61
  14  -3  -8   -1.10    3.75
  14  -3  -8   -0.93    1.79
  14   3  -8    2.40    3.17
  14  -3  -7    4.76    2.21
  14  -3  -7    1.81    3.69
  14   3  -7    2.82    3.18
  14   3  -7    2.47    2.28
  14  -3  -6   13.93    4.74
  14  -3  -6    8.30    3.47
  14   3  -6    6.06    1.95
  14   3  -6    7.66    3.44
  14   3  -5   22.32    6.36
  14  -3  -5   14.25    4.88
  14   3  -5   32.16    8.70
  14  -3  -5   25.36    5.98
  14   3  -5   18.51    4.87
  14   3  -4    1.36    3.19
  14   3  -4    0.40    2.09
  14  -3  -4    4.94    4.14
  14  -3  -4    0.42    1.64
  14   3  -4    3.73    3.93
  14   3  -3   26.09    5.89
  14   3  -3   25.27    5.70
  14  -3  -3   28.76    6.30
  14  -3  -3   19.42    5.25
  14   3  -3   18.41    5.78
  14  -3  -2  155.59   14.73
  14  -3  -2  171.93   15.99
  14   3  -2  127.29   12.86
  14   3  -2  156.47   14.48
  14   3  -2  144.32   13.70
  14   3  -1   33.24    6.23
  14   3  -1   29.62    6.52
  14  -3  -1   24.92    5.61
  14  -3  -1   29.52    7.23
  14   3  -1   31.10    7.16
  14  -3   0  104.25   12.21
  14  -3   0  149.41   14.78
  14   3   0  123.95   12.62
  14   3   0  127.48   12.97
  14   3   0  143.45   13.58
  14   3   1   27.01    5.76
  14   3   1   25.76    6.47
  14  -3   1   21.36    5.74
  14  -3   1   25.94    6.43
  14   3   1   34.21    7.40
  14  -3   2  138.78   13.81
  14  -3   2  136.34   14.32
  14   3   2  131.88   12.87
  14   3   2  137.16   13.30
  14   3   3   21.04    5.90
  14   3   3   23.32    5.28
  14  -3   3   18.58    5.63
  14  -3   3   22.44    6.74
  14   3   4    3.42    2.11
  14   3   4   -1.42    3.31
  14  -3   4   -0.04    2.99
  14  -3   4    7.74    2.57
  14   3   5   13.59    4.71
  14   3   5   23.13    6.05
  14  -3   5   33.72    7.48
  14  -3   5   15.02    5.38
  14   3   6   10.35    4.51
  14   3   6   11.18    4.48
  14  -3   6    6.88    4.84
  14  -3   6    9.34    3.86
  14   3   7    3.16    3.04
  14   3   7    3.62    2.22
  14  -3   7    3.45    3.66
  14  -3   7    2.49    2.37
  14   3   8   -1.68    2.47
  14   3   8   -0.02    2.11
  14  -3   8   -0.09    3.25
  14  -3   8   -0.63    2.18
  14   3   9    3.90    1.75
  14   3   9    5.11    2.03
  14  -3   9    7.92    2.91
  14  -3   9   11.23    5.40
  14  -3  10   43.82    8.64
  14   3  10   48.70    8.22
  14   3  10   46.43    8.54
  14   3  11    4.77    2.47
  14   3  11    2.10    2.61
  14   3  12    6.37    4.37
  14   3  12    4.05    3.19
  14  -3  12    0.25    3.62
  14   3  13    5.42    2.48
  14  -3  13    4.01    2.80
  14   3  14    8.92    4.38
  14  -3  14    6.73    3.45
  14   3  15   16.69    4.62
  14  -3  15    8.06    2.70
  14   3  16   16.23    6.02
  14  -3  16   19.52    5.76
  14   3  17    8.37    4.94
  14  -3  17   -3.12    4.05
  14   3  18    6.07    3.07
  14  -3  18    5.91    4.78
  14   3  19    3.70    2.91
  14  -3  19   -2.61    3.88
  14   3  20    7.65    4.19
  14  -3  20    5.43    3.61
  14   3  21    0.44    2.98
  14  -3  21    4.96    4.03
  14  -4 -20   41.37    8.00
  14   4 -20   44.30   10.08
  14  -4 -19    3.57    3.90
  14   4 -19   -1.35    3.22
  14  -4 -18   12.47    4.87
  14   4 -18    8.10    3.87
  14  -4 -17   49.32    9.22
  14   4 -17   28.87    6.05
  14  -4 -16   32.39    7.27
  14   4 -16   29.06    7.20
  14  -4 -15   22.85    6.26
  14  -4 -15   19.04    5.55
  14   4 -15   10.36    4.62
  14  -4 -14   42.11    9.01
  14  -4 -14   39.88    8.53
  14   4 -14   48.28    8.32
  14  -4 -13   12.60    5.97
  14  -4 -13    6.96    2.44
  14   4 -13    9.08    4.08
  14  -4 -12   30.81    7.31
  14  -4 -12   37.94    8.94
  14   4 -12   25.30    6.17
  14  -4 -11   48.39    9.31
  14   4 -11   59.46    9.02
  14  -4 -11   77.32   11.10
  14  -4 -10   31.79    6.87
  14  -4 -10   25.05    5.71
  14   4 -10   38.39    7.14
  14  -4  -9   70.87   10.23
  14   4  -9   83.30   11.20
  14  -4  -9   62.88   10.26
  14   4  -8   13.69    4.49
  14  -4  -8   20.87    5.64
  14  -4  -8   22.24    5.28
  14   4  -7    8.13    3.23
  14  -4  -7    9.49    3.79
  14  -4  -7   10.43    4.36
  14  -4  -6   92.94   12.27
  14  -4  -6   65.75   10.16
  14   4  -6   80.00   10.44
  14   4  -5   37.80    7.34
  14   4  -5   14.79    3.52
  14  -4  -5   25.26    6.32
  14  -4  -5   29.95    6.53
  14  -4  -4   72.05   10.86
  14  -4  -4   54.63    9.14
  14   4  -4   91.26   10.73
  14   4  -4   92.15   11.38
  14  -4  -3   63.64    9.91
  14  -4  -3   74.31   10.42
  14   4  -3   61.44    8.62
  14   4  -3   57.31    9.28
  14   4  -2   12.60    3.25
  14   4  -2   12.45    4.82
  14  -4  -2   17.73    5.83
  14  -4  -2   18.97    5.77
  14   4  -1   36.47    7.15
  14  -4  -1   25.37    6.05
  14  -4  -1   25.87    6.75
  14   4  -1   38.01    7.28
  14  -4   0  533.45   27.60
  14  -4   0  480.68   27.06
  14   4   0  502.44   25.65
  14   4   0  548.82   26.89
  14   4   1   35.97    6.58
  14   4   1   28.08    6.58
  14  -4   1   29.06    6.15
  14   4   1   26.45    6.67
  14   4   2   15.97    4.48
  14   4   2   13.00    4.46
  14  -4   2    7.16    3.61
  14  -4   2   21.85    5.95
  14  -4   3   50.38    8.43
  14  -4   3   50.95    8.85
  14   4   3   50.08    8.08
  14   4   3   54.45    9.02
  14  -4   4   81.94   11.46
  14  -4   4   73.47   10.76
  14   4   4   71.14   10.29
  14   4   4   76.34   10.04
  14   4   5   22.42    6.20
  14   4   5   26.73    6.76
  14  -4   5   22.09    6.03
  14  -4   5   17.12    4.55
  14  -4   6   92.97   11.84
  14  -4   6   97.65   12.81
  14   4   6   93.40   11.45
  14   4   6   81.32   10.40
  14   4   7    3.65    2.94
  14  -4   7    2.71    2.76
  14  -4   7    3.71    2.69
  14   4   8   25.61    6.01
  14   4   8   24.69    6.49
  14  -4   8   25.93    5.89
  14  -4   8   25.19    6.09
  14   4   9   73.31    9.80
  14  -4   9   79.02   11.05
  14  -4   9   64.56   10.06
  14   4   9   79.15   10.50
  14   4  10   28.46    6.65
  14   4  10   36.94    6.67
  14  -4  10   25.76    6.63
  14  -4  10   31.99    7.91
  14   4  11   69.41   10.28
  14   4  11   52.17    8.47
  14  -4  11   62.98    9.73
  14  -4  11   57.57    9.87
  14   4  12   48.35    8.38
  14   4  12   40.27    7.75
  14  -4  12   52.33    8.65
  14  -4  12   60.89   10.19
  14   4  13    6.83    4.29
  14  -4  13   10.27    5.22
  14   4  14   42.71    8.49
  14  -4  14   27.48    6.70
  14   4  15   11.38    4.26
  14  -4  15   12.94    5.51
  14   4  16   42.84    8.03
  14  -4  16   34.05    7.39
  14   4  17   49.19    8.81
  14  -4  17   50.59    9.64
  14   4  18   12.58    5.00
  14  -4  18    1.77    2.98
  14   4  19    0.82    2.30
  14  -4  19   -1.27    3.57
  14   4  20   41.47    9.07
  14  -4  20   27.01    7.13
  14  -5 -18   -1.47    2.52
  14   5 -18    2.20    3.17
  14  -5 -17    4.40    3.30
  14   5 -17    0.58    1.83
  14  -5 -16   10.16    4.72
  14   5 -16   10.73    4.87
  14  -5 -16    2.26    3.70
  14  -5 -15   -3.11    2.86
  14  -5 -15    4.59    3.72
  14   5 -15    2.54    3.45
  14  -5 -14    8.86    5.21
  14  -5 -14    2.66    3.64
  14   5 -14    6.53    4.23
  14  -5 -13   10.91    4.21
  14  -5 -13    6.35    4.48
  14   5 -13    5.03    2.60
  14   5 -12   16.82    6.65
  14  -5 -12   22.32    6.37
  14  -5 -12   17.45    5.01
  14   5 -11    9.06    3.54
  14  -5 -11    8.63    5.04
  14  -5 -11    5.68    3.12
  14   5 -10   17.58    5.95
  14  -5 -10   13.26    4.86
  14  -5 -10    7.52    2.51
  14   5  -9   16.82    5.99
  14  -5  -9    9.78    4.45
  14  -5  -9   15.22    5.83
  14   5  -8    2.60    1.99
  14  -5  -8    1.58    1.53
  14  -5  -8    6.65    3.71
  14   5  -7    5.30    2.83
  14  -5  -7   14.33    5.03
  14  -5  -7   16.42    6.10
  14   5  -6    4.68    4.36
  14  -5  -6    1.65    3.45
  14  -5  -6   -2.24    4.09
  14   5  -5    4.17    3.19
  14  -5  -5    2.71    2.46
  14  -5  -5    3.97    3.41
  14   5  -4    7.49    3.01
  14  -5  -4   19.31    5.30
  14   5  -4    9.98    3.67
  14  -5  -4   24.44    7.61
  14   5  -3    4.33    2.35
  14  -5  -3   14.39    4.33
  14   5  -3   10.26    3.06
  14  -5  -3    8.98    3.25
  14   5  -2    7.64    4.06
  14  -5  -2   11.19    4.56
  14   5  -2    8.56    3.34
  14  -5  -2    2.28    2.35
  14  -5  -1   37.27    8.20
  14   5  -1   37.98    7.43
  14  -5  -1   40.59    8.31
  14   5  -1   50.17    8.52
  14  -5   0   87.19   11.81
  14  -5   0   97.33   12.81
  14   5   0   95.30   11.38
  14   5   0  104.29   11.33
  14   5   1   41.08    7.95
  14  -5   1   40.19    7.54
  14  -5   1   17.62    4.83
  14   5   1   47.44    8.28
  14   5   2    8.96    4.81
  14  -5   2    6.84    3.54
  14   5   2   15.24    4.70
  14  -5   2    7.06    3.10
  14   5   3    8.19    4.31
  14  -5   3    3.05    1.74
  14   5   3    4.24    3.36
  14  -5   3    7.74    5.19
  14   5   4   13.70    4.76
  14  -5   4    6.10    2.96
  14   5   4   14.98    4.88
  14  -5   4   19.00    5.69
  14   5   5   -0.01    2.47
  14  -5   5   -1.15    2.16
  14   5   5    2.63    2.56
  14  -5   5   -1.23    3.54
  14   5   6   -0.24    2.13
  14  -5   6   -4.26    3.61
  14   5   6   -0.43    2.03
  14  -5   6    1.97    3.89
  14   5   7    3.78    3.57
  14  -5   7   13.14    4.31
  14   5   7   14.61    3.92
  14  -5   7   11.62    3.83
  14   5   8    6.53    3.92
  14  -5   8   -0.14    2.37
  14   5   8    7.32    3.76
  14  -5   8    3.71    3.65
  14   5   9   15.07    5.25
  14  -5   9    9.37    4.34
  14   5   9    9.35    3.29
  14  -5   9   17.96    5.98
  14   5  10   19.01    6.26
  14  -5  10   14.99    5.81
  14   5  10   11.68    4.59
  14  -5  10   11.50    5.86
  14   5  11   17.52    5.70
  14  -5  11    8.06    4.23
  14   5  11   16.06    5.38
  14  -5  11   10.82    5.40
  14   5  12   14.11    5.65
  14  -5  12   16.07    5.28
  14   5  12   17.06    4.95
  14  -5  12   19.55    5.97
  14   5  13    4.12    3.87
  14  -5  13    9.20    4.37
  14   5  13    4.02    1.51
  14  -5  13    5.27    3.91
  14  -5  14    8.99    4.24
  14   5  14    8.14    3.73
  14  -5  14    5.99    5.29
  14  -5  15   -2.07    3.58
  14   5  15    1.81    4.83
  14  -5  15    1.01    2.78
  14  -5  16    3.27    3.79
  14   5  16    9.91    5.12
  14  -5  16    2.08    3.01
  14  -5  17    2.35    2.25
  14   5  17    0.47    2.93
  14  -5  17    3.45    3.97
  14  -5  18   -2.87    2.07
  14   5  18    7.27    3.83
  14  -6 -16   34.53    7.85
  14  -6 -16   32.27    7.69
  14   6 -16   42.98    9.18
  14   6 -15    4.95    3.19
  14  -6 -15    2.64    3.62
  14  -6 -15    0.50    3.60
  14   6 -14    6.84    5.34
  14  -6 -14    3.20    3.87
  14  -6 -14    4.80    3.43
  14  -6 -13   10.27    3.64
  14   6 -13    9.09    3.85
  14  -6 -13    6.79    4.61
  14   6 -12   26.89    8.14
  14  -6 -12   40.15    8.91
  14  -6 -12   37.40    8.50
  14   6 -11   25.40    6.99
  14  -6 -11   16.49    5.37
  14  -6 -11   18.29    6.42
  14  -6 -10   76.33   11.69
  14  -6 -10   77.54   11.62
  14   6 -10   87.05   11.41
  14   6  -9   24.00    6.47
  14  -6  -9   20.30    5.94
  14  -6  -9   15.32    5.65
  14   6  -8    6.61    3.55
  14  -6  -8   14.66    4.53
  14  -6  -8   14.31    5.22
  14   6  -7   23.62    6.77
  14  -6  -7   17.46    5.72
  14  -6  -7   12.73    5.34
  14  -6  -6  116.32   13.50
  14  -6  -6  119.63   13.63
  14   6  -6  129.56   13.71
  14   6  -5    5.90    3.57
  14  -6  -5    2.09    3.37
  14  -6  -5    4.24    4.13
  14  -6  -4   88.12   11.83
  14  -6  -4   84.71   11.37
  14   6  -4   73.42   10.75
  14   6  -3   45.01    7.34
  14  -6  -3   25.81    6.00
  14  -6  -3   45.78    8.70
  14   6  -2   28.82    7.10
  14  -6  -2   31.79    6.86
  14   6  -2   33.49    7.35
  14  -6  -2   27.11    7.07
  14   6  -1   30.99    7.12
  14  -6  -1   29.40    7.44
  14   6  -1   33.30    6.08
  14  -6  -1   37.61    8.29
  14  -6   0  235.65   19.14
  14   6   0  256.01   19.11
  14  -6   0  225.76   19.14
  14   6   1   40.07    7.59
  14  -6   1   37.94    7.70
  14   6   1   33.59    7.18
  14  -6   1   29.45    7.24
  14   6   2   26.08    6.23
  14  -6   2   20.23    5.79
  14   6   2   25.79    5.87
  14  -6   2   24.56    7.85
  14  -6   3   27.47    6.76
  14   6   3   35.48    6.56
  14  -6   3   39.77    8.66
  14   6   3   39.09    8.20
  14  -6   4   77.90   10.67
  14   6   4   81.33   10.93
  14  -6   4   81.37   11.45
  14   6   4   90.23   12.13
  14   6   5    0.58    1.99
  14  -6   5    0.75    4.12
  14   6   5    6.01    4.99
  14  -6   5    8.71    5.47
  14   6   6  132.35   13.96
  14  -6   6   93.02   12.63
  14   6   6  110.15   12.80
  14  -6   6   94.50   12.48
  14   6   7   25.31    6.60
  14  -6   7    9.04    3.81
  14   6   7   26.69    5.66
  14  -6   7   29.71    7.68
  14   6   8    8.98    3.96
  14  -6   8    1.08    2.57
  14   6   8    9.88    4.91
  14  -6   8   11.91    4.99
  14   6   9   20.46    5.75
  14  -6   9   31.24    7.67
  14   6   9   19.85    5.78
  14  -6   9   23.86    6.12
  14   6  10  101.01   12.11
  14   6  10   97.95   12.04
  14  -6  10   97.03   13.06
  14   6  11    9.45    4.10
  14  -6  11   21.00    6.41
  14   6  11   16.92    5.45
  14  -6  11   13.62    5.58
  14   6  12   33.62    7.80
  14  -6  12   19.88    5.97
  14   6  12   45.46    7.97
  14  -6  12    9.64    6.27
  14   6  13    3.28    3.20
  14  -6  13    3.70    4.64
  14   6  13    6.92    2.96
  14  -6  13    2.76    4.27
  14  -6  14    4.67    4.18
  14   6  14    2.83    1.94
  14  -6  14    4.97    4.92
  14  -6  15    7.16    5.26
  14   6  15    4.83    4.02
  14  -6  15    3.46    3.67
  14  -6  16   14.58    7.86
  14   6  16   26.19    6.62
  14  -6  16   29.28    7.97
  14   7 -13    7.97    3.36
  14  -7 -13   -0.59    3.05
  14  -7 -13    3.77    2.81
  14   7 -12    5.59    4.02
  14  -7 -12    6.02    3.50
  14  -7 -11    2.37    3.47
  14   7 -11    2.53    2.48
  14  -7 -11    4.87    4.14
  14  -7 -10    6.22    4.39
  14   7 -10    1.62    3.34
  14  -7 -10    4.61    3.80
  14  -7  -9   -3.87    3.43
  14   7  -9    2.42    2.04
  14  -7  -9   -0.74    3.05
  14  -7  -8    8.35    4.17
  14   7  -8   14.84    5.92
  14  -7  -8   17.89    6.95
  14   7  -7    3.51    3.59
  14  -7  -7   -0.80    4.05
  14  -7  -7    9.15    3.99
  14   7  -6   12.18    4.53
  14  -7  -6   27.08    7.46
  14  -7  -6   31.30    7.86
  14   7  -5   12.24    4.94
  14  -7  -5   11.36    5.09
  14  -7  -5   14.92    4.62
  14   7  -4    4.93    3.55
  14  -7  -4    6.69    3.50
  14  -7  -4    3.78    2.53
  14   7  -3   14.49    4.76
  14  -7  -3    8.58    3.30
  14  -7  -3    7.35    2.51
  14   7  -2   12.06    4.22
  14  -7  -2   23.77    6.99
  14  -7  -2   10.40    5.13
  14   7  -1    1.61    3.76
  14  -7  -1   -7.11    4.48
  14   7  -1    5.85    4.65
  14  -7  -1    1.86    2.83
  14   7   0   40.74    7.80
  14  -7   0   33.12    7.86
  14   7   0   39.98    7.44
  14  -7   0   40.11    9.62
  14   7   1   -2.17    3.72
  14  -7   1    1.68    3.51
  14   7   1   -0.30    2.39
  14  -7   1    4.83    4.27
  14   7   2   20.01    5.79
  14  -7   2   11.96    5.40
  14   7   2   19.23    5.89
  14  -7   2   14.24    5.08
  14   7   3    8.71    4.09
  14  -7   3    8.85    4.63
  14   7   3   10.55    4.70
  14  -7   3   23.01    8.40
  14   7   4    5.62    3.44
  14  -7   4    6.74    4.45
  14   7   4    5.97    4.31
  14  -7   4    0.64    4.27
  14   7   5   32.23    7.42
  14  -7   5   12.49    4.71
  14   7   5   19.37    5.84
  14  -7   5   27.20    7.63
  14   7   6   29.27    6.97
  14  -7   6   26.74    7.04
  14   7   6   25.30    6.53
  14  -7   6   25.44    8.40
  14   7   7    4.84    2.70
  14  -7   7    4.67    3.98
  14   7   7    7.09    4.42
  14  -7   7    7.56    6.27
  14   7   8   12.28    4.44
  14  -7   8    8.78    3.19
  14   7   8   15.19    5.15
  14  -7   8   21.89    7.20
  14   7   9   -1.57    3.04
  14  -7   9   -3.30    3.90
  14   7   9    2.91    2.94
  14  -7   9    3.26    3.35
  14   7  10   -1.06    1.94
  14  -7  10   -0.48    3.29
  14   7  10    2.13    1.96
  14  -7  10   -0.31    5.15
  14   7  11   -0.14    2.90
  14  -7  11    6.70    4.62
  14   7  11    5.54    3.79
  14  -7  11    6.54    5.97
  14   7  12   18.82    6.67
  14  -7  12   18.70    5.89
  14   7  12    9.41    4.88
  14  -7  12    8.22    5.74
  14   7  13    0.59    3.38
  14  -7  13    5.61    3.69
  14   7  13    2.21    2.18
  14  -7  13    0.27    3.06
  14  -8  -8    9.60    5.26
  14   8  -8   12.47    3.72
  14  -8  -8    6.46    3.49
  14  -8  -7   11.35    4.75
  14   8  -7    0.63    2.22
  14  -8  -7    7.98    4.99
  14  -8  -6   20.86    6.57
  14   8  -6   17.25    5.88
  14  -8  -6   14.82    5.97
  14  -8  -5    2.18    4.63
  14   8  -5   -2.39    3.72
  14  -8  -5   -0.05    2.70
  14  -8  -4   28.09    7.50
  14   8  -4   33.94    7.62
  14  -8  -4   10.55    5.46
  14  -8  -3   13.97    4.94
  14   8  -3    7.87    3.86
  14  -8  -3    1.60    3.29
  14  -8  -2    2.60    3.12
  14   8  -2    2.30    3.57
  14  -8  -2    1.44    3.18
  14  -8  -1    3.96    4.16
  14   8  -1   13.86    5.06
  14  -8  -1    2.25    3.52
  14  -8   0   -0.92    2.47
  14   8   0    6.43    3.82
  14  -8   0    3.76    4.08
  14  -8   1    6.56    3.52
  14   8   1    7.67    4.40
  14   8   1    5.73    3.75
  14  -8   1   14.71    6.54
  14   8   2    1.76    3.14
  14  -8   2   -2.10    4.30
  14  -8   2    2.95    2.89
  14   8   2    3.45    3.00
  14   8   3    0.22    2.58
  14  -8   3    6.27    4.26
  14  -8   3    8.87    5.95
  14   8   3   11.42    4.88
  14   8   4   16.88    5.75
  14  -8   4   24.82    6.30
  14  -8   4   35.94    8.64
  14   8   4   30.24    7.43
  14   8   5   -0.75    2.05
  14  -8   5   -1.21    1.82
  14  -8   5    1.46    2.78
  14   8   5    1.35    3.54
  14   8   6   13.74    5.54
  14  -8   6   24.49    5.66
  14  -8   6   11.90    5.90
  14   8   6   10.44    3.98
  14   8   7   10.74    4.92
  14  -8   7    6.26    3.02
  14  -8   7   -0.86    4.23
  14   8   7    4.12    3.11
  14   8   8    1.82    2.79
  14  -8   8    1.44    3.05
  14  -8   8   12.10    7.25
  14   8   8    8.95    4.67
  15   0 -19   -0.39    2.68
  15   0 -18   -2.52    3.11
  15   0 -17    8.08    5.26
  15   0 -16    2.93    3.84
  15   0 -15    3.05    1.97
  15   0 -14   -0.37    4.00
  15   0 -13    1.64    2.57
  15   0 -12   -1.56    2.07
  15   0 -11    0.63    1.90
  15   0 -10    1.68    3.05
  15   0 -10   -1.98    2.61
  15   0  -9   -0.74    2.74
  15   0  -9   -2.23    2.16
  15   0  -8    0.36    2.34
  15   0  -8   -0.58    2.26
  15   0  -7    0.01    2.40
  15   0  -7    0.27    2.09
  15   0  -6   -0.49    2.02
  15   0  -6   -2.77    2.28
  15   0  -5    1.31    1.64
  15   0  -5    1.49    3.39
  15   0  -4   -0.67    2.06
  15   0  -4    0.86    2.70
  15   0  -3   -0.18    1.68
  15   0  -3   -1.10    2.52
  15   0  -2   -1.86    1.52
  15   0  -2    0.71    2.48
  15   0  -1    0.50    2.59
  15   0  -1    2.75    2.34
  15   0   0   -0.68    2.67
  15   0   0   -0.09    1.53
  15   0   1   -0.21    2.35
  15   0   1   -1.13    1.65
  15   0   2   -0.50    1.68
  15   0   2   -1.97    1.90
  15   0   3    2.94    2.03
  15   0   3   -1.34    2.41
  15   0   4    1.60    2.30
  15   0   4    0.77    3.32
  15   0   5    3.69    3.90
  15   0   5    2.24    2.78
  15   0   6    0.79    1.74
  15   0   7   -0.42    2.58
  15   0   8    1.71    1.83
  15   0   9    1.57    1.88
  15   0  10    1.06    1.99
  15   0  11   -2.11    3.49
  15   0  12   -0.33    1.94
  15   0  13   -0.39    2.02
  15   0  14    4.12    4.18
  15   0  15    1.86    3.82
  15   0  16    1.60    2.39
  15   0  17    2.67    3.59
  15   0  18   -1.16    2.13
  15   0  19   -1.05    2.05
  15   0  20   -0.28    2.66
  15   0  21    1.01    3.61
  15  -1 -21   -2.48    3.00
  15  -1 -20    2.72    3.87
  15  -1 -19   15.66    5.88
  15  -1 -18    2.51    2.52
  15  -1 -17   27.18    7.16
  15  -1 -16   37.82    8.53
  15  -1 -15    6.84    4.52
  15   1 -14    3.45    3.53
  15  -1 -14   12.03    4.27
  15   1 -13  160.37   15.80
  15  -1 -13  144.24   14.67
  15   1 -12   16.51    5.93
  15  -1 -12   27.38    7.15
  15  -1 -11    4.01    3.05
  15  -1 -11    5.97    4.42
  15   1 -11    3.06    3.06
  15  -1 -10   18.15    5.06
  15  -1 -10   17.13    5.67
  15   1 -10   19.41    5.44
  15  -1  -9    6.00    3.51
  15   1  -9   -2.11    1.24
  15  -1  -9    3.67    2.56
  15   1  -9   -0.98    2.71
  15  -1  -8   47.79    8.44
  15   1  -8   46.12    7.87
  15   1  -8   34.51    8.64
  15  -1  -8   40.00    8.06
  15   1  -8   33.46    7.05
  15  -1  -7  120.72   13.06
  15   1  -7  112.68   12.52
  15  -1  -7  120.16   13.59
  15   1  -7  124.56   13.20
  15   1  -7  134.81   13.34
  15  -1  -6    6.67    3.57
  15   1  -6   11.09    3.09
  15  -1  -6    4.79    1.75
  15   1  -6   10.55    3.23
  15   1  -6    7.17    4.58
  15  -1  -5   31.51    6.69
  15   1  -5   29.44    6.61
  15  -1  -5   23.89    6.21
  15   1  -5   34.35    7.94
  15   1  -5   32.31    7.06
  15   1  -4   41.00    7.60
  15  -1  -4   35.79    6.68
  15  -1  -4   50.12    8.92
  15   1  -4   43.29    7.72
  15   1  -4   48.50    8.63
  15  -1  -3   87.15   10.98
  15   1  -3   83.93   10.66
  15  -1  -3   92.32   11.52
  15   1  -3   74.36   10.09
  15   1  -3   69.49    9.69
  15  -1  -2   10.55    4.64
  15  -1  -2   -1.14    2.03
  15   1  -2    4.39    3.24
  15   1  -2    2.72    2.19
  15   1  -2    2.48    3.64
  15  -1  -1    0.70    3.16
  15  -1  -1    0.58    3.14
  15   1  -1    2.55    2.75
  15   1  -1    0.58    1.77
  15   1  -1   -3.05    3.17
  15  -1   0   -0.38    1.93
  15  -1   0   -2.25    3.33
  15   1   0   -1.55    2.47
  15   1   0    4.28    3.39
  15   1   0    2.81    3.08
  15  -1   1   -0.90    3.03
  15  -1   1   -0.92    3.58
  15   1   1    3.09    3.24
  15   1   1    0.43    2.86
  15   1   1    8.40    4.39
  15  -1   2    5.62    3.43
  15  -1   2    3.76    3.17
  15   1   2    3.68    1.99
  15   1   2    5.21    3.05
  15   1   2    3.75    3.94
  15  -1   3   65.07    9.34
  15   1   3   58.62    8.60
  15  -1   3   89.87   11.52
  15   1   3   74.46   10.21
  15  -1   4   38.98    7.49
  15   1   4   40.71    7.47
  15  -1   4   27.92    6.95
  15   1   4   46.26    8.31
  15   1   4   45.39    8.09
  15   1   5   28.63    6.44
  15  -1   5   27.80    6.44
  15  -1   5   35.86    7.66
  15   1   5   31.74    6.73
  15   1   6    9.05    3.66
  15  -1   6   15.60    5.37
  15  -1   6   10.00    3.40
  15   1   6    8.93    3.99
  15  -1   7   94.24   11.66
  15   1   7  132.95   13.37
  15   1   7  130.41   13.17
  15   1   8   28.76    6.43
  15  -1   8   26.26    6.30
  15   1   8   39.90    7.30
  15   1   9    2.31    2.68
  15  -1   9    5.04    3.24
  15   1   9   -1.73    3.37
  15   1  10   28.35    6.80
  15  -1  10   17.06    4.77
  15   1  10   16.19    5.56
  15   1  11    2.63    2.80
  15  -1  11    2.72    2.44
  15   1  11    6.86    3.57
  15   1  12   27.79    6.79
  15  -1  12   30.77    7.52
  15  -1  13  179.83   16.44
  15   1  13  161.76   15.53
  15   1  14    7.44    3.24
  15  -1  14    9.82    4.14
  15   1  15    3.47    2.89
  15  -1  15    4.14    3.98
  15   1  16   16.52    5.06
  15  -1  16   11.03    4.86
  15   1  17   33.16    8.03
  15  -1  17   21.06    5.24
  15   1  18    4.53    4.27
  15  -1  18    8.42    5.38
  15   1  19    4.88    3.85
  15  -1  19    6.74    4.28
  15   1  20    1.29    2.86
  15  -1  20    1.84    3.45
  15   1  21   -0.61    3.27
  15  -1  21   -1.26    4.25
  15  -2 -20    0.16    1.99
  15  -2 -19    3.16    3.11
  15  -2 -18    6.91    5.12
  15  -2 -17    1.60    2.07
  15  -2 -16    7.39    3.78
  15  -2 -15   18.52    6.08
  15  -2 -14    8.58    3.81
  15  -2 -13   41.76    8.66
  15   2 -13   33.61    7.20
  15  -2 -12    2.11    3.68
  15  -2 -12    0.89    2.23
  15   2 -12    5.77    4.07
  15  -2 -11    7.86    3.84
  15  -2 -11    6.81    4.46
  15   2 -11    4.73    2.41
  15  -2 -10   30.54    7.38
  15  -2 -10   30.86    6.51
  15   2 -10   12.25    5.56
  15  -2  -9    3.18    2.93
  15  -2  -9    3.31    1.83
  15   2  -9    0.71    2.45
  15  -2  -8   -0.57    2.43
  15  -2  -8    2.77    3.34
  15   2  -8    4.87    2.20
  15  -2  -7   11.56    4.18
  15   2  -7   22.56    5.56
  15  -2  -7   16.26    6.01
  15   2  -7    8.46    3.81
  15   2  -7   22.24    5.14
  15  -2  -6    3.64    4.10
  15  -2  -6    4.30    2.66
  15   2  -6    7.70    3.21
  15   2  -6    7.25    2.94
  15   2  -6    4.28    3.25
  15  -2  -5   11.61    4.47
  15  -2  -5   11.27    4.44
  15   2  -5   13.73    4.54
  15   2  -5   20.41    5.23
  15   2  -5   17.60    4.48
  15  -2  -4    8.64    4.10
  15  -2  -4   15.29    6.00
  15   2  -4    7.78    4.28
  15   2  -4    7.54    3.07
  15   2  -4   11.45    4.80
  15  -2  -3    4.80    4.36
  15  -2  -3    1.05    2.31
  15   2  -3   -0.35    1.88
  15   2  -3   -0.36    2.19
  15   2  -3   -0.44    1.71
  15  -2  -2    2.13    2.90
  15  -2  -2    0.19    2.33
  15   2  -2    0.95    2.58
  15   2  -2    2.30    3.95
  15   2  -2    0.96    2.40
  15  -2  -1    1.75    1.69
  15  -2  -1    5.74    4.40
  15   2  -1   -0.32    2.79
  15   2  -1    1.90    1.59
  15   2  -1    2.39    2.09
  15   2   0    3.52    3.57
  15  -2   0   -2.26    2.78
  15  -2   0    1.06    3.06
  15   2   0    0.26    2.50
  15   2   0    3.02    4.45
  15   2   1    1.49    2.28
  15  -2   1    0.80    2.19
  15  -2   1    1.40    2.41
  15   2   1    5.10    2.32
  15   2   2    3.70    3.51
  15  -2   2    1.15    1.88
  15  -2   2    0.03    3.26
  15   2   2    2.14    3.67
  15   2   2   -0.84    2.47
  15   2   3    0.86    2.71
  15  -2   3    1.92    1.39
  15  -2   3    1.34    3.77
  15   2   3    2.90    1.82
  15   2   3    2.40    1.73
  15   2   4    4.22    3.15
  15  -2   4    9.99    3.73
  15  -2   4    9.70    3.75
  15   2   4    3.44    2.25
  15   2   5    7.77    2.73
  15  -2   5    5.02    2.57
  15  -2   5   14.88    5.18
  15   2   5   17.50    4.79
  15   2   6    6.21    3.56
  15  -2   6    1.58    2.24
  15  -2   6    9.20    4.75
  15   2   6    1.71    2.03
  15   2   7   17.54    5.50
  15  -2   7   17.03    5.39
  15  -2   7   17.91    5.31
  15   2   7   23.51    6.16
  15   2   8    2.37    2.77
  15  -2   8    1.14    3.10
  15  -2   8    5.65    3.49
  15   2   8    1.21    2.57
  15   2   9    8.02    3.87
  15  -2   9    5.26    3.64
  15   2   9    7.29    3.98
  15   2  10   14.26    4.94
  15  -2  10   19.33    5.01
  15   2  10   18.26    5.56
  15   2  11    6.64    2.43
  15  -2  11    3.60    4.00
  15   2  11    2.44    2.26
  15   2  12    6.30    3.96
  15  -2  12    3.75    2.68
  15   2  13   34.03    6.66
  15  -2  13   41.90    8.85
  15   2  14    6.89    2.69
  15  -2  14   16.64    5.71
  15   2  15   19.15    4.91
  15  -2  15   18.77    6.19
  15   2  16   10.75    4.70
  15  -2  16    5.06    3.55
  15   2  17    2.62    2.56
  15  -2  17   -2.09    1.83
  15   2  18    4.23    3.43
  15  -2  18    9.53    4.78
  15   2  19    6.25    2.76
  15  -2  19    4.27    4.19
  15   2  20    2.95    3.56
  15  -2  20   -0.79    4.25
  15  -3 -19    5.67    3.27
  15  -3 -18   32.50    7.20
  15  -3 -17   60.63   10.50
  15   3 -17   59.94    9.56
  15  -3 -16   -2.89    1.98
  15   3 -16    4.36    4.57
  15  -3 -15    9.53    4.48
  15   3 -15    5.25    2.80
  15  -3 -14   20.55    5.55
  15   3 -14   18.63    5.85
  15  -3 -13    9.22    4.40
  15  -3 -13   17.31    5.23
  15   3 -13    6.56    3.86
  15  -3 -12   57.49    9.19
  15   3 -12   67.37    9.88
  15  -3 -12   67.64   10.24
  15  -3 -11   23.16    6.70
  15  -3 -11    7.71    3.15
  15   3 -11   16.83    5.02
  15  -3 -10    1.57    2.95
  15  -3 -10    1.53    2.51
  15   3 -10    6.30    2.15
  15  -3  -9   15.78    4.77
  15  -3  -9   14.81    4.36
  15   3  -9    5.02    3.56
  15  -3  -8   24.58    6.44
  15  -3  -8   24.08    6.25
  15  -3  -7   12.32    4.79
  15   3  -7   16.38    4.52
  15  -3  -6   34.77    7.51
  15  -3  -6   32.67    7.70
  15   3  -6   38.41    7.28
  15   3  -6   42.21    7.74
  15  -3  -5   27.30    6.50
  15  -3  -5   14.26    3.95
  15   3  -5   30.12    7.28
  15   3  -5   27.35    7.07
  15  -3  -4   21.19    5.95
  15  -3  -4   17.59    5.37
  15   3  -4   23.63    5.42
  15   3  -4    9.79    3.38
  15  -3  -3  106.64   12.18
  15   3  -3   98.29   11.67
  15  -3  -3  107.98   12.87
  15   3  -3   79.29   10.64
  15   3  -3   88.89   10.95
  15   3  -2   22.64    6.17
  15   3  -2   23.52    6.29
  15  -3  -2   28.82    6.67
  15  -3  -2   30.93    6.52
  15   3  -2   29.78    6.86
  15   3  -1   27.23    6.11
  15   3  -1   23.00    5.24
  15  -3  -1   41.49    8.33
  15  -3  -1   31.36    7.00
  15   3  -1   31.37    6.58
  15  -3   0   36.95    7.38
  15   3   0   54.15    7.89
  15  -3   0   39.10    8.02
  15   3   0   41.26    8.29
  15   3   0   49.25    8.52
  15   3   1   23.79    6.13
  15   3   1   35.48    7.45
  15  -3   1   33.93    7.19
  15  -3   1   38.27    7.72
  15   3   1   28.10    7.45
  15   3   2   31.22    7.09
  15   3   2   19.97    4.34
  15  -3   2   34.66    7.55
  15   3   2   39.32    8.34
  15  -3   2   37.54    7.57
  15  -3   3  104.46   12.49
  15  -3   3  120.73   13.97
  15   3   3   95.52   11.17
  15   3   3  110.94   12.06
  15   3   4   13.08    3.17
  15   3   4   26.28    6.55
  15  -3   4    9.58    4.25
  15  -3   4   19.57    5.75
  15   3   5   25.96    5.85
  15   3   5   27.01    6.57
  15  -3   5   18.28    5.85
  15  -3   5   27.91    7.35
  15   3   6   33.00    6.72
  15  -3   6   38.32    7.74
  15   3   6   34.47    7.80
  15  -3   6   35.48    7.33
  15   3   7   18.61    5.81
  15   3   7   25.78    6.18
  15  -3   7   20.69    5.96
  15  -3   7   20.63    6.33
  15   3   8   27.21    6.59
  15   3   8   33.92    7.23
  15  -3   8   28.63    6.95
  15  -3   8   26.43    6.59
  15   3   9   11.75    4.51
  15   3   9   15.20    4.35
  15  -3   9    8.30    4.80
  15  -3   9   23.83    5.89
  15   3  10    3.46    2.77
  15   3  10    4.37    1.83
  15  -3  10   -1.51    2.50
  15  -3  10    4.54    3.29
  15   3  11   21.19    7.02
  15   3  11   21.24    5.77
  15  -3  11   17.95    5.67
  15  -3  11   21.78    6.93
  15  -3  12   67.50   10.66
  15   3  12   65.01    9.57
  15   3  12   59.81   10.49
  15   3  13    6.76    3.54
  15  -3  13    9.69    4.14
  15   3  14   18.81    5.26
  15  -3  14   18.00    5.91
  15   3  15   10.96    4.04
  15  -3  15   19.69    6.49
  15   3  16    4.45    4.12
  15  -3  16    4.44    4.35
  15   3  17   40.97    8.49
  15  -3  17   53.12   10.24
  15   3  18   40.07    9.02
  15  -3  18   31.36    8.11
  15   3  19    2.34    3.55
  15  -3  19    5.92    4.22
  15  -4 -18    1.12    2.37
  15   4 -18    0.36    2.01
  15  -4 -17   15.56    5.44
  15   4 -17    3.01    2.62
  15  -4 -16   11.74    6.02
  15   4 -16   13.41    5.24
  15  -4 -15   14.81    5.33
  15   4 -15   17.05    5.35
  15  -4 -14   18.75    5.71
  15  -4 -14   19.61    5.33
  15  -4 -13   26.62    7.42
  15  -4 -13   24.40    6.09
  15   4 -13   18.49    5.42
  15  -4 -12   10.67    3.48
  15  -4 -12    0.40    1.77
  15   4 -12    4.50    4.35
  15  -4 -11   46.81    9.29
  15  -4 -11   31.98    7.89
  15   4 -11   31.28    7.21
  15  -4 -10    5.79    3.97
  15  -4 -10    2.00    3.03
  15   4 -10    3.12    2.72
  15  -4  -9   10.42    5.25
  15  -4  -9   12.94    5.76
  15   4  -9    7.14    3.34
  15  -4  -8   31.68    6.94
  15  -4  -8   26.99    6.42
  15   4  -8   41.01    8.10
  15   4  -7   28.75    7.28
  15  -4  -7   44.63    8.44
  15  -4  -7   32.90    7.91
  15   4  -6   17.47    6.05
  15  -4  -6   17.43    5.29
  15  -4  -6    3.48    2.30
  15   4  -5   24.96    6.00
  15  -4  -5   35.03    7.70
  15  -4  -5   16.84    5.77
  15   4  -4    9.40    3.99
  15   4  -4   11.47    4.03
  15  -4  -4    7.81    4.13
  15  -4  -4    4.29    2.45
  15   4  -3   11.08    4.19
  15   4  -3    5.00    2.50
  15  -4  -3   13.81    5.33
  15  -4  -3    5.52    3.07
  15   4  -2    3.43    3.18
  15   4  -2    3.53    2.19
  15  -4  -2    1.44    3.35
  15  -4  -2    6.59    5.54
  15   4  -1    4.80    3.20
  15   4  -1   14.64    5.11
  15  -4  -1    9.59    3.28
  15  -4  -1   15.18    5.77
  15   4   0   20.89    5.94
  15   4   0   18.50    5.32
  15  -4   0   11.51    5.14
  15  -4   0    9.95    4.18
  15   4   1    5.16    2.87
  15   4   1   15.11    4.98
  15  -4   1   14.08    4.88
  15  -4   1   10.77    5.21
  15   4   2    0.63    3.53
  15   4   2    0.83    1.78
  15  -4   2    7.34    4.71
  15  -4   2    0.79    2.23
  15   4   3    3.46    2.41
  15   4   3    7.60    3.84
  15  -4   3    4.74    2.26
  15  -4   3    9.00    4.60
  15   4   4    9.80    3.52
  15   4   4    0.55    3.23
  15  -4   4    7.31    3.98
  15  -4   4    8.61    2.67
  15   4   5   19.33    5.63
  15   4   5   22.78    6.28
  15  -4   5   20.26    6.00
  15  -4   5    9.62    3.44
  15   4   6   16.29    5.59
  15   4   6   16.69    5.49
  15  -4   6   17.06    4.69
  15  -4   6   11.53    4.64
  15   4   7   27.71    6.95
  15  -4   7   52.03    8.81
  15  -4   7   22.69    7.01
  15   4   7   44.49    8.73
  15   4   8   41.22    7.91
  15   4   8   36.24    7.47
  15  -4   8   37.69    7.81
  15  -4   8   36.56    7.98
  15   4   9   19.16    6.04
  15   4   9   14.17    4.65
  15  -4   9   24.57    6.41
  15  -4   9   27.33    6.99
  15   4  10   15.10    4.91
  15   4  10   17.07    5.56
  15  -4  10    6.63    4.07
  15  -4  10   12.84    4.86
  15   4  11   50.00    8.44
  15   4  11   21.80    6.26
  15  -4  11   38.30    8.07
  15  -4  11   30.55    7.11
  15   4  12    5.96    4.21
  15   4  12    1.57    2.45
  15  -4  12    6.68    3.47
  15  -4  12    6.50    5.09
  15   4  13   23.16    5.75
  15  -4  13   21.12    6.29
  15  -4  13   20.38    5.95
  15   4  14   23.29    6.26
  15  -4  14   20.16    5.88
  15  -4  14   22.85    6.50
  15   4  15   17.11    4.31
  15  -4  15   14.39    4.02
  15   4  16    7.74    4.79
  15  -4  16   11.32    6.12
  15   4  17    4.89    2.74
  15  -4  17   12.59    6.89
  15   4  18    2.36    3.04
  15  -4  18    8.19    5.88
  15  -5 -16    7.55    4.02
  15   5 -16   13.02    6.29
  15  -5 -15    6.84    4.66
  15  -5 -15   17.22    5.61
  15   5 -15    6.14    2.91
  15  -5 -14   19.34    6.53
  15  -5 -14   17.12    4.84
  15   5 -14   13.83    5.64
  15  -5 -13   31.54    7.87
  15  -5 -13   28.65    7.48
  15   5 -13   36.02    7.61
  15  -5 -12    6.99    3.08
  15  -5 -12   11.57    4.83
  15   5 -12   15.57    5.94
  15   5 -11    6.40    2.39
  15  -5 -11   11.07    4.01
  15  -5 -11    9.99    4.81
  15   5 -10   11.01    5.43
  15  -5 -10   20.97    6.84
  15  -5 -10   15.65    6.04
  15  -5  -9   71.59   11.05
  15   5  -9   96.41   12.32
  15  -5  -9   64.09   10.55
  15   5  -8    5.69    3.97
  15  -5  -8   13.30    3.81
  15  -5  -8    9.48    4.76
  15   5  -7   23.84    6.72
  15  -5  -7   16.48    5.59
  15  -5  -7   20.73    6.37
  15   5  -6   22.05    5.92
  15  -5  -6   29.91    6.88
  15  -5  -6   19.36    6.34
  15   5  -5    2.51    3.83
  15  -5  -5   -0.85    2.28
  15  -5  -5    2.40    3.90
  15  -5  -4   16.99    5.68
  15  -5  -4   12.03    2.69
  15  -5  -3   63.17   10.40
  15  -5  -3   76.18   11.17
  15   5  -3   63.87    9.68
  15   5  -3   60.18    9.12
  15   5  -2   -0.30    2.09
  15   5  -2    1.36    2.96
  15  -5  -2   -1.16    1.81
  15  -5  -2    2.25    3.69
  15  -5  -1   76.58   10.70
  15  -5  -1   71.98   10.95
  15   5  -1   64.92    9.84
  15   5  -1   91.89   11.56
  15  -5   0   50.05    9.05
  15  -5   0   42.52    8.41
  15   5   0   73.16   10.46
  15   5   0   65.46    9.78
  15  -5   1   53.98    9.10
  15  -5   1   71.90   11.11
  15   5   1   76.75   10.56
  15   5   1   66.04    9.98
  15   5   2   -0.34    2.30
  15  -5   2    2.68    3.24
  15   5   2   -0.77    1.66
  15  -5   2    2.05    5.03
  15  -5   3   45.15    9.03
  15   5   3   80.65   10.92
  15   5   3   72.01   10.02
  15   5   4   22.67    6.27
  15  -5   4   20.32    5.38
  15   5   4   27.04    6.92
  15  -5   4   24.64    7.00
  15   5   5    5.56    3.75
  15  -5   5    0.70    1.83
  15   5   5    2.51    1.58
  15  -5   5    6.75    4.38
  15   5   6   24.86    7.03
  15  -5   6   20.77    6.15
  15   5   6   28.90    6.76
  15  -5   6   22.13    6.19
  15   5   7   18.89    6.23
  15  -5   7   18.86    4.15
  15   5   7   19.94    5.74
  15  -5   7   12.06    4.46
  15   5   8   15.15    5.07
  15  -5   8    9.10    4.09
  15   5   8    8.22    4.12
  15  -5   8    7.08    5.65
  15   5   9  102.78   12.78
  15  -5   9   87.11   11.88
  15  -5   9   70.09   11.67
  15   5   9   71.56   11.02
  15   5  10   24.42    7.04
  15  -5  10   32.89    7.11
  15   5  10   21.30    5.81
  15  -5  10   20.70    6.72
  15   5  11    1.96    2.74
  15  -5  11    6.21    4.74
  15   5  11    6.87    2.81
  15  -5  11    6.67    3.30
  15   5  12   14.22    4.59
  15  -5  12    4.98    3.57
  15   5  12   16.61    4.83
  15  -5  12   16.32    5.31
  15  -5  13   35.44    8.18
  15   5  13   34.25    7.77
  15  -5  13   31.82    8.44
  15  -5  14   24.29    6.96
  15   5  14   25.02    6.48
  15  -5  14   15.06    4.97
  15  -5  15    6.33    3.75
  15   5  15   13.11    4.82
  15  -5  16    5.68    4.08
  15   5  16   10.61    4.77
  15  -5  16   13.35    6.87
  15  -6 -14    7.27    6.26
  15   6 -14   -3.70    3.59
  15  -6 -14    3.26    3.50
  15   6 -13    4.04    3.91
  15  -6 -13    2.12    3.89
  15  -6 -13    3.93    2.38
  15   6 -12    0.65    2.22
  15  -6 -12    0.47    3.24
  15  -6 -12    8.03    5.66
  15   6 -11    2.92    3.19
  15  -6 -11   -0.10    2.72
  15  -6 -11   -0.38    4.46
  15   6 -10   13.82    4.93
  15  -6 -10    6.38    4.27
  15  -6 -10   19.58    6.87
  15   6  -9    0.23    2.05
  15  -6  -9   -3.69    3.06
  15   6  -8    0.24    2.04
  15  -6  -8    1.21    2.65
  15  -6  -8    2.65    2.16
  15   6  -7    3.19    2.77
  15  -6  -7    2.21    2.78
  15  -6  -7    2.52    2.93
  15   6  -6   12.90    5.50
  15  -6  -6   11.67    5.38
  15  -6  -6   13.98    5.30
  15   6  -5    5.29    4.02
  15  -6  -5   -3.10    2.81
  15  -6  -5    6.04    3.66
  15   6  -4   25.34    6.46
  15  -6  -4   36.21    7.37
  15  -6  -4   27.59    7.75
  15   6  -3   -3.53    2.83
  15  -6  -3    0.46    1.85
  15  -6  -3    3.04    3.87
  15   6  -2   28.39    7.28
  15  -6  -2   21.85    5.73
  15   6  -2   25.49    8.15
  15  -6  -2   20.30    7.04
  15   6  -1   32.57    7.31
  15  -6  -1   30.38    6.82
  15   6  -1   24.24    5.40
  15  -6  -1   43.04    9.16
  15   6   0   24.83    6.60
  15  -6   0   22.32    6.65
  15   6   0   32.46    7.46
  15  -6   0   27.24    7.40
  15   6   1   14.76    5.57
  15  -6   1   29.69    7.00
  15   6   1   29.10    6.32
  15  -6   1   25.26    6.61
  15   6   2   29.07    6.41
  15  -6   2   29.64    7.40
  15   6   2   19.78    5.94
  15  -6   2   36.13    8.41
  15   6   3    0.73    2.26
  15  -6   3   -3.04    4.00
  15   6   3   -1.43    3.03
  15  -6   3   -1.94    2.93
  15   6   4   18.91    5.83
  15  -6   4   17.69    6.01
  15   6   4   36.14    6.89
  15  -6   4   16.82    6.54
  15   6   5    7.66    4.09
  15  -6   5    2.39    2.61
  15   6   5    1.30    2.54
  15  -6   5    0.73    3.97
  15   6   6   14.19    5.37
  15  -6   6    4.74    2.62
  15   6   6    8.19    3.67
  15  -6   6    2.04    4.23
  15   6   7    7.28    4.70
  15  -6   7    1.83    2.30
  15   6   7    0.91    1.75
  15  -6   7    0.84    3.32
  15   6   8   -0.20    4.76
  15  -6   8    5.90    4.09
  15   6   8   10.40    4.89
  15  -6   8    7.63    4.96
  15   6   9   11.74    5.78
  15  -6   9    4.83    3.87
  15   6   9    4.25    3.89
  15  -6   9    5.57    4.71
  15   6  10   17.32    6.60
  15  -6  10    7.42    4.24
  15   6  10   28.51    6.93
  15  -6  10   13.08    5.02
  15   6  11    4.54    4.88
  15  -6  11    1.51    2.77
  15   6  11   -0.37    2.52
  15  -6  11    3.63    4.94
  15   6  12    1.65    2.47
  15  -6  12    0.79    3.76
  15   6  12    3.65    2.51
  15  -6  12    7.63    6.49
  15   6  13   -4.31    4.91
  15  -6  13    1.78    3.02
  15   6  13   -0.10    3.11
  15  -6  13   -5.65    6.22
  15  -6  14    2.68    4.09
  15   6  14   -2.77    2.34
  15  -6  14    0.96    3.34
  15   7 -10    7.31    4.62
  15  -7 -10   14.18    5.56
  15   7  -9   32.45    7.37
  15  -7  -9   16.82    6.32
  15  -7  -9   21.00    6.44
  15   7  -8    5.64    4.61
  15  -7  -8    4.46    5.39
  15  -7  -8   -3.20    3.90
  15   7  -7   10.45    5.01
  15  -7  -7   20.33    5.40
  15  -7  -7   26.61    7.17
  15   7  -6    3.54    2.57
  15  -7  -6    0.35    2.41
  15   7  -5    3.54    1.99
  15  -7  -5    0.41    2.78
  15   7  -4    8.72    4.85
  15  -7  -4   10.81    3.48
  15  -7  -4   17.66    4.98
  15   7  -3   19.10    6.08
  15  -7  -3   27.99    6.98
  15  -7  -3   33.44    8.99
  15   7  -2   -0.24    3.71
  15  -7  -2    6.30    3.39
  15  -7  -2    4.06    2.38
  15   7  -1   35.65    7.86
  15  -7  -1   21.56    5.91
  15  -7  -1   23.17    6.83
  15   7   0   15.58    5.55
  15  -7   0   11.42    3.53
  15   7   0    7.46    3.80
  15  -7   0   11.47    4.43
  15   7   1   29.74    7.45
  15  -7   1   27.64    7.44
  15   7   1   25.92    6.84
  15  -7   1   19.98    6.22
  15   7   2    2.24    2.51
  15  -7   2    1.39    1.97
  15   7   2    7.77    4.14
  15  -7   2    2.04    2.84
  15   7   3   14.72    5.53
  15   7   3   15.54    3.77
  15  -7   3   14.97    7.26
  15   7   4   12.86    6.01
  15  -7   4   17.45    6.31
  15   7   4   10.71    4.23
  15  -7   4    6.37    3.91
  15   7   5    1.08    2.60
  15  -7   5    9.57    4.00
  15   7   5    3.47    2.93
  15  -7   5    8.62    5.97
  15   7   6    1.55    3.50
  15  -7   6    0.62    2.26
  15   7   6    3.26    2.99
  15  -7   6    3.23    4.37
  15   7   7   26.76    6.63
  15  -7   7   15.63    5.49
  15   7   7   28.49    7.16
  15  -7   7   15.01    6.45
  15   7   8   -2.06    3.91
  15  -7   8   -4.85    5.65
  15   7   8    0.66    3.06
  15  -7   8    3.95    4.91
  15   7   9   22.48    7.37
  15  -7   9   21.13    6.64
  15   7   9   33.61    7.31
  15  -7   9   30.75    8.00
  15   7  10   12.22    3.47
  15  -7  10   23.07    6.92
  15   7  10   13.51    5.19
  15  -7  10   18.98    6.84
  15   8  -2   26.39    7.59
  15  -8  -2   16.62    6.73
  15  -8  -2   23.03    7.55
  15   8  -1   13.48    4.96
  15  -8  -1   18.48    6.71
  15  -8  -1   16.44    6.53
  15   8   0    3.72    2.95
  15  -8   0    9.21    3.83
  15  -8   0    4.67    3.59
  15   8   1   16.29    5.65
  15  -8   1   10.77    4.89
  15   8   1   -4.10    2.80
  15  -8   1   -0.67    3.31
  15   8   2   24.96    7.87
  15  -8   2    9.56    5.81
  15   8   2   11.71    4.37
  15  -8   2   11.74    5.21
  16   0 -18   54.38   10.58
  16   0 -17   77.23   11.62
  16   0 -16    0.76    2.20
  16   0 -15   16.11    5.38
  16   0 -14    7.72    5.76
  16   0 -13  187.39   17.82
  16   0 -12   18.94    4.80
  16   0 -11   12.60    5.04
  16   0 -10   21.43    6.47
  16   0  -9   27.21    6.95
  16   0  -9   35.06    7.93
  16   0  -8   15.32    4.32
  16   0  -8   14.30    4.81
  16   0  -7  171.74   15.70
  16   0  -7  156.29   16.19
  16   0  -6    7.19    3.07
  16   0  -6   15.00    4.42
  16   0  -5    4.42    3.46
  16   0  -5    2.65    2.19
  16   0  -4   33.88    7.13
  16   0  -4   46.18    9.40
  16   0  -3  137.04   14.08
  16   0  -3  146.30   14.46
  16   0  -2  141.57   14.21
  16   0  -2  148.03   15.19
  16   0  -1   14.44    4.80
  16   0  -1   20.79    6.32
  16   0   0    8.25    3.73
  16   0   0   15.68    5.95
  16   0   1   25.02    5.99
  16   0   1   27.45    6.55
  16   0   2  149.65   14.32
  16   0   2  146.83   14.98
  16   0   3  145.35   14.32
  16   0   3  122.09   14.21
  16   0   4   60.26    9.56
  16   0   4   43.13    8.66
  16   0   5    4.28    1.51
  16   0   5    1.87    3.25
  16   0   6    7.41    3.97
  16   0   6    8.94    3.19
  16   0   7  136.51   14.32
  16   0   8   21.31    6.24
  16   0   9   41.48    7.62
  16   0  10   16.36    5.81
  16   0  11   25.24    6.37
  16   0  12    9.29    3.54
  16   0  13  227.05   18.32
  16   0  14    9.88    4.19
  16   0  15   15.83    4.79
  16   0  16    2.69    2.89
  16   0  17   60.72   10.33
  16   0  18   41.40    7.63
  16   0  19   84.23   11.59
  16  -1 -19    1.34    2.40
  16  -1 -18    0.63    1.90
  16  -1 -17    6.24    5.10
  16  -1 -16    3.71    3.59
  16  -1 -15    4.91    4.56
  16  -1 -14   13.88    4.98
  16   1 -13    6.81    4.07
  16  -1 -13    4.72    4.18
  16   1 -12   -2.71    3.69
  16  -1 -12    4.23    4.42
  16  -1 -11   -4.11    4.26
  16   1 -11   -2.96    4.27
  16  -1 -10   -0.01    2.56
  16  -1 -10    3.55    4.51
  16   1 -10    1.58    2.56
  16  -1  -9    4.71    1.88
  16  -1  -9   11.67    3.10
  16   1  -9    9.88    3.78
  16  -1  -8    2.08    3.23
  16   1  -8    0.08    3.71
  16  -1  -8    0.10    3.40
  16   1  -8    6.71    4.35
  16  -1  -7    2.65    1.87
  16   1  -7   -2.85    3.10
  16  -1  -7    2.21    2.13
  16   1  -7    0.24    3.28
  16  -1  -6    7.75    4.93
  16   1  -6    4.70    3.32
  16  -1  -6    6.21    4.42
  16   1  -6    1.03    2.55
  16   1  -6   13.92    5.59
  16  -1  -5   23.20    5.69
  16   1  -5   22.40    6.02
  16  -1  -5   17.92    6.29
  16   1  -5   16.67    5.94
  16   1  -5   25.42    5.73
  16  -1  -4    0.87    2.33
  16   1  -4   -1.33    2.87
  16  -1  -4   -0.81    2.73
  16   1  -4    3.41    3.09
  16   1  -4   -0.43    1.77
  16  -1  -3   26.05    6.17
  16   1  -3   30.81    6.94
  16  -1  -3   25.09    6.48
  16   1  -3   39.73    8.48
  16   1  -3   30.63    6.69
  16  -1  -2    0.38    1.98
  16   1  -2    8.89    4.07
  16  -1  -2    0.97    2.51
  16   1  -2   -0.81    2.46
  16   1  -2    2.71    2.88
  16  -1  -1    3.17    2.15
  16   1  -1    5.50    3.63
  16  -1  -1    7.37    2.70
  16   1  -1    7.51    4.05
  16   1  -1   -2.40    2.32
  16  -1   0    7.77    3.89
  16  -1   0    1.88    3.12
  16   1   0    1.60    2.61
  16   1   0    7.32    2.03
  16   1   0    3.14    2.50
  16  -1   1    6.97    2.69
  16   1   1   -1.20    3.52
  16   1   1    4.88    2.74
  16   1   1    5.19    4.30
  16  -1   2    3.07    2.91
  16  -1   2   -2.78    2.69
  16   1   2   -0.07    2.19
  16   1   2    2.58    2.11
  16   1   2    6.18    4.00
  16  -1   3   27.34    6.34
  16  -1   3   34.16    7.90
  16   1   3   19.71    4.87
  16   1   3   20.57    5.15
  16   1   3   30.46    6.19
  16  -1   4   -2.10    3.11
  16  -1   4   -1.99    2.25
  16   1   4    1.04    1.91
  16   1   4    0.69    1.88
  16   1   4    2.85    1.45
  16  -1   5   19.92    5.83
  16  -1   5   24.53    6.34
  16   1   5   18.89    6.46
  16   1   5   22.89    6.29
  16   1   5   11.84    5.15
  16  -1   6    2.96    3.09
  16  -1   6    2.92    2.74
  16   1   6    5.82    3.44
  16   1   6    7.44    4.26
  16  -1   7   -0.45    2.36
  16  -1   7    5.16    3.34
  16   1   7    1.73    2.11
  16   1   7    1.00    2.76
  16  -1   8   -0.16    2.06
  16   1   8   -1.08    4.02
  16   1   8   -0.87    1.38
  16   1   9    6.00    4.06
  16  -1   9    3.50    4.02
  16   1   9    7.28    3.92
  16   1  10   -1.00    2.06
  16  -1  10   -0.33    1.67
  16   1  10   -2.19    3.13
  16   1  11    3.63    3.75
  16  -1  11   -1.63    2.81
  16   1  12    0.56    2.86
  16  -1  12   -0.11    1.68
  16   1  13    7.67    4.14
  16  -1  13    9.37    4.98
  16   1  14   28.63    7.18
  16  -1  14   18.46    5.99
  16   1  15    3.79    3.17
  16  -1  15   13.43    5.97
  16   1  16    1.50    3.55
  16  -1  16    2.17    3.62
  16   1  17   15.19    5.52
  16  -1  17   11.20    3.83
  16   1  18   -3.16    2.50
  16  -1  18   -2.16    3.18
  16   1  19    1.76    3.10
  16  -1  19   -1.10    2.45
  16  -2 -19    6.87    4.88
  16  -2 -18    9.23    5.25
  16  -2 -17   67.94   11.36
  16  -2 -16    0.21    2.49
  16  -2 -15    3.16    3.24
  16  -2 -14   10.15    5.09
  16  -2 -13   90.41   12.40
  16  -2 -12   -3.55    1.40
  16  -2 -12    8.62    2.80
  16  -2 -11    8.93    3.44
  16  -2 -11   19.21    5.37
  16   2 -11   20.26    6.19
  16  -2 -10   11.97    4.98
  16  -2 -10    6.04    3.44
  16   2 -10   10.43    3.30
  16  -2  -9   13.10    4.73
  16  -2  -9   29.47    6.70
  16   2  -9   17.23    5.04
  16  -2  -8    7.22    4.46
  16  -2  -8   -1.44    3.69
  16   2  -8    7.00    3.83
  16  -2  -7   68.32   10.52
  16  -2  -7   91.71   12.22
  16   2  -7   68.84   10.18
  16   2  -7   81.36   10.27
  16  -2  -6    4.13    2.87
  16   2  -6    1.53    2.36
  16  -2  -6    0.66    3.00
  16   2  -6    2.61    3.00
  16   2  -6   10.08    4.82
  16  -2  -5    4.05    3.33
  16  -2  -5   10.02    4.42
  16   2  -5   16.20    5.04
  16   2  -5   13.74    5.78
  16   2  -5    4.54    2.63
  16  -2  -4    5.91    2.94
  16  -2  -4    4.05    3.01
  16   2  -4    3.44    2.54
  16   2  -4    4.70    2.72
  16   2  -4   -0.73    1.74
  16  -2  -3   98.70   12.40
  16   2  -3   74.45   10.30
  16  -2  -3   94.14   11.82
  16   2  -3   84.32   11.37
  16   2  -3   99.94   11.40
  16  -2  -2    7.11    4.33
  16  -2  -2    9.31    3.57
  16   2  -2    5.00    3.99
  16   2  -2    2.37    2.21
  16   2  -2    9.56    3.76
  16  -2  -1    7.30    2.55
  16  -2  -1   10.48    4.52
  16   2  -1   21.70    6.36
  16   2  -1   14.09    4.52
  16   2  -1   12.88    4.48
  16  -2   0    1.67    1.77
  16  -2   0   -0.84    3.25
  16   2   0    4.94    4.04
  16   2   0    1.91    2.17
  16   2   0    6.01    3.14
  16  -2   1    6.56    3.73
  16  -2   1    8.85    4.83
  16   2   1   13.52    6.31
  16   2   1    7.48    4.23
  16   2   1    4.57    3.14
  16   2   2    4.14    2.38
  16  -2   2   11.04    4.23
  16  -2   2   10.84    4.87
  16   2   2   10.85    4.93
  16   2   2    4.44    2.68
  16  -2   3  102.35   12.30
  16   2   3   93.41   11.35
  16  -2   3   99.55   12.28
  16   2   3   92.47   12.19
  16   2   3   94.11   11.65
  16   2   4   10.20    3.29
  16  -2   4   13.77    5.27
  16  -2   4   14.06    5.66
  16   2   4    2.60    2.21
  16   2   4    6.39    3.72
  16   2   5    7.68    4.39
  16  -2   5    8.42    3.92
  16  -2   5   13.64    6.13
  16   2   5   12.64    4.35
  16   2   6    4.48    3.36
  16  -2   6    7.26    5.31
  16  -2   6    4.88    4.10
  16   2   6    3.00    3.89
  16  -2   7   67.10   10.00
  16   2   7   70.96   10.29
  16  -2   7   86.94   11.51
  16   2   7   69.51   10.31
  16   2   8    8.93    3.62
  16  -2   8    2.32    3.92
  16  -2   8    8.58    4.75
  16   2   8    6.95    3.78
  16   2   9   18.82    5.40
  16  -2   9   15.48    5.56
  16  -2   9   11.25    2.97
  16   2   9    8.77    3.94
  16   2  10    7.50    3.83
  16  -2  10    7.89    3.61
  16  -2  10   10.68    4.15
  16   2  10    5.60    4.61
  16   2  11   26.59    6.62
  16  -2  11   19.21    5.54
  16   2  11   18.06    4.67
  16   2  12   16.98    5.33
  16  -2  12   23.13    6.64
  16  -2  13  108.27   13.83
  16   2  13  102.18   13.10
  16   2  14   12.66    5.33
  16  -2  14    5.35    5.15
  16   2  15    4.88    5.08
  16  -2  15    4.79    3.93
  16   2  16   10.61    4.44
  16  -2  16    0.63    2.23
  16  -2  17   68.32   10.85
  16   2  17   78.29   11.53
  16   2  18    9.41    4.31
  16  -2  18    2.54    2.56
  16   2  19   19.63    6.10
  16  -2  19    3.10    4.10
  16  -3 -18    7.20    3.40
  16  -3 -17    2.68    3.66
  16  -3 -16    2.46    3.57
  16   3 -16    6.47    4.45
  16  -3 -15   -2.04    3.78
  16   3 -15    6.79    4.03
  16  -3 -14   -1.92    2.36
  16   3 -14   -4.50    4.77
  16  -3 -13    4.24    5.03
  16  -3 -13    0.89    3.01
  16   3 -13    0.37    1.93
  16  -3 -12    1.04    3.33
  16  -3 -12    1.09    2.73
  16   3 -12   -0.53    2.49
  16  -3 -11   17.16    5.85
  16  -3 -11    6.28    3.46
  16   3 -11   12.00    4.72
  16  -3 -10    1.46    3.43
  16  -3 -10    2.17    2.58
  16   3 -10    6.41    3.64
  16  -3  -9    0.94    1.89
  16  -3  -9    3.20    3.61
  16   3  -9    6.81    4.30
  16  -3  -8    3.93    3.71
  16  -3  -8    3.17    1.79
  16   3  -8    3.38    3.53
  16  -3  -7    3.54    3.32
  16  -3  -7    1.85    2.96
  16   3  -7    9.81    4.41
  16  -3  -6   -2.49    2.05
  16  -3  -6   -0.32    3.66
  16   3  -6    1.19    2.22
  16  -3  -5    4.29    3.74
  16  -3  -5    2.54    2.46
  16   3  -5    2.08    1.68
  16   3  -5    4.39    2.53
  16  -3  -4    1.84    3.20
  16  -3  -4    2.96    2.55
  16   3  -4    2.58    2.26
  16   3  -4    1.77    2.85
  16  -3  -3   -1.64    3.89
  16  -3  -3   -0.71    2.00
  16   3  -3    1.85    3.37
  16   3  -3   -0.46    2.81
  16  -3  -2    2.97    2.15
  16  -3  -2    1.74    1.95
  16   3  -2    4.24    2.44
  16   3  -2    6.58    3.41
  16   3  -2    2.33    1.55
  16   3  -1    5.50    4.20
  16  -3  -1    1.64    3.19
  16  -3  -1    4.30    3.65
  16   3  -1    0.91    2.00
  16   3  -1    3.10    3.31
  16   3   0   -1.70    3.30
  16  -3   0   -1.18    1.82
  16  -3   0    1.88    3.25
  16   3   0   -3.07    4.18
  16   3   0    4.69    3.49
  16   3   1    4.76    3.10
  16  -3   1    0.65    1.84
  16  -3   1    2.45    2.37
  16   3   1    2.95    3.79
  16   3   1    1.74    2.62
  16   3   2    2.29    2.44
  16  -3   2    1.02    2.24
  16  -3   2    5.28    3.66
  16   3   2    1.87    4.55
  16   3   2   -0.44    3.07
  16   3   3    0.57    1.80
  16  -3   3    4.33    3.57
  16  -3   3   -4.83    4.58
  16   3   3   -1.29    3.74
  16   3   3    0.21    1.63
  16   3   4    5.56    1.80
  16   3   4    0.62    2.52
  16  -3   4    7.18    3.38
  16  -3   4    5.95    4.63
  16   3   5    2.32    3.98
  16   3   5    5.72    3.88
  16  -3   5    7.87    4.35
  16  -3   5    8.43    5.11
  16   3   6    2.20    3.15
  16   3   6   -1.09    2.07
  16  -3   6    0.80    2.70
  16  -3   6    0.24    2.50
  16   3   7   15.98    4.69
  16   3   7    6.44    2.82
  16  -3   7    4.80    3.48
  16  -3   7   13.72    5.52
  16   3   8    1.05    1.72
  16  -3   8    5.17    3.67
  16  -3   8    5.66    4.98
  16   3   8    3.07    3.21
  16   3   9    6.02    2.31
  16  -3   9    7.69    3.21
  16  -3   9    3.22    2.95
  16   3   9    8.21    4.44
  16   3  10    1.29    1.64
  16  -3  10   -6.40    4.09
  16   3  10   -4.50    4.21
  16   3  11    7.17    2.35
  16  -3  11   12.44    5.02
  16  -3  11    9.23    4.75
  16   3  11    8.23    4.52
  16   3  12   -2.74    3.11
  16  -3  12   -2.64    2.41
  16  -3  12    1.11    3.25
  16   3  13   -2.22    2.26
  16  -3  13    4.10    3.37
  16   3  14    2.67    4.14
  16  -3  14   -0.46    2.97
  16   3  15   -4.83    4.82
  16  -3  15    4.83    4.32
  16   3  16    3.04    2.83
  16  -3  16    3.60    2.48
  16   3  17    6.10    4.48
  16  -3  17    2.23    2.17
  16   3  18    0.03    2.08
  16  -3  18    2.50    4.27
  16  -4 -16   10.82    2.38
  16   4 -16   14.77    5.90
  16  -4 -15    7.41    4.09
  16   4 -15   22.35    5.92
  16  -4 -14    5.55    2.96
  16   4 -14    0.81    1.81
  16  -4 -13   99.74   13.19
  16   4 -13   88.02   11.47
  16  -4 -13   78.45   12.54
  16  -4 -12   17.59    5.18
  16  -4 -12   13.43    6.39
  16   4 -12    7.99    3.79
  16  -4 -11   12.91    5.34
  16  -4 -11   22.38    6.23
  16   4 -11   11.50    4.63
  16  -4 -10   21.78    6.79
  16  -4 -10    4.17    4.42
  16   4 -10   19.78    5.13
  16  -4  -9   37.03    7.71
  16  -4  -9   50.81    8.73
  16   4  -9   47.91    8.36
  16  -4  -8    4.26    1.90
  16  -4  -8   -0.57    3.43
  16   4  -8   -1.08    2.56
  16  -4  -7   41.01    8.56
  16  -4  -7   56.31    9.51
  16   4  -7   42.12    7.63
  16  -4  -6    9.11    3.45
  16  -4  -6   -0.69    1.83
  16   4  -6    4.72    3.46
  16   4  -5   28.19    6.10
  16  -4  -5   18.62    6.12
  16  -4  -5   21.53    6.43
  16   4  -4    8.47    4.33
  16   4  -4    9.58    4.91
  16  -4  -4    1.33    2.55
  16  -4  -4    6.91    4.69
  16  -4  -3   85.06   12.58
  16  -4  -3  113.47   14.05
  16   4  -3   92.55   11.60
  16   4  -3   86.46   11.08
  16   4  -2   11.59    5.52
  16   4  -2    6.94    3.01
  16  -4  -2   -0.11    3.08
  16  -4  -2   11.47    3.19
  16   4  -1   15.34    4.78
  16   4  -1   22.30    6.23
  16  -4  -1   25.15    6.74
  16  -4  -1   32.15    8.78
  16   4   0    1.25    3.42
  16   4   0    2.56    2.91
  16  -4   0   -1.34    2.62
  16  -4   0    1.07    2.88
  16   4   1   15.83    4.88
  16   4   1   19.64    5.73
  16  -4   1   29.37    6.99
  16  -4   1   28.78    7.41
  16   4   2    8.67    3.21
  16   4   2   15.42    5.54
  16  -4   2   15.24    5.07
  16  -4   2   11.51    5.43
  16  -4   3  109.70   12.90
  16  -4   3   83.87   11.53
  16   4   3  108.30   12.48
  16   4   3  102.35   11.98
  16   4   4    8.20    3.25
  16   4   4   12.00    4.05
  16  -4   4    5.83    1.94
  16  -4   4    7.74    4.08
  16   4   5   23.10    6.08
  16   4   5   25.07    5.91
  16  -4   5   24.61    6.38
  16  -4   5   27.81    6.54
  16   4   6    6.02    5.29
  16   4   6    2.33    3.17
  16  -4   6    1.59    2.37
  16  -4   6    5.08    4.83
  16   4   7   41.19    7.81
  16  -4   7   49.22    9.02
  16  -4   7   43.79    9.16
  16   4   7   49.23    9.04
  16   4   8    0.19    1.70
  16   4   8   -0.47    2.38
  16  -4   8    0.01    2.54
  16  -4   8    3.66    3.72
  16   4   9   36.14    7.71
  16   4   9   35.06    7.98
  16  -4   9   31.08    8.16
  16  -4   9   49.06    9.33
  16   4  10    9.94    5.20
  16   4  10    8.15    4.42
  16  -4  10   12.66    4.37
  16  -4  10   10.73    4.29
  16   4  11   22.89    6.24
  16   4  11    7.92    4.12
  16  -4  11   16.99    5.25
  16  -4  11   22.31    7.07
  16   4  12   10.46    4.48
  16  -4  12    8.43    3.96
  16  -4  12   10.00    5.64
  16  -4  13   78.64   12.13
  16  -4  13   93.90   13.25
  16   4  13   98.89   12.20
  16   4  14    5.27    2.82
  16  -4  14    3.01    2.42
  16  -4  14    8.68    2.50
  16   4  15    7.51    3.61
  16  -4  15    8.42    4.47
  16  -4  15    2.76    3.59
  16   4  16   11.61    4.56
  16  -4  16    0.02    2.41
  16  -4  16    8.99    4.21
  16  -5 -14   17.59    5.99
  16  -5 -14   20.08    5.36
  16   5 -14   27.84    7.22
  16  -5 -13   -0.19    3.14
  16  -5 -13    0.92    2.55
  16   5 -13    2.55    1.91
  16  -5 -12   12.81    5.66
  16  -5 -12   11.77    4.80
  16   5 -12    3.59    3.35
  16  -5 -11   10.19    5.38
  16  -5 -11    7.41    4.01
  16   5 -11   13.69    5.59
  16  -5 -10    8.79    3.60
  16  -5 -10   20.67    6.55
  16   5 -10   13.74    5.57
  16   5  -9    7.02    2.78
  16  -5  -9    1.09    2.95
  16  -5  -9   -4.29    4.17
  16   5  -8    1.67    3.28
  16  -5  -8    1.91    2.48
  16  -5  -8   -1.07    3.44
  16   5  -7   -0.43    3.27
  16  -5  -7    1.98    3.61
  16  -5  -7    2.02    3.84
  16   5  -6    3.46    2.74
  16  -5  -6    1.60    2.88
  16  -5  -6   -0.97    3.90
  16   5  -5   15.55    5.64
  16  -5  -5   24.18    6.75
  16  -5  -5   17.95    6.36
  16   5  -4    6.26    3.52
  16  -5  -4   10.48    4.63
  16  -5  -4    9.98    3.79
  16   5  -3    0.87    1.56
  16  -5  -3    4.25    2.98
  16  -5  -3    1.73    2.83
  16   5  -2    6.28    4.50
  16   5  -2    1.20    2.79
  16  -5  -2    2.88    3.05
  16  -5  -2    4.38    1.96
  16   5  -1   11.84    4.47
  16   5  -1    8.84    3.59
  16  -5  -1   10.75    5.06
  16  -5  -1    9.81    4.96
  16   5   0    2.97    3.92
  16   5   0    1.00    2.72
  16  -5   0   -1.43    2.41
  16  -5   0    0.63    2.25
  16   5   1   16.82    5.06
  16   5   1   12.13    4.97
  16  -5   1   16.50    4.84
  16  -5   1   18.45    5.57
  16   5   2    6.15    3.38
  16   5   2    6.89    3.05
  16  -5   2    4.89    3.77
  16  -5   2    3.98    4.99
  16   5   3    7.88    3.84
  16   5   3    4.29    2.24
  16  -5   3   10.90    4.86
  16  -5   3    9.04    3.95
  16   5   4   11.07    2.85
  16   5   4   13.55    4.56
  16  -5   4    2.74    3.22
  16  -5   4   18.41    5.86
  16   5   5   13.39    4.72
  16   5   5   10.70    4.22
  16  -5   5   17.06    5.94
  16  -5   5   20.86    6.03
  16   5   6    3.48    3.69
  16  -5   6   -0.48    2.84
  16   5   6   -1.07    2.78
  16  -5   6    0.87    3.31
  16   5   7   -1.35    3.76
  16  -5   7   -1.79    3.16
  16   5   7   -0.94    1.89
  16  -5   7    0.45    3.82
  16   5   8   -2.91    3.91
  16  -5   8    0.29    3.25
  16   5   8    2.77    3.35
  16  -5   8   -0.97    3.73
  16   5   9   -3.22    3.60
  16  -5   9    1.49    3.57
  16   5   9    7.13    4.27
  16  -5   9    3.50    4.90
  16   5  10   16.41    5.25
  16  -5  10   15.00    5.38
  16   5  10    6.59    2.91
  16  -5  10   15.53    5.14
  16   5  11    6.54    3.07
  16  -5  11   10.06    4.68
  16   5  11    5.67    4.85
  16  -5  11   -0.95    2.72
  16   5  12   10.26    4.35
  16  -5  12    4.08    3.64
  16   5  12    2.45    3.65
  16  -5  12   12.24    4.89
  16  -5  13    5.08    4.46
  16   5  13    0.04    2.65
  16  -5  13    3.12    3.20
  16  -5  14   23.97    6.59
  16  -5  14   23.77    6.54
  16   6 -11    9.34    4.87
  16  -6 -11   15.60    6.50
  16  -6 -11   16.32    5.72
  16   6 -10   21.21    6.96
  16  -6 -10   10.32    3.93
  16  -6 -10   10.98    4.93
  16   6  -9   46.08    8.80
  16  -6  -9   22.07    6.64
  16  -6  -9   36.52    9.14
  16   6  -8    5.66    5.62
  16  -6  -8    1.06    3.18
  16  -6  -8    0.88    3.31
  16   6  -7   44.34    8.26
  16  -6  -7   59.88    9.71
  16  -6  -7   45.50    9.08
  16   6  -6    0.23    2.95
  16  -6  -6    5.95    3.85
  16  -6  -6    6.14    2.46
  16   6  -5    0.47    1.89
  16  -6  -5    5.30    2.35
  16  -6  -5    4.26    4.58
  16   6  -4    8.74    4.15
  16  -6  -4    9.20    5.11
  16  -6  -4   10.04    3.54
  16   6  -3   49.16    8.81
  16  -6  -3   70.61   11.21
  16  -6  -3   56.73   10.05
  16   6  -2   31.83    7.89
  16  -6  -2   49.98    9.61
  16  -6  -2   41.70    9.63
  16  -6  -1   38.94    8.99
  16   6  -1   38.00    8.26
  16  -6  -1   46.39    9.11
  16   6  -1   65.82   10.31
  16   6   0    7.67    4.03
  16  -6   0   -0.27    2.02
  16   6   0    1.83    3.57
  16  -6   0    5.34    4.90
  16  -6   1   55.01    9.82
  16   6   1   39.36    7.92
  16  -6   1   24.93    6.09
  16   6   1   45.96    8.68
  16  -6   2   57.29   10.20
  16   6   2   45.89    8.50
  16  -6   2   52.76   10.14
  16   6   2   62.55   10.45
  16  -6   3   49.04    8.88
  16   6   3   50.94    9.01
  16  -6   3   50.28    9.58
  16   6   3   55.17    9.70
  16   6   4   12.28    4.54
  16  -6   4   12.97    4.80
  16   6   4   11.21    4.98
  16  -6   4    2.65    2.92
  16   6   5    2.29    3.19
  16  -6   5    4.98    4.27
  16   6   5    1.02    3.31
  16  -6   5    3.76    3.81
  16   6   6   -0.86    2.73
  16  -6   6    3.35    4.33
  16   6   6    6.87    4.74
  16  -6   6    4.67    4.22
  16   6   7   55.79    9.61
  16   6   7   53.93    9.66
  16  -6   7   45.39    9.16
  16  -6   7   42.66    9.71
  16   6   8    4.53    3.48
  16  -6   8    3.15    3.28
  16   6   8    2.90    3.34
  16  -6   8   -2.00    3.24
  16   6   9   45.94    9.19
  16  -6   9   51.08    9.66
  16   6   9   44.64    7.97
  16  -6   9   69.23   11.66
  16   6  10    8.38    5.34
  16  -6  10   13.73    5.74
  16   6  10    7.07    3.95
  16  -6  10    9.70    5.38
  16   6  11   10.74    4.46
  16  -6  11   12.71    4.71
  16   6  11   19.15    6.24
  16  -6  11   19.32    6.88
  16   7  -6    0.01    2.20
  16  -7  -6    6.70    4.13
  16  -7  -6    6.52    3.65
  16   7  -5   32.43    7.73
  16  -7  -5   13.24    4.60
  16  -7  -5   21.38    6.70
  16   7  -4    2.43    4.58
  16  -7  -4    5.61    3.95
  16  -7  -4   -1.88    2.68
  16   7  -3    8.62    3.31
  16  -7  -3    7.11    4.12
  16   7  -2    1.85    3.83
  16  -7  -2    4.20    3.81
  16  -7  -2    1.59    4.63
  16   7  -1    4.15    3.03
  16  -7  -1   -1.28    3.98
  16  -7  -1    0.97    3.16
  16   7   0    2.25    2.03
  16  -7   0    3.32    4.02
  16  -7   0    2.48    3.83
  16   7   1   -4.96    4.85
  16  -7   1    1.41    3.80
  16   7   1    4.16    3.14
  16  -7   1   -1.02    2.67
  16   7   2   -1.16    3.18
  16  -7   2    3.95    3.42
  16   7   2    5.92    5.02
  16  -7   2   -1.34    3.88
  16   7   3   20.39    5.63
  16  -7   3    7.13    3.62
  16   7   3   16.66    5.78
  16  -7   3   10.04    5.72
  16   7   4   12.16    5.62
  16  -7   4   -0.53    2.43
  16   7   4    5.98    4.42
  16  -7   4    1.69    3.62
  16   7   5   23.87    6.36
  16  -7   5   18.09    5.18
  16   7   5   14.05    4.22
  16  -7   5   21.74    6.73
  16   7   6    2.71    3.06
  16  -7   6    1.38    2.29
  16   7   6    4.70    2.65
  16  -7   6    9.71    6.10
  17   0 -17   -1.12    1.82
  17   0 -16    0.97    3.78
  17   0 -15    3.48    4.98
  17   0 -14    1.05    3.46
  17   0 -13   -1.37    2.25
  17   0 -12    3.82    3.92
  17   0 -11   -1.33    2.83
  17   0 -10   -1.08    3.08
  17   0  -9    1.43    1.95
  17   0  -8    0.43    3.28
  17   0  -8   -0.73    3.19
  17   0  -7   -1.16    2.08
  17   0  -7   -1.26    3.79
  17   0  -6   -1.05    3.33
  17   0  -6    0.12    3.10
  17   0  -5   -0.31    2.56
  17   0  -5    7.60    5.22
  17   0  -4    2.09    3.91
  17   0  -4    1.74    2.49
  17   0  -3    1.19    2.76
  17   0  -3   -1.08    2.43
  17   0  -2   -1.07    1.55
  17   0  -2    2.00    3.75
  17   0  -1    0.16    1.97
  17   0  -1   -1.10    3.10
  17   0   0    0.11    3.46
  17   0   0    2.89    2.53
  17   0   1    1.46    4.10
  17   0   1   -0.78    2.62
  17   0   2    0.05    3.52
  17   0   2    1.09    2.52
  17   0   3    1.06    2.78
  17   0   3    3.97    4.15
  17   0   4    3.00    2.99
  17   0   4    6.83    3.09
  17   0   5   -0.23    3.12
  17   0   5   -0.37    2.06
  17   0   6   -1.02    2.00
  17   0   6   -2.31    3.50
  17   0   7    1.88    2.69
  17   0   7    2.12    3.88
  17   0   8   -0.49    2.60
  17   0   9    2.19    3.29
  17   0  10    1.70    2.69
  17   0  11   -0.73    2.48
  17   0  12   -2.30    3.65
  17   0  13    0.64    2.50
  17   0  14   -1.87    2.41
  17   0  15    4.74    3.21
  17   0  16    0.41    2.22
  17   0  17   -2.67    2.47
  17  -1 -17   57.10   10.55
  17  -1 -16   32.38    8.31
  17  -1 -15    5.00    4.31
  17  -1 -14   16.42    7.11
  17  -1 -13   10.18    5.84
  17  -1 -12   21.98    7.05
  17  -1 -11   49.17    9.79
  17   1 -11   54.52    9.30
  17  -1 -10   34.45    9.53
  17  -1 -10   20.82    6.04
  17   1 -10   17.96    4.98
  17  -1  -9   33.15    7.27
  17  -1  -9   18.38    5.69
  17   1  -9   23.95    7.43
  17  -1  -8   33.10    7.50
  17  -1  -8   20.03    5.68
  17   1  -8   23.43    6.54
  17  -1  -7    5.25    3.52
  17   1  -7    0.78    1.96
  17   1  -7    0.41    2.98
  17  -1  -6   15.93    5.19
  17   1  -6   13.04    4.48
  17  -1  -6   27.42    6.97
  17   1  -6   32.28    7.51
  17  -1  -5   17.50    4.62
  17   1  -5    3.75    2.58
  17  -1  -5    2.56    1.88
  17   1  -5   18.95    6.09
  17  -1  -4   57.15    9.34
  17   1  -4   69.45   10.06
  17  -1  -4   66.11   10.70
  17   1  -4   64.76   10.82
  17   1  -4   55.96    8.20
  17  -1  -3   77.52   10.72
  17   1  -3   67.35   10.54
  17  -1  -3   93.63   12.35
  17   1  -3   86.78   11.34
  17   1  -3   69.89   10.30
  17  -1  -2   44.46    8.83
  17  -1  -2   49.45    9.44
  17   1  -2   53.68    9.63
  17   1  -2   33.54    7.48
  17   1  -2   44.63    8.36
  17  -1  -1   17.14    5.45
  17   1  -1    8.19    5.15
  17  -1  -1   16.24    6.17
  17   1  -1   11.09    5.79
  17   1  -1   13.13    4.18
  17  -1   0   58.80    9.28
  17   1   0   56.28    9.07
  17  -1   0   91.15   12.05
  17   1   0   64.83   10.85
  17   1   0   69.84   10.27
  17  -1   1   16.83    5.53
  17  -1   1   20.85    5.69
  17   1   1   23.86    6.24
  17   1   1   11.33    4.70
  17   1   1   20.07    5.61
  17  -1   2   38.31    7.40
  17  -1   2   34.90    7.24
  17   1   2   33.57    7.80
  17   1   2   33.15    7.16
  17   1   2   41.40    7.82
  17  -1   3   78.50   10.69
  17   1   3   62.72    9.88
  17  -1   3   86.76   12.28
  17   1   3   75.45   11.54
  17   1   3   83.17   10.86
  17  -1   4   74.25   10.50
  17   1   4   39.36    8.18
  17  -1   4   72.00   10.65
  17   1   4   68.92   10.65
  17   1   4   86.56   11.37
  17  -1   5    9.04    3.44
  17  -1   5   10.73    4.04
  17   1   5   11.75    4.53
  17   1   5   11.74    4.89
  17   1   5   15.10    5.62
  17  -1   6   24.28    6.11
  17  -1   6   12.20    4.86
  17   1   6   13.70    5.21
  17   1   6   10.76    4.74
  17   1   6   14.66    4.77
  17  -1   7   12.31    4.59
  17  -1   7    8.78    4.02
  17   1   7    7.71    4.39
  17   1   7    5.95    3.43
  17  -1   8   25.58    5.95
  17  -1   8   18.05    5.41
  17   1   8   13.08    4.83
  17   1   8   25.06    6.87
  17  -1   9   25.37    6.67
  17  -1   9   16.46    5.75
  17   1   9   20.18    4.66
  17   1   9   22.09    5.60
  17  -1  10   40.04    7.30
  17   1  10   17.62    5.58
  17  -1  11   50.11    8.84
  17   1  11   57.21   10.21
  17  -1  12   23.86    5.98
  17   1  12   19.20    5.90
  17  -1  13    6.70    3.20
  17   1  13   12.38    4.10
  17  -1  14    4.95    1.95
  17   1  14   26.77    7.29
  17  -1  15    8.51    3.67
  17   1  15    1.50    2.37
  17  -1  16   27.01    6.42
  17   1  16   30.57    8.00
  17  -1  17   35.38    8.00
  17   1  17   54.72    9.16
  17  -2 -16    0.46    2.42
  17  -2 -15    4.27    2.26
  17  -2 -14    4.08    2.16
  17  -2 -13    1.19    2.55
  17  -2 -12    7.49    4.04
  17  -2 -11    4.01    4.14
  17  -2 -11    0.05    2.71
  17   2 -11   -2.30    3.40
  17  -2 -10    8.09    4.83
  17  -2 -10   -2.32    3.04
  17   2 -10    9.29    3.91
  17  -2  -9   10.74    4.70
  17  -2  -9    8.98    4.69
  17   2  -9   12.90    4.78
  17  -2  -8    8.09    4.97
  17  -2  -8   12.89    4.47
  17   2  -8   10.67    5.19
  17  -2  -7    8.81    4.47
  17  -2  -7    7.11    5.02
  17   2  -7   -6.18    3.28
  17   2  -7    6.49    3.85
  17  -2  -6    7.50    4.88
  17   2  -6    4.89    3.72
  17  -2  -6    5.10    2.69
  17   2  -6   13.72    4.82
  17   2  -6   10.68    5.24
  17  -2  -5    0.64    2.56
  17   2  -5    1.40    3.43
  17  -2  -5   -0.57    1.97
  17   2  -5    4.84    4.12
  17   2  -5   -2.65    4.02
  17  -2  -4    1.67    1.70
  17   2  -4    2.23    2.07
  17  -2  -4    0.76    2.90
  17   2  -4    7.59    3.05
  17   2  -4    2.88    2.40
  17  -2  -3   -0.23    1.69
  17  -2  -3   -1.22    2.76
  17   2  -3    1.02    2.59
  17   2  -3    0.91    2.74
  17   2  -3    1.19    2.58
  17  -2  -2    2.16    2.21
  17  -2  -2    0.43    2.97
  17   2  -2    1.69    3.30
  17   2  -2    2.03    1.70
  17   2  -2    5.29    3.07
  17  -2  -1    8.99    3.36
  17  -2  -1    3.51    3.16
  17   2  -1   -0.78    2.89
  17   2  -1   11.05    5.33
  17   2  -1    3.68    3.36
  17  -2   0    0.25    2.12
  17  -2   0    0.94    2.99
  17   2   0   -2.39    4.27
  17   2   0    0.30    2.25
  17   2   0   -2.50    3.66
  17  -2   1    0.21    3.45
  17  -2   1    4.36    2.69
  17   2   1    4.09    5.18
  17   2   1    1.38    2.33
  17   2   1   -0.37    2.04
  17  -2   2    7.19    4.52
  17  -2   2    3.91    2.82
  17   2   2    0.01    3.82
  17   2   2    3.87    2.29
  17   2   2    0.90    1.59
  17  -2   3   -0.89    2.33
  17  -2   3   -0.70    2.87
  17   2   3    4.64    4.53
  17   2   3    0.85    1.78
  17   2   3    0.40    2.22
  17  -2   4    3.75    3.08
  17  -2   4    4.13    1.97
  17   2   4    1.27    2.74
  17   2   4    2.90    2.49
  17   2   4    1.35    1.98
  17   2   5   -0.06    1.94
  17  -2   5    1.91    1.58
  17  -2   5    6.45    5.00
  17   2   5    6.61    4.89
  17   2   5   -0.42    2.37
  17   2   6    7.37    4.10
  17  -2   6   13.92    4.50
  17  -2   6    4.37    2.34
  17   2   6   10.06    3.02
  17   2   7   13.57    4.99
  17  -2   7    7.99    4.28
  17  -2   7    7.54    3.73
  17   2   7    3.86    4.22
  17  -2   8   12.85    5.46
  17  -2   8    7.30    4.43
  17   2   8   13.20    3.95
  17   2   9   11.35    4.67
  17  -2   9   19.14    6.33
  17  -2   9    9.84    4.63
  17   2   9   11.31    4.56
  17   2  10    5.70    2.45
  17  -2  10    5.32    3.01
  17  -2  10    2.56    3.28
  17   2  10   10.01    5.12
  17   2  11    2.12    4.01
  17  -2  11   -1.88    3.63
  17  -2  11    1.40    1.82
  17   2  12    2.11    3.16
  17  -2  12    3.62    2.43
  17   2  13    2.48    1.63
  17  -2  13    9.25    3.97
  17   2  14   12.39    6.11
  17  -2  14    7.03    4.50
  17   2  15    7.69    5.23
  17  -2  15    6.69    5.36
  17   2  16    0.89    2.25
  17  -2  16    3.97    4.90
  17  -3 -15   21.19    6.20
  17   3 -15   25.94    6.49
  17  -3 -14    7.25    3.68
  17   3 -14   14.27    5.39
  17  -3 -13   18.51    5.96
  17   3 -13   14.35    5.65
  17  -3 -12    3.59    4.84
  17  -3 -12    2.07    4.72
  17   3 -12   -1.39    2.40
  17  -3 -11   16.05    6.12
  17  -3 -11   10.51    4.63
  17   3 -11   20.65    6.36
  17  -3 -10   42.06    9.57
  17  -3 -10   36.98    8.36
  17   3 -10   48.47    9.14
  17  -3  -9   12.69    5.56
  17  -3  -9   17.45    5.90
  17   3  -9   16.35    5.00
  17  -3  -8    1.82    4.49
  17  -3  -8    6.47    5.56
  17   3  -8    2.87    3.17
  17  -3  -7   26.99    6.75
  17  -3  -7   21.39    6.78
  17   3  -7   16.99    5.18
  17  -3  -6    0.76    3.35
  17  -3  -6    0.69    3.33
  17   3  -6    8.28    4.27
  17  -3  -5   41.34    7.52
  17  -3  -5   56.20    9.67
  17   3  -5   50.37    9.04
  17  -3  -4   38.95    7.90
  17  -3  -4   40.60    8.24
  17   3  -4   44.93    8.37
  17   3  -4   54.84    8.83
  17  -3  -3   -0.63    2.02
  17  -3  -3    7.42    4.83
  17   3  -3    1.00    2.82
  17   3  -3    9.17    3.21
  17  -3  -2   47.04    8.50
  17  -3  -2   52.78    9.62
  17   3  -2   37.30    7.76
  17  -3  -1  111.69   13.33
  17   3  -1  109.76   13.02
  17  -3  -1  118.93   14.52
  17   3  -1  121.84   13.24
  17  -3   0    0.41    2.23
  17  -3   0    0.35    2.54
  17   3   0    0.65    2.40
  17   3   0    3.40    2.58
  17   3   0   -2.74    2.75
  17  -3   1  133.30   14.64
  17   3   1  124.52   13.57
  17  -3   1  120.28   14.50
  17   3   1  110.82   13.57
  17   3   1  109.07   12.86
  17  -3   2   62.18   10.50
  17   3   2   62.25   10.01
  17  -3   2   59.02    9.54
  17   3   2   48.04    8.68
  17   3   2   54.92    9.38
  17   3   3    6.94    4.42
  17  -3   3    6.82    4.27
  17  -3   3    4.06    2.71
  17   3   3    5.68    2.99
  17   3   3    3.08    3.19
  17  -3   4   64.72   10.32
  17   3   4   52.29    8.60
  17  -3   4   49.55    9.43
  17   3   4   59.67   10.24
  17   3   4   49.18    9.30
  17  -3   5   54.48   10.07
  17   3   5   51.94    8.93
  17  -3   5   70.95   10.96
  17   3   5   37.56    8.34
  17   3   5   53.09    7.91
  17   3   6    2.03    2.87
  17  -3   6   -0.20    2.60
  17  -3   6    2.19    4.69
  17   3   6   -1.93    3.71
  17   3   7   28.24    7.25
  17  -3   7   16.24    4.19
  17  -3   7   15.80    5.68
  17   3   7   15.68    5.45
  17   3   8    1.02    1.99
  17  -3   8   10.84    4.06
  17  -3   8    5.53    4.44
  17   3   8    2.92    2.26
  17   3   9   27.10    6.39
  17  -3   9   15.57    5.31
  17  -3   9   11.18    4.78
  17   3   9   15.75    5.18
  17   3  10   26.32    6.25
  17  -3  10   46.49    9.12
  17  -3  10   38.78    8.45
  17   3  10   32.76    8.32
  17   3  11    9.40    3.85
  17  -3  11    5.81    4.09
  17  -3  11   15.72    5.73
  17   3  12    0.44    2.71
  17  -3  12    2.33    3.45
  17  -3  12    9.46    5.31
  17   3  13   15.78    4.85
  17  -3  13   17.67    5.53
  17  -3  13   17.36    7.18
  17   3  14    5.99    3.22
  17  -3  14   11.75    4.92
  17  -3  14   10.42    5.71
  17   3  15   26.78    6.84
  17  -3  15   29.77    8.01
  17  -4 -14   23.17    7.00
  17   4 -14   19.38    5.31
  17  -4 -13   22.86    6.70
  17  -4 -13   28.16    7.26
  17   4 -13   31.06    7.74
  17  -4 -12    3.27    2.35
  17   4 -12    5.80    3.99
  17  -4 -11   14.14    5.15
  17  -4 -11    5.50    3.82
  17   4 -11   11.83    4.56
  17  -4 -10    6.45    2.78
  17  -4 -10    4.13    4.18
  17   4 -10    0.06    2.14
  17  -4  -9    2.31    1.75
  17  -4  -9    0.47    2.78
  17   4  -9    0.20    2.09
  17  -4  -8    5.29    2.22
  17  -4  -8    3.54    4.59
  17   4  -8    7.74    3.99
  17  -4  -7    0.84    4.17
  17  -4  -7    4.08    2.18
  17   4  -7   -0.42    2.52
  17  -4  -6   18.31    5.65
  17  -4  -6   20.99    5.89
  17   4  -6    5.33    2.86
  17  -4  -5   32.32    8.58
  17  -4  -5   12.42    4.92
  17   4  -5   23.90    6.31
  17  -4  -4    1.66    2.31
  17  -4  -4    1.51    2.05
  17   4  -4    4.47    2.70
  17  -4  -3    6.87    4.37
  17  -4  -3   11.83    5.64
  17   4  -3   -0.34    2.64
  17   4  -3    3.83    2.12
  17   4  -2   23.57    7.49
  17  -4  -2   17.26    6.32
  17  -4  -2    9.07    3.67
  17   4  -2   21.57    5.58
  17   4  -1   16.34    5.03
  17   4  -1   25.57    6.50
  17  -4  -1   13.41    4.65
  17  -4  -1   25.81    6.22
  17   4   0   14.27    4.20
  17   4   0   14.46    4.79
  17  -4   0    7.18    3.37
  17  -4   0   23.08    7.83
  17   4   1   14.47    3.28
  17  -4   1   14.93    4.52
  17  -4   1   23.76    6.27
  17   4   2   20.51    5.95
  17   4   2   19.27    6.19
  17  -4   2   13.23    4.70
  17  -4   2    9.76    4.36
  17   4   3   14.00    5.42
  17   4   3   -0.23    1.86
  17  -4   3   12.83    4.56
  17  -4   3    5.99    4.91
  17   4   4    4.55    3.82
  17   4   4    4.85    2.56
  17  -4   4    3.49    3.86
  17  -4   4    4.42    4.11
  17   4   5   35.20    7.71
  17   4   5   41.84    7.84
  17  -4   5   13.39    4.89
  17  -4   5   32.29    8.32
  17   4   6   20.05    6.47
  17   4   6   10.30    5.16
  17  -4   6   22.93    6.82
  17  -4   6   11.48    4.12
  17   4   7    4.88    3.70
  17   4   7    3.41    2.58
  17  -4   7   -0.91    2.69
  17  -4   7   -0.26    2.43
  17   4   8    6.75    4.14
  17   4   8    4.88    4.04
  17  -4   8    3.65    2.49
  17  -4   8    0.89    3.84
  17   4   9   -1.15    2.42
  17  -4   9   -0.03    2.90
  17  -4   9    1.48    3.66
  17   4  10    8.12    4.67
  17   4  10    5.02    3.64
  17  -4  10    4.89    2.62
  17  -4  10    2.01    2.86
  17   4  11   12.72    6.20
  17   4  11    7.28    3.17
  17  -4  11   13.04    4.95
  17  -4  11   12.33    5.14
  17   4  12   11.91    5.37
  17  -4  12    6.03    3.81
  17  -4  12    7.44    2.82
  17   4  13   16.82    5.08
  17  -4  13   29.70    7.99
  17  -4  13   22.19    5.11
  17   4  14   12.34    4.80
  17  -4  14   11.43    5.50
  17  -5 -11   15.24    5.56
  17  -5 -11   13.20    4.72
  17   5 -11   14.64    5.37
  17  -5 -10   45.92    8.99
  17  -5 -10   44.23    8.18
  17   5 -10   40.46    8.10
  17  -5  -9   14.07    4.67
  17  -5  -9    6.64    3.09
  17   5  -9   11.23    4.73
  17  -5  -8    6.57    3.45
  17  -5  -8    8.68    4.93
  17   5  -8   10.96    5.19
  17  -5  -7   38.44    8.59
  17  -5  -7   45.49    9.61
  17   5  -7   23.69    5.83
  17  -5  -6   55.71    9.26
  17  -5  -6   39.48    9.03
  17   5  -5   20.49    6.17
  17  -5  -5   14.49    5.64
  17  -5  -5    7.09    3.84
  17   5  -4    7.62    3.73
  17  -5  -4    5.80    3.18
  17  -5  -4    8.06    4.64
  17   5  -3    7.20    4.45
  17  -5  -3    9.60    6.16
  17  -5  -3    5.90    3.28
  17   5  -2   13.88    5.74
  17   5  -2   27.92    8.52
  17  -5  -2   16.74    6.45
  17  -5  -2    8.56    5.22
  17   5  -1    9.75    3.65
  17   5  -1   13.82    5.38
  17  -5  -1   21.90    6.71
  17   5   0   23.10    6.63
  17   5   0   24.38    6.35
  17  -5   0   23.11    6.41
  17  -5   0   24.79    7.59
  17   5   1   27.35    7.08
  17   5   1   14.06    5.03
  17  -5   1   13.07    6.15
  17  -5   1   24.77    7.45
  17   5   2    5.01    3.50
  17   5   2    6.19    4.22
  17  -5   2    9.31    2.44
  17   5   3    9.54    3.71
  17   5   3    9.98    3.36
  17  -5   3   16.57    5.75
  17  -5   3   16.11    5.26
  17   5   4   11.42    4.38
  17   5   4    4.32    3.05
  17  -5   4    9.21    4.64
  17  -5   4    9.90    5.13
  17   5   5   14.18    4.58
  17   5   5   20.57    5.58
  17  -5   5   10.80    4.66
  17  -5   5    4.52    4.93
  17   5   6   33.40    7.33
  17  -5   6   64.93   10.49
  17   5   6   40.83    8.04
  17  -5   6   69.01   11.07
  17   5   7   13.99    5.10
  17   5   7   26.06    6.65
  17  -5   7   35.53    8.51
  17  -5   7   29.46    8.22
  17   5   8    3.45    2.32
  17   5   8    3.91    4.51
  17  -5   8    4.63    2.46
  17  -5   8    9.15    4.23
  17   5   9    7.40    3.62
  17   5   9    6.49    3.62
  17  -5   9   -0.98    4.02
  17  -5   9   -0.77    3.88
  17   5  10   37.79    7.86
  17   5  10   46.57    8.60
  17  -5  10   47.74    9.23
  17  -5  10   53.21   10.64
  17   5  11    8.01    4.15
  17   5  11   15.32    4.17
  17  -5  11   16.82    7.27
  17  -5  11   18.69    7.43
  17   6  -7    4.56    3.72
  17  -6  -7    5.48    3.52
  17  -6  -7    0.55    3.36
  17   6  -6    9.61    5.58
  17  -6  -6   14.14    5.22
  17  -6  -6    7.89    5.62
  17   6  -5   -0.40    3.16
  17  -6  -5   -0.81    2.72
  17  -6  -5    0.06    2.38
  17   6  -4    1.11    4.32
  17  -6  -4    3.95    3.64
  17  -6  -4    0.26    3.48
  17   6  -3   10.16    4.44
  17  -6  -3    7.74    4.66
  17  -6  -3   14.36    6.59
  17   6  -2   11.96    4.56
  17  -6  -2    7.41    3.49
  17  -6  -2    2.09    4.81
  17   6  -1    2.14    2.43
  17  -6  -1    4.35    2.74
  17  -6  -1   -1.10    3.00
  17   6   0    0.44    2.61
  17  -6   0   -2.22    3.82
  17   6   0    6.20    4.58
  17  -6   0   -4.49    5.15
  17   6   1    1.55    3.43
  17  -6   1   -0.94    3.66
  17   6   1   -2.61    4.19
  17  -6   1    0.73    3.42
  17   6   2   -1.39    2.57
  17  -6   2    3.65    2.37
  17   6   2    8.75    4.58
  17  -6   2    0.20    4.17
  17   6   3    9.11    3.37
  17  -6   3    3.47    2.90
  17   6   3    6.36    5.30
  17  -6   3    6.13    3.74
  17   6   4    7.22    4.05
  17  -6   4    1.51    1.71
  17   6   4    0.48    3.15
  17  -6   4    7.74    4.21
  17   6   5   -1.15    3.06
  17  -6   5    2.53    5.08
  17   6   5   -0.11    1.94
  17  -6   5    4.47    2.98
  17   6   6    0.59    4.08
  17  -6   6    1.77    2.41
  17   6   6    7.11    3.93
  17  -6   6    6.08    4.66
  17   6   7   -1.48    3.39
  17  -6   7    2.33    3.50
  17   6   7    2.72    2.94
  17  -6   7    3.84    5.21
  18   0 -15  381.78   27.63
  18   0 -14    6.25    4.47
  18   0 -13   40.87    8.37
  18   0 -12   45.74    9.30
  18   0 -11  322.25   23.75
  18   0 -10   33.75    7.49
  18   0  -9   46.87    7.92
  18   0  -8   27.60    8.62
  18   0  -8   26.04    7.05
  18   0  -7   12.90    5.00
  18   0  -7   11.18    4.56
  18   0  -6    7.68    4.48
  18   0  -6   11.29    6.93
  18   0  -5  115.28   13.99
  18   0  -5  118.99   14.56
  18   0  -4  147.59   15.50
  18   0  -4  140.06   15.92
  18   0  -3  108.25   13.71
  18   0  -3  116.59   13.90
  18   0  -2   44.97    8.70
  18   0  -2   42.36    8.00
  18   0  -1   53.28    9.12
  18   0  -1   66.55   10.94
  18   0   0   27.60    6.22
  18   0   0   30.17    7.73
  18   0   1   59.76    9.76
  18   0   1   77.41   11.07
  18   0   2   46.33    8.88
  18   0   2   47.95    8.87
  18   0   3   90.95   12.45
  18   0   3  137.86   15.61
  18   0   4  135.77   14.81
  18   0   4  124.19   14.49
  18   0   5  140.75   14.71
  18   0   5  114.67   14.50
  18   0   6    4.74    3.10
  18   0   6   -0.33    3.59
  18   0   7   10.91    4.23
  18   0   7   14.54    6.19
  18   0   8   24.61    6.67
  18   0   8   12.41    4.89
  18   0   9   52.20    9.13
  18   0   9   43.30    9.38
  18   0  10   50.26    9.28
  18   0  11  314.44   23.10
  18   0  12   35.72    7.89
  18   0  13   37.60    8.08
  18   0  14    1.16    2.57
  18   0  15  349.34   25.06
  18  -1 -15   23.22    7.72
  18  -1 -14    6.21    4.38
  18  -1 -13    6.41    5.08
  18  -1 -12    4.17    2.13
  18  -1 -11    7.03    3.97
  18  -1 -10   42.83    9.77
  18   1 -10   34.82    8.31
  18  -1  -9    2.84    2.31
  18  -1  -9    5.28    2.91
  18   1  -9    3.59    3.58
  18  -1  -8   -2.50    2.71
  18  -1  -8    3.53    4.22
  18   1  -8    4.78    2.97
  18  -1  -7    7.37    4.21
  18   1  -7    0.20    1.27
  18  -1  -7    2.66    2.85
  18   1  -7    7.54    5.15
  18  -1  -6   34.78    7.33
  18   1  -6   29.26    7.35
  18  -1  -6   34.28    7.67
  18   1  -6   22.82    6.70
  18  -1  -5   -1.54    1.94
  18   1  -5    2.11    3.30
  18  -1  -5    4.24    3.98
  18   1  -5   -2.75    4.42
  18  -1  -4    0.05    2.47
  18   1  -4   -0.31    3.41
  18  -1  -4   -3.93    3.77
  18   1  -4   -0.38    2.42
  18  -1  -3    3.24    3.61
  18   1  -3   -0.25    3.05
  18  -1  -3    1.32    3.98
  18   1  -3    1.55    4.03
  18  -1  -2    1.50    4.43
  18   1  -2    6.83    5.54
  18  -1  -2    1.69    2.80
  18   1  -2   -1.40    3.44
  18  -1  -1    3.22    4.68
  18   1  -1   -0.87    1.71
  18  -1  -1   -1.86    2.81
  18   1  -1    2.87    3.43
  18  -1   0    2.83    4.57
  18   1   0    3.62    3.59
  18  -1   0   -2.86    4.04
  18   1   0    1.98    3.48
  18  -1   1   -2.02    2.04
  18   1   1   -0.82    2.25
  18  -1   1    7.11    2.75
  18   1   1    7.79    3.51
  18   1   1    8.01    2.73
  18  -1   2   -1.75    2.79
  18   1   2    0.73    2.66
  18  -1   2    1.38    2.97
  18   1   2   -1.11    3.41
  18   1   2   -1.13    2.03
  18  -1   3    3.84    5.02
  18   1   3    3.44    2.18
  18  -1   3   -0.54    3.00
  18   1   3    0.12    3.47
  18   1   3   -6.56    4.79
  18  -1   4   -0.17    2.61
  18  -1   4    0.50    2.05
  18   1   4   -2.42    3.37
  18   1   4   -0.07    1.47
  18   1   4   -0.27    3.93
  18  -1   5    1.58    2.27
  18  -1   5    5.17    3.28
  18   1   5    1.22    3.72
  18   1   5    3.79    2.17
  18   1   5   -2.92    3.17
  18  -1   6   36.73    7.69
  18  -1   6   25.23    7.57
  18   1   6   35.57    7.96
  18   1   6   33.47    7.04
  18  -1   7    3.42    3.75
  18  -1   7    4.71    2.04
  18   1   7    4.39    2.63
  18   1   7    2.44    3.64
  18  -1   8    2.84    3.49
  18  -1   8   -1.26    3.17
  18   1   8    3.30    2.40
  18  -1   9    1.21    4.38
  18  -1   9    5.22    3.46
  18   1   9    2.51    3.33
  18  -1  10   50.02    9.29
  18   1  10   52.50    9.53
  18  -1  10   51.75    9.44
  18  -1  11   -0.47    3.84
  18   1  11    1.30    2.15
  18  -1  12    4.22    2.79
  18   1  12   -1.25    2.84
  18  -1  13   -0.63    3.11
  18   1  13   -2.75    3.57
  18  -1  14    2.98    2.72
  18   1  14    3.17    4.37
  18  -1  15   24.38    6.40
  18   1  15   29.64    7.04
  18  -2 -14   11.32    4.66
  18  -2 -13    1.63    2.60
  18  -2 -12    1.50    3.68
  18  -2 -11   33.86    7.69
  18  -2 -10   31.31    8.31
  18  -2 -10   49.82    9.55
  18  -2  -9   -0.48    4.16
  18  -2  -9   -0.35    3.90
  18   2  -9    1.07    2.90
  18  -2  -8   -2.73    2.94
  18  -2  -8    0.02    2.73
  18  -2  -7   -4.39    5.12
  18  -2  -7    3.09    4.33
  18   2  -7    2.12    3.55
  18  -2  -6   31.54    6.98
  18  -2  -6   30.78    7.05
  18   2  -6   31.82    7.49
  18  -2  -5   69.63   11.35
  18  -2  -5   58.31   10.49
  18   2  -5   62.66   12.79
  18   2  -5   49.24    9.16
  18   2  -5   42.28    8.31
  18  -2  -4   35.83    8.10
  18   2  -4   51.29    9.13
  18  -2  -4   45.52    9.38
  18   2  -4   41.34    8.67
  18   2  -4   57.48    8.48
  18  -2  -3    8.23    3.78
  18   2  -3   12.82    4.37
  18  -2  -3    7.21    3.59
  18   2  -3   11.14    5.42
  18   2  -3   12.10    4.86
  18  -2  -2   11.86    5.23
  18  -2  -2   11.76    5.44
  18   2  -2   13.37    5.24
  18   2  -2   19.32    6.46
  18   2  -2   23.69    6.46
  18  -2  -1  105.23   12.91
  18   2  -1   83.65   11.64
  18  -2  -1   83.48   12.17
  18   2  -1   87.23   12.70
  18   2  -1   75.66   10.92
  18  -2   0   83.02   11.68
  18   2   0   62.00   10.85
  18  -2   0   57.28    9.91
  18   2   0   60.75   10.67
  18   2   0   48.93    8.78
  18  -2   1   96.70   12.32
  18   2   1   78.08   10.99
  18  -2   1   68.83   11.07
  18   2   1   86.65   12.53
  18   2   1   93.08   11.48
  18  -2   2   19.86    6.19
  18  -2   2   18.95    6.26
  18   2   2   18.78    6.17
  18   2   2   24.08    7.04
  18   2   2   23.94    6.65
  18  -2   3   10.65    4.69
  18  -2   3    2.29    3.21
  18   2   3   14.07    5.42
  18   2   3   13.70    3.61
  18   2   3   16.53    5.44
  18  -2   4   31.82    7.85
  18   2   4   65.75   10.39
  18  -2   4   37.03    8.84
  18   2   4   39.85    8.47
  18   2   4   43.38    8.26
  18  -2   5   63.08   10.35
  18   2   5   69.47   10.40
  18   2   5   63.78   11.01
  18  -2   5   46.05    8.61
  18   2   5   58.32    9.29
  18  -2   6   33.14    7.41
  18  -2   6   27.22    7.00
  18   2   6   27.60    6.37
  18   2   6   43.23    7.01
  18   2   6   35.99    7.52
  18  -2   7    6.87    4.72
  18  -2   7    8.43    3.26
  18   2   7    2.48    2.58
  18   2   7    5.15    3.29
  18   2   7    4.04    3.53
  18   2   8    2.53    3.25
  18  -2   8   -2.30    2.89
  18  -2   8    1.95    2.42
  18   2   8    1.20    3.42
  18   2   9   -0.66    2.68
  18  -2   9   -2.63    4.00
  18  -2   9    5.29    2.18
  18   2   9   -0.13    3.43
  18  -2  10   53.78    9.67
  18   2  10   44.16    8.39
  18  -2  10   39.32    8.22
  18  -2  11   39.36    7.84
  18   2  11   55.21    9.51
  18  -2  11   43.04    8.93
  18   2  12    0.38    3.01
  18  -2  12    4.99    4.85
  18  -2  12   -4.68    5.30
  18   2  13   15.61    4.06
  18  -2  13    5.88    4.66
  18  -2  13    8.62    6.01
  18   2  14    9.35    5.30
  18  -2  14    8.50    4.35
  18  -3 -13   25.42    7.00
  18   3 -13   16.76    5.10
  18  -3 -12   21.78    7.29
  18   3 -12   32.40    7.55
  18  -3 -11   -2.41    3.23
  18  -3 -11   -1.72    3.83
  18   3 -11    5.70    2.94
  18  -3 -10    6.55    2.89
  18  -3 -10    2.61    2.55
  18   3 -10    8.59    4.32
  18  -3  -9    4.81    4.87
  18  -3  -9    0.22    2.58
  18   3  -9    1.35    2.17
  18  -3  -8   -1.51    2.49
  18  -3  -8    1.76    3.26
  18   3  -8    4.87    3.48
  18  -3  -7    7.73    3.05
  18  -3  -7    9.43    5.58
  18   3  -7    3.69    3.48
  18  -3  -6   37.15    8.75
  18  -3  -6   57.30   10.53
  18   3  -6   54.48    9.92
  18  -3  -5    0.88    2.95
  18  -3  -5   -3.25    3.62
  18   3  -5    1.83    4.28
  18  -3  -4   15.24    5.06
  18  -3  -4   18.54    6.45
  18   3  -4   19.05    6.71
  18   3  -4   18.78    5.64
  18  -3  -3    0.91    2.36
  18  -3  -3   -5.04    5.71
  18   3  -3    0.55    3.52
  18   3  -3   -0.74    2.98
  18  -3  -2   -0.86    2.62
  18  -3  -2    2.58    4.96
  18   3  -2    1.47    2.78
  18   3  -2    1.76    1.99
  18  -3  -1   -1.57    2.28
  18   3  -1   -0.76    1.94
  18   3  -1   -0.33    2.85
  18  -3   0   -2.99    3.25
  18  -3   0   10.43    5.79
  18   3   0    8.40    4.78
  18   3   0    0.33    3.16
  18  -3   1   -2.40    3.44
  18  -3   1    1.27    3.05
  18   3   1    8.04    7.52
  18   3   1    0.43    2.36
  18   3   1    0.81    2.97
  18  -3   2    1.52    2.89
  18  -3   2   -0.28    2.65
  18   3   2   -3.05    5.31
  18   3   2    1.94    2.72
  18   3   2   -1.59    2.93
  18   3   3   -0.12    3.47
  18  -3   3    2.33    3.65
  18  -3   3    1.84    3.16
  18   3   3    1.99    4.07
  18   3   3    1.56    2.55
  18   3   4    3.17    1.81
  18  -3   4   12.15    4.35
  18  -3   4   28.82    8.04
  18   3   4   20.65    5.77
  18   3   4   14.63    5.78
  18   3   5    6.70    4.62
  18  -3   5    2.13    3.56
  18  -3   5   -0.62    3.46
  18   3   5    8.86    5.17
  18   3   5    4.31    3.91
  18   3   6   46.43    8.47
  18  -3   6   45.22    8.17
  18  -3   6   50.45    9.61
  18   3   6   49.38    9.57
  18   3   6   52.24    9.44
  18   3   7    5.28    4.26
  18  -3   7    8.22    4.54
  18  -3   7   -0.08    4.09
  18   3   7    1.37    3.67
  18   3   8   -1.08    2.59
  18  -3   8    2.68    4.04
  18  -3   8    0.23    2.63
  18   3   8   -3.73    4.90
  18   3   9    8.42    4.41
  18  -3   9    3.91    2.76
  18  -3   9    4.14    3.93
  18   3   9    0.65    2.24
  18   3  10    0.95    2.72
  18  -3  10    2.82    3.25
  18  -3  10    6.59    4.83
  18   3  10    3.45    3.47
  18   3  11   -0.24    3.02
  18  -3  11    5.19    4.43
  18  -3  11   -0.41    3.37
  18   3  12   12.94    4.64
  18  -3  12   15.07    4.96
  18  -3  12   14.42    6.07
  18   3  13   15.80    5.30
  18  -3  13   27.33    7.15
  18  -3  13   21.12    7.23
  18  -4 -11   22.94    6.23
  18  -4 -11   37.39    8.57
  18   4 -11   23.59    6.69
  18  -4 -10   49.84    9.54
  18  -4 -10   45.20    8.65
  18   4 -10   35.37    8.03
  18  -4  -9    4.12    2.63
  18  -4  -9   12.02    5.30
  18   4  -9    6.40    3.97
  18  -4  -8    2.10    2.47
  18  -4  -8   10.99    5.99
  18   4  -8    5.05    5.02
  18  -4  -7   36.53    8.44
  18  -4  -7   52.90    9.70
  18   4  -7   43.25    8.13
  18  -4  -6   61.30   10.76
  18  -4  -6   85.15   11.87
  18   4  -6   76.67   11.17
  18  -4  -5   58.64   10.00
  18  -4  -5   56.19   10.31
  18   4  -5   87.29   12.43
  18  -4  -4    3.69    4.07
  18  -4  -4    3.18    2.29
  18   4  -4   -2.83    3.18
  18  -4  -3   -0.41    1.76
  18  -4  -3   -1.72    4.02
  18   4  -3  -10.24    4.12
  18   4  -3   -1.28    3.21
  18  -4  -2   -0.42    2.48
  18  -4  -2    2.63    2.62
  18   4  -2    3.13    3.54
  18   4  -2    3.28    2.35
  18  -4  -1   69.61   10.92
  18  -4  -1   59.04    9.84
  18   4  -1   64.67   10.05
  18   4  -1   47.39    9.70
  18   4   0   45.73    8.55
  18  -4   0   53.93    9.21
  18  -4   0   71.22   11.58
  18   4   0   65.21   10.51
  18   4   1   54.11    9.48
  18  -4   1   63.49   10.40
  18  -4   1   93.22   13.14
  18   4   1   73.03   10.64
  18   4   2    0.18    2.10
  18  -4   2    0.74    3.51
  18  -4   2   -0.32    4.03
  18   4   2   -0.07    2.41
  18   4   3    4.61    3.77
  18  -4   3    4.64    3.65
  18  -4   3   -0.45    3.24
  18   4   3   -2.31    4.08
  18   4   4   -0.10    3.34
  18  -4   4    1.77    3.55
  18  -4   4   -1.87    3.84
  18   4   4    5.31    3.00
  18  -4   5   71.28   11.38
  18   4   5   58.04    9.59
  18  -4   5   52.31    9.96
  18   4   5   64.56   10.46
  18  -4   6   57.00   10.14
  18  -4   6  101.03   14.06
  18   4   6   83.01   11.60
  18   4   6   72.65   10.54
  18  -4   7   46.27    8.84
  18   4   7   50.29    9.32
  18  -4   7   39.07    8.72
  18   4   7   40.25    8.31
  18   4   8   11.32    4.87
  18  -4   8    5.62    4.60
  18  -4   8    5.48    4.79
  18   4   8    0.64    2.81
  18   4   9   12.29    5.71
  18  -4   9   13.76    6.00
  18  -4   9   13.20    4.71
  18   4   9    8.46    4.55
  18   4  10   54.28    9.06
  18  -4  10   29.35    8.10
  18  -4  10   38.55    8.97
  18   4  10   28.52    7.21
  18   4  11   28.38    8.01
  18  -4  11   34.19    7.43
  18  -4  11   23.40    7.44
  18  -5  -7   -0.66    2.98
  18  -5  -7    1.72    3.11
  18   5  -7    1.46    2.37
  18  -5  -6    6.09    3.04
  18  -5  -6   10.84    5.48
  18   5  -6    6.06    3.35
  18  -5  -5    2.14    4.03
  18  -5  -5   -4.23    4.28
  18   5  -5    1.35    2.89
  18  -5  -4   11.16    6.30
  18  -5  -4    6.24    5.90
  18   5  -4    8.38    4.27
  18   5  -3   -7.96    5.41
  18  -5  -3    1.37    2.64
  18  -5  -3   -2.39    4.42
  18   5  -2    2.55    2.55
  18  -5  -2    2.12    3.81
  18  -5  -2   -1.46    2.27
  18   5  -1   15.11    7.02
  18   5  -1    7.39    4.23
  18  -5  -1    8.66    5.24
  18  -5  -1    7.39    4.69
  18   5   0    4.65    3.26
  18   5   0    0.55    2.77
  18  -5   0   -2.33    2.06
  18  -5   0   -1.88    3.66
  18   5   1   -1.11    2.29
  18   5   1    3.55    2.32
  18  -5   1    5.87    3.43
  18  -5   1    7.63    5.64
  18   5   2    0.55    2.50
  18   5   2    5.38    4.57
  18  -5   2   -0.13    4.00
  18  -5   2   -0.43    2.78
  18   5   3   -2.13    2.29
  18   5   3    2.14    4.15
  18  -5   3    5.90    4.95
  18  -5   3   -0.83    3.11
  18   5   4    2.92    2.50
  18   5   4    8.51    4.25
  18  -5   4    6.54    2.58
  18  -5   4    4.44    2.88
  18   5   5   -4.32    4.29
  18   5   5   -0.70    3.30
  18  -5   5   -0.25    2.38
  18  -5   5   -3.24    4.15
  18   5   6   14.12    5.14
  18   5   6    5.26    4.31
  18  -5   6    0.45    3.40
  18  -5   6    9.18    4.90
  18   5   7   -0.08    2.63
  18   5   7   -2.81    2.83
  18  -5   7    2.77    4.32
  18  -5   7   -2.74    5.28
  19   0 -12   -2.99    5.17
  19   0 -11   -2.81    3.78
  19   0 -10   -0.61    4.42
  19   0  -9   -2.32    4.70
  19   0  -8    0.40    3.73
  19   0  -7   -0.64    2.50
  19   0  -7    2.35    2.66
  19   0  -6    5.39    4.30
  19   0  -6    0.15    3.38
  19   0  -5   -0.79    3.35
  19   0  -5    4.82    3.11
  19   0  -4    6.53    5.82
  19   0  -4   -2.69    4.19
  19   0  -3    0.86    3.23
  19   0  -3    0.86    4.00
  19   0  -2   -0.35    3.41
  19   0  -2    2.62    2.44
  19   0  -1    3.21    2.64
  19   0  -1   -0.94    3.83
  19   0   0   -3.02    3.22
  19   0   0   -2.72    2.09
  19   0   1   -4.65    4.26
  19   0   1   -1.58    3.38
  19   0   2    6.81    4.57
  19   0   2    5.36    5.20
  19   0   3   -0.81    1.94
  19   0   3    3.86    5.04
  19   0   4    2.32    1.94
  19   0   4   -2.22    3.69
  19   0   5    0.14    3.24
  19   0   5    1.36    2.35
  19   0   6    1.02    2.65
  19   0   6   -2.88    3.11
  19   0   7    1.64    2.63
  19   0   7    3.01    3.30
  19   0   8   -0.50    2.14
  19   0   8   -2.17    3.52
  19   0   9    4.09    4.37
  19   0   9    4.74    3.95
  19   0  10   -0.21    2.16
  19   0  10   -0.35    2.42
  19   0  11   -3.77    3.78
  19   0  11    2.01    2.83
  19   0  12    0.06    2.58
  19  -1 -12   -1.55    3.17
  19  -1 -11   44.20    9.34
  19  -1 -10   72.00   11.95
  19  -1  -9   11.41    5.94
  19   1  -9    7.23    5.67
  19  -1  -8   10.69    3.33
  19  -1  -8   14.23    5.54
  19   1  -8   15.21    7.23
  19  -1  -7   23.89    6.67
  19  -1  -7   31.99    7.82
  19   1  -7   16.61    6.90
  19   1  -6   34.90    9.59
  19  -1  -6   32.20    7.73
  19  -1  -6   43.39    9.38
  19   1  -6   28.02    7.00
  19   1  -5   61.38   10.31
  19  -1  -5   37.75    8.29
  19  -1  -5   42.15    9.51
  19   1  -5   42.40    9.00
  19  -1  -4   21.46    5.73
  19   1  -4    8.32    3.94
  19  -1  -4   25.11    7.37
  19   1  -4   32.84    8.30
  19  -1  -3   17.59    5.16
  19   1  -3   11.51    4.22
  19  -1  -3   11.02    5.08
  19   1  -3   11.45    4.85
  19  -1  -2   57.74   10.08
  19   1  -2   61.34    9.86
  19  -1  -2   79.96   12.01
  19   1  -2   81.12   12.30
  19  -1  -1   55.41   10.03
  19   1  -1   42.78    9.30
  19  -1  -1   42.44   10.06
  19   1  -1   46.63    9.01
  19  -1   0   17.41    5.76
  19   1   0    8.24    4.93
  19  -1   0    5.56    2.57
  19   1   0    3.85    4.19
  19   1   1   58.45    9.87
  19  -1   1   52.13    8.92
  19   1   1   57.62   10.89
  19  -1   1   53.67    8.82
  19  -1   2   52.73    9.25
  19   1   2   62.31   10.45
  19   1   2   59.97   10.71
  19  -1   2   40.29    9.14
  19  -1   3   12.33    5.58
  19   1   3   14.68    5.05
  19  -1   3   21.97    7.07
  19   1   3   17.02    7.12
  19  -1   4   22.46    5.85
  19   1   4   35.91    7.66
  19  -1   4   16.71    5.07
  19   1   4   26.23    7.03
  19   1   5   49.28    9.37
  19  -1   5   43.54    8.51
  19  -1   5   47.56    9.21
  19   1   5   40.61    7.39
  19  -1   6   36.30    7.40
  19   1   6   40.55    9.18
  19  -1   6   41.02    8.85
  19   1   6   38.42    8.22
  19  -1   7   19.55    6.00
  19  -1   7   22.46    7.02
  19   1   7   35.76    8.18
  19   1   7   22.15    6.55
  19  -1   8   12.41    4.05
  19  -1   8   10.96    5.22
  19   1   8   10.02    5.45
  19   1   8    4.83    3.72
  19  -1   9   16.26    6.00
  19  -1   9   15.36    4.94
  19   1   9    6.43    2.57
  19   1   9   16.46    6.02
  19  -1  10   99.28   13.40
  19   1  10   67.74   10.72
  19  -1  10   72.12   12.08
  19  -1  11   66.24   10.48
  19  -1  11   43.93   10.23
  19   1  11   35.51    8.21
  19  -1  12    3.39    2.71
  19  -1  12    8.05    6.05
  19   1  12    4.39    3.62
  19  -2 -11    6.31    3.50
  19  -2 -10    4.53    4.08
  19  -2  -9    0.42    3.95
  19  -2  -9    2.17    2.91
  19  -2  -8    3.83    4.38
  19  -2  -8   -2.01    3.86
  19  -2  -7    9.54    3.31
  19  -2  -7    4.05    4.77
  19  -2  -6   12.36    5.34
  19  -2  -6   30.33    8.10
  19   2  -6   25.10    6.66
  19  -2  -5   14.69    6.21
  19  -2  -5   14.04    4.59
  19   2  -5   26.71    6.88
  19  -2  -4    6.49    4.90
  19   2  -4   20.33    6.58
  19  -2  -4    9.80    4.71
  19   2  -4   14.92    4.97
  19  -2  -3    4.50    2.87
  19   2  -3    8.07    5.10
  19  -2  -3    8.53    5.15
  19   2  -3   10.45    7.22
  19   2  -3    6.77    2.67
  19  -2  -2   -3.43    2.57
  19   2  -2   -3.52    2.74
  19   2  -2    3.44    3.90
  19   2  -2    0.44    2.44
  19  -2  -1    3.20    3.51
  19   2  -1    4.80    2.61
  19  -2  -1    6.20    2.99
  19   2  -1    1.05    4.61
  19   2  -1    8.91    4.30
  19  -2   0    7.14    4.65
  19  -2   0   11.11    5.83
  19   2   0   11.25    4.88
  19   2   0    8.83    5.47
  19   2   0    4.49    2.87
  19  -2   1    7.01    3.43
  19  -2   1    5.18    4.10
  19   2   1    9.55    4.60
  19   2   1    3.65    2.87
  19   2   1   16.06    6.44
  19  -2   2   12.09    5.26
  19  -2   2    2.92    3.68
  19   2   2    6.12    3.50
  19   2   2    4.25    3.18
  19   2   2    5.55    5.02
  19  -2   3   11.75    4.71
  19  -2   3   13.10    5.41
  19   2   3    3.69    4.00
  19   2   3    3.62    4.81
  19   2   3   20.81    7.13
  19  -2   4   12.40    4.93
  19  -2   4   10.33    5.00
  19   2   4    5.53    2.58
  19   2   4    4.43    2.64
  19   2   4   13.40    4.88
  19  -2   5   24.72    6.94
  19  -2   5   41.00    9.27
  19   2   5   21.16    7.01
  19   2   5   28.55    7.45
  19   2   5   41.65    8.99
  19  -2   6   20.28    4.95
  19  -2   6   16.72    5.44
  19   2   6   26.43    8.26
  19   2   6   20.95    5.88
  19   2   6   17.19    4.91
  19  -2   7    4.77    2.32
  19  -2   7    2.33    2.43
  19   2   7    8.83    3.71
  19   2   7   15.67    4.97
  19   2   7   16.84    5.23
  19  -2   8    0.19    3.16
  19  -2   8    0.16    3.71
  19   2   8    3.88    3.26
  19   2   8    0.17    3.40
  19   2   8    0.54    2.17
  19  -2   9    4.52    3.74
  19  -2   9    1.27    2.53
  19   2   9    2.92    2.97
  19  -2  10   -1.81    4.13
  19  -2  10   10.41    4.96
  19   2  10    6.91    4.02
  19  -2  11   13.31    5.15
  19  -2  11    5.59    4.38
  19   2  11    5.17    3.00
  19  -3  -9    9.59    5.72
  19  -3  -9   16.28    6.77
  19   3  -9   11.39    4.06
  19  -3  -8   32.05    8.00
  19  -3  -8   22.49    7.14
  19   3  -8   32.46    7.80
  19  -3  -7    3.89    2.49
  19  -3  -7    4.06    2.39
  19   3  -7    4.65    4.52
  19  -3  -6   10.31    4.44
  19  -3  -6   15.21    5.82
  19   3  -6    3.90    4.54
  19  -3  -5   11.88    5.36
  19  -3  -5   16.68    5.43
  19   3  -5    6.40    4.31
  19  -3  -4    8.59    3.47
  19  -3  -4    2.66    2.70
  19   3  -4    6.75    2.97
  19  -3  -3   -1.23    4.51
  19  -3  -3    1.11    2.84
  19   3  -3    1.87    2.44
  19  -3  -2   14.43    5.24
  19  -3  -2   14.95    6.27
  19   3  -2   12.99    5.01
  19   3  -2   27.11    6.86
  19  -3  -1    5.36    3.69
  19  -3  -1   -3.35    4.16
  19   3  -1    3.40    4.02
  19   3  -1   10.15    3.83
  19  -3   0    2.09    2.95
  19  -3   0    0.69    2.66
  19   3   0    3.56    4.01
  19   3   0    1.31    2.17
  19  -3   1    5.18    4.56
  19  -3   1   10.15    5.30
  19   3   1    9.35    3.98
  19   3   1    6.63    3.63
  19  -3   2   15.16    4.73
  19  -3   2   14.42    6.79
  19   3   2   15.95    4.68
  19   3   2   21.92    6.38
  19  -3   3    7.72    3.79
  19  -3   3   13.61    5.37
  19   3   3    3.35    6.93
  19   3   3    6.98    3.35
  19   3   3    5.34    4.30
  19  -3   4    2.65    2.71
  19  -3   4    3.51    1.91
  19   3   4    0.26    2.86
  19   3   4   -0.27    3.54
  19   3   4    7.81    3.79
  19  -3   5   20.45    6.14
  19  -3   5   18.94    7.23
  19   3   5   16.07    4.82
  19   3   5   20.09    4.91
  19   3   5   11.61    4.66
  19   3   6   13.45    5.61
  19  -3   6    7.67    4.65
  19  -3   6    8.93    5.19
  19   3   6    9.02    5.95
  19   3   6    4.50    2.46
  19   3   7    5.53    2.20
  19  -3   7    9.03    3.58
  19  -3   7    5.46    3.55
  19   3   7   10.18    5.62
  19   3   7    5.80    3.13
  19   3   8   37.11    7.27
  19  -3   8   31.53    6.81
  19  -3   8   32.85    8.28
  19   3   8   30.94    9.06
  19   3   8   27.29    7.30
  19   3   9   11.80    4.53
  19  -3   9   12.29    5.26
  19  -3   9   15.05    5.56
  19   3   9   12.70    6.06
  19  -4  -6    6.16    3.49
  19  -4  -6    9.66    6.79
  19   4  -6   10.58    5.84
  19  -4  -5   -1.34    2.72
  19  -4  -5    3.12    4.37
  19   4  -5    4.64    4.43
  19  -4  -4   14.52    6.59
  19  -4  -4   15.64    5.51
  19   4  -4    5.61    2.73
  19  -4  -3    1.28    4.06
  19   4  -3    1.78    2.62
  19  -4  -2    4.19    2.50
  19  -4  -2    9.76    5.09
  19   4  -2    8.47    3.45
  19  -4  -1   -0.14    4.23
  19  -4  -1    0.32    2.75
  19   4  -1   -1.67    3.40
  19   4  -1    3.98    4.53
  19  -4   0    4.64    3.92
  19  -4   0    7.73    5.35
  19   4   0    6.59    4.27
  19   4   0    7.20    4.21
  19  -4   1    0.75    2.38
  19  -4   1   -2.28    3.70
  19   4   1    1.45    1.85
  19   4   1   -2.61    4.55
  19   4   2   12.24    4.40
  19  -4   2   11.23    4.42
  19  -4   2    3.32    2.83
  19   4   2    8.67    4.43
  19   4   3    6.51    5.50
  19  -4   3    8.13    3.74
  19  -4   3   -1.21    3.22
  19   4   3    4.17    3.40
  19   4   4    6.70    5.01
  19  -4   4   13.21    6.47
  19  -4   4   10.17    5.40
  19   4   4    4.38    2.80
  19   4   5   -2.94    3.71
  19  -4   5    3.29    2.60
  19  -4   5    1.38    3.91
  19   4   5    3.14    4.53
  19   4   6    3.61    2.84
  19  -4   6    0.53    2.32
  19  -4   6    3.56    4.05
  19   4   6   -2.05    3.59
  20   0  -7    4.52    2.20
  20   0  -6    2.27    3.26
  20   0  -6    1.14    2.41
  20   0  -5   71.30   10.96
  20   0  -5   84.18   12.32
  20   0  -4  216.17   20.12
  20   0  -4  177.98   19.37
  20   0  -3    3.92    3.59
  20   0  -3   -1.48    3.45
  20   0  -2  241.46   20.75
  20   0  -2  249.25   21.61
  20   0  -1   21.61    6.20
  20   0  -1   17.28    5.92
  20   0   0    3.15    4.13
  20   0   0   -2.72    4.98
  20   0   1   26.66    7.14
  20   0   1   13.51    3.17
  20   0   2  305.61   23.01
  20   0   2  252.94   22.07
  20   0   3    0.30    2.72
  20   0   3   -0.95    4.46
  20   0   4  226.95   19.76
  20   0   4  184.42   18.60
  20   0   5   52.49    9.84
  20   0   5   71.87   11.32
  20   0   6   -0.27    3.37
  20   0   6    1.48    2.90
  20   0   7    6.90    4.08
  20   0   7    8.52    5.57
  20  -1  -7   -3.31    4.63
  20  -1  -7    1.88    3.12
  20  -1  -6   -3.24    4.19
  20  -1  -6   -2.14    2.03
  20   1  -6    2.70    6.54
  20  -1  -5    8.97    4.56
  20   1  -5    1.09    2.85
  20  -1  -5    1.51    4.27
  20   1  -5    3.73    2.49
  20  -1  -4   -1.35    2.34
  20   1  -4   -0.23    4.17
  20  -1  -4   -3.74    5.80
  20   1  -4    8.21    6.39
  20  -1  -3   26.07    7.67
  20   1  -3   14.15    5.39
  20  -1  -3   20.56    6.75
  20   1  -3   14.24    5.66
  20  -1  -2   10.39    5.29
  20   1  -2    4.61    2.93
  20  -1  -2    7.09    5.33
  20   1  -2    1.88    3.30
  20  -1  -1   10.43    5.12
  20   1  -1    4.79    2.54
  20  -1  -1    9.74    4.00
  20   1  -1    6.49    4.42
  20  -1   0   -2.64    5.05
  20   1   0    0.21    3.21
  20  -1   0   -2.99    4.67
  20   1   0    1.45    2.16
  20  -1   1    7.75    5.80
  20   1   1    4.68    3.91
  20  -1   1    6.77    4.18
  20   1   1    0.24    3.14
  20  -1   2    9.10    4.27
  20   1   2   13.82    5.00
  20  -1   2    2.46    2.62
  20   1   2    2.78    2.61
  20  -1   3   33.29    8.53
  20   1   3   12.98    4.02
  20  -1   3   31.69    8.23
  20   1   3   25.59    6.96
  20  -1   4    5.45    4.00
  20   1   4   -0.80    1.97
  20  -1   4   -1.17    4.84
  20   1   4    2.54    3.17
  20  -1   5   10.32    4.24
  20   1   5    7.36    4.74
  20  -1   5    5.34    4.03
  20   1   5    4.30    2.58
  20  -1   6   -1.04    3.08
  20   1   6    2.41    3.57
  20  -1   6   -2.01    2.56
  20   1   6    0.26    3.39
  20  -1   7   -2.19    2.67
  20   1   7    3.05    3.77
  20  -1   7   -0.95    3.16
  20   1   7    6.00    6.18
  20  -2  -5   -3.65    4.78
  20  -2  -5    1.44    3.16
  20  -2  -4   20.30    5.80
  20   2  -4   17.86    6.39
  20  -2  -4   16.07    6.67
  20  -2  -3    3.96    3.47
  20   2  -3    8.70    5.80
  20  -2  -3    6.90    5.48
  20   2  -3   10.36    5.23
  20  -2  -2  119.11   14.38
  20   2  -2   90.03   12.72
  20  -2  -2   74.79   12.19
  20   2  -2   93.01   13.15
  20  -2  -1    3.16    4.00
  20   2  -1    4.31    2.59
  20  -2  -1    9.95    5.01
  20   2  -1    5.40    5.16
  20   2  -1    7.94    4.24
  20  -2   0    6.21    3.88
  20   2   0    0.74    2.07
  20  -2   0   -0.03    4.01
  20   2   0    0.18    5.22
  20   2   0   -1.94    2.06
  20  -2   1    8.93    4.72
  20   2   1   11.08    5.15
  20  -2   1    7.03    5.65
  20   2   1    3.64    3.76
  20   2   1   11.72    4.71
  20  -2   2  102.71   13.21
  20   2   2   97.80   13.33
  20  -2   2   97.61   13.50
  20   2   2   84.16   12.20
  20   2   2   99.64   13.66
  20  -2   3   15.36    4.40
  20  -2   3    6.40    2.99
  20   2   3    1.73    2.80
  20   2   3    5.80    4.93
  20   2   3    4.32    2.86
  20  -2   4    8.44    3.42
  20  -2   4   13.86    4.92
  20   2   4   17.39    5.61
  20   2   4   18.43    6.08
  20   2   4   29.56    8.07
  20  -2   5   -0.26    1.94
  20  -2   5    9.14    3.12
  20   2   5   -0.73    2.66
  20   2   5    1.39    2.17
  20   2   5    2.97    3.19
   0   0   0    0.00    0.00
TITL 009_230K_SulfamerazineF1_ in Pna2(1)
REM Pna2(1) (#33, found as Pbn2(1) in ba-c setting)
CELL 0.68890  14.481447   8.199275  21.884434  90.0000  90.0000  90.0000
ZERR    8.00   0.000138   0.000086   0.000301   0.0000   0.0000   0.0000
LATT -1
SYMM -x,-y, z+1/2
SYMM  x+1/2,-y+1/2, z
SYMM -x+1/2, y+1/2, z+1/2
SFAC C H N O S
UNIT 88.00 96.00 32.00 16.00 8.00
TREF
HKLF 4
END
_computing_structure_solution     'SHELXT 2014/5 (Sheldrick, 2014)'
;
_shelx_hkl_checksum              18772
loop_
_space_group_symop_operation_xyz
'x, y, z'
'-x, -y, z+1/2'
'x+1/2, -y+1/2, z'
'-x+1/2, y+1/2, z+1/2'
loop_
_atom_site_label
_atom_site_type_symbol
_atom_site_fract_x
_atom_site_fract_y
_atom_site_fract_z
_atom_site_U_iso_or_equiv
_atom_site_adp_type
_atom_site_occupancy
_atom_site_site_symmetry_order
_atom_site_calc_flag
_atom_site_refinement_flags_posn
_atom_site_refinement_flags_adp
_atom_site_refinement_flags_occupancy
_atom_site_disorder_assembly
_atom_site_disorder_group
S1 S 0.64563(5) 0.49528(9) 0.34413(5) 0.03062(18) Uani 1 1 d . . . . .
S2 S 0.57779(5) 0.49624(9) 0.65274(5) 0.03005(18) Uani 1 1 d . . . . .
O1 O 0.68883(18) 0.3709(3) 0.30836(13) 0.0400(6) Uani 1 1 d . . . . .
O2 O 0.54833(17) 0.5223(3) 0.33745(14) 0.0398(6) Uani 1 1 d . . . . .
O3 O 0.67555(16) 0.4689(3) 0.65913(13) 0.0385(6) Uani 1 1 d . . . . .
O4 O 0.53552(17) 0.6233(3) 0.68759(12) 0.0386(6) Uani 1 1 d . . . . .
N1 N 0.8423(2) 1.1169(4) 0.31214(18) 0.0468(8) Uani 1 1 d . . . . .
N2 N 0.6549(2) 0.4487(4) 0.41717(15) 0.0348(6) Uani 1 1 d . . . . .
N3 N 0.81439(19) 0.4095(3) 0.41717(15) 0.0356(6) Uani 1 1 d . . . . .
N4 N 0.7281(2) 0.4296(5) 0.50952(16) 0.0493(8) Uani 1 1 d . . . . .
N5 N 0.3802(2) -0.1201(4) 0.69541(19) 0.0571(10) Uani 1 1 d . . . . .
H5A H 0.3238 -0.1186 0.7077 0.074 Uiso 1 1 calc R U . . .
H5B H 0.4075 -0.2116 0.6890 0.074 Uiso 1 1 calc R U . . .
N6 N 0.5683(2) 0.5383(4) 0.57937(15) 0.0366(7) Uani 1 1 d . . . . .
N7 N 0.4095(2) 0.5866(4) 0.58006(15) 0.0377(7) Uani 1 1 d . . . . .
N8 N 0.4961(2) 0.5658(5) 0.48751(16) 0.0497(8) Uani 1 1 d . . . . .
C1 C 0.7046(2) 0.6773(4) 0.33386(18) 0.0291(7) Uani 1 1 d . . . . .
C2 C 0.7942(2) 0.6793(4) 0.31053(16) 0.0298(7) Uani 1 1 d . . . . .
H2 H 0.8231 0.5822 0.2998 0.039 Uiso 1 1 calc R U . . .
C3 C 0.8396(2) 0.8252(4) 0.30340(17) 0.0302(7) Uani 1 1 d . . . . .
H3 H 0.8996 0.8260 0.2882 0.039 Uiso 1 1 calc R U . . .
C4 C 0.7967(2) 0.9724(4) 0.31880(16) 0.0323(7) Uani 1 1 d . . . . .
C5 C 0.7062(2) 0.9696(4) 0.3424(2) 0.0355(7) Uani 1 1 d . . . . .
H5 H 0.6769 1.0666 0.3528 0.046 Uiso 1 1 calc R U . . .
C6 C 0.6612(2) 0.8231(4) 0.35001(19) 0.0347(7) Uani 1 1 d . . . . .
H6 H 0.6017 0.8213 0.3660 0.045 Uiso 1 1 calc R U . . .
C7 C 0.7370(2) 0.4286(4) 0.44910(16) 0.0333(7) Uani 1 1 d . . . . .
C8 C 0.8065(3) 0.4047(8) 0.5404(2) 0.0687(15) Uani 1 1 d . . . . .
H8 H 0.8040 0.4019 0.5829 0.089 Uiso 1 1 calc R U . . .
C9 C 0.8898(3) 0.3833(7) 0.5125(2) 0.0630(13) Uani 1 1 d . . . . .
H9 H 0.9432 0.3660 0.5352 0.082 Uiso 1 1 calc R U . . .
C10 C 0.8920(2) 0.3880(5) 0.4499(2) 0.0436(9) Uani 1 1 d . . . . .
C11 C 0.9787(3) 0.3698(6) 0.4142(2) 0.0600(12) Uani 1 1 d . . . . .
H11A H 0.9802 0.2638 0.3956 0.078 Uiso 1 1 calc R U . . .
H11B H 1.0308 0.3820 0.4409 0.078 Uiso 1 1 calc R U . . .
H11C H 0.9810 0.4520 0.3830 0.078 Uiso 1 1 calc R U . . .
C12 C 0.5191(2) 0.3159(4) 0.66590(16) 0.0290(6) Uani 1 1 d . . . . .
C13 C 0.5636(2) 0.1684(4) 0.6556(2) 0.0395(8) Uani 1 1 d . . . . .
H13 H 0.6244 0.1674 0.6419 0.051 Uiso 1 1 calc R U . . .
C14 C 0.5178(3) 0.0237(4) 0.6656(2) 0.0442(10) Uani 1 1 d . . . . .
H14 H 0.5481 -0.0746 0.6585 0.057 Uiso 1 1 calc R U . . .
C15 C 0.4263(3) 0.0226(4) 0.68613(18) 0.0379(8) Uani 1 1 d . . . . .
C16 C 0.3823(2) 0.1721(4) 0.69650(17) 0.0342(7) Uani 1 1 d . . . . .
H16 H 0.3216 0.1734 0.7102 0.044 Uiso 1 1 calc R U . . .
C17 C 0.4279(2) 0.3173(4) 0.68660(18) 0.0313(7) Uani 1 1 d . . . . .
H17 H 0.3980 0.4159 0.6937 0.041 Uiso 1 1 calc R U . . .
C18 C 0.4866(2) 0.5653(4) 0.54835(17) 0.0344(7) Uani 1 1 d . . . . .
C19 C 0.4183(3) 0.5982(8) 0.4565(2) 0.0672(15) Uani 1 1 d . . . . .
H19 H 0.4206 0.6027 0.4141 0.087 Uiso 1 1 calc R U . . .
C20 C 0.3353(3) 0.6250(7) 0.4851(2) 0.0673(14) Uani 1 1 d . . . . .
H20 H 0.2825 0.6491 0.4627 0.088 Uiso 1 1 calc R U . . .
C21 C 0.3323(3) 0.6151(5) 0.5481(2) 0.0446(9) Uani 1 1 d . . . . .
C22 C 0.2455(3) 0.6357(7) 0.5843(3) 0.0637(13) Uani 1 1 d . . . . .
H22A H 0.2450 0.7417 0.6029 0.083 Uiso 1 1 calc R U . . .
H22B H 0.2427 0.5535 0.6155 0.083 Uiso 1 1 calc R U . . .
H22C H 0.1931 0.6251 0.5577 0.083 Uiso 1 1 calc R U . . .
H1N1 H 0.895(3) 1.121(6) 0.293(2) 0.065(14) Uiso 1 1 d . . . . .
H2N1 H 0.812(3) 1.202(6) 0.316(2) 0.053(12) Uiso 1 1 d . . . . .
H1N2 H 0.614(3) 0.484(5) 0.438(2) 0.043(12) Uiso 1 1 d . . . . .
H1N6 H 0.622(3) 0.498(5) 0.559(2) 0.060(15) Uiso 1 1 d . . . . .
loop_
_atom_site_aniso_label
_atom_site_aniso_U_11
_atom_site_aniso_U_22
_atom_site_aniso_U_33
_atom_site_aniso_U_23
_atom_site_aniso_U_13
_atom_site_aniso_U_12
S1 0.0286(3) 0.0327(4) 0.0305(4) 0.0024(3) -0.0015(3) -0.0020(3)
S2 0.0278(3) 0.0326(4) 0.0298(5) 0.0036(3) -0.0014(3) -0.0019(3)
O1 0.0473(14) 0.0334(11) 0.0394(15) -0.0056(11) 0.0003(12) -0.0016(10)
O2 0.0304(11) 0.0487(13) 0.0403(16) 0.0076(12) -0.0057(12) -0.0057(10)
O3 0.0279(11) 0.0510(14) 0.0367(15) 0.0078(12) -0.0062(11) -0.0034(9)
O4 0.0436(14) 0.0316(11) 0.0407(15) -0.0032(10) -0.0012(12) -0.0017(10)
N1 0.0400(17) 0.0345(15) 0.066(2) -0.0074(15) 0.0187(17) -0.0055(13)
N2 0.0254(13) 0.0456(16) 0.0333(18) 0.0072(14) 0.0011(12) 0.0011(11)
N3 0.0289(13) 0.0389(14) 0.0390(18) 0.0039(13) 0.0018(12) 0.0016(11)
N4 0.0347(16) 0.080(2) 0.0334(19) 0.0057(17) 0.0002(14) 0.0122(16)
N5 0.051(2) 0.0325(15) 0.088(3) -0.0053(17) 0.017(2) -0.0086(13)
N6 0.0279(13) 0.0514(17) 0.0304(18) 0.0098(14) 0.0018(12) 0.0027(12)
N7 0.0298(14) 0.0423(15) 0.0410(19) 0.0018(13) 0.0014(12) 0.0048(11)
N8 0.0352(16) 0.078(2) 0.036(2) 0.0066(17) -0.0028(14) 0.0134(16)
C1 0.0270(14) 0.0308(14) 0.0294(18) 0.0030(13) 0.0021(13) -0.0003(11)
C2 0.0281(14) 0.0327(14) 0.0285(18) -0.0011(12) 0.0003(13) 0.0035(11)
C3 0.0263(15) 0.0374(16) 0.0270(19) -0.0019(13) 0.0047(13) -0.0002(12)
C4 0.0354(17) 0.0331(15) 0.0285(18) -0.0019(12) 0.0009(14) -0.0013(12)
C5 0.0353(17) 0.0319(14) 0.039(2) -0.0028(15) 0.0063(17) 0.0034(12)
C6 0.0293(14) 0.0356(15) 0.039(2) -0.0001(15) 0.0074(15) 0.0014(11)
C7 0.0301(16) 0.0351(16) 0.035(2) 0.0048(14) 0.0004(14) 0.0029(12)
C8 0.051(3) 0.118(4) 0.037(3) 0.000(3) -0.010(2) 0.026(3)
C9 0.035(2) 0.105(4) 0.049(3) -0.004(3) -0.012(2) 0.019(2)
C10 0.0315(17) 0.048(2) 0.051(3) -0.0017(18) 0.0001(17) 0.0075(15)
C11 0.034(2) 0.077(3) 0.069(3) -0.003(3) 0.003(2) 0.0110(19)
C12 0.0287(14) 0.0300(13) 0.0282(17) 0.0003(12) 0.0015(13) 0.0015(11)
C13 0.0316(16) 0.0367(16) 0.050(2) 0.0010(17) 0.0090(18) 0.0045(12)
C14 0.0382(18) 0.0314(16) 0.063(3) -0.0030(16) 0.0060(18) 0.0042(13)
C15 0.0394(19) 0.0339(16) 0.040(2) -0.0004(14) 0.0009(16) -0.0017(13)
C16 0.0337(16) 0.0344(15) 0.035(2) -0.0037(14) 0.0037(14) -0.0023(12)
C17 0.0311(16) 0.0311(15) 0.032(2) -0.0021(13) 0.0028(14) 0.0015(12)
C18 0.0317(16) 0.0379(16) 0.034(2) 0.0051(14) -0.0018(14) 0.0021(13)
C19 0.044(2) 0.122(5) 0.035(3) 0.002(3) -0.0068(19) 0.024(3)
C20 0.043(2) 0.107(4) 0.052(3) -0.004(3) -0.010(2) 0.029(2)
C21 0.0326(17) 0.052(2) 0.050(3) -0.0003(18) -0.0017(17) 0.0075(15)
C22 0.034(2) 0.084(3) 0.073(3) -0.006(3) 0.006(2) 0.009(2)
loop_
_atom_type_symbol
_atom_type_description
_atom_type_scat_dispersion_real
_atom_type_scat_dispersion_imag
_atom_type_scat_source
C C 0.0033 0.0016 'International Tables Vol C Tables 4.2.6.8 and 6.1.1.4'
H H 0.0000 0.0000 'International Tables Vol C Tables 4.2.6.8 and 6.1.1.4'
N N 0.0061 0.0033 'International Tables Vol C Tables 4.2.6.8 and 6.1.1.4'
O O 0.0106 0.0060 'International Tables Vol C Tables 4.2.6.8 and 6.1.1.4'
S S 0.1246 0.1234 'International Tables Vol C Tables 4.2.6.8 and 6.1.1.4'
loop_
_geom_angle_atom_site_label_1
_geom_angle_atom_site_label_2
_geom_angle_atom_site_label_3
_geom_angle
_geom_angle_site_symmetry_1
_geom_angle_site_symmetry_3
O1 S1 O2 118.96(16) . .
O1 S1 N2 109.25(17) . .
O2 S1 N2 102.40(16) . .
O1 S1 C1 109.10(17) . .
O2 S1 C1 109.77(15) . .
N2 S1 C1 106.56(18) . .
O4 S2 O3 118.88(17) . .
O4 S2 N6 109.36(16) . .
O3 S2 N6 102.07(16) . .
O4 S2 C12 108.91(16) . .
O3 S2 C12 109.50(15) . .
N6 S2 C12 107.46(17) . .
C4 N1 H1N1 120(3) . .
C4 N1 H2N1 118(3) . .
H1N1 N1 H2N1 119(4) . .
C7 N2 S1 125.8(3) . .
C7 N2 H1N2 113(4) . .
S1 N2 H1N2 114(3) . .
C7 N3 C10 116.1(3) . .
C7 N4 C8 114.9(4) . .
C15 N5 H5A 120.0 . .
C15 N5 H5B 120.0 . .
H5A N5 H5B 120.0 . .
C18 N6 S2 125.7(3) . .
C18 N6 H1N6 121(3) . .
S2 N6 H1N6 109(3) . .
C18 N7 C21 116.9(3) . .
C18 N8 C19 114.6(4) . .
C2 C1 C6 120.1(3) . .
C2 C1 S1 121.1(2) . .
C6 C1 S1 118.8(2) . .
C3 C2 C1 119.9(3) . .
C3 C2 H2 120.1 . .
C1 C2 H2 120.1 . .
C2 C3 C4 120.7(3) . .
C2 C3 H3 119.6 . .
C4 C3 H3 119.6 . .
N1 C4 C3 120.6(3) . .
N1 C4 C5 120.3(3) . .
C3 C4 C5 119.2(3) . .
C6 C5 C4 120.0(3) . .
C6 C5 H5 120.0 . .
C4 C5 H5 120.0 . .
C5 C6 C1 120.2(3) . .
C5 C6 H6 119.9 . .
C1 C6 H6 119.9 . .
N4 C7 N3 127.2(3) . .
N4 C7 N2 114.7(3) . .
N3 C7 N2 118.1(3) . .
N4 C8 C9 123.0(4) . .
N4 C8 H8 118.5 . .
C9 C8 H8 118.5 . .
C8 C9 C10 117.7(4) . .
C8 C9 H9 121.2 . .
C10 C9 H9 121.2 . .
N3 C10 C9 121.1(4) . .
N3 C10 C11 116.0(4) . .
C9 C10 C11 122.9(4) . .
C10 C11 H11A 109.5 . .
C10 C11 H11B 109.5 . .
H11A C11 H11B 109.5 . .
C10 C11 H11C 109.5 . .
H11A C11 H11C 109.5 . .
H11B C11 H11C 109.5 . .
C13 C12 C17 119.9(3) . .
C13 C12 S2 119.3(2) . .
C17 C12 S2 120.8(2) . .
C14 C13 C12 120.1(3) . .
C14 C13 H13 120.0 . .
C12 C13 H13 120.0 . .
C13 C14 C15 120.8(3) . .
C13 C14 H14 119.6 . .
C15 C14 H14 119.6 . .
N5 C15 C16 120.3(3) . .
N5 C15 C14 121.2(3) . .
C16 C15 C14 118.5(3) . .
C17 C16 C15 120.9(3) . .
C17 C16 H16 119.6 . .
C15 C16 H16 119.6 . .
C16 C17 C12 119.8(3) . .
C16 C17 H17 120.1 . .
C12 C17 H17 120.1 . .
N7 C18 N8 127.4(3) . .
N7 C18 N6 119.0(3) . .
N8 C18 N6 113.6(3) . .
N8 C19 C20 122.5(4) . .
N8 C19 H19 118.8 . .
C20 C19 H19 118.8 . .
C19 C20 C21 118.2(4) . .
C19 C20 H20 120.9 . .
C21 C20 H20 120.9 . .
N7 C21 C20 120.4(4) . .
N7 C21 C22 116.4(4) . .
C20 C21 C22 123.2(4) . .
C21 C22 H22A 109.5 . .
C21 C22 H22B 109.5 . .
H22A C22 H22B 109.5 . .
C21 C22 H22C 109.5 . .
H22A C22 H22C 109.5 . .
H22B C22 H22C 109.5 . .
loop_
_geom_bond_atom_site_label_1
_geom_bond_atom_site_label_2
_geom_bond_distance
_geom_bond_site_symmetry_2
S1 O1 1.430(3) .
S1 O2 1.434(2) .
S1 N2 1.649(3) .
S1 C1 1.734(3) .
S2 O4 1.429(3) .
S2 O3 1.440(2) .
S2 N6 1.648(3) .
S2 C12 1.730(3) .
N1 C4 1.364(4) .
N1 H1N1 0.87(5) .
N1 H2N1 0.83(4) .
N2 C7 1.389(4) .
N2 H1N2 0.80(5) .
N3 C7 1.330(4) .
N3 C10 1.345(5) .
N4 C7 1.328(5) .
N4 C8 1.336(5) .
N5 C15 1.362(4) .
N5 H5A 0.8600 .
N5 H5B 0.8600 .
N6 C18 1.382(4) .
N6 H1N6 0.95(5) .
N7 C18 1.325(4) .
N7 C21 1.340(5) .
N8 C18 1.339(5) .
N8 C19 1.342(5) .
C1 C2 1.394(4) .
C1 C6 1.396(4) .
C2 C3 1.374(5) .
C2 H2 0.9300 .
C3 C4 1.399(5) .
C3 H3 0.9300 .
C4 C5 1.409(5) .
C5 C6 1.376(5) .
C5 H5 0.9300 .
C6 H6 0.9300 .
C8 C9 1.364(6) .
C8 H8 0.9300 .
C9 C10 1.371(6) .
C9 H9 0.9300 .
C10 C11 1.486(5) .
C11 H11A 0.9600 .
C11 H11B 0.9600 .
C11 H11C 0.9600 .
C12 C13 1.389(4) .
C12 C17 1.396(4) .
C13 C14 1.377(5) .
C13 H13 0.9300 .
C14 C15 1.400(5) .
C14 H14 0.9300 .
C15 C16 1.400(5) .
C16 C17 1.378(5) .
C16 H16 0.9300 .
C17 H17 0.9300 .
C19 C20 1.373(6) .
C19 H19 0.9300 .
C20 C21 1.380(7) .
C20 H20 0.9300 .
C21 C22 1.495(6) .
C22 H22A 0.9600 .
C22 H22B 0.9600 .
C22 H22C 0.9600 .
loop_
_geom_hbond_atom_site_label_D
_geom_hbond_atom_site_label_H
_geom_hbond_atom_site_label_A
_geom_hbond_distance_DH
_geom_hbond_distance_HA
_geom_hbond_distance_DA
_geom_hbond_angle_DHA
_geom_hbond_site_symmetry_A
N5 H5B O4 0.86 2.30 3.085(4) 152.6 1_545
N1 H1N1 O4 0.87(5) 2.51(5) 3.250(4) 143(4) 4_654
N1 H2N1 O1 0.83(4) 2.27(4) 3.047(4) 157(4) 1_565
N2 H1N2 N8 0.80(5) 2.14(5) 2.929(5) 174(5) .
N6 H1N6 N4 0.95(5) 1.96(5) 2.914(5) 175(5) .
loop_
_geom_torsion_atom_site_label_1
_geom_torsion_atom_site_label_2
_geom_torsion_atom_site_label_3
_geom_torsion_atom_site_label_4
_geom_torsion
_geom_torsion_site_symmetry_1
_geom_torsion_site_symmetry_2
_geom_torsion_site_symmetry_3
_geom_torsion_site_symmetry_4
O1 S1 N2 C7 60.5(3) . . . .
O2 S1 N2 C7 -172.4(3) . . . .
C1 S1 N2 C7 -57.2(3) . . . .
O4 S2 N6 C18 -57.2(3) . . . .
O3 S2 N6 C18 176.0(3) . . . .
C12 S2 N6 C18 60.9(3) . . . .
O1 S1 C1 C2 -18.4(4) . . . .
O2 S1 C1 C2 -150.4(3) . . . .
N2 S1 C1 C2 99.5(3) . . . .
O1 S1 C1 C6 162.3(3) . . . .
O2 S1 C1 C6 30.3(4) . . . .
N2 S1 C1 C6 -79.9(3) . . . .
C6 C1 C2 C3 -0.1(5) . . . .
S1 C1 C2 C3 -179.4(3) . . . .
C1 C2 C3 C4 -0.6(5) . . . .
C2 C3 C4 N1 179.4(3) . . . .
C2 C3 C4 C5 0.6(5) . . . .
N1 C4 C5 C6 -178.8(4) . . . .
C3 C4 C5 C6 0.0(6) . . . .
C4 C5 C6 C1 -0.6(6) . . . .
C2 C1 C6 C5 0.7(6) . . . .
S1 C1 C6 C5 -180.0(3) . . . .
C8 N4 C7 N3 -1.6(6) . . . .
C8 N4 C7 N2 177.8(4) . . . .
C10 N3 C7 N4 0.4(5) . . . .
C10 N3 C7 N2 -179.0(3) . . . .
S1 N2 C7 N4 164.8(3) . . . .
S1 N2 C7 N3 -15.7(5) . . . .
C7 N4 C8 C9 1.3(8) . . . .
N4 C8 C9 C10 0.1(9) . . . .
C7 N3 C10 C9 1.2(6) . . . .
C7 N3 C10 C11 -178.9(4) . . . .
C8 C9 C10 N3 -1.4(7) . . . .
C8 C9 C10 C11 178.7(5) . . . .
O4 S2 C12 C13 -157.4(3) . . . .
O3 S2 C12 C13 -25.9(3) . . . .
N6 S2 C12 C13 84.2(3) . . . .
O4 S2 C12 C17 22.6(3) . . . .
O3 S2 C12 C17 154.1(3) . . . .
N6 S2 C12 C17 -95.7(3) . . . .
C17 C12 C13 C14 0.2(6) . . . .
S2 C12 C13 C14 -179.7(4) . . . .
C12 C13 C14 C15 0.0(7) . . . .
C13 C14 C15 N5 179.2(4) . . . .
C13 C14 C15 C16 -0.1(6) . . . .
N5 C15 C16 C17 -179.2(4) . . . .
C14 C15 C16 C17 0.1(6) . . . .
C15 C16 C17 C12 0.1(6) . . . .
C13 C12 C17 C16 -0.2(5) . . . .
S2 C12 C17 C16 179.7(3) . . . .
C21 N7 C18 N8 -1.4(6) . . . .
C21 N7 C18 N6 178.9(3) . . . .
C19 N8 C18 N7 2.8(6) . . . .
C19 N8 C18 N6 -177.5(4) . . . .
S2 N6 C18 N7 11.9(5) . . . .
S2 N6 C18 N8 -167.8(3) . . . .
C18 N8 C19 C20 -1.4(8) . . . .
N8 C19 C20 C21 -1.1(9) . . . .
C18 N7 C21 C20 -1.5(6) . . . .
C18 N7 C21 C22 178.8(4) . . . .
C19 C20 C21 N7 2.7(8) . . . .
C19 C20 C21 C22 -177.7(5) . . . .
