#------------------------------------------------------------------------------
#$Date: 2017-09-28 15:26:17 +0300 (Thu, 28 Sep 2017) $
#$Revision: 201412 $
#$URL: file:///home/coder/svn-repositories/cod/cif/1/54/74/1547410.cif $
#------------------------------------------------------------------------------
#
# This file is available in the Crystallography Open Database (COD),
# http://www.crystallography.net/
#
# All data on this site have been placed in the public domain by the
# contributors.
#
data_1547410
loop_
_publ_author_name
'Anuradha R. Pallipurath'
'Jonathan M. Skelton'
'Mark R. Warren'
'Naghmeh Kamali'
'Patrick McArdle'
'Andrea Erxleben'
_publ_section_title
;
 Sulfamerazine: Understanding the Influence of Slip Planes in the
 Polymorphic Phase Transformation through X-Ray Crystallographic Studies
 and ab Initio Lattice Dynamics
;
_journal_name_full               'Molecular Pharmaceutics'
_journal_page_first              3735
_journal_page_last               3748
_journal_paper_doi               10.1021/acs.molpharmaceut.5b00504
_journal_volume                  12
_journal_year                    2015
_chemical_absolute_configuration ad
_chemical_formula_moiety         'C11 H12 N4 O2 S'
_chemical_formula_sum            'C11 H12 N4 O2 S'
_chemical_formula_weight         264.303
_chemical_name_common            Sulfamerazine
_chemical_name_systematic        4-amino-N-(4-methylpyrimidin-2-yl)
_space_group_crystal_system      orthorhombic
_space_group_IT_number           33
_space_group_name_Hall           'P 2c -2n'
_space_group_name_H-M_alt        'P n a 21'
_symmetry_space_group_name_Hall  'P 2c -2n'
_symmetry_space_group_name_H-M   'P n a 21'
_atom_sites_solution_hydrogens   mixed
_cell_angle_alpha                90
_cell_angle_beta                 90
_cell_angle_gamma                90
_cell_formula_units_Z            11
_cell_length_a                   14.4829(6)
_cell_length_b                   8.1938(3)
_cell_length_c                   21.8441(9)
_cell_measurement_reflns_used    2210
_cell_measurement_temperature    200.0(1)
_cell_measurement_theta_max      28.7040
_cell_measurement_theta_min      3.4350
_cell_volume                     2592.24(18)
_computing_cell_refinement
;
'Wed Dec 17 23:19:30 2014'
;
_computing_data_collection
;
'Wed Dec 17 23:19:30 2014'
;
_computing_data_reduction
;
'Wed Dec 17 23:19:30 2014'
;
_computing_molecular_graphics    OSCAIL
_computing_structure_refinement  'SHELXL-2014/7 (Sheldrick, 2014)'
_computing_structure_solution    SHELXT
_diffrn_ambient_temperature      200.0(1)
_diffrn_detector_area_resol_mean 16.1048
_diffrn_measured_fraction_theta_full 0.997
_diffrn_measured_fraction_theta_max 0.858
_diffrn_measurement_device_type  'Xcalibur, Sapphire3'
_diffrn_measurement_method       '\w scans'
_diffrn_radiation_type           MoK\a
_diffrn_radiation_wavelength     0.71073
_diffrn_reflns_av_R_equivalents  0.0282
_diffrn_reflns_av_unetI/netI     0.0627
_diffrn_reflns_Laue_measured_fraction_full 0.997
_diffrn_reflns_Laue_measured_fraction_max 0.858
_diffrn_reflns_limit_h_max       19
_diffrn_reflns_limit_h_min       -17
_diffrn_reflns_limit_k_max       9
_diffrn_reflns_limit_k_min       -11
_diffrn_reflns_limit_l_max       17
_diffrn_reflns_limit_l_min       -29
_diffrn_reflns_number            7830
_diffrn_reflns_point_group_measured_fraction_full 0.753
_diffrn_reflns_point_group_measured_fraction_max 0.629
_diffrn_reflns_theta_full        25.242
_diffrn_reflns_theta_max         29.266
_diffrn_reflns_theta_min         3.412
_diffrn_source                   'Enhance (Mo) X-ray Source'
_exptl_absorpt_coefficient_mu    0.250
_exptl_absorpt_correction_T_max  1.00000
_exptl_absorpt_correction_T_min  0.92910
_exptl_absorpt_correction_type   multi-scan
_exptl_absorpt_process_details
;
'Wed Dec 17 23:19:30 2014'
;
_exptl_crystal_colour            Colourless
_exptl_crystal_density_diffrn    1.354
_exptl_crystal_description       Parallelepiped
_exptl_crystal_F_000             1104
_exptl_crystal_size_max          0.50
_exptl_crystal_size_mid          0.40
_exptl_crystal_size_min          0.20
_refine_diff_density_max         0.234
_refine_diff_density_min         -0.301
_refine_diff_density_rms         0.048
_refine_ls_abs_structure_details
;
 Flack x determined using 777 quotients [(I+)-(I-)]/[(I+)+(I-)]
 (Parsons, Flack and Wagner, Acta Cryst. B69 (2013) 249-259).
;
_refine_ls_abs_structure_Flack   -0.03(7)
_refine_ls_extinction_coef       .
_refine_ls_extinction_method     none
_refine_ls_goodness_of_fit_ref   0.976
_refine_ls_hydrogen_treatment    mixed
_refine_ls_matrix_type           full
_refine_ls_number_parameters     343
_refine_ls_number_reflns         4439
_refine_ls_number_restraints     5
_refine_ls_restrained_S_all      0.975
_refine_ls_R_factor_all          0.0697
_refine_ls_R_factor_gt           0.0456
_refine_ls_shift/su_max          0.001
_refine_ls_shift/su_mean         0.000
_refine_ls_structure_factor_coef Fsqd
_refine_ls_weighting_details
'w=1/[\s^2^(Fo^2^)+(0.0271P)^2^] where P=(Fo^2^+2Fc^2^)/3'
_refine_ls_weighting_scheme      calc
_refine_ls_wR_factor_gt          0.0789
_refine_ls_wR_factor_ref         0.0900
_reflns_Friedel_coverage         0.432
_reflns_Friedel_fraction_full    0.495
_reflns_Friedel_fraction_max     0.389
_reflns_number_gt                3247
_reflns_number_total             4439
_reflns_threshold_expression     'I > 2\s(I)'
_cod_data_source_file            Exp_Form-I2FInHouse_Form-I_200K.cif
_cod_data_source_block           smz_f1_200_a
_cod_database_code               1547410
_shelx_space_group_comment
;
The symmetry employed for this shelxl refinement is uniquely defined
by the following loop, which should always be used as a source of
symmetry information in preference to the above space-group names.
They are only intended as comments.
;
_shelxl_version_number           2014/6
_shelx_res_file
;
TITL smz_f1_200_a.res in Pna2(1)
REM Old TITL smz_f1_200 in Pnma
REM SHELXT solution in Pna2(1)
REM R1 0.120,  Rweak 0.076,  Alpha 0.005,  Orientation a'=-a, b'=c, c'=b
REM Flack x =  0.079 ( 0.058 ) from Parsons' quotients
CELL  0.71073  14.4829   8.1938  21.8441   90.000   90.000   90.000
ZERR   11.000   0.0006   0.0003   0.0009    0.000    0.000    0.000
REM SG 33 4 4 Pna21 PGmm2 Orthorhombic
LATT -1
REM SG  ASUN  1  .5 .5 1.
REM SG  ORGN  on 2(1)
SYMM -X,-Y,0.5+Z
SYMM 0.5+X,0.5-Y,Z
SYMM 0.5-X,0.5+Y,0.5+Z
SFAC C H N O S
UNIT 88 96 32 16 8
L.S. 12
BOND $H
DFIX .89 .02 N1 H1N1 N1 H2N1 N2 H1N2 N6 H1N6
ACTA
CONF
HTAB
LIST 4
WGHT    0.027100
FVAR       0.35389
S1    5    0.355189    0.505016    0.656198    11.00000    0.02446    0.02927 =
         0.02583    0.00239   -0.00069   -0.00194
S2    5    0.422099    0.502810    0.346980    11.00000    0.02405    0.02921 =
         0.02349    0.00282   -0.00113   -0.00168
O1    4    0.312140    0.629568    0.691979    11.00000    0.03923    0.03108 =
         0.03136   -0.00453   -0.00155   -0.00106
O2    4    0.452673    0.477424    0.662812    11.00000    0.02246    0.04604 =
         0.03344    0.01018   -0.00504   -0.00170
O3    4    0.324500    0.530642    0.340617    11.00000    0.02397    0.04463 =
         0.03166    0.00353   -0.00605   -0.00366
O4    4    0.464539    0.375309    0.311553    11.00000    0.03534    0.02585 =
         0.03566   -0.00274   -0.00097   -0.00104
N1    3    0.158038   -0.117046    0.687550    11.00000    0.03358    0.02972 =
         0.05620   -0.00593    0.01608   -0.00402
N2    3    0.346005    0.552174    0.582406    11.00000    0.02282    0.03853 =
         0.02743    0.00644    0.00158    0.00102
N3    3    0.186566    0.591376    0.582998    11.00000    0.02197    0.03452 =
         0.03411    0.00159    0.00219    0.00126
N4    3    0.272529    0.570004    0.490360    11.00000    0.02875    0.06914 =
         0.02378    0.00457   -0.00409    0.01535
N5    3    0.619597    1.119839    0.304617    11.00000    0.04238    0.02795 =
         0.07848   -0.00357    0.01700   -0.00526
AFIX  93
H5A   2    0.592223    1.211371    0.311081    11.00000   -1.30000
H5B   2    0.675883    1.118543    0.292084    11.00000   -1.30000
AFIX   0
N6    3    0.432298    0.460316    0.420464    11.00000    0.02308    0.04603 =
         0.02550    0.01078    0.00116    0.00290
N7    3    0.590334    0.412832    0.419607    11.00000    0.02831    0.03719 =
         0.03044    0.00253    0.00298    0.00319
N8    3    0.504651    0.435116    0.512777    11.00000    0.03121    0.06596 =
         0.02692    0.00391   -0.00331    0.00972
C1    1    0.296558    0.323032    0.665970    11.00000    0.02629    0.02854 =
         0.02418    0.00419   -0.00141    0.00298
C2    1    0.207054    0.320043    0.689344    11.00000    0.02581    0.03133 =
         0.01997   -0.00237   -0.00511    0.00514
AFIX  43
H2    2    0.178076    0.417295    0.699960    11.00000   -1.30000
AFIX   0
C3    1    0.161092    0.173943    0.696859    11.00000    0.02088    0.03723 =
         0.02072   -0.00128    0.00149   -0.00099
AFIX  43
H3    2    0.101196    0.173326    0.712205    11.00000   -1.30000
AFIX   0
C4    1    0.204076    0.027018    0.681533    11.00000    0.02836    0.03167 =
         0.02327   -0.00169    0.00013   -0.00089
C5    1    0.294190    0.031745    0.657478    11.00000    0.03065    0.02734 =
         0.03817   -0.00138    0.01026    0.00422
AFIX  43
H5    2    0.323378   -0.065107    0.646605    11.00000   -1.30000
AFIX   0
C6    1    0.339599    0.177512    0.649849    11.00000    0.02504    0.03430 =
         0.03113   -0.00018    0.00393    0.00220
AFIX  43
H6    2    0.399132    0.178896    0.633901    11.00000   -1.30000
AFIX   0
C7    1    0.263410    0.571925    0.551004    11.00000    0.02410    0.02930 =
         0.03142    0.00539   -0.00335   -0.00177
C8    1    0.194384    0.594160    0.459584    11.00000    0.04739    0.11051 =
         0.02823    0.00202   -0.00400    0.02557
AFIX  43
H8    2    0.196828    0.596781    0.417052    11.00000   -1.30000
AFIX   0
C9    1    0.110164    0.615441    0.487630    11.00000    0.03016    0.09836 =
         0.03864   -0.00194   -0.00976    0.01801
AFIX  43
H9    2    0.056582    0.631674    0.464970    11.00000   -1.30000
AFIX   0
C10   1    0.108526    0.611702    0.550613    11.00000    0.02939    0.04052 =
         0.04586   -0.00452   -0.00114    0.00373
C11   1    0.021283    0.631584    0.586043    11.00000    0.03304    0.06177 =
         0.05890   -0.00862    0.00432    0.00344
AFIX 137
H11A  2    0.013603    0.744194    0.597053    11.00000   -1.30000
H11B  2    0.024105    0.566238    0.622472    11.00000   -1.30000
H11C  2   -0.030044    0.597125    0.561421    11.00000   -1.30000
AFIX   0
C12   1    0.480768    0.684074    0.334062    11.00000    0.02597    0.02854 =
         0.02133    0.00184    0.00050    0.00011
C13   1    0.436353    0.830609    0.344521    11.00000    0.02486    0.03054 =
         0.04250    0.00014    0.00926    0.00347
AFIX  43
H13   2    0.375562    0.831220    0.358233    11.00000   -1.30000
AFIX   0
C14   1    0.482085    0.976460    0.334646    11.00000    0.03426    0.02651 =
         0.05021   -0.00505    0.00309    0.00641
AFIX  43
H14   2    0.451799    1.074815    0.341591    11.00000   -1.30000
AFIX   0
C15   1    0.573761    0.976783    0.314241    11.00000    0.03312    0.02799 =
         0.03251    0.00006    0.00173    0.00058
C16   1    0.617980    0.826855    0.303380    11.00000    0.02569    0.03311 =
         0.02709   -0.00365    0.00524   -0.00340
AFIX  43
H16   2    0.678693    0.825167    0.289530    11.00000   -1.30000
AFIX   0
C17   1    0.571466    0.681930    0.313230    11.00000    0.03062    0.02192 =
         0.02697   -0.00088    0.00505    0.00141
AFIX  43
H17   2    0.600856    0.582916    0.305918    11.00000   -1.30000
AFIX   0
C18   1    0.514187    0.433635    0.451615    11.00000    0.02751    0.02982 =
         0.03007    0.00486   -0.00199    0.00052
C19   1    0.582532    0.404179    0.543443    11.00000    0.04036    0.11088 =
         0.03304    0.00447   -0.00625    0.01990
AFIX  43
H19   2    0.580370    0.401083    0.585977    11.00000   -1.30000
AFIX   0
C20   1    0.665375    0.376833    0.515050    11.00000    0.03003    0.09646 =
         0.04713   -0.00694   -0.00926    0.02372
AFIX  43
H20   2    0.718230    0.353025    0.537518    11.00000   -1.30000
AFIX   0
C21   1    0.667865    0.385836    0.451511    11.00000    0.02861    0.04130 =
         0.04165   -0.00192   -0.00132    0.00863
C22   1    0.755029    0.363958    0.415271    11.00000    0.03057    0.07062 =
         0.06491   -0.00685    0.00261    0.01156
AFIX 137
H22A  2    0.806728    0.357841    0.442680    11.00000   -1.30000
H22B  2    0.762914    0.454989    0.388103    11.00000   -1.30000
H22C  2    0.751200    0.265051    0.391851    11.00000   -1.30000
AFIX   0
H1N1  2    0.107218   -0.117057    0.709780    11.00000    0.03695
H2N1  2    0.194669   -0.202523    0.684117    11.00000    0.05613
H1N2  2    0.392383    0.514586    0.560467    11.00000    0.02029
H1N6  2    0.380063    0.497042    0.439019    11.00000    0.07649
HKLF 4
REM  smz_f1_200_a.res in Pna2(1)
REM R1 =  0.0456 for    3247 Fo > 4sig(Fo)  and  0.0697 for all    4439 data
REM    343 parameters refined using      5 restraints
END
WGHT      0.0245      0.0000
REM Instructions for potential hydrogen bonds
EQIV $1 x, y+1, z
HTAB N5 O4_$1
HTAB C8 O3
HTAB C14 O4_$1
HTAB C19 O2
EQIV $2 -x+1/2, y-1/2, z+1/2
HTAB N1 O4_$2
EQIV $3 x, y-1, z
HTAB N1 O1_$3
HTAB N2 N8
HTAB N6 N4
REM Highest difference peak  0.234,  deepest hole -0.301,  1-sigma level  0.048
Q1    1   0.4354  0.4603  0.3899  11.00000  0.05    0.23
Q2    1   0.3204  0.4025  0.6645  11.00000  0.05    0.22
Q3    1   0.1999  0.4975  0.4096  11.00000  0.05    0.20
Q4    1   0.4644  0.5984  0.3473  11.00000  0.05    0.18
Q5    1   0.3429  0.5682  0.6151  11.00000  0.05    0.18
Q6    1   0.4963  0.3852  0.6740  11.00000  0.05    0.18
Q7    1   0.0519 -0.2310  0.7241  11.00000  0.05    0.18
Q8    1   0.4899  0.6190  0.6715  11.00000  0.05    0.18
Q9    1   0.4626  0.4008  0.3263  11.00000  0.05    0.18
Q10   1   0.3575  0.3047  0.5905  11.00000  0.05    0.17
Q11   1  -0.0208  0.7018  0.5480  11.00000  0.05    0.17
Q12   1   0.5830  0.5040  0.5852  11.00000  0.05    0.17
Q13   1   0.4382  0.6168  0.3326  11.00000  0.05    0.17
Q14   1   0.6719  0.3570  0.4838  11.00000  0.05    0.17
Q15   1   0.1773  0.2470  0.6841  11.00000  0.05    0.16
Q16   1   0.1861  0.5696  0.6170  11.00000  0.05    0.16
Q17   1   0.5410  0.3258  0.5947  11.00000  0.05    0.16
Q18   1   0.3411  0.4212  0.5810  11.00000  0.05    0.16
Q19   1   0.1031  0.8532  0.4878  11.00000  0.05    0.16
Q20   1   0.2989  0.4064  0.3284  11.00000  0.05    0.16
;
_shelx_res_checksum              49430
_shelx_hkl_file
;
   0   0   4 2056.44   20.78
   0   0  -4 2082.81   20.82
   0   0  -5    6.23    2.47
   0   0   5    1.81    1.21
   0   0  -6 9999.00   56.25
   0   0   6 9805.72   55.41
   0   0  -7   29.55    6.02
   0   0   7   12.51    2.99
   0   0  -8 7478.98   56.43
   0   0   8 7610.13   56.67
   0   0  -9   55.75    6.50
   0   0   9   37.53    4.84
   0   0 -10  165.61    8.84
   0   0  10  161.91    9.20
   0   0 -10  165.58    9.37
   0   0 -11    2.38    2.50
   0   0 -11    2.43    1.95
   0   0 -12 1901.01   35.60
   0   0 -12 1895.72   33.14
   0   0 -13   40.63    6.54
   0   0 -13   41.50    5.46
   0   0 -14   27.01    4.32
   0   0 -14   26.60    4.73
   0   0 -15    0.52    1.80
   0   0 -15    0.10    1.77
   0   0 -16  192.54   12.20
   0   0 -16  191.13   13.11
   0   0 -17    5.39    3.48
   0   0 -17    4.99    2.66
   0   0 -18   36.18    6.40
   0   0 -18   27.76    5.06
   0   0 -19    4.10    2.44
   0   0 -19    5.05    3.28
   0   0 -20  378.02   21.08
   0   0 -20  369.12   19.42
   0   0 -21    9.27    3.56
   0   0 -21   12.29    4.47
   0   0 -22   35.52    6.32
   0   0 -22   38.38    7.17
   0   0 -23    1.60    1.95
   0   0 -23    0.33    1.15
   0   0 -24    5.25    3.09
   0   0 -24    1.01    1.17
   0   0 -25    4.56    3.54
   0   0 -26  371.66   24.73
   0   0 -27   15.54    5.64
   1   0  -4    0.93    0.84
   1   0  -4    1.89    1.18
  -1   0   4    2.48    1.25
  -1   0  -4    0.75    0.92
  -1   0   4    0.31    0.54
   1   0   4    0.01    0.50
   1   0   5    2.27    1.16
  -1   0   5    2.13    1.34
  -1   0  -5    1.30    0.97
   1   0  -5    2.17    1.21
   1   0  -5    1.25    1.09
  -1   0   5    0.48    0.89
  -1   0   6    0.14    0.77
  -1   0   6    0.84    1.02
   1   0  -6   -0.42    1.25
  -1   0  -6   -0.46    0.96
   1   0   6   -0.15    0.88
   1   0  -6   -0.98    1.12
  -1   0   7    0.35    1.12
  -1   0  -7    0.29    1.17
   1   0  -7    1.01    1.14
   1   0   7   -0.56    1.03
   1   0  -7   -0.91    1.08
   1   0  -8   -0.30    1.23
  -1   0   8   -1.10    1.06
   1   0   8    1.77    1.01
   1   0  -8   -0.54    1.12
  -1   0  -8   -1.38    1.44
  -1   0   9    1.08    1.03
  -1   0  -9   -0.58    1.16
   1   0  -9   -0.50    1.12
   1   0  -9   -0.30    1.69
   1   0   9    1.19    0.96
   1   0 -10    1.86    1.22
   1   0  10    0.16    0.83
  -1   0 -10    0.49    1.25
   1   0 -10    0.36    1.05
   1   0 -11    0.15    1.16
   1   0 -11    0.44    1.42
  -1   0 -11   -1.13    1.33
   1   0 -12    0.43    1.97
  -1   0 -12   -1.45    2.12
   1   0 -12    0.90    1.12
   1   0 -13   -0.90    1.32
  -1   0 -13    0.64    1.40
   1   0 -13   -0.52    1.24
  -1   0 -14    0.04    1.51
   1   0 -14    0.11    1.11
   1   0 -14   -0.40    1.90
  -1   0 -15   -0.78    1.83
   1   0 -15   -0.10    1.84
  -1   0 -15    0.76    1.57
   1   0 -15    1.65    2.04
   1   0 -16   -2.16    2.15
   1   0 -16    1.27    1.26
  -1   0 -16   -0.14    1.65
  -1   0 -16   -2.19    2.12
  -1   0 -17    0.78    1.89
  -1   0 -17    0.50    1.24
   1   0 -17   -2.60    2.62
   1   0 -17    0.09    1.28
  -1   0 -18   -0.14    1.65
   1   0 -18   -0.63    1.26
   1   0 -18    1.02    1.79
  -1   0 -18   -0.47    1.18
  -1   0 -19    0.09    1.57
  -1   0 -19   -0.52    1.74
   1   0 -19   -0.13    2.06
   1   0 -19   -0.21    1.48
  -1   0 -20    0.30    1.46
   1   0 -20   -0.24    1.68
  -1   0 -20   -0.95    2.17
   1   0 -20   -2.64    2.62
   1   0 -21   -1.69    2.04
   1   0 -21    0.10    1.71
  -1   0 -21    1.03    1.83
  -1   0 -21   -0.65    1.73
   1   0 -22    1.72    2.21
  -1   0 -22    1.06    1.78
  -1   0 -22    1.38    2.05
   1   0 -22    0.44    1.72
  -1   0 -23   -1.81    2.35
  -1   0 -23    0.04    1.25
   1   0 -23    1.29    2.01
  -1   0 -24    0.79    1.46
  -1   0 -24    0.99    1.51
   1   0 -24    1.24    2.21
   1   0 -25    2.48    3.01
   1   0 -26    3.35    2.90
   1   0 -27    0.79    1.61
   1   0 -28    3.60    3.39
  -2   0   3 3484.20   30.75
   2   0  -3 3519.02   30.95
   2   0  -4 4817.75   38.88
  -2   0   4 4722.38   38.43
  -2   0   5 1113.24   18.32
   2   0   5 1126.12   17.60
  -2   0   5 1136.70   20.11
   2   0  -5 1141.15   20.57
   2   0  -6  373.72   12.40
  -2   0   6  360.05   11.01
   2   0   6  349.93   10.59
  -2   0   6  370.57   12.24
  -2   0   7 4149.43   43.60
  -2   0   7 4013.31   38.97
   2   0   7 3982.05   38.05
   2   0  -7 3986.53   43.45
  -2   0   8  256.82   11.41
   2   0  -8  261.74   11.71
   2   0   8  263.57   10.36
  -2   0   8  259.42   10.46
   2   0   9 1034.38   21.73
   2   0  -9 1031.64   24.30
  -2   0   9 1046.45   21.89
   2   0 -10 1370.24   26.57
  -2   0 -10 1354.45   26.35
   2   0  10 1356.91   26.32
   2   0 -10 1382.86   29.41
  -2   0 -11  171.78   10.07
   2   0 -11  173.99   11.10
   2   0 -11  178.34   10.21
   2   0 -12   43.42    6.05
   2   0 -12   54.07    6.37
  -2   0 -12   55.19    6.20
  -2   0 -13 2560.20   41.62
   2   0 -13 2570.44   45.67
   2   0 -13 2502.41   40.49
  -2   0 -14   65.22    9.12
   2   0 -14   49.96    6.60
  -2   0 -15  356.53   16.94
   2   0 -15  351.33   18.25
   2   0 -15  352.86   16.42
  -2   0 -16   25.65    5.65
   2   0 -16   21.45    5.57
   2   0 -16   37.76    5.76
   2   0 -17  161.28   13.04
  -2   0 -17  163.95   12.33
  -2   0 -18   17.78    5.29
   2   0 -18   16.01    4.83
   2   0 -19  413.45   22.38
  -2   0 -19  399.85   19.78
  -2   0 -19  390.32   20.42
  -2   0 -20   34.64    6.11
   2   0 -20   30.99    7.36
  -2   0 -21  106.77   10.97
   2   0 -21  109.33   12.34
   2   0 -22   30.05    6.80
  -2   0 -22   32.66    6.33
  -2   0 -23  127.19   12.39
   2   0 -23  126.30   13.71
   2   0 -24   56.67    9.60
  -2   0 -24   59.88    8.68
   2   0 -25   71.92   11.09
   2   0 -26    7.97    4.16
   2   0 -27    9.72    4.50
   2   0 -28   32.32    7.97
  -3   0   0   -0.15    0.71
   3   0   1    2.50    0.93
  -3   0  -1    3.03    1.25
   3   0   2    3.65    1.55
   3   0  -2   24.91    4.04
   3   0  -3    4.20    2.50
  -3   0   4    5.04    2.45
   3   0  -4   -0.12    1.31
  -3   0   5    3.53    1.96
   3   0  -5   -1.36    1.99
  -3   0   6    1.17    1.14
   3   0  -6   -2.84    2.09
   3   0  -7    0.07    1.45
   3   0   7    0.05    0.81
  -3   0   7    1.06    0.96
  -3   0   7    0.73    1.05
  -3   0   8    0.34    0.79
   3   0  -8    0.61    1.46
   3   0   8    0.55    0.82
   3   0   9   -0.42    1.01
  -3   0   9    0.27    0.81
   3   0  -9    1.24    1.74
  -3   0  10   -0.28    0.75
   3   0 -10   -0.26    1.63
   3   0  10    0.32    0.70
   3   0 -11    0.21    1.85
   3   0 -12   -0.62    1.65
   3   0 -13   -1.54    1.96
   3   0 -14   -2.23    2.47
   3   0 -15    0.20    2.11
   3   0 -16    0.18    2.16
   3   0 -17   -1.66    2.08
   3   0 -18   -1.54    2.41
   3   0 -19    0.73    1.95
   3   0 -20    0.15    1.94
   3   0 -21   -0.06    1.68
  -3   0 -21   -0.61    1.54
  -3   0 -22   -0.94    1.64
   3   0 -22   -0.43    1.84
  -3   0 -23   -1.71    1.87
   3   0 -23   -1.28    2.65
   3   0 -24   -0.51    2.42
  -3   0 -24   -0.21    1.47
   3   0 -25   -0.70    2.52
   3   0 -26   -2.31    2.64
   3   0 -27   -0.85    2.24
   3   0 -28    0.04    2.24
   3   0 -29   -2.30    2.59
  -4   0   0  376.02    9.13
  -4   0  -1  291.85    8.08
   4   0   1  285.78    7.97
  -4   0  -2  519.39   10.96
   4   0   2  535.95   11.35
   4   0  -3  741.50   17.94
   4   0   3  742.87   14.27
   4   0   4   83.60    5.40
   4   0  -4   88.89    6.58
   4   0  -5  175.60    9.55
   4   0  -6   80.60    6.68
  -4   0   6   83.73    6.77
   4   0  -7   26.53    4.14
   4   0  -8  183.63   11.08
  -4   0   8  175.22    9.77
   4   0  -9  623.01   21.18
   4   0   9  618.92   17.73
   4   0 -10   50.32    6.51
   4   0  10   54.97    5.39
   4   0 -11  661.62   23.16
   4   0 -12   69.95    7.99
   4   0 -13   73.43    8.62
   4   0 -14  124.96   11.05
   4   0 -15  158.12   12.75
   4   0 -16   79.50    9.43
   4   0 -17  402.64   22.16
   4   0 -18   99.40   11.87
   4   0 -19   84.04   10.82
   4   0 -20   66.51    9.79
   4   0 -21   63.11    9.71
   4   0 -22   56.04    9.60
   4   0 -23   42.07    8.39
  -4   0 -23   46.92    7.67
   4   0 -24   18.55    6.29
   4   0 -25   13.57    5.09
   4   0 -26   82.52   12.38
   4   0 -27   41.50    9.27
   4   0 -28    6.85    4.05
   4   0 -29    1.19    2.29
  -5   0   0   -0.11    0.87
  -5   0  -1   -0.96    1.12
   5   0   2    0.54    0.74
  -5   0  -2    4.53    2.49
   5   0  -3    7.51    3.68
   5   0   3   -1.67    1.62
   5   0  -4    1.37    2.67
   5   0   4    2.43    1.53
   5   0   5    8.81    2.50
   5   0  -5    2.98    2.58
   5   0  -6   -0.62    1.97
   5   0  -7   -3.93    3.29
   5   0  -8   -3.40    3.15
   5   0  -9    0.82    2.34
   5   0 -10    2.68    2.19
   5   0 -11    0.24    1.79
   5   0 -12    1.01    1.97
   5   0 -13    1.43    2.27
   5   0 -14    1.83    2.00
   5   0 -15   -0.72    2.96
   5   0 -16    0.46    2.23
   5   0 -17   -4.42    4.38
   5   0 -18   -3.86    3.62
   5   0 -19    2.49    2.57
   5   0 -20    1.41    2.23
   5   0 -21   -2.43    2.97
   5   0 -22    4.33    3.59
   5   0 -23    1.80    2.60
   5   0 -24   -1.44    1.95
   5   0 -25   -0.24    2.19
   5   0 -26    0.16    2.61
   5   0 -27    1.54    2.42
   5   0 -28    1.31    2.38
  -6   0   0  306.69   10.14
  -6   0   1  928.82   17.97
  -6   0  -1  916.64   17.45
   6   0   2 2471.15   28.88
  -6   0  -2 2309.86   27.86
   6   0   3  492.64   13.18
   6   0  -3  478.40   17.39
   6   0   4  573.89   15.00
   6   0  -4  580.67   19.53
   6   0   5  964.64   20.34
   6   0  -5  963.83   25.83
   6   0  -6  323.74   15.57
   6   0   6  335.31   12.50
   6   0   7   76.13    6.39
   6   0  -7   52.49    6.30
   6   0  -8   77.91    7.86
   6   0  -9  254.28   14.86
   6   0 -10  350.26   18.25
   6   0 -11   76.91    9.23
   6   0 -12   85.49    9.50
   6   0 -13  115.20   11.41
   6   0 -14  539.81   25.07
   6   0 -15  227.22   16.80
   6   0 -16  893.84   34.05
   6   0 -17  104.04   11.79
   6   0 -18    1.86    2.32
   6   0 -19   14.57    4.49
   6   0 -20    1.94    2.72
   6   0 -21   24.50    6.58
   6   0 -22   93.55   12.82
   6   0 -23    7.02    4.38
   6   0 -24  106.79   14.32
   6   0 -25   23.94    7.28
   6   0 -26    6.65    3.85
   6   0 -27   43.82    9.88
  -7   0   0    0.86    0.90
  -7   0  -1   -0.70    0.90
  -7   0   1   -0.99    1.32
  -7   0  -2    6.29    2.73
   7   0   2   -0.90    1.26
   7   0   3   -0.20    0.91
   7   0  -3   12.36    5.15
   7   0  -4   11.08    4.64
   7   0   4    0.68    0.97
   7   0  -5    3.40    3.85
   7   0   5   -1.39    1.45
   7   0  -6    2.86    2.79
   7   0   6   -0.52    0.97
   7   0   7    3.30    2.03
   7   0  -7   -0.70    2.26
   7   0  -8   -1.96    2.87
   7   0  -9   -2.04    2.28
   7   0 -10   -5.37    4.48
   7   0 -11    0.72    2.98
   7   0 -12    1.28    2.89
   7   0 -13   -1.19    2.98
   7   0 -14   -0.20    2.26
   7   0 -15   -0.90    2.71
   7   0 -16    0.97    2.78
   7   0 -17    0.68    1.82
   7   0 -18   -0.51    2.51
   7   0 -19   -3.03    3.68
   7   0 -20   -1.33    3.14
   7   0 -21    0.26    1.87
   7   0 -22   -1.52    3.00
   7   0 -23   -0.01    1.99
   7   0 -24    2.26    2.72
   7   0 -25   -1.67    2.95
   7   0 -26    1.83    2.91
   7   0 -27    4.69    3.77
  -8   0   0  560.49   15.92
  -8   0  -1   53.39    4.86
  -8   0   1   50.20    4.74
  -8   0  -2  364.16   12.68
  -8   0   2  355.40   13.27
   8   0  -3  778.77   25.08
   8   0   3  790.64   19.11
   8   0   4  387.81   13.65
   8   0  -4  369.59   17.98
   8   0  -5   35.68    6.24
   8   0   5   35.16    4.33
   8   0  -6  221.11   14.39
   8   0   6  217.51   11.00
   8   0  -7    2.03    2.03
   8   0  -8  444.04   21.03
   8   0  -9  606.79   25.16
   8   0 -10   38.97    6.15
   8   0 -11  312.96   18.73
   8   0 -12  330.42   20.17
   8   0 -13   42.70    7.21
   8   0 -14   66.19    9.56
   8   0 -15  130.72   13.41
   8   0 -16   17.66    5.50
   8   0 -17  152.46   15.41
   8   0 -18   99.91   12.93
   8   0 -19   36.22    8.15
   8   0 -20    8.89    4.30
   8   0 -21   40.77    8.65
   8   0 -22   15.26    6.03
   8   0 -23    1.44    1.81
   8   0 -24   16.17    5.93
   8   0 -25   23.17    7.33
   8   0 -26   46.05   10.22
  -9   0   0   -0.56    1.49
  -9   0  -1    0.28    1.15
  -9   0   1    0.51    1.13
  -9   0   2   -0.97    1.37
  -9   0  -2    8.27    3.01
  -9   0   3   -0.37    1.28
   9   0  -3   11.95    5.59
   9   0  -4    6.35    4.13
   9   0   4   -0.84    1.22
   9   0   5   -0.03    0.84
   9   0  -5    2.62    3.34
   9   0  -6    0.88    2.96
   9   0  -7    1.58    2.46
   9   0  -8    1.33    2.29
   9   0  -9   -0.98    3.53
   9   0 -10   -4.34    4.37
   9   0 -11   -4.76    5.13
   9   0 -12   -0.32    2.86
   9   0 -13   -2.16    2.72
   9   0 -14   -1.04    2.26
   9   0 -15   -1.49    3.23
   9   0 -16   -0.50    2.90
   9   0 -17   -0.29    2.01
   9   0 -18   -3.44    3.38
   9   0 -19    0.83    1.96
   9   0 -20   -2.15    3.46
   9   0 -21    0.45    2.07
   9   0 -22   -2.35    2.96
   9   0 -23   -0.95    1.98
   9   0 -24    2.33    2.69
   9   0 -25   -0.81    2.76
 -10   0   0    0.38    1.41
 -10   0   1   67.32    6.24
 -10   0  -1   69.48    6.36
 -10   0   2   97.06    7.61
 -10   0  -2  100.39    7.66
  10   0  -3  131.10   11.90
 -10   0   3  112.23    8.41
  10   0  -4  173.17   13.72
  10   0  -5  115.95   11.55
  10   0  -6   27.73    6.10
  10   0  -7   64.37    8.80
  10   0  -8  117.02   12.13
  10   0  -9  110.68   11.86
  10   0 -10   40.82    7.06
  10   0 -11  151.86   13.92
  10   0 -12  149.22   14.18
  10   0 -13   94.43   12.04
  10   0 -14   73.83   11.05
  10   0 -15  146.32   15.20
  10   0 -16   49.43    9.49
  10   0 -17  128.27   15.13
  10   0 -18   91.02   12.94
  10   0 -19   39.77    8.82
  10   0 -20   28.20    7.71
  10   0 -21  106.64   14.87
  10   0 -22   25.53    7.47
  10   0 -23   58.88   11.42
 -11   0   0   -0.41    1.06
 -11   0  -1    2.94    2.77
 -11   0   1   -3.70    2.73
 -11   0  -2    9.01    4.04
 -11   0   2    1.92    1.87
 -11   0   3   -0.80    1.65
  11   0  -3   19.18    6.32
 -11   0   4   -1.30    1.57
  11   0  -4    5.84    4.72
  11   0  -5   10.50    5.02
  11   0  -6    2.80    3.92
  11   0  -7    2.58    3.81
  11   0  -8   -1.82    2.91
  11   0  -9   -1.50    3.48
  11   0 -10   -5.61    4.33
  11   0 -11   -5.76    4.66
  11   0 -12   -3.90    4.25
  11   0 -13    5.01    4.09
  11   0 -14    1.07    2.87
  11   0 -15   -1.66    2.92
  11   0 -16    0.42    2.51
  11   0 -17   -1.11    2.34
  11   0 -18    3.77    3.75
  11   0 -19    2.11    3.15
  11   0 -20   -3.00    4.01
  11   0 -21   -2.92    3.45
  11   0 -22   -2.02    3.14
 -12   0   0  212.40   12.07
 -12   0  -1  549.44   19.07
 -12   0   1  519.01   19.34
  12   0  -2  277.05   18.64
 -12   0  -2  259.64   13.09
 -12   0   2  279.36   14.23
  12   0  -3   38.09    7.99
 -12   0   3   24.49    4.47
  12   0  -4   75.79   10.32
 -12   0   4   62.71    7.04
  12   0  -5  127.97   13.18
 -12   0   5  120.23   10.05
  12   0  -6   85.48   10.68
  12   0  -7    9.93    4.25
  12   0  -8  100.03   11.94
  12   0  -9   15.65    4.47
  12   0 -10  162.19   15.94
  12   0 -11  127.18   14.06
  12   0 -12  119.54   13.98
  12   0 -13  276.02   21.74
  12   0 -14  168.84   17.44
  12   0 -15    6.21    4.08
  12   0 -16   76.28   12.20
  12   0 -17  132.79   16.14
  12   0 -18   42.27    9.47
  12   0 -19   46.62    9.87
  12   0 -20   22.93    7.42
  12   0 -21    2.50    3.35
 -13   0   0    4.06    2.44
  13   0  -1   20.19    6.65
 -13   0  -1   15.17    4.07
  13   0  -2    8.71    5.36
 -13   0   2   -2.92    2.41
  13   0  -3   12.30    5.61
 -13   0   3    1.36    1.74
  13   0  -4   10.19    5.31
 -13   0   4    0.65    1.54
 -13   0   5   -1.69    1.71
  13   0  -5    4.07    4.14
 -13   0   6   -2.06    1.92
  13   0  -6    1.89    3.29
 -13   0   7   -1.02    1.49
  13   0  -7   -1.00    2.55
  13   0  -8   -2.17    3.34
  13   0  -9   -0.11    2.25
  13   0 -10   -2.67    4.08
  13   0 -11    0.09    2.80
  13   0 -12   -3.90    3.58
  13   0 -13    2.74    3.92
  13   0 -14    1.10    2.41
  13   0 -15    0.42    2.72
  13   0 -16    0.16    3.24
  13   0 -17    0.45    2.68
  13   0 -18    1.09    2.43
  13   0 -19    2.50    3.40
 -14   0   0   84.86    8.20
  14   0  -1   92.50   11.76
 -14   0   1   67.22    7.35
 -14   0  -1   79.20    7.99
  14   0  -2   41.72    8.12
 -14   0   2   31.29    4.89
 -14   0   3   46.59    6.19
  14   0  -3   63.30   10.02
  14   0  -4  118.35   13.58
 -14   0   4  119.41   10.33
  14   0  -5   81.65   11.44
 -14   0   5   77.41    8.59
  14   0  -6  141.25   14.92
 -14   0   6  147.47   12.09
  14   0  -7   99.47   12.65
 -14   0   7  105.26   10.53
 -14   0   8   13.89    3.94
  14   0  -8   11.16    4.52
  14   0  -9    4.39    2.76
  14   0 -10   83.85   12.07
  14   0 -11    3.30    2.45
  14   0 -12   72.04   11.36
  14   0 -13   57.93   11.18
  14   0 -14   20.28    6.93
  14   0 -15   10.28    4.65
  14   0 -16   48.66   10.46
  14   0 -17    0.50    2.59
  15   0   0   11.61    5.69
  15   0  -1    8.11    4.68
  15   0  -2    5.11    4.14
  15   0  -3    6.25    4.86
  15   0  -4    1.69    2.85
  15   0  -5    4.94    4.19
  15   0  -6   -1.76    2.98
  15   0  -7    0.39    2.72
  15   0  -8   -2.80    3.22
  15   0  -9   -1.97    3.09
  15   0 -10   -2.79    4.17
  15   0 -11   -5.50    4.74
  15   0 -12   -6.74    4.92
  15   0 -13    1.31    2.46
  15   0 -14    6.40    4.60
  15   0 -15    1.63    2.89
  16   0   0   10.13    5.27
  16   0   1   25.38    7.45
  16   0  -1   27.43    7.57
  16   0  -2   80.98   11.97
  16   0  -3   75.74   11.67
  16   0  -4   19.93    6.33
  16   0  -5    4.03    3.69
  16   0  -6    6.52    4.53
  16   0  -7   83.26   12.74
  16   0  -8    8.85    3.81
  16   0  -9   20.45    6.00
  16   0 -10    9.33    4.71
  16   0 -11    7.31    3.81
  16   0 -12    2.70    2.09
  17   0   0    8.29    4.94
  17   0  -1    6.07    4.27
  17   0   1    2.57    3.21
  17   0  -2   -0.32    2.73
  17   0   2   10.23    5.58
  17   0  -3    5.27    4.71
  17   0   3   10.05    5.33
  17   0  -4    0.68    2.92
  17   0  -5   -2.16    2.98
  17   0  -6   -0.50    2.58
  17   0  -7   -2.13    2.55
  17   0  -8   -2.95    4.30
  17   0  -9   -5.69    5.20
  17   0 -10   -5.63    4.71
  18   0   0   31.73    8.26
  18   0  -1   37.90    9.01
  18   0   1   32.94    8.60
  18   0   2   33.82    8.44
  18   0  -2   25.16    7.27
  18   0   3   77.05   12.47
  18   0  -3   66.05   11.61
  18   0   4   93.40   13.58
  18   0  -4   78.70   12.77
  18   0  -5   70.73   12.39
  18   0  -6    2.30    3.37
  19   0   0    4.07    3.77
  19   0   1    1.92    3.41
  19   0   2    5.02    4.17
  19   0   3    9.42    5.21
  19   0   4    7.09    4.70
  19   0   5   11.03    5.63
  19   0   6   10.95    5.38
   0  -1   3  670.82   13.33
   0   1  -3  676.70   13.20
   0  -1  -3  688.75    8.35
   0  -1  -4    0.67    0.55
   0   1  -4    3.62    1.71
   0   1   4    4.01    1.17
   0  -1   4    0.13    0.80
   0  -1  -5 1300.50   15.67
   0  -1   5 1319.50   21.78
   0   1  -5 1282.71   21.56
   0   1   5 1279.96   15.45
   0   1  -6    4.12    1.17
   0  -1   6    0.84    1.01
   0   1   6   -0.13    0.83
   0  -1  -6   -0.54    1.09
   0   1  -6    2.75    2.20
   0   1   7  768.99   14.90
   0  -1   7  794.19   19.20
   0  -1  -7  769.44   14.88
   0   1  -7  760.61   12.27
   0   1  -7  762.15   18.95
   0   1   8   -1.36    1.33
   0  -1  -8   -0.06    1.16
   0  -1   8   -0.07    0.89
   0   1  -8    3.79    1.66
   0   1  -8    6.06    3.30
   0   1   9  888.65   18.59
   0   1  -9  874.74   15.92
   0  -1  -9  867.03   18.65
   0   1  -9  880.28   22.51
   0  -1 -10    5.60    2.82
   0   1  10   -0.07    0.87
   0  -1 -10    0.22    1.70
   0   1 -10    2.64    2.05
   0   1 -10    5.46    3.81
   0  -1 -11   23.13    3.55
   0   1  11   22.07    3.31
   0   1 -11   27.46    4.55
   0   1 -11   21.78    2.88
   0  -1 -11   26.14    4.31
   0   1  12   -1.88    1.40
   0  -1 -12   -0.10    1.12
   0   1 -12    0.70    1.70
   0  -1 -12    0.47    1.35
   0   1 -12   -0.16    0.73
   0  -1 -13   68.10    7.26
   0  -1 -13   69.20    6.56
   0   1 -13   70.16    5.78
   0   1 -13   72.00    7.75
   0  -1 -14    1.68    2.03
   0   1 -14   -1.69    2.02
   0   1 -14    0.70    0.89
   0  -1 -14    1.57    2.03
   0   1 -15   44.06    6.60
   0   1 -15   42.92    4.99
   0  -1 -15   41.36    6.13
   0  -1 -15   44.94    5.90
   0  -1 -16    0.92    1.39
   0   1 -16    0.15    1.73
   0  -1 -16   -0.30    1.57
   0   1 -16    0.37    1.23
   0   1 -17   14.55    4.54
   0   1 -17   11.29    2.72
   0  -1 -17   14.69    4.05
   0  -1 -17   12.27    3.34
   0   1 -18    0.46    1.21
   0   1 -18    0.97    2.14
   0  -1 -18    0.06    1.48
   0  -1 -18   -0.24    1.41
   0  -1 -19   16.80    4.32
   0   1 -19   15.71    3.55
   0  -1 -19   14.81    4.14
   0   1 -19   14.48    4.63
   0   1 -20    2.06    1.75
   0  -1 -20   -0.45    1.61
   0  -1 -20    0.18    1.49
   0   1 -20    0.74    1.19
   0  -1 -21   62.83    8.48
   0  -1 -21   62.10    8.87
   0   1 -21   65.96    7.76
   0   1 -21   62.93    9.31
   0  -1 -22    0.99    1.88
   0  -1 -22   -1.15    2.20
   0   1 -22    0.92    2.10
   0   1 -23   -0.50    1.76
   0  -1 -23    0.32    1.63
   0  -1 -23    2.15    2.16
   0  -1 -24   -1.76    2.26
   0  -1 -24    0.38    1.52
   0   1 -24   -1.43    2.07
   0   1 -25    2.70    2.75
   0  -1 -25    1.52    1.44
   0  -1 -25    3.53    2.56
   0   1 -26    0.83    2.75
   0   1 -27    3.69    3.26
  -1  -1   2   21.79    2.27
   1  -1  -2   20.75    2.55
  -1  -1   3  975.81   16.40
   1   1  -3  992.86   16.54
   1  -1   3  974.10   16.55
   1  -1  -3 1002.63   16.59
  -1   1   3  965.47   16.49
  -1  -1   4 1235.72   20.13
   1  -1  -4 1221.99   16.40
   1  -1   4 1236.36   20.14
   1  -1  -4 1214.86   19.72
  -1   1   4 1244.79   19.88
   1   1  -4 1215.80   20.19
   1  -1  -5  434.96   10.54
   1  -1   5  418.58   12.47
  -1   1  -5  421.58   12.48
  -1   1   5  420.90   10.42
   1   1   5  429.52    7.77
   1  -1  -5  438.16   12.54
  -1  -1   5  426.90    7.74
   1   1  -5  415.41   12.85
  -1  -1   5  421.97   12.78
  -1  -1  -5  427.45    7.69
  -1  -1   6  754.59   11.80
   1   1   6  770.66   12.22
   1  -1   6  793.93   18.07
   1  -1  -6  756.45   17.79
   1  -1  -6  769.23   15.38
   1   1  -6  756.22   18.35
  -1  -1  -6  749.79   12.14
  -1   1  -6  772.87   17.79
  -1   1   6  765.54   15.18
  -1  -1   6  830.99   18.99
   1  -1  -7  472.27   12.90
   1  -1  -7  459.86   14.66
  -1  -1  -7  456.27   10.71
  -1   1   7  449.93   12.41
  -1  -1   7  455.43   14.87
   1   1   7  435.15   10.47
   1  -1   7  461.91   14.62
   1   1  -7  467.93   15.40
  -1   1  -7  461.70   14.71
  -1   1   8  333.14   11.32
   1  -1  -8  329.96   13.13
  -1   1  -8  326.03   13.14
   1   1   8  333.18   10.03
  -1  -1  -8  327.90    9.97
  -1  -1   8  341.40   13.51
   1  -1   8  334.53   13.16
   1  -1  -8  326.86   11.55
   1   1  -8  328.32   13.72
   1  -1  -9  464.77   16.03
  -1   1   9  465.06   14.37
   1   1  -9  445.53   16.74
   1   1  -9  461.74   11.88
  -1   1  -9  464.26   16.23
   1   1   9  462.85   12.75
  -1  -1  -9  443.11   12.66
   1  -1  -9  454.08   14.47
   1   1 -10  348.10   15.54
   1   1  10  354.09   12.00
  -1   1  10  355.16   13.15
  -1  -1 -10  352.77   12.19
   1  -1 -10  358.19   15.06
  -1   1 -10  356.29   15.14
   1   1 -10  353.93   11.17
   1  -1 -10  351.77   13.32
   1  -1 -11  226.00   12.21
  -1   1  11  211.73   10.88
   1   1 -11  216.71   12.90
   1  -1 -11  210.74   10.87
  -1   1 -11  222.13   12.36
   1   1 -11  211.65    9.14
  -1  -1 -11  213.52   10.13
   1   1  11  218.71   10.03
   1   1  12  627.01   17.93
   1  -1 -12  614.55   19.48
  -1  -1 -12  606.54   17.89
   1  -1 -12  611.34   20.77
   1   1 -12  603.58   21.93
  -1   1 -12  600.51   21.18
   1   1 -12  599.11   16.28
  -1  -1 -13  290.81   13.23
   1   1 -13  305.55   16.15
  -1   1 -13  284.95   15.46
   1  -1 -13  286.97   15.09
   1   1 -13  290.38   11.87
   1  -1 -13  282.95   13.94
  -1   1 -14   63.50    7.59
   1  -1 -14   61.76    7.25
  -1  -1 -14   62.73    6.61
   1  -1 -14   57.14    6.75
   1   1 -14   62.27    7.90
   1   1 -14   59.01    5.70
  -1   1 -14   60.45    5.73
  -1  -1 -15   11.35    3.33
   1  -1 -15   12.10    3.40
   1  -1 -15   10.03    3.13
  -1   1 -15   11.13    3.86
   1   1 -15    9.88    2.65
   1   1 -15    9.40    3.59
  -1   1 -15   10.22    2.62
   1  -1 -16  138.98   11.28
  -1  -1 -16  144.33   11.40
  -1   1 -16  133.92    9.28
  -1   1 -16  148.02   12.06
   1   1 -16  137.54    9.46
   1   1 -16  139.62   12.18
   1  -1 -16  135.61   10.93
  -1  -1 -16  134.87   10.15
   1   1 -17   71.74    9.22
   1   1 -17   78.58    7.45
  -1   1 -17   78.54    7.46
   1  -1 -17   76.63    8.48
  -1   1 -17   77.99    9.51
  -1  -1 -17   76.85    8.12
   1  -1 -17   75.63    8.67
  -1  -1 -17   79.98    8.84
   1  -1 -18   27.65    5.44
  -1   1 -18   24.09    4.33
  -1  -1 -18   26.20    5.58
   1   1 -18   24.15    5.46
  -1  -1 -18   27.08    5.23
   1  -1 -18   27.26    5.39
  -1   1 -18   28.09    5.99
  -1   1 -19   98.72   11.02
  -1  -1 -19   87.00    9.99
  -1   1 -19   91.47    8.52
   1  -1 -19   93.44   10.26
  -1  -1 -19   91.07    9.37
   1  -1 -19   92.20    9.92
   1   1 -19   95.12   10.94
  -1   1 -20   68.33    7.57
   1  -1 -20   68.39    9.05
  -1  -1 -20   66.37    8.44
  -1   1 -20   62.46    9.07
   1   1 -20   62.64    9.19
   1  -1 -20   67.33    9.07
  -1  -1 -20   65.37    8.91
  -1   1 -21    9.21    3.87
  -1   1 -21    9.53    3.18
   1   1 -21    8.42    3.78
  -1  -1 -21   12.97    4.17
   1  -1 -21    8.85    3.38
   1  -1 -21    6.48    3.15
  -1  -1 -21    7.69    3.61
   1  -1 -22   38.96    7.20
   1   1 -22   42.79    8.13
  -1  -1 -22   39.80    6.99
  -1  -1 -22   43.24    7.49
  -1   1 -22   37.49    7.55
   1  -1 -22   40.80    7.36
   1  -1 -23   36.33    7.23
  -1  -1 -23   45.11    7.64
  -1   1 -23   41.09    8.17
   1  -1 -23   39.45    7.30
  -1  -1 -23   39.88    7.58
   1   1 -23   44.34    8.42
  -1  -1 -24    3.23    2.76
   1   1 -24    7.62    4.43
  -1  -1 -24    7.44    3.42
   1  -1 -24    3.11    2.58
   1  -1 -24    3.36    2.67
   1  -1 -25   68.23   10.23
  -1  -1 -25   73.08   10.46
   1  -1 -25   76.61   10.68
   1   1 -25   65.50   10.79
   1   1 -26   71.05   11.57
   1  -1 -26   75.22   10.80
   1   1 -27    7.40    4.12
   1   1 -28   28.64    7.86
   1   1 -29   39.56    9.23
   2   1   0   -0.65    0.97
  -2  -1   0    1.10    0.73
  -2  -1   1   16.95    1.94
   2   1   1   17.58    2.29
   2   1  -1   20.02    2.20
  -2  -1  -1   18.29    2.17
   2   1  -2   75.90    4.49
   2   1   2   77.30    4.83
  -2  -1   2   76.57    4.59
  -2  -1  -2   88.35    5.39
  -2   1   3  566.97   13.56
   2   1   3  576.85   13.26
   2   1  -3  565.86   13.40
  -2  -1   3  558.92   13.32
  -2   1   4   67.38    4.95
   2   1  -4   63.57    4.93
   2  -1  -4   79.62    5.32
  -2  -1   4   73.15    5.15
  -2  -1   5   16.97    2.90
   2   1   5   13.66    1.45
   2   1  -5   15.53    2.90
   2  -1  -5   15.77    2.97
   2  -1  -5   13.08    2.45
  -2   1   5   12.59    2.47
   2  -1   5   15.29    2.68
   2  -1  -6  449.63   13.05
   2   1  -6  456.72   14.72
   2   1   6  428.30    9.13
  -2  -1   6  447.26   14.51
   2  -1   6  451.00   14.07
  -2   1   6  461.49   14.17
   2  -1  -6  458.60   14.26
   2   1  -7   50.16    5.20
   2   1   7   51.09    3.55
  -2   1   7   53.76    5.17
   2  -1  -7   54.51    5.18
   2  -1  -7   50.96    4.43
  -2  -1   7   57.21    5.42
  -2   1   7   54.52    4.83
   2  -1   7   52.43    5.06
  -2  -1   7   51.06    3.77
   2   1   8   88.67    5.03
  -2   1   8   92.68    7.02
   2  -1   8   91.02    7.01
   2   1  -8   94.98    7.51
  -2  -1   8   92.00    5.35
  -2   1   8   96.73    6.61
   2  -1  -8   92.24    6.74
   2  -1  -8   96.30    7.10
  -2   1   9   51.58    5.17
   2   1  -9   47.82    5.77
   2  -1  -9   50.03    5.40
  -2  -1   9   50.88    4.22
   2  -1  -9   50.86    5.21
  -2  -1  -9   50.48    4.11
   2   1   9   48.64    4.07
   2   1  10   22.56    2.91
  -2  -1  10   25.31    3.18
   2   1 -10   25.68    4.48
   2  -1 -10   23.01    3.73
  -2  -1 -10   23.24    3.08
   2  -1 -10   24.98    4.06
   2   1 -11   18.71    3.99
   2  -1 -11   17.88    3.30
   2   1  11   18.76    2.92
  -2  -1 -11   19.74    3.13
   2  -1 -11   20.64    4.09
   2   1  12  318.09   12.68
   2  -1 -12  324.20   15.25
  -2  -1 -12  314.82   12.51
  -2   1 -12  322.39   15.46
   2  -1 -12  313.95   14.74
   2   1 -12  320.61   16.42
   2  -1 -13   29.88    5.07
  -2  -1 -13   25.62    3.99
  -2   1 -13   31.58    5.69
   2  -1 -13   27.73    4.60
   2   1  13   25.46    3.75
   2   1 -13   29.76    5.28
   2  -1 -14   83.35    8.22
   2  -1 -14   81.86    8.41
   2   1 -14   86.68    9.29
  -2  -1 -14   83.04    7.22
  -2   1 -14   92.22    8.86
   2  -1 -15   25.49    4.83
  -2   1 -15   31.92    5.83
   2  -1 -15   30.59    5.50
   2   1 -15   29.22    5.98
  -2  -1 -15   27.26    4.51
   2  -1 -16   27.22    5.21
   2  -1 -16   25.17    5.08
  -2  -1 -16   26.81    4.63
  -2   1 -16   29.39    5.81
   2   1 -16   30.43    5.89
  -2  -1 -17    2.58    1.83
   2  -1 -17    4.19    2.45
   2   1 -17    2.52    2.47
   2  -1 -17    3.05    2.42
   2  -1 -18   22.88    5.24
  -2   1 -18   24.72    4.31
   2  -1 -18   27.27    5.15
  -2  -1 -18   24.19    4.75
   2   1 -18   23.93    5.73
   2  -1 -19    0.97    1.72
   2  -1 -19    3.88    2.44
  -2   1 -19    2.75    1.65
  -2  -1 -19    2.82    1.80
   2   1 -19    2.92    2.68
  -2  -1 -19    3.58    2.34
  -2   1 -20   22.37    4.38
  -2  -1 -20   18.32    4.76
   2  -1 -20   24.64    5.47
   2   1 -20   22.78    5.76
   2  -1 -20   19.54    4.82
  -2   1 -21    6.82    2.66
   2   1 -21    8.57    3.86
  -2  -1 -21    5.96    3.06
   2  -1 -21    8.40    3.51
   2  -1 -21    6.44    3.10
   2   1 -22   14.91    4.99
  -2  -1 -22   13.50    4.35
   2  -1 -22   13.50    4.43
   2   1 -23    2.50    3.28
  -2  -1 -23    3.25    2.57
   2  -1 -23    3.43    2.65
   2  -1 -24    2.95    2.19
   2   1 -24    3.62    2.98
  -2  -1 -24   -0.08    1.32
   2   1 -25    1.72    2.31
   2  -1 -25    0.33    1.60
  -2  -1 -25    1.65    2.03
   2   1 -26    1.10    2.40
   2  -1 -26    4.03    2.98
   2   1 -27    0.47    1.90
   2   1 -28    6.31    4.04
   2   1 -29   -0.43    1.93
  -3  -1   0  396.13   10.95
   3   1   0  401.16    9.84
  -3  -1   1  401.78   10.87
   3   1   1  394.95   11.18
   3   1  -1  414.80   10.94
   3   1   1  420.73    9.25
  -3  -1  -1  409.78   11.22
  -3  -1   2  719.92   15.28
   3   1   2  713.36   15.18
   3   1  -2  705.13   15.25
  -3  -1  -2  702.18   15.02
   3   1   3 1897.21   25.94
  -3  -1   3 1955.82   27.11
   3   1  -3 1955.61   27.19
  -3  -1   4  370.43   12.59
   3   1  -4  362.99   12.61
   3   1   4  371.98   11.98
  -3  -1   5   43.40    4.52
   3   1  -5   47.67    4.93
   3  -1  -5   50.56    5.10
  -3   1   5   45.22    4.55
  -3  -1   6  628.32   17.89
   3  -1  -6  601.75   16.50
  -3   1   6  598.05   17.40
   3   1  -6  577.44   17.67
   3   1   6  592.50   11.51
   3  -1   7  208.31   10.48
   3  -1  -7  211.80   10.29
   3   1  -7  206.72   11.16
   3   1   7  199.59    7.21
  -3   1   7  203.29   10.43
   3   1   8  120.28    5.98
   3  -1  -8  113.67    7.87
   3  -1   8  122.36    8.20
   3   1  -8  121.24    8.86
  -3  -1   8  121.58    6.78
   3  -1  -9  378.37   15.24
   3   1  -9  374.29   16.32
   3   1   9  356.24   11.17
  -3  -1   9  351.65   12.09
  -3  -1  10  108.92    6.91
   3   1 -10  102.18    8.76
   3  -1 -10  102.06    8.31
   3   1  10  108.57    6.55
   3  -1 -11   52.18    6.04
   3   1 -11   52.89    6.71
  -3  -1  11   52.24    5.00
   3   1  11   52.92    4.86
   3  -1 -12  211.50   12.79
  -3  -1  12  215.38   10.53
   3   1  12  217.46   10.45
   3   1 -12  213.43   13.75
   3   1 -13  255.45   15.79
   3   1  13  259.76   12.00
   3  -1 -13  260.13   14.74
   3  -1 -14   52.95    6.83
   3   1 -14   51.94    7.46
   3   1 -15   21.23    4.83
   3  -1 -15   18.48    4.08
   3   1 -16   37.10    6.63
   3  -1 -16   31.75    5.48
   3  -1 -17   92.44    9.85
   3   1 -17   94.35   10.59
   3  -1 -18   11.84    4.41
   3   1 -18    8.72    4.07
   3  -1 -19   79.24    9.91
   3   1 -19   86.40   10.82
   3  -1 -20   39.20    7.28
  -3   1 -20   40.89    6.10
   3   1 -20   43.93    8.15
  -3   1 -21    3.86    2.05
  -3  -1 -21    2.60    2.15
   3  -1 -21    5.30    2.79
   3   1 -21    6.19    3.86
  -3  -1 -22   24.65    5.93
   3  -1 -22   30.57    6.74
   3   1 -22   26.02    6.74
  -3  -1 -23   82.86   11.02
   3   1 -23   92.48   12.54
   3  -1 -23  100.41   12.25
  -3  -1 -24   20.37    5.69
   3  -1 -24   18.77    5.55
   3   1 -24   15.22    5.31
   3   1 -25   30.24    7.45
   3  -1 -25   34.58    7.46
  -3  -1 -25   35.81    7.62
   3   1 -26    4.99    3.01
   3  -1 -26    8.69    3.98
   3  -1 -27   15.52    5.33
   3   1 -27   17.86    6.09
   3   1 -28   19.86    6.46
   3   1 -29   20.68    6.72
  -4  -1   0  122.80    6.73
   4   1   0  129.56    6.69
  -4  -1  -1    4.87    1.81
  -4  -1   1    9.34    1.67
   4   1  -1   12.02    2.31
   4   1   1   10.94    2.03
  -4  -1  -2   44.95    4.31
   4   1  -2   38.75    4.12
  -4  -1   2   50.16    4.65
   4  -1   2   43.29    2.22
   4   1   2   44.94    4.20
   4   1  -3   22.40    3.24
   4   1   3   25.63    3.24
  -4  -1   3   31.35    3.95
  -4  -1  -3   42.44    5.06
   4   1   4  226.40    9.84
   4   1  -4  219.41   10.40
  -4  -1   4  214.41   10.33
   4   1   5   68.30    5.72
  -4  -1   5   60.21    5.57
   4   1  -5   61.15    6.09
   4  -1  -5   70.20    6.52
  -4   1   6   66.39    6.06
   4   1   6   72.04    6.25
   4  -1  -6   63.65    6.47
   4   1  -6   61.94    6.16
   4   1  -7   28.18    4.42
   4  -1  -7   30.12    4.51
   4   1   8  105.30    6.01
   4  -1  -8  106.72    7.98
   4   1  -8  111.84    8.93
   4   1  -9    1.05    1.97
   4   1   9    2.81    1.10
   4  -1  -9   -0.17    2.27
   4   1  10  367.15   12.43
   4   1 -10  382.16   17.63
  -4  -1  10  370.85   13.85
   4  -1 -10  384.03   16.57
  -4  -1  11   58.59    5.74
   4  -1 -11   59.22    7.13
   4   1 -11   56.56    7.13
   4   1  11   55.28    5.10
   4   1 -12   38.34    6.03
   4  -1 -12   40.02    5.86
   4   1  12   39.76    4.49
   4   1 -13   25.32    5.17
   4  -1 -13   29.08    5.15
   4   1  13   29.79    4.13
   4   1 -14   23.22    5.27
   4  -1 -14   21.81    4.54
   4   1 -15    4.94    3.46
   4  -1 -15    4.80    2.69
   4  -1 -16  160.32   12.94
   4   1 -16  158.58   13.95
   4  -1 -17    8.57    2.83
   4   1 -17   13.32    4.72
   4  -1 -18   38.69    6.65
   4   1 -18   37.69    7.32
   4  -1 -19   26.31    6.12
   4   1 -19   28.10    6.51
   4   1 -20    4.21    3.12
   4  -1 -20    1.82    1.97
   4   1 -21    3.36    2.34
   4  -1 -21    5.57    3.06
   4  -1 -22    6.64    3.50
   4   1 -22    5.45    3.30
   4   1 -23    8.16    4.37
   4  -1 -23    4.46    3.20
   4   1 -24   30.55    7.79
   4  -1 -24   28.08    6.88
  -4  -1 -24   28.95    6.76
   4   1 -25    1.34    2.15
   4  -1 -25    2.76    2.87
  -4  -1 -25    3.23    2.53
   4   1 -26    2.63    2.95
   4  -1 -26    2.98    2.81
   4   1 -27   -0.39    2.59
   4  -1 -27    1.89    2.49
   4   1 -28    0.07    2.90
  -5   1   0   21.78    1.72
   5   1   0   28.62    3.88
  -5  -1   0   20.04    3.17
   5   1  -1   30.00    3.96
  -5  -1   1   26.27    3.39
   5   1   1   24.00    3.19
  -5  -1  -1   19.63    2.72
   5   1   2   17.09    2.85
   5  -1   2   16.24    1.59
  -5  -1  -2   16.33    3.07
   5   1  -2   14.30    2.82
   5  -1   3  129.64    4.95
  -5  -1  -3  136.35    8.05
   5   1   3  135.84    7.74
   5   1  -3  132.64    8.19
   5   1   4  992.23   21.89
   5   1  -4  978.86   23.81
   5   1  -5  184.63   10.66
   5   1   5  180.09    9.53
   5   1   6  577.94   17.74
   5   1  -6  624.08   20.49
   5  -1  -6  576.25   19.25
   5  -1  -7   11.38    3.78
   5   1  -7   13.19    3.98
   5   1  -8   18.12    4.33
   5  -1  -8   12.65    3.29
   5   1   9   14.69    2.59
   5   1  -9   12.71    3.62
   5  -1  -9   12.07    2.96
   5  -1 -10  286.96   15.15
   5   1 -10  281.67   16.09
   5   1  10  279.00   11.42
   5   1  11  112.01    7.50
   5  -1 -11  115.00    9.98
   5   1 -11  120.02   10.67
   5   1 -12   86.03    9.42
   5   1  12   82.08    6.72
   5  -1 -12   86.57    9.02
   5   1 -13   52.64    7.61
   5  -1 -13   49.21    7.08
   5   1 -14  110.74   11.18
   5  -1 -14  116.93   11.12
   5   1 -15  155.99   13.72
   5  -1 -15  162.59   13.42
   5   1 -16  320.19   20.14
   5  -1 -16  314.51   19.12
   5   1 -17   29.20    6.62
   5  -1 -17   31.86    6.33
   5   1 -18   22.89    5.90
   5  -1 -18   20.18    4.83
   5  -1 -19   19.63    5.23
   5   1 -19   26.77    6.65
   5  -1 -20   -1.89    2.82
   5   1 -20    2.26    3.24
   5  -1 -21   26.50    6.58
   5   1 -21   24.64    6.88
   5  -1 -22   15.08    5.21
   5   1 -22   17.15    5.45
   5   1 -23    2.99    2.74
   5  -1 -23    7.50    3.82
   5   1 -24    8.75    4.49
   5  -1 -24    9.18    4.34
   5  -1 -25   42.20    8.80
   5   1 -25   46.58    9.80
  -5  -1 -25   44.21    8.48
   5   1 -26   58.94   11.19
   5  -1 -26   53.28   10.09
   5  -1 -27   31.85    8.03
   5   1 -27   36.50    9.00
   5  -1 -28    4.32    3.42
  -6  -1   0    2.51    1.78
  -6   1   0    2.03    0.69
  -6  -1  -1    4.85    1.30
  -6   1  -1   14.01    1.84
  -6  -1   1    6.64    1.71
   6   1  -1   15.32    3.65
  -6  -1  -2    3.37    1.96
   6   1   2    1.07    0.87
   6   1  -2    3.01    2.30
   6  -1   3   56.38    3.52
  -6  -1  -3   72.47    6.26
   6   1  -3   52.12    5.77
   6   1   3   53.59    5.25
   6  -1   4   74.24    4.50
   6   1   4   71.93    6.01
   6   1  -4   70.46    6.91
   6  -1   5  344.78   10.24
   6   1   5  339.62   13.84
   6   1  -5  343.62   15.62
   6  -1  -6  281.83   14.38
   6   1  -6  254.37   13.73
   6  -1  -7  186.57   12.04
   6   1  -7  175.44   12.23
   6   1  -8   23.24    5.18
   6  -1  -8   24.56    4.73
   6  -1  -9   29.93    5.28
   6   1  -9   27.27    5.08
   6  -1 -10   -4.62    3.71
   6   1 -10    4.18    3.39
   6   1 -11   53.10    7.65
   6   1  11   50.31    5.31
   6  -1 -11   48.93    6.44
   6  -1 -12   46.39    7.12
   6   1 -12   50.44    7.53
   6   1 -13   15.20    4.19
   6  -1 -13   16.17    4.70
   6   1 -14  187.02   14.91
   6  -1 -14  180.60   14.33
   6   1 -15   67.74    9.32
   6  -1 -15   65.73    8.96
   6  -1 -16   13.85    4.34
   6   1 -16   16.46    4.86
   6  -1 -17   11.02    4.24
   6   1 -17   15.06    4.98
   6  -1 -18    7.19    2.73
   6   1 -18    8.98    3.99
   6   1 -19   29.62    6.89
   6  -1 -19   23.26    5.65
   6  -1 -20   63.74    9.79
   6   1 -20   70.20   10.88
   6  -1 -21   19.68    5.69
   6   1 -21   19.23    6.00
   6  -1 -22    9.56    4.19
   6   1 -22    9.47    4.31
   6  -1 -23   25.90    6.88
   6   1 -23   31.30    7.60
   6   1 -24    7.49    4.40
   6  -1 -24    7.13    3.97
   6  -1 -25   12.71    5.02
   6   1 -25   11.41    4.83
   6  -1 -26   18.45    6.28
   6   1 -26   13.79    5.56
   6  -1 -27   -0.07    2.22
   6   1 -27    2.02    3.05
   6  -1 -28    6.83    4.08
  -7  -1   0    1.68    1.35
  -7   1   0    0.22    0.87
  -7   1   1   14.91    1.96
  -7  -1  -1    7.24    1.49
  -7   1  -1   20.93    2.48
  -7  -1   1   11.51    2.65
   7   1  -1   20.93    4.22
   7   1   2  555.01   17.29
   7   1  -2  539.36   19.08
  -7  -1   2  537.64   17.49
  -7  -1  -2  549.89   17.21
   7   1  -3  274.11   13.70
  -7  -1  -3  286.37   12.53
   7  -1   3  268.68    8.39
   7   1   3  278.25   12.37
   7   1  -4  150.74   10.54
  -7  -1  -4  184.74   10.28
   7  -1   4  157.37    6.75
   7   1  -5  229.99   13.60
   7  -1   5  218.41    8.68
   7   1  -6  172.86   12.02
   7  -1  -6  169.74   12.36
   7  -1   6  179.37    8.38
   7  -1   7   92.75    6.52
   7   1  -7   80.14    8.27
   7  -1  -7   95.63    9.44
   7   1  -8   79.83    9.14
   7  -1  -8   72.63    8.31
   7   1  -9    6.66    3.68
   7  -1  -9    4.12    2.61
   7   1 -10   37.32    6.71
   7  -1 -10   37.35    5.99
   7  -1 -11   90.61    9.64
   7   1 -11  102.80   10.66
   7  -1 -12   67.67    8.42
   7   1 -12   71.38    9.37
   7   1 -13   29.87    6.02
   7  -1 -13   34.89    6.56
   7  -1 -14  519.39   25.13
   7   1 -14  517.79   25.87
   7  -1 -15   58.44    8.79
   7   1 -15   60.25    9.45
   7  -1 -16  304.01   20.06
   7   1 -16  302.71   20.64
   7   1 -17   33.61    7.29
   7  -1 -17   30.38    6.69
   7  -1 -18   36.06    7.35
   7   1 -18   35.62    7.56
   7  -1 -19   35.98    7.60
   7   1 -19   36.88    7.99
   7  -1 -20   49.66    9.15
   7   1 -20   54.66   10.02
   7  -1 -21   30.17    7.44
   7   1 -21   23.96    7.06
   7   1 -22   45.98    9.27
   7  -1 -22   38.52    8.22
   7   1 -23   13.26    5.72
   7  -1 -23    9.94    4.42
   7  -1 -24  113.90   14.83
   7   1 -24  114.26   15.44
   7   1 -25   27.51    8.32
   7  -1 -25   20.92    6.56
   7  -1 -26    8.79    4.80
   7   1 -26    4.96    3.84
   7  -1 -27    9.49    5.24
  -8  -1   0    2.28    1.91
  -8   1   0   -0.69    0.99
  -8  -1   1   47.05    5.42
   8   1  -1   47.89    6.39
  -8   1   1   43.46    3.76
  -8   1  -1   51.79    3.90
  -8  -1  -1   43.03    4.89
  -8  -1  -2   45.99    5.59
   8   1  -2   54.25    6.85
  -8   1   2   44.14    3.92
  -8  -1   2   47.06    5.50
  -8  -1   3   21.23    3.66
   8   1  -3   29.19    5.15
  -8  -1  -3   40.06    5.39
   8   1  -4   12.64    3.63
   8  -1   4    9.63    1.78
   8  -1   5    5.32    1.33
   8   1  -5    3.17    1.87
   8   1  -6    1.32    3.06
   8  -1   6    3.72    1.12
   8   1  -7   27.65    4.74
   8  -1   7   32.21    4.03
   8  -1  -7   35.30    6.77
   8  -1   8   23.50    3.90
   8   1  -8   15.56    4.31
   8  -1  -8   24.79    5.64
   8   1  -9   14.75    4.98
   8  -1  -9    8.90    3.87
   8   1 -10   14.01    4.82
   8  -1 -10   13.54    4.11
   8  -1 -11   18.00    4.42
   8   1 -11   24.12    5.73
   8   1 -12    2.88    2.63
   8  -1 -12   -6.86    4.81
   8   1 -13    1.21    2.29
   8  -1 -13   -1.17    3.16
   8  -1 -14    1.50    2.43
   8   1 -14    1.55    2.18
   8  -1 -15    7.89    4.01
   8   1 -15    3.50    2.98
   8   1 -16   14.95    4.81
   8  -1 -16   16.67    5.26
   8  -1 -17   30.54    7.24
   8   1 -17   31.49    7.46
   8   1 -18   19.09    5.91
   8  -1 -18   25.16    6.61
   8  -1 -19   10.24    4.47
   8   1 -19    8.73    3.65
   8   1 -20    1.94    2.23
   8  -1 -20    4.00    2.60
   8  -1 -21    1.90    2.69
   8   1 -21    2.07    2.16
   8  -1 -22    3.29    2.44
   8   1 -22    5.38    3.82
   8   1 -23   -0.29    2.67
   8  -1 -23   -1.10    2.84
   8   1 -24    7.40    3.97
   8  -1 -24   11.44    4.76
   8  -1 -25    0.30    2.02
   8   1 -25    0.44    2.52
   8  -1 -26    6.35    3.89
   9   1   0  499.19   19.74
  -9  -1   0  489.72   18.03
  -9   1   0  499.18   13.02
  -9   1   1  368.52   11.62
  -9  -1  -1  374.15   15.62
  -9   1  -1  360.97   10.70
   9   1  -1  375.08   17.62
  -9  -1   1  379.25   15.87
   9   1  -2  122.01   10.65
  -9  -1   2  119.30    9.05
  -9   1   2  123.91    7.05
  -9  -1  -2  116.92    8.78
   9   1  -3  221.07   14.34
  -9  -1  -3  222.04   12.36
  -9  -1   3  225.66   12.70
   9  -1   4  145.23    7.34
   9   1  -4  148.90   11.63
  -9  -1  -4  151.54   10.30
   9   1  -5  259.12   15.70
   9  -1   5  267.63   10.40
   9  -1  -6   95.10   10.33
   9   1  -6   86.47    9.33
   9  -1   6   93.67    6.50
   9  -1   7  107.93    7.33
   9   1  -7  114.96   10.77
   9  -1  -7  116.18   11.43
   9  -1   8   88.99    7.15
   9   1  -8   93.65   10.07
   9  -1  -8   98.69   10.78
   9   1  -9  284.26   18.54
   9  -1  -9  277.58   17.77
   9   1 -10   18.06    5.14
   9  -1 -10   11.98    3.54
   9  -1 -11  496.73   24.57
   9   1 -11  493.04   25.19
   9   1 -12   49.39    8.33
   9  -1 -12   44.99    7.31
   9  -1 -13   -5.41    5.30
   9   1 -13    0.95    2.41
   9   1 -14    1.27    2.17
   9  -1 -14    8.16    4.79
   9   1 -15  145.87   15.18
   9  -1 -15  148.21   14.83
   9   1 -16   27.39    6.75
   9  -1 -16   31.92    7.03
   9  -1 -17  285.10   21.41
   9   1 -17  285.46   21.97
   9  -1 -18    2.17    2.89
   9   1 -18    2.33    3.13
   9  -1 -19   26.60    7.04
   9   1 -19   26.04    7.13
   9  -1 -20   10.51    4.53
   9   1 -20    3.87    2.46
   9   1 -21   67.11   11.75
   9  -1 -21   62.69   10.69
   9  -1 -22   20.49    6.58
   9   1 -22   29.05    7.89
   9   1 -23   14.67    5.88
   9  -1 -23   17.99    6.01
   9  -1 -24   -1.78    2.59
   9   1 -24    1.84    3.18
   9  -1 -25    7.28    4.12
 -10   1   0   15.72    2.72
  10   1   0   19.16    5.59
 -10  -1   0    7.84    1.53
 -10   1  -1   25.44    3.60
 -10   1   1   11.42    1.99
 -10  -1   1   20.19    4.15
 -10  -1  -1   13.50    3.28
  10   1  -1   30.41    6.11
  10   1  -2    9.61    4.57
 -10  -1   2    5.25    2.36
 -10   1   2    3.76    1.58
 -10  -1  -2    6.73    2.89
 -10  -1   3   -0.43    1.90
 -10  -1  -3    8.86    4.05
 -10   1   3    1.66    0.79
  10   1  -3    5.96    3.62
 -10  -1   4    2.36    1.65
  10   1  -4    3.22    2.79
  10   1  -5    1.07    2.94
  10  -1   5    0.44    0.66
  10   1  -6    6.76    2.49
  10  -1   6   10.51    2.33
  10   1  -7    9.04    2.97
  10  -1   7   18.91    3.24
  10  -1  -7   27.30    6.77
  10   1  -8   -2.51    3.42
  10  -1  -8    4.44    4.35
  10   1  -9    2.79    2.20
  10  -1  -9    5.65    3.70
  10   1 -10    5.57    3.95
  10  -1 -10    2.88    2.88
  10   1 -11    2.96    3.40
  10  -1 -11    0.86    2.25
  10   1 -12   14.19    5.42
  10  -1 -12    7.86    2.97
  10   1 -13   13.79    4.92
  10  -1 -13   11.49    3.62
  10  -1 -14   -0.91    2.25
  10   1 -14   -1.40    2.96
  10   1 -15    8.29    4.19
  10  -1 -15   10.07    4.49
  10  -1 -16    6.14    3.99
  10   1 -16    1.70    2.61
  10  -1 -17    5.40    3.74
  10   1 -17    7.56    4.10
  10   1 -18    7.76    4.37
  10  -1 -18    5.10    3.49
  10   1 -19    3.55    2.64
  10  -1 -19    3.97    3.64
  10   1 -20    4.61    3.57
  10  -1 -20    3.69    3.22
  10  -1 -21    5.34    3.44
  10   1 -21    5.30    3.37
  10  -1 -22    1.19    2.25
  10   1 -22    3.07    3.36
  10  -1 -23    2.12    2.44
  10   1 -23   -2.49    2.75
  10  -1 -24   -0.73    2.66
 -11  -1   0   -1.01    2.66
  11   1   0    8.11    4.71
 -11   1   0    4.33    1.95
  11   1   1   31.14    6.37
  11   1  -1   26.86    6.16
 -11  -1   1   16.73    3.31
 -11  -1  -1   24.91    4.77
 -11   1  -1   33.08    4.10
 -11   1   1   19.51    2.95
 -11   1   2  406.52   14.26
  11   1  -2  411.75   20.88
 -11  -1   2  408.90   18.29
 -11  -1  -2  410.44   18.10
 -11  -1  -3  145.17   11.21
  11   1  -3  127.94   12.31
 -11   1   3  141.56    8.62
 -11  -1   3  135.13   10.72
  11   1  -4   23.40    5.61
 -11   1   4   20.30    3.34
 -11  -1   4   21.05    4.18
 -11  -1   5   21.29    4.30
  11   1  -5   23.79    5.26
  11   1  -6   94.13   10.64
  11  -1  -6   95.79   11.74
  11  -1   6   83.35    6.69
  11  -1  -7  139.75   13.67
  11   1  -7  117.71   12.30
  11   1  -8  122.83   12.58
  11  -1  -8  125.96   13.02
  11   1  -9   98.52   11.14
  11  -1  -9  111.31   12.12
  11  -1 -10  122.44   13.22
  11   1 -10  131.99   13.85
  11   1 -11   22.02    6.65
  11  -1 -11   13.15    4.86
  11  -1 -12  264.19   20.16
  11   1 -12  277.58   20.92
  11   1 -13  233.67   19.38
  11  -1 -13  228.47   18.69
  11  -1 -14  121.03   13.73
  11   1 -14  132.14   14.96
  11  -1 -15   39.88    8.58
  11   1 -15   37.34    8.23
  11  -1 -16    7.48    4.71
  11   1 -16    4.18    4.04
  11   1 -17   12.23    5.18
  11  -1 -17   13.26    5.61
  11   1 -18  145.48   17.01
  11  -1 -18  148.28   16.93
  11  -1 -19   37.01    8.97
  11   1 -19   33.64    8.54
  11   1 -20    8.65    4.60
  11  -1 -20    8.19    4.29
  11   1 -21   13.66    5.87
  11  -1 -21   17.65    6.12
  11  -1 -22    0.81    2.67
 -12  -1   0    4.76    2.13
  12   1   0   16.64    5.62
 -12   1   0   13.09    3.10
  12   1  -1   30.85    7.10
 -12   1   1   28.61    3.90
 -12  -1   1   20.13    3.84
 -12  -1  -1   28.57    5.35
  12   1   1   43.12    7.56
  12   1  -2   59.19    8.93
 -12  -1  -2   67.83    8.08
 -12   1   2   55.99    5.39
 -12  -1   2   59.42    7.51
  12   1  -3  112.76   11.80
 -12  -1  -3  121.27   10.49
 -12   1   3  109.49    7.87
 -12  -1   3  108.53   10.07
  12   1  -4   37.37    7.12
 -12  -1   4   41.06    6.17
 -12   1   4   39.87    5.05
 -12   1   5   16.88    3.33
  12   1  -5   18.87    5.04
 -12  -1   5   14.52    3.67
 -12  -1   6    4.17    1.56
  12   1  -6    7.20    2.89
  12   1  -7   -2.75    3.68
  12  -1  -7    7.06    4.92
  12  -1  -8    7.70    4.24
  12   1  -8    9.42    3.58
  12  -1  -9   21.67    6.09
  12   1  -9   17.42    4.77
  12  -1 -10   19.34    5.46
  12   1 -10   26.11    6.80
  12   1 -11   27.84    7.16
  12  -1 -11   26.05    6.65
  12  -1 -12    2.30    2.94
  12   1 -12    4.45    3.76
  12   1 -13    7.17    4.67
  12  -1 -13    0.64    2.75
  12   1 -14    6.99    4.40
  12  -1 -14   -0.29    4.32
  12   1 -15    5.45    4.94
  12  -1 -15    3.45    3.41
  12   1 -16    8.42    4.75
  12  -1 -16    7.52    4.44
  12   1 -17   12.84    5.17
  12  -1 -17   14.49    5.69
  12  -1 -18    0.62    1.81
  12   1 -18    0.88    2.06
  12  -1 -19    1.14    1.89
  12   1 -19    1.32    2.29
  12   1 -20    3.19    4.06
  12  -1 -20    4.22    3.23
  12  -1 -21    3.36    2.50
  13   1   0  596.94   27.03
 -13  -1   0  621.32   24.13
  13   1  -1   62.17    9.56
 -13  -1   1   45.57    6.40
 -13   1   1   56.18    5.79
  13   1   1   63.19    9.29
 -13  -1  -1   61.04    7.42
 -13   1   2   76.97    6.70
  13   1  -2   75.19   10.22
  13   1   2   86.19   10.51
 -13  -1   2   70.37    7.78
 -13  -1  -2   76.98    8.43
 -13  -1  -3   55.15    7.55
 -13   1   3   42.82    5.08
  13   1  -3   44.51    7.88
 -13  -1   3   45.53    6.86
 -13  -1   4   26.40    5.36
 -13   1   4   27.42    4.36
  13  -1  -4   38.85    8.79
  13   1  -4   28.72    6.43
 -13   1   5  175.48   11.29
  13  -1  -5  184.94   16.58
 -13  -1   5  177.22   13.72
  13   1  -5  170.33   15.36
 -13   1   6   31.38    4.88
 -13  -1   6   23.67    4.86
  13  -1  -6   42.31    8.77
  13   1  -6   26.34    6.13
  13  -1  -7   25.36    6.84
 -13  -1   7   24.98    5.32
  13   1  -7   18.98    4.88
  13  -1  -8   11.61    4.09
  13   1  -8    8.87    2.80
  13   1  -9   72.11   10.36
  13  -1  -9   82.96   11.43
  13   1 -10   62.36   10.27
  13  -1 -10   66.65   10.55
  13   1 -11    8.58    5.04
  13  -1 -11    3.93    2.27
  13  -1 -12   26.13    6.80
  13   1 -12   36.36    8.47
  13   1 -13    8.36    4.98
  13  -1 -13    3.33    3.33
  13   1 -14   57.25   10.66
  13  -1 -14   50.78    9.56
  13   1 -15   25.90    7.13
  13  -1 -15   24.43    6.73
  13  -1 -16   65.87   11.47
  13   1 -16   63.50   11.68
  13   1 -17   14.85    6.13
  13  -1 -17   15.66    5.85
  13   1 -18    1.29    2.76
  13  -1 -18    4.87    3.68
  13  -1 -19    2.44    3.04
  14   1   0   36.91    7.80
 -14  -1   0   38.71    6.38
  14   1  -1   39.92    7.95
  14   1   1   42.46    8.18
 -14  -1   1   36.44    5.99
 -14  -1  -1   43.40    6.76
 -14  -1  -2   40.84    6.95
 -14  -1   2   25.55    4.90
  14   1  -2   32.72    7.05
  14   1   2   42.13    7.87
  14  -1  -3   19.59    6.67
  14   1  -3    9.27    4.11
 -14  -1   3    1.81    2.40
  14   1   3   13.64    4.93
 -14  -1   4    9.88    3.38
  14  -1  -4   17.62    6.24
  14   1  -4   10.23    4.21
  14   1  -5   -1.04    2.46
 -14  -1   5    1.50    1.76
  14  -1  -5    5.86    4.44
 -14  -1   6    0.41    1.45
  14   1  -6   -0.59    3.37
 -14  -1   7   23.41    5.40
  14  -1  -7   24.03    7.00
  14   1  -7   16.54    4.76
  14  -1  -8    1.43    2.94
 -14  -1   8    2.99    2.22
  14   1  -8    0.39    3.05
 -14  -1   9   13.13    4.22
  14   1  -9    7.64    2.60
  14  -1  -9   13.02    4.92
  14   1 -10    2.47    2.86
  14  -1 -10    1.01    2.70
  14   1 -11    1.25    3.06
  14  -1 -11   -1.32    3.24
  14   1 -12    1.41    3.02
  14  -1 -12   -3.55    4.16
  14   1 -13    0.64    2.47
  14  -1 -13   -1.39    4.06
  14   1 -14    1.74    2.94
  14  -1 -14   -4.15    4.88
  14   1 -15    6.58    4.31
  14  -1 -15    6.50    4.90
  14   1 -16    1.30    1.89
  14  -1 -16    1.64    2.37
  14   1 -17    2.00    3.24
  14  -1 -17    1.79    3.60
  15   1   0    6.00    3.89
 -15  -1   0    2.58    2.88
 -15  -1   1    1.89    1.97
 -15  -1  -1    6.83    3.72
  15   1   1    8.72    4.56
  15   1  -1    3.66    3.51
 -15  -1   2   -0.06    1.76
 -15  -1  -2   14.94    5.23
  15   1  -2    5.30    3.75
  15   1   2    9.39    5.01
  15   1   3   52.30    8.94
 -15  -1   3   39.03    6.52
  15   1  -3   39.61    7.90
  15  -1  -3   48.11    9.59
  15   1   4   35.19    7.68
  15  -1  -4   38.78    8.86
  15   1  -4   25.19    6.62
 -15  -1   4   24.32    5.28
 -15  -1   5   26.03    5.70
  15  -1  -5   28.25    7.82
  15   1  -5   14.09    4.67
  15  -1  -6    8.47    5.31
 -15  -1   6    4.84    2.47
  15   1  -6    0.73    3.25
  15  -1  -7   71.03   11.42
  15   1  -7   58.37   10.15
 -15  -1   7   63.97    9.04
  15   1  -8   18.20    5.35
  15  -1  -8   24.65    6.89
 -15  -1   8   22.96    5.54
 -15  -1   9    2.62    1.87
  15  -1  -9   -0.66    3.35
  15   1  -9   -2.69    4.45
 -15  -1  10    8.46    3.48
  15   1 -10    8.90    3.38
  15  -1 -10    6.58    3.61
  15   1 -11    1.78    2.83
  15  -1 -11   -4.19    4.41
  15  -1 -12   13.03    5.36
  15   1 -12   14.42    5.72
  15   1 -13  100.05   14.67
  15  -1 -13  103.67   14.57
  15   1 -14   12.37    5.82
  15  -1 -14    4.43    3.00
  15   1 -15    1.65    2.76
  15  -1 -15    5.68    3.87
  16   1   0    5.42    4.34
  16   1  -1    4.39    3.30
  16   1   1    8.26    4.61
  16   1   2   10.69    4.82
  16   1  -2   -0.98    1.90
  16  -1  -2   11.99    6.02
  16  -1  -3   21.82    7.23
  16   1   3   22.75    6.56
  16   1  -3   15.31    5.47
  16   1   4    9.00    4.59
  16   1  -4   -1.99    3.23
  16  -1  -4    5.52    4.60
  16   1   5   20.13    5.87
  16  -1  -5   18.56    6.25
  16   1  -5    7.71    3.26
  16   1  -6   -2.67    3.58
  16  -1  -6    6.38    4.84
  16  -1  -7    3.77    4.05
  16   1  -7   -3.18    3.44
  16   1  -8   -0.88    3.14
  16  -1  -8    1.65    3.28
  16   1  -9   -1.06    3.98
  16  -1  -9    2.62    2.31
  16  -1 -10   -0.32    2.77
  16   1 -10    3.57    3.34
  16   1 -11    1.01    3.38
  16  -1 -11   -3.14    4.26
  16   1 -12    6.03    5.34
  16  -1 -12   -2.96    3.91
  17   1   0   38.84    8.47
  17   1   1   15.09    5.39
  17  -1  -1   25.03    7.90
  17   1  -1    8.04    4.17
  17   1  -2   20.95    6.37
  17  -1  -2   30.23    8.56
  17   1   2   27.02    6.97
  17  -1  -3   50.28   10.34
  17   1   3   51.54    9.51
  17   1  -3   50.04    9.60
  17   1   4   41.34    8.45
  17   1  -4   33.84    8.08
  17  -1  -4   45.80    9.96
  17   1   5   14.14    5.34
  17  -1  -5    6.86    5.29
  17   1  -5    7.37    4.13
  17   1   6   20.01    6.29
  17  -1  -6   12.87    5.52
  17   1  -6    3.48    2.62
  17   1  -7    0.15    3.20
  17  -1  -7   -1.10    2.16
  17  -1  -8   10.45    5.04
  17   1  -8    8.06    3.59
  17  -1  -9   13.81    5.21
  17   1  -9    8.46    4.35
  17   1 -10   16.51    6.58
  18  -1   0    8.60    5.66
  18   1   0    3.27    3.37
  18   1  -1    2.69    2.90
  18  -1  -1   10.34    5.94
  18  -1   1   16.40    6.94
  18   1   1    6.53    3.98
  18  -1  -2    6.27    5.16
  18   1   2    3.88    3.46
  18   1  -2    0.86    2.15
  18  -1  -3    6.60    4.62
  18   1   3    2.71    3.13
  18   1  -3   -0.16    2.84
  18   1   4    5.44    3.68
  18  -1  -4    0.52    2.15
  18   1  -4   -0.83    3.29
  18   1   5    4.94    3.68
  18   1  -5   -6.30    5.10
  18   1   6   17.48    5.92
  18   1  -6   11.88    4.36
  19   1   0   11.39    4.89
  19   1  -1   29.74    8.06
  19   1   1   27.65    7.64
  19   1   2   32.62    8.02
  19   1  -2   30.14    8.23
  19   1   3    9.89    4.73
  19   1   4   17.51    6.03
  19   1   5   27.82    7.49
   0  -2   0 8383.90   47.96
   0   2   0 8052.41   47.80
   0  -2  -1    1.38    1.59
   0  -2   1    1.74    1.21
   0   2   1    0.13    0.79
   0   2   2  327.71   10.27
   0  -2   2  319.34    6.80
   0  -2  -2  355.39   10.70
   0  -2   2  312.74   10.24
   0  -2   3    1.18    1.10
   0   2  -3    0.85    1.29
   0  -2   4  808.46   18.61
   0   2  -4  786.01   18.32
   0  -2  -5    4.72    1.35
   0  -2   5    0.63    1.21
   0   2  -5    2.28    1.67
   0   2  -6  840.01   21.22
   0  -2  -6  859.93   13.29
   0  -2   6  897.50   21.73
   0  -2  -7    1.46    0.98
   0   2  -7    0.51    1.75
   0  -2  -8   84.34    4.87
   0   2  -8   77.23    7.00
   0   2  -9    7.15    3.59
   0  -2  -9    0.21    0.79
   0  -2 -10 1075.69   28.17
   0   2 -10 1055.71   28.31
   0  -2 -10 1068.30   20.26
   0   2  10 1046.05   19.55
   0   2 -11   10.87    5.16
   0  -2 -11    9.09    4.29
   0   2  11    3.53    1.67
   0   2 -11    2.30    1.25
   0  -2 -11   -0.47    0.81
   0  -2 -12  940.01   21.50
   0   2 -12  935.91   16.06
   0   2  12  928.28   20.96
   0  -2 -12  956.87   28.35
   0   2 -12  941.18   28.56
   0  -2 -13    0.76    2.37
   0   2  13    2.82    1.64
   0   2 -13    1.65    1.07
   0  -2 -13    4.47    4.05
   0   2 -13    9.31    5.37
   0   2 -14  146.88    7.43
   0  -2 -14  150.06   12.01
   0  -2 -14  151.25    9.48
   0   2 -14  149.98   12.38
   0   2 -15    4.84    4.08
   0  -2 -15    1.40    1.87
   0  -2 -15    3.08    2.93
   0   2 -15    1.42    1.38
   0  -2 -16  439.69   17.88
   0  -2 -16  439.92   21.87
   0   2 -16  454.77   22.84
   0  -2 -17    4.68    3.36
   0  -2 -17    3.95    2.66
   0   2 -17    6.25    4.27
   0  -2 -18   53.24    6.71
   0   2 -18   56.62    8.59
   0  -2 -18   56.71    8.34
   0  -2 -19    1.62    1.84
   0  -2 -19    1.58    2.49
   0   2 -19    0.58    2.00
   0  -2 -20   70.98    9.82
   0   2 -20   73.06   10.54
   0  -2 -20   82.79    8.95
   0  -2 -21    1.72    2.19
   0  -2 -21    2.67    2.82
   0   2 -21   -2.27    2.79
   0   2 -22   65.92   10.45
   0  -2 -22   72.79    8.84
   0  -2 -22   71.45   10.27
   0   2 -23    0.51    1.96
   0  -2 -23   -1.25    2.00
   0  -2 -24   10.54    4.47
   0   2 -24   11.80    5.02
   0  -2 -25   -0.23    1.45
   0   2 -25    1.46    2.61
   0  -2 -26  105.54   13.56
   0   2 -26  101.45   14.07
   0  -2 -27    3.19    2.65
   1  -2   0 3562.37   28.39
  -1   2   0 3585.97   30.84
   1  -2   0 3583.93   30.66
  -1  -2   0 3589.06   34.35
  -1  -2   0 3512.59   28.09
   1   2   0 3729.92   35.36
  -1   2   0 3546.16   28.19
   1   2   0 3581.02   28.20
  -1   2   1 2027.70   22.24
   1  -2  -1 2053.68   24.95
  -1   2   1 1995.49   24.63
  -1  -2  -1 2090.02   26.58
  -1  -2   1 1971.55   23.47
   1   2  -1 1994.38   23.16
  -1  -2  -1 1987.06   18.85
   1  -2  -1 1933.84   21.33
   1   2   1 2028.56   26.19
  -1   2  -1 2001.80   21.11
   1  -2   1 2030.99   21.01
  -1  -2   1 2049.76   25.96
   1  -2   1 2013.15   21.25
  -1   2  -2 1981.25   19.01
   1   2  -2 2067.49   25.89
  -1  -2  -2 2021.24   16.17
  -1  -2   2 2097.53   26.38
  -1   2   2 2020.03   23.37
  -1  -2  -2 2048.31   26.85
   1   2   2 2160.60   28.09
   1  -2  -2 2082.88   27.15
   1   2   3  649.31   15.86
   1   2  -3  649.23   15.69
  -1  -2   3  652.75   15.76
  -1   2  -3  625.15    9.46
   1  -2   3  667.06   16.45
   1  -2  -3  644.67   16.11
  -1  -2   4   91.92    6.31
   1   2  -4   88.12    6.31
  -1   2  -4   82.73    3.04
   1   2   4   99.65    6.50
   1  -2   4   91.76    6.44
   1  -2  -4   83.80    6.21
   1  -2  -5   16.58    3.35
  -1  -2   5   18.36    3.06
   1  -2   5   17.07    2.96
   1   2  -5   16.47    3.17
   1   2  -6  112.59    7.92
  -1  -2   6  119.54    7.92
  -1  -2  -6  110.06    3.57
   1  -2  -6  111.03    7.87
   1  -2  -6  116.61    5.87
   1  -2   6  111.88    7.83
   1  -2  -7   87.01    5.34
  -1   2  -7   90.31    7.55
   1  -2  -7   92.79    7.50
  -1  -2  -7   85.64    3.72
   1   2  -7   87.18    7.43
   1  -2  -8   60.32    6.41
   1   2  -8   58.34    6.46
   1  -2  -8   52.45    4.39
  -1  -2  -8   59.23    3.54
  -1   2  -8   58.21    6.39
   1   2   8   59.61    3.53
  -1   2  -9   80.02    7.65
   1   2   9   81.43    4.63
   1  -2  -9   90.56    6.16
   1   2  -9   83.15    7.90
  -1  -2  -9   84.76    4.71
   1  -2  -9   85.14    7.83
   1  -2 -10   22.19    3.29
   1  -2 -10   22.87    4.43
   1   2 -10   19.49    4.19
   1   2  10   22.73    2.73
  -1   2 -10   22.55    4.45
  -1  -2 -10   20.22    2.64
  -1   2 -11    1.92    2.31
   1   2 -11    0.91    1.79
   1   2  11    1.03    0.75
   1  -2 -11    0.31    1.55
   1  -2 -11    2.02    1.41
  -1  -2 -11    1.47    1.11
  -1   2 -11    1.48    0.76
   1  -2 -12    6.95    2.82
   1  -2 -12    4.36    1.55
  -1   2 -12    3.67    2.17
  -1  -2 -12    5.41    1.73
   1   2 -12    6.11    2.95
  -1   2 -12    5.70    1.27
  -1   2  12    8.66    2.44
   1   2  12    4.12    1.40
  -1  -2 -13   14.73    2.69
   1  -2 -13   11.69    2.58
  -1   2 -13   13.06    2.12
   1   2  13   11.12    2.28
  -1   2 -13   15.80    4.27
   1  -2 -13   13.75    3.70
   1   2 -13   10.64    3.82
  -1   2 -14   53.89    7.50
   1  -2 -14   59.06    7.79
   1  -2 -14   57.49    6.29
  -1   2 -14   56.03    4.62
   1   2  14   49.23    5.12
  -1  -2 -14   54.73    5.57
   1   2 -14   59.37    7.90
  -1  -2 -15    7.13    2.27
   1   2 -15   10.61    4.16
   1  -2 -15    7.08    3.06
  -1   2 -15    6.92    1.84
  -1   2 -15    9.57    3.94
   1  -2 -15    7.95    2.61
   1  -2 -16   22.40    4.49
   1  -2 -16   23.80    5.33
   1   2 -16   23.07    5.57
  -1  -2 -16   22.75    3.99
  -1   2 -16   26.05    5.63
  -1   2 -16   23.94    3.33
  -1  -2 -16   20.76    5.03
   1   2 -17   18.39    5.00
  -1  -2 -17   18.44    3.86
  -1   2 -17   23.19    5.63
   1  -2 -17   18.09    4.84
  -1  -2 -17   18.64    4.95
   1  -2 -17   18.01    4.26
  -1   2 -17   19.74    3.19
  -1   2 -18    9.25    2.25
  -1  -2 -18   10.17    3.70
  -1   2 -18   10.43    4.12
   1   2 -18    7.51    3.44
   1  -2 -18   10.49    3.23
  -1  -2 -18    8.18    2.69
   1  -2 -18   10.61    3.83
  -1   2 -19   19.25    3.42
   1  -2 -19   16.73    4.17
  -1   2 -19   19.20    5.45
  -1  -2 -19   18.80    4.17
   1  -2 -19   17.32    4.78
   1   2 -19   19.97    5.41
  -1  -2 -19   16.28    4.83
   1  -2 -20   39.69    6.43
  -1  -2 -20   38.80    7.23
   1   2 -20   37.08    7.56
  -1  -2 -20   36.54    5.80
   1  -2 -20   33.01    6.67
  -1   2 -20   36.98    7.41
  -1  -2 -21    9.41    3.28
   1   2 -21    9.01    4.62
  -1  -2 -21    7.12    3.00
  -1   2 -21    8.66    4.03
   1  -2 -21    8.15    3.39
   1  -2 -21    7.64    3.48
   1   2 -22    6.59    3.67
  -1  -2 -22    7.54    3.34
   1  -2 -22    8.67    3.68
   1  -2 -22    8.55    3.11
   1   2 -23    6.23    3.47
   1  -2 -23   11.83    4.07
   1  -2 -23    4.56    2.64
  -1  -2 -23    9.29    4.01
   1   2 -24   14.25    5.42
  -1  -2 -24   13.63    5.09
   1  -2 -24   12.20    4.44
   1  -2 -25   18.32    5.97
  -1  -2 -25   18.44    5.53
   1   2 -25   16.53    5.97
   1   2 -26    6.19    4.10
  -1  -2 -26    4.09    3.23
   1  -2 -26    4.27    3.26
  -1  -2 -27    3.03    2.78
   1  -2 -27    5.44    3.60
   1   2 -27    4.55    3.82
   1   2 -28   12.87    5.70
   2  -2   0  111.86    4.44
  -2   2   0  108.01    5.77
  -2  -2   0  106.86    5.10
   2   2   0  107.63    5.12
   2   2   0  107.18    6.62
  -2   2   0  103.68    4.19
  -2  -2   0  111.77    6.98
  -2  -2  -1  525.38    9.81
   2   2   1  536.64    9.77
   2   2  -1  528.23   12.43
  -2  -2  -1  544.00   14.55
   2   2   1  544.31   14.57
  -2  -2   1  529.65   12.48
  -2   2   1  534.34   10.16
   2  -2   1  533.80    9.39
  -2  -2   1  546.10   14.43
  -2   2   1  535.34   13.76
  -2  -2  -2  196.98    9.19
   2   2  -2  200.43    8.48
  -2  -2   2  198.43    8.23
  -2   2   2  197.92    8.78
  -2  -2  -2  190.99    4.95
   2   2   2  192.08    8.91
  -2   2   2  194.40    6.69
   2   2   2  196.47    4.97
  -2   2   3 1587.30   25.97
   2  -2  -3 1574.45   25.82
  -2  -2  -3 1520.36   25.38
  -2  -2   3 1565.58   24.74
   2   2   3 1624.43   26.70
   2   2  -3 1538.45   25.03
   2   2  -4  122.74    7.74
  -2  -2   4  121.59    7.30
   2   2   4  125.48    7.64
   2  -2  -4  113.58    7.55
  -2   2   4  116.21    7.31
  -2  -2   5   48.89    4.87
  -2   2   5   66.14    6.16
   2  -2  -5   61.73    6.33
   2   2   5   52.41    5.43
   2   2  -5   45.94    4.96
   2  -2   5   48.81    5.30
   2   2  -6   27.96    4.50
  -2   2   6   27.03    3.92
   2  -2  -6   22.26    3.90
  -2  -2   6   25.81    3.82
   2  -2  -6   31.69    4.07
   2  -2   6   29.20    4.03
   2   2  -7  314.83   14.28
   2  -2  -7  323.51   11.59
   2  -2  -7  339.35   14.32
  -2  -2   8   29.34    2.48
   2   2  -8   30.68    4.92
   2  -2  -8   27.84    3.52
   2   2   8   25.99    2.02
   2  -2  -8   31.92    4.99
   2   2  -9  374.38   16.84
   2   2   9  366.28    8.83
   2  -2  -9  384.70   13.76
   2  -2  -9  382.01   16.57
  -2  -2   9  379.52    9.46
   2  -2 -10   77.53    6.61
   2   2  10   76.61    4.46
   2  -2 -10   83.77    8.10
  -2  -2 -10   76.83    4.52
   2   2 -10   79.99    8.26
   2   2 -11    2.59    2.69
  -2  -2 -11    2.97    1.30
   2  -2 -11    1.50    1.36
   2  -2 -11    3.53    2.62
   2   2  11    0.51    0.73
   2  -2 -12  114.82    8.63
   2   2 -12  115.20   10.61
  -2  -2 -12  114.83    6.75
   2   2  12  113.05    6.51
   2  -2 -12  116.92   10.19
   2  -2 -13  519.14   18.95
  -2  -2 -13  489.99   14.76
   2   2  13  497.62   14.69
   2  -2 -13  506.79   21.77
   2   2 -13  508.32   22.50
   2   2 -14    6.23    3.90
   2  -2 -14   11.17    4.25
   2  -2 -14    2.98    1.77
  -2  -2 -14    4.55    1.98
   2   2  14    2.52    0.79
   2   2 -15   35.26    6.74
   2   2  15   29.81    3.97
   2  -2 -15   30.40    4.99
   2  -2 -15   32.66    6.07
  -2  -2 -15   32.45    4.32
   2   2 -16    4.37    3.24
   2  -2 -16    5.66    3.06
  -2  -2 -16    3.25    1.94
  -2   2 -16    2.49    1.33
   2  -2 -16    0.11    1.35
  -2   2 -17  151.70    9.19
   2  -2 -17  152.79   13.21
   2  -2 -17  157.25   11.99
  -2  -2 -17  148.03   10.07
   2   2 -17  153.12   13.96
  -2   2 -18   30.72    4.31
   2  -2 -18   34.30    6.19
   2  -2 -18   31.44    6.59
   2   2 -18   34.78    7.11
  -2  -2 -18   33.06    5.26
   2  -2 -19  151.93   14.09
   2   2 -19  160.32   15.07
  -2   2 -19  153.76    9.81
  -2  -2 -19  147.71   13.79
   2  -2 -19  169.48   13.26
  -2  -2 -19  157.74   11.16
  -2  -2 -20    9.77    4.16
   2  -2 -20   11.97    4.21
   2  -2 -20   16.18    4.76
   2   2 -20   12.89    5.23
   2   2 -21    3.39    3.44
   2  -2 -21    5.85    3.11
  -2  -2 -21    3.41    2.70
   2  -2 -21    4.05    2.68
   2   2 -22    3.95    3.78
   2  -2 -22    5.70    3.19
  -2  -2 -22    2.87    2.46
   2  -2 -22    7.32    3.74
  -2  -2 -23  132.14   14.44
   2  -2 -23  138.10   13.40
   2  -2 -23  138.54   14.86
   2   2 -23  127.65   15.14
   2   2 -24    7.46    4.43
   2  -2 -24    9.28    4.05
  -2  -2 -24    9.99    4.44
   2  -2 -24    9.89    4.36
  -2  -2 -25   80.35   11.80
   2   2 -25   85.23   13.01
   2   2 -26    9.75    4.97
  -2  -2 -26    8.09    4.11
   2   2 -27    9.81    4.95
  -2  -2 -27    7.35    3.83
   2   2 -28   20.99    7.25
   3   2   0  166.47    8.46
  -3  -2   0  167.05    6.77
  -3   2   0  150.15    4.14
  -3  -2   0  162.85    8.49
   3   2   0  158.83    6.81
   3   2  -1  170.59    7.65
  -3   2   1  177.16    5.13
   3   2   1  189.96    9.14
   3  -2   1  176.35    4.30
  -3  -2   1  176.99    7.68
  -3  -2  -1  171.26    8.80
   3   2   1  180.76    6.48
  -3  -2   1  188.70    9.11
  -3  -2  -1  181.12    6.44
   3   2   2  436.18    8.82
  -3  -2  -2  424.87   14.25
  -3   2   2  442.64   14.03
  -3  -2   2  439.97   12.95
   3   2   2  437.23   14.07
   3   2  -2  423.50   12.95
  -3  -2  -2  431.38    8.68
   3   2   3  837.31   20.16
  -3  -2  -3  798.32   19.43
  -3   2   3  821.80   19.88
  -3  -2   3  828.45   18.87
   3   2   3  799.43   10.31
   3   2  -3  802.24   18.91
   3   2   4   27.06    3.63
  -3  -2   4   26.27    3.65
   3   2  -4   22.70    3.66
  -3   2   4   28.93    3.84
  -3  -2   5  146.32    8.81
  -3   2   5  151.55    9.05
   3   2   5  150.32    9.02
   3   2  -5  139.72    8.81
   3   2  -6  105.34    8.19
   3   2  -7   21.87    4.18
   3  -2  -7   29.16    4.39
   3   2  -8   36.70    5.43
   3  -2  -8   44.64    5.83
   3  -2  -8   39.08    4.88
   3   2   8   39.16    2.41
   3   2   9    9.47    1.38
  -3  -2   9    9.40    1.81
   3  -2  -9    9.88    3.04
   3   2  -9   10.53    3.16
   3  -2  -9    7.87    2.29
  -3  -2  10   41.49    3.80
   3  -2 -10   40.46    5.75
   3  -2 -10   40.88    4.84
   3   2 -10   39.86    6.00
   3   2  10   42.27    3.21
   3  -2 -11  125.96   10.35
   3   2 -11  125.42   10.84
   3   2  11  130.44    6.21
   3  -2 -11  135.00    9.45
  -3  -2  11  131.19    7.01
  -3  -2  12   20.99    2.95
   3   2 -12   21.60    4.83
   3   2  12   22.53    2.83
   3  -2 -12   22.99    4.46
   3  -2 -12   19.12    4.46
   3   2 -13    0.25    2.29
   3  -2 -13    1.56    1.84
   3   2  13    0.93    0.88
   3  -2 -13   -0.18    1.58
   3   2  14    2.19    1.12
   3   2 -14   -2.59    3.13
   3  -2 -14    2.17    1.88
   3  -2 -14    1.02    1.74
   3   2 -15   24.34    5.44
   3  -2 -15   27.18    4.90
   3   2  15   26.43    3.68
   3  -2 -15   27.57    5.61
   3   2 -16    9.12    3.70
   3  -2 -16    9.74    2.77
   3  -2 -16    9.65    3.21
   3   2 -17    0.35    2.57
   3  -2 -17    1.51    1.94
   3  -2 -17   -0.50    2.43
   3   2 -18    6.25    3.58
   3  -2 -18    3.77    2.03
   3  -2 -18    4.14    2.27
   3   2 -19   11.54    4.65
   3  -2 -19   13.86    3.93
  -3   2 -19   15.20    3.27
   3  -2 -20    9.03    3.36
   3   2 -20   10.08    4.09
  -3  -2 -21   21.85    5.86
   3  -2 -21   20.60    5.15
   3   2 -21   28.23    6.82
   3   2 -22    4.91    3.97
   3  -2 -22   -0.42    1.83
  -3  -2 -22    1.02    1.42
  -3  -2 -23   11.42    4.23
   3   2 -23   15.88    6.01
   3  -2 -23   14.51    4.81
   3   2 -24    5.54    3.93
   3  -2 -24    1.23    1.67
  -3  -2 -24    1.61    2.25
  -3  -2 -25    0.52    1.80
   3   2 -25   -2.80    3.26
   3   2 -26    2.98    3.33
  -3  -2 -26   -0.15    2.27
   3   2 -27   11.95    5.38
  -3  -2 -27   13.01    4.95
  -4  -2   0   58.29    4.48
   4   2   0   49.44    4.23
  -4  -2   0   52.12    5.38
   4   2  -1   39.22    3.99
  -4  -2  -1   32.40    3.78
  -4  -2   1   42.63    4.11
   4   2   1   39.25    4.45
  -4   2   1   35.74    2.07
   4   2   1   36.85    3.51
  -4  -2   1   34.95    4.34
  -4  -2  -2   59.92    5.71
   4   2  -2   57.30    5.18
  -4  -2   2   61.66    5.16
   4   2   2   54.17    3.77
   4   2   2   66.40    5.81
  -4  -2  -3  150.63    9.11
  -4  -2   3  139.43    8.16
   4   2   3  142.83    8.77
   4   2  -3  142.61    8.33
   4   2   3  135.07    5.41
  -4  -2   4  426.98   15.12
   4   2  -4  447.84   15.62
  -4  -2  -4  424.22   15.52
   4   2   4  414.69    8.73
   4   2  -5   16.99    3.37
   4   2  -6    3.73    1.88
   4   2   7    2.94    0.79
   4   2  -7    1.06    1.80
   4   2   8   10.58    1.43
   4   2  -8    8.32    2.46
   4  -2  -8   15.00    4.00
   4   2   9   46.06    3.21
   4   2  -9   50.06    6.65
   4  -2  -9   52.72    6.09
   4   2  10  131.51    5.92
   4   2 -10  136.81   11.40
   4  -2 -10  140.49    9.86
  -4  -2  11   25.94    3.44
   4   2 -11   28.06    5.34
   4   2  11   28.36    2.93
   4  -2 -11   22.53    3.78
   4  -2 -12  125.38    9.96
   4   2 -12  130.64   11.74
   4   2  12  123.47    6.56
  -4  -2  12  124.97    7.79
   4   2 -13   67.18    8.67
  -4  -2  13   65.47    5.77
   4  -2 -13   66.59    7.79
   4   2  13   66.13    5.17
  -4  -2  14   24.49    3.64
   4  -2 -14   30.63    5.48
   4   2  14   23.85    3.31
   4   2 -14   27.20    5.81
   4  -2 -15   76.28    8.83
   4   2  15   73.11    6.06
   4   2 -15   77.14    9.75
   4  -2 -16  135.01   11.83
   4   2 -16  130.86   13.04
   4  -2 -17    7.53    2.97
   4   2 -17   10.26    4.51
   4  -2 -18   11.09    3.58
   4   2 -18    6.56    2.99
   4   2 -19   72.57   10.47
   4  -2 -19   74.29    9.40
   4   2 -20    1.09    2.20
   4  -2 -20    1.89    1.67
   4   2 -21   43.37    8.70
   4  -2 -21   41.06    7.53
   4   2 -22   33.10    8.02
   4  -2 -22   30.09    6.45
   4  -2 -23    2.19    2.64
   4   2 -23    7.15    4.08
   4  -2 -24    7.34    3.76
   4   2 -24    7.04    4.13
  -4  -2 -24    6.53    3.12
   4  -2 -25   43.11    8.29
   4   2 -25   38.59    9.06
  -4  -2 -25   44.64    8.80
   4   2 -26   33.47    8.74
  -4  -2 -26   35.31    8.14
   4   2 -27   40.22    9.53
  -4  -2 -27   43.91    9.24
   5   2   0  213.36    9.48
  -5  -2   0  220.04   11.11
   5   2  -1   30.09    3.98
  -5  -2   1   29.62    3.97
  -5  -2  -1   17.94    2.91
  -5  -2   1   31.19    3.98
   5   2   1   28.02    3.32
  -5  -2   2   74.96    6.54
   5   2  -2   80.48    6.52
   5   2   2   71.38    4.98
  -5  -2   2   79.55    6.39
  -5  -2  -2   71.69    6.37
  -5  -2   3  160.25    9.35
   5   2  -3  161.85    9.58
   5   2   3  155.95    7.02
  -5  -2  -3  177.24   10.49
   5   2  -4   30.69    4.39
   5   2   4   30.46    3.07
   5   2  -5   55.76    6.27
   5   2  -6  175.91   11.43
   5   2  -7  312.69   15.86
   5  -2  -7  319.09   14.86
   5   2  -8   51.49    6.68
   5  -2  -8   57.70    6.81
   5   2  -9    4.67    2.51
   5  -2  -9    7.59    3.21
   5   2   9    4.66    1.24
   5  -2 -10   -0.16    1.69
   5   2  10    0.91    0.67
   5   2 -10    0.49    2.23
   5   2  11   42.94    3.76
   5   2 -11   40.34    6.46
   5  -2 -11   44.88    6.03
   5   2  12    6.14    1.64
   5   2 -12    3.72    2.00
   5  -2 -12    0.37    2.53
   5   2 -13  195.46   15.15
   5  -2 -13  214.12   14.06
   5   2  13  196.39    9.08
   5   2 -14   73.27    9.85
   5  -2 -14   70.70    8.63
   5   2  14   68.92    5.65
   5   2 -15  397.46   22.90
   5  -2 -15  415.46   20.91
   5  -2 -16   49.43    7.44
   5   2 -16   51.33    8.83
   5   2 -17   28.67    7.02
   5  -2 -17   25.06    5.58
   5  -2 -18   15.97    4.79
   5   2 -18   18.70    5.65
   5   2 -19   88.43   12.13
   5  -2 -19   90.71   10.75
   5  -2 -20    6.96    2.57
   5   2 -20    9.42    4.30
   5  -2 -21   -1.96    3.23
   5   2 -21    2.58    2.32
   5  -2 -22    9.25    3.80
   5   2 -22   14.73    5.67
   5   2 -23   30.96    8.08
   5  -2 -23   28.66    6.63
   5   2 -24    4.84    3.73
   5  -2 -24    7.14    3.57
  -5  -2 -25   19.17    5.84
   5   2 -25   19.65    6.88
   5  -2 -25   22.90    6.21
  -5  -2 -26   13.12    5.09
   5  -2 -26   16.66    5.59
   5   2 -26   18.63    6.44
  -5  -2 -27    4.85    3.49
   6   2   0    1.09    1.33
  -6  -2   0    0.78    1.87
   6   2  -1   32.60    4.19
  -6  -2  -1   35.24    4.54
   6   2   1   40.06    4.24
  -6  -2   1   37.16    4.78
  -6  -2  -2  206.51   11.47
   6   2  -2  198.79   10.93
   6   2   2  198.75    9.37
  -6  -2   2  211.46   11.37
  -6  -2  -3   29.78    5.13
   6   2  -3   27.24    4.53
   6   2   3   29.33    3.68
   6   2   4    6.59    2.45
   6  -2   4    6.49    1.36
   6   2  -4    5.18    2.79
   6   2  -5   42.22    5.82
   6   2  -6  114.71    9.64
   6   2  -7    6.36    2.49
   6  -2  -8   14.65    4.79
   6   2  -8   10.57    3.41
   6  -2  -9    7.46    3.51
   6   2  -9    2.80    2.44
   6   2  10   29.89    3.27
   6  -2 -10   32.52    5.70
   6   2 -10   36.12    6.34
   6   2 -11   43.14    6.88
   6   2  11   38.78    3.93
   6  -2 -11   43.21    6.31
   6   2 -12   39.46    6.82
   6  -2 -12   37.41    6.00
   6   2  12   41.82    4.18
   6   2 -13   25.15    5.75
   6  -2 -13   23.42    4.42
   6   2  13   29.71    3.68
   6   2 -14  306.80   19.82
   6  -2 -14  301.95   18.36
   6   2 -15   90.02   11.42
   6  -2 -15   97.04   10.91
   6   2 -16  118.99   13.16
   6  -2 -16  119.08   12.14
   6   2 -17    0.73    2.00
   6  -2 -17    1.40    1.95
   6   2 -18   12.18    4.71
   6  -2 -18   10.59    3.69
   6   2 -19   -0.02    2.19
   6  -2 -19    2.48    2.28
   6   2 -20   16.96    5.74
   6  -2 -20   18.90    5.24
   6   2 -21    8.29    4.65
   6  -2 -21    1.01    2.40
   6  -2 -22    2.03    2.07
   6   2 -22    6.16    4.18
   6   2 -23    3.49    2.74
   6  -2 -23    2.79    2.69
   6   2 -24   37.30    9.00
   6  -2 -24   33.25    7.90
   6   2 -25    3.46    3.67
   6  -2 -25    2.91    2.36
   6   2 -26    5.45    4.25
   6  -2 -26    3.27    2.75
  -6  -2 -27    5.52    3.56
  -7  -2   0    1.79    2.33
   7   2   0    0.97    1.46
  -7  -2   1    2.40    1.92
  -7  -2  -1   -2.13    2.58
   7   2   1    0.72    1.13
   7   2  -1   -0.68    1.71
  -7  -2  -2   59.33    6.39
   7   2  -2   56.06    6.11
   7   2   2   58.51    5.58
  -7  -2   2   61.85    6.40
  -7  -2  -3  140.71   10.22
   7   2  -3  136.32    9.70
   7   2   3  135.92    8.42
  -7  -2   3  143.08   10.00
   7  -2   4   18.75    1.72
  -7  -2  -4   37.82    6.39
   7   2  -4   19.69    4.27
   7   2   4   26.31    3.92
   7  -2   5  127.80    5.31
   7   2  -5  134.75   10.58
   7   2  -6   26.71    5.03
   7   2  -7    6.79    3.16
   7   2  -8  240.59   15.46
   7  -2  -8  255.41   15.17
   7   2  -9   96.51   10.18
   7  -2  -9   97.08    9.95
   7   2 -10   32.65    6.02
   7  -2 -10   43.62    6.81
   7   2 -11    8.34    3.68
   7   2  11    7.20    1.93
   7  -2 -11    4.96    3.06
   7  -2 -12  109.21   10.85
   7   2 -12  114.26   11.98
   7   2  12  109.57    7.19
   7   2 -13   43.85    7.80
   7  -2 -13   39.59    6.15
   7   2 -14   69.18    9.79
   7  -2 -14   55.59    7.87
   7   2 -15   70.42   10.14
   7  -2 -15   70.42    9.76
   7   2 -16  279.32   20.85
   7  -2 -16  274.23   18.93
   7   2 -17   25.99    7.02
   7  -2 -17   20.09    5.86
   7  -2 -18   43.60    8.03
   7   2 -18   44.84    9.03
   7   2 -19   -0.02    2.87
   7  -2 -19   -0.08    2.05
   7   2 -20   15.15    5.22
   7  -2 -20   10.53    4.52
   7  -2 -21   19.86    5.81
   7   2 -21   21.90    6.57
   7   2 -22    3.82    3.48
   7  -2 -22    3.68    2.77
   7   2 -23   15.62    6.00
   7  -2 -23   15.38    5.32
   7  -2 -24    4.31    3.04
   7   2 -24    7.54    5.01
   7  -2 -25   12.21    4.99
   7   2 -25   13.77    5.73
   7  -2 -26   -1.26    2.44
   7  -2 -27    3.83    3.41
  -8  -2   0   84.06    7.95
   8   2   0   84.65    7.57
  -8  -2  -1  223.76   12.92
   8   2   1  231.51   12.17
   8   2  -1  230.42   12.91
  -8   2   1  209.47    5.34
  -8  -2   1  234.87   13.14
   8   2   2  264.22   12.64
   8   2  -2  261.10   14.24
  -8  -2  -2  267.22   14.19
  -8  -2   2  253.85   13.96
   8   2  -3  132.96   10.33
   8   2   3  137.82    9.08
  -8  -2   3  133.51   10.05
  -8  -2  -3  139.41   10.37
  -8  -2  -4  155.05   11.12
   8   2  -4  132.97   10.52
   8   2   4  150.24    9.32
   8   2  -5  123.29   10.77
   8  -2   5  118.04    5.15
   8  -2   6    5.66    1.31
   8   2  -6    7.09    3.25
   8  -2   7   73.99    5.15
   8   2  -7   71.53    8.82
   8   2  -8  102.77   10.56
   8  -2  -8  114.66   11.09
   8   2  -9   59.02    8.32
   8  -2  -9   72.33    9.28
   8   2 -10   20.59    5.67
   8  -2 -10   18.93    4.79
   8   2 -11  137.17   13.35
   8  -2 -11  140.37   12.62
   8   2 -12   83.65   10.75
   8  -2 -12   82.33    9.91
   8   2 -13   11.86    4.47
   8  -2 -13   10.32    3.56
   8   2 -14   46.50    8.07
   8  -2 -14   38.24    6.36
   8   2 -15   91.00   11.97
   8  -2 -15   95.23   11.21
   8  -2 -16   42.66    8.00
   8   2 -16   38.40    7.92
   8   2 -17   34.84    7.83
   8  -2 -17   36.43    7.44
   8   2 -18   48.56    9.28
   8  -2 -18   47.48    8.68
   8   2 -19    7.36    3.56
   8  -2 -19   10.04    4.38
   8   2 -20    6.43    3.72
   8  -2 -20    5.20    3.31
   8   2 -21   53.59   10.74
   8  -2 -21   51.87    9.67
   8   2 -22   20.83    6.91
   8  -2 -22   18.34    5.84
   8   2 -23   11.22    4.78
   8  -2 -23   10.37    4.24
   8  -2 -24   38.49    8.54
   8   2 -24   36.06    9.25
   8  -2 -25   16.21    5.97
   8  -2 -26    9.81    4.79
   8  -2 -27   21.21    6.69
  -9  -2   0   -1.12    2.85
   9   2   0   12.11    3.29
  -9  -2   1   37.92    5.76
  -9   2   1   32.11    2.34
   9   2   1   30.30    4.98
  -9  -2  -1   30.50    4.90
   9   2  -1   32.56    5.21
  -9  -2  -2    6.46    2.87
  -9  -2   2    7.13    2.67
   9   2  -2    4.96    2.46
  -9   2   2    6.52    1.27
   9   2   2   11.82    3.56
  -9  -2  -3   10.50    4.05
  -9  -2   3    5.83    2.35
   9   2   3    9.49    3.15
   9   2  -3    2.61    2.30
  -9  -2   4    2.26    1.71
   9   2  -4    0.89    2.50
   9   2  -5   -1.54    2.52
   9  -2   5    1.43    0.65
   9  -2   6    3.98    1.18
   9   2  -6    1.88    2.27
   9   2  -7   18.61    4.94
   9  -2   7   12.70    2.03
   9  -2   8   24.88    3.34
   9   2  -8   28.09    6.27
   9  -2  -8   38.67    7.46
   9  -2   9    4.29    2.10
   9  -2  -9    6.57    4.16
   9   2  -9    1.64    2.00
   9   2 -10    4.16    3.04
   9  -2 -10    4.10    3.41
   9  -2 -11   10.04    4.25
   9   2 -11    5.91    3.34
   9   2 -12   14.37    4.72
   9  -2 -12   13.73    4.21
   9   2 -13    0.63    2.97
   9  -2 -13   -1.98    3.72
   9   2 -14    3.63    2.88
   9  -2 -14    1.82    2.95
   9   2 -15   -1.46    2.58
   9  -2 -15  -16.89    5.27
   9   2 -16    6.76    2.80
   9  -2 -16    8.33    4.38
   9  -2 -17    2.34    2.51
   9   2 -17    0.12    2.91
   9   2 -18    7.25    3.69
   9  -2 -18    8.78    4.12
   9   2 -19    0.07    2.67
   9  -2 -19    2.22    3.14
   9   2 -20   -0.97    2.96
   9  -2 -20   -1.13    2.73
   9   2 -21    0.78    2.18
   9  -2 -21    0.85    2.93
   9  -2 -22    3.14    2.69
   9   2 -22    3.52    4.16
   9  -2 -23   -1.25    3.58
   9   2 -23    0.80    2.25
   9  -2 -24   -0.80    2.79
   9  -2 -25    0.18    2.55
  10   2   0   25.29    4.86
 -10  -2   0   17.71    3.00
 -10   2   1  140.60    5.24
 -10  -2   1  153.41   12.07
  10   2  -1  143.21   11.59
  10   2   1  153.91   11.70
 -10  -2  -1  148.77   11.49
 -10  -2  -2  194.14   13.14
  10   2   2  190.78   12.70
 -10   2   2  194.57    7.13
  10   2  -2  192.46   13.36
 -10  -2   2  202.01   13.42
  10   2  -3  109.40   10.51
  10   2   3  109.75    9.61
 -10  -2  -3  113.23   10.35
 -10   2   3  114.79    6.09
 -10  -2   3  105.18    9.87
  10   2  -4   68.08    8.40
 -10  -2   4   71.55    7.94
  10   2   4   74.90    7.81
 -10  -2  -4   87.55    9.47
 -10  -2   5  134.12   11.62
  10   2  -5  132.38   12.07
  10   2  -6   37.99    6.87
  10  -2   6   33.79    3.17
  10  -2   7   43.64    3.95
  10   2  -7   43.08    7.54
  10  -2  -7   52.52    9.03
  10   2  -8   95.90   11.12
  10  -2  -8  110.00   11.93
  10   2  -9   80.23   10.66
  10  -2  -9   99.71   11.63
  10   2 -10   56.63    9.16
  10  -2 -10   59.66    9.05
  10  -2 -11  210.47   16.77
  10   2 -11  221.09   17.83
  10   2 -12  101.74   12.49
  10  -2 -12   95.09   11.57
  10   2 -13   36.00    7.79
  10  -2 -13   29.34    6.48
  10   2 -14   51.89    9.31
  10  -2 -14   54.00    8.91
  10   2 -15   76.29   11.42
  10  -2 -15   86.50   11.33
  10   2 -16   19.40    6.21
  10  -2 -16   23.50    6.64
  10  -2 -17   88.61   12.48
  10   2 -17   77.70   12.24
  10  -2 -18   64.41   10.88
  10   2 -18   52.51   10.22
  10  -2 -19   21.20    6.52
  10   2 -19   22.01    6.47
  10   2 -20   10.30    5.32
  10  -2 -20   10.17    4.93
  10   2 -21   29.74    8.03
  10  -2 -21   34.46    8.45
  10   2 -22   15.91    6.17
  10  -2 -22   17.91    6.23
  10  -2 -23   14.31    5.65
  10  -2 -24   22.99    7.22
  11   2   0    0.21    1.88
 -11  -2   0   -6.06    4.52
 -11  -2  -1  130.10   11.19
 -11   2   1  133.22    5.38
  11   2  -1  137.65   11.88
  11   2   1  135.61   11.58
 -11  -2   1  115.70   10.31
  11   2   2   10.71    3.95
 -11  -2   2    9.75    3.91
 -11  -2  -2   10.10    3.74
 -11   2   2    7.61    1.38
  11   2  -2    3.25    2.17
 -11  -2   3  181.77   13.71
 -11   2   3  189.13    8.11
  11   2   3  181.46   12.81
 -11  -2  -3  179.17   13.60
  11   2  -3  173.92   13.83
  11   2   4    4.93    2.84
  11   2  -4   -0.90    3.42
 -11   2   4    0.33    1.17
 -11  -2   4   -2.24    2.89
  11   2   5   19.37    4.52
 -11  -2   5   13.79    3.52
  11   2  -5   13.53    3.64
 -11  -2   6   -2.21    3.18
  11   2  -6    0.05    2.54
  11   2  -7   10.93    4.47
  11  -2  -7   28.89    7.58
  11   2  -8   42.31    7.61
  11  -2  -8   53.12    9.03
  11  -2  -9    4.69    3.86
  11   2  -9    0.40    2.53
  11   2 -10    1.66    2.02
  11  -2 -10    5.94    3.98
  11  -2 -11    2.53    2.89
  11   2 -11    2.54    2.36
  11   2 -12    3.07    2.84
  11  -2 -12    2.10    3.29
  11   2 -13   11.31    4.60
  11  -2 -13   12.65    4.35
  11   2 -14    5.83    3.66
  11  -2 -14    5.53    2.39
  11   2 -15   -0.77    3.32
  11  -2 -15   -2.03    4.65
  11   2 -16    1.61    2.55
  11  -2 -16    0.06    2.63
  11  -2 -17    1.77    2.44
  11   2 -17   -0.30    3.10
  11   2 -18    0.28    2.71
  11  -2 -18    1.65    3.21
  11   2 -19   -0.07    3.50
  11  -2 -19   -0.21    2.22
  11   2 -20    4.69    4.01
  11  -2 -20    8.99    4.32
  11   2 -21    1.58    2.26
  11  -2 -21   -0.60    2.86
  11  -2 -22   -0.70    2.79
 -12  -2   0   93.11    9.77
  12   2   0   95.05   10.32
 -12  -2   1  239.35   15.74
  12   2  -1  244.12   16.62
  12   2   1  249.62   16.56
 -12  -2  -1  241.99   15.85
  12   2   2  168.20   13.41
 -12  -2  -2  170.69   13.33
  12   2  -2  177.12   14.49
 -12  -2   2  184.37   14.38
 -12  -2   3   19.48    5.04
 -12  -2  -3   17.48    4.88
  12   2   3   18.91    4.93
  12   2  -3   13.29    4.23
 -12  -2  -4  147.59   12.52
 -12  -2   4  130.17   12.04
  12   2  -4  133.73   13.01
  12   2   4  123.84   11.17
 -12   2   4  133.31    7.66
 -12   2   5   69.43    5.95
  12   2  -5   67.53    9.29
  12   2   5   72.08    8.49
 -12  -2   5   65.61    8.72
  12   2   6   30.06    5.62
 -12  -2   6   24.07    5.14
  12   2  -6   21.78    4.93
 -12  -2   7   37.33    6.69
  12   2  -7   38.20    7.38
  12  -2  -7   53.81    9.63
  12   2  -8  113.75   12.83
  12  -2  -8  115.06   13.48
  12   2  -9   57.58    9.63
  12  -2  -9   61.27    9.97
  12   2 -10   38.37    8.09
  12  -2 -10   38.64    7.95
  12   2 -11   30.59    7.30
  12  -2 -11   30.76    7.04
  12   2 -12   66.88   11.05
  12  -2 -12   61.45   10.18
  12   2 -13   68.87   11.22
  12  -2 -13   69.48   10.89
  12   2 -14   48.87    9.75
  12  -2 -14   40.70    8.11
  12   2 -15   11.10    5.08
  12  -2 -15   13.74    4.27
  12   2 -16    8.30    4.49
  12  -2 -16    7.46    3.43
  12   2 -17   23.33    7.22
  12  -2 -17   27.14    7.52
  12   2 -18   45.90   10.02
  12  -2 -18   48.18    9.85
  12   2 -19   17.67    6.25
  12  -2 -19   13.85    5.96
  12  -2 -20   13.40    5.52
  12  -2 -21    8.72    4.98
  13   2   0  277.55   18.30
 -13  -2   0  279.58   17.73
  13   2   1   26.65    5.87
 -13  -2  -1   21.65    5.12
 -13  -2   1   21.99    4.39
  13   2  -1   24.61    5.58
 -13  -2   2   11.27    2.24
 -13  -2  -2   20.17    5.19
  13   2  -2   14.46    4.29
  13   2   2   22.15    5.13
 -13  -2   3   48.53    7.71
 -13  -2  -3   50.60    7.95
  13   2   3   49.29    7.69
  13   2  -3   42.77    7.50
  13   2   4   10.95    3.99
 -13  -2   4    7.32    3.24
  13   2  -4    4.95    2.31
  13   2   5    3.32    3.15
 -13  -2   5   -0.13    1.65
  13   2  -5   -0.33    2.99
  13  -2  -6   14.28    6.22
 -13  -2   6    2.64    2.13
  13   2  -6   -5.07    4.25
  13   2   6    6.81    3.85
  13   2   7   24.07    5.36
  13  -2  -7   27.74    7.35
 -13  -2   7   17.42    4.84
  13   2  -7   16.39    5.29
 -13  -2   8   28.13    6.07
  13   2  -8   33.54    7.43
  13  -2  -8   39.97    8.79
  13  -2  -9    7.50    4.21
  13   2  -9   10.12    4.63
  13  -2 -10    8.05    4.35
  13   2 -10    4.42    3.25
  13   2 -11   95.51   13.32
  13  -2 -11  100.19   13.21
  13   2 -12   29.60    7.74
  13  -2 -12   24.74    6.94
  13   2 -13    5.82    4.16
  13  -2 -13    0.68    2.84
  13   2 -14    2.65    3.15
  13  -2 -14   -2.50    3.87
  13   2 -15    3.15    4.06
  13  -2 -15   -2.77    4.47
  13  -2 -16    2.02    2.29
  13   2 -16    2.55    2.07
  13   2 -17   34.07    8.40
  13  -2 -17   38.20    8.97
  13   2 -18    1.99    2.97
  13  -2 -18    2.88    2.92
  13  -2 -19    1.11    2.19
 -14  -2   0  123.29   11.97
  14   2   0  123.52   12.71
 -14  -2   1    5.09    1.95
 -14  -2  -1   13.31    4.31
  14   2   1    9.77    4.05
  14   2  -1    7.57    3.35
 -14  -2  -2    9.86    4.57
 -14  -2   2   -1.01    3.47
  14   2   2   10.47    4.16
  14   2  -2    5.76    3.03
  14   2   3   13.93    4.34
 -14  -2   3    9.21    2.55
  14   2  -3    7.28    3.38
 -14  -2   4   58.96    8.77
  14   2  -4   57.76    9.01
  14   2   4   54.81    8.55
  14  -2  -5   57.96   10.59
  14   2  -5   52.73    8.69
  14   2   5   51.71    7.99
 -14  -2   5   49.07    8.12
 -14  -2   6   44.26    7.82
  14   2   6   50.12    7.95
  14  -2  -6   63.94   10.78
  14   2  -6   38.99    7.71
  14   2   7   20.82    5.37
  14  -2  -7   20.93    6.90
  14   2  -7   11.49    4.91
 -14  -2   7    6.93    3.07
  14  -2  -8   29.93    8.06
  14   2   8   18.19    5.06
 -14  -2   8   12.50    4.10
  14   2  -8   16.14    5.84
  14  -2  -9   55.63   10.37
  14   2  -9   61.84   10.63
 -14  -2   9   59.47    9.20
  14   2 -10   32.27    7.64
 -14  -2  10   32.46    7.16
  14  -2 -10   35.52    8.19
  14  -2 -11    7.94    4.39
  14   2 -11    7.25    4.43
  14   2 -12   40.41    9.14
  14  -2 -12   39.53    8.73
  14   2 -13   12.45    5.37
  14  -2 -13    6.80    3.83
  14   2 -14   39.72    9.23
  14  -2 -14   34.66    8.28
  14   2 -15   19.69    6.83
  14  -2 -15   13.53    4.57
  14   2 -16   41.64    9.84
  14  -2 -16   35.03    8.38
  14  -2 -17   13.72    5.72
 -15  -2   0    1.01    2.19
  15   2   0   -1.59    2.21
 -15  -2   1    0.49    1.66
  15   2   1    0.62    1.61
  15   2  -1    1.62    2.08
 -15  -2   2   -0.08    1.94
  15   2   2    5.01    3.26
 -15  -2  -2    6.42    4.35
  15   2  -2   -2.08    3.02
  15   2   3    2.92    2.67
 -15  -2   3   -2.65    3.27
  15   2  -3   -1.91    2.52
  15   2   4    6.97    3.46
 -15  -2   4    0.69    1.49
  15   2  -4    2.23    2.83
 -15  -2   5    9.73    4.12
  15   2   5   12.67    4.46
  15   2  -5    2.73    2.54
  15   2   6    4.91    3.27
 -15  -2   6    1.93    2.10
  15   2  -6   -0.10    3.36
  15  -2  -7   14.24    6.09
  15   2   7   14.53    4.66
 -15  -2   7   12.20    4.37
  15   2  -7    7.79    4.08
  15   2   8    8.25    3.94
  15   2  -8    3.90    3.18
 -15  -2   8    2.85    2.51
  15  -2  -8    6.65    5.06
  15  -2  -9    9.47    5.06
  15   2  -9    0.61    2.26
 -15  -2   9    5.35    3.04
  15  -2 -10    8.65    4.40
 -15  -2  10    6.28    3.12
  15   2 -10    9.92    4.56
  15   2 -11    3.84    3.47
  15  -2 -11    3.20    3.58
 -15  -2  11    3.42    2.66
  15   2 -12    1.78    2.61
 -15  -2  12    3.64    2.96
  15  -2 -12    1.50    2.00
  15  -2 -13   18.66    6.22
  15   2 -13   17.97    6.45
  15   2 -14   10.05    5.53
  15  -2 -14    9.73    4.79
 -16  -2   0    3.15    2.89
  16   2   0    1.27    1.92
  16   2   1    5.50    2.79
 -16  -2   1    3.99    2.68
  16   2  -1    3.36    2.00
 -16  -2   2    2.06    1.48
  16   2  -2   -1.50    3.09
  16   2   2    5.95    3.66
  16   2  -3   54.34    9.46
 -16  -2   3   58.90    8.99
  16   2   3   57.77    9.32
 -16  -2   4   -0.95    2.84
  16   2   4    4.02    3.14
  16   2  -4    1.63    1.92
  16   2   5   10.03    4.13
 -16  -2   5    1.96    2.07
  16   2  -5    3.96    2.58
  16   2   6    4.26    2.77
  16   2  -6   -0.34    2.12
 -16  -2   6    3.61    2.81
  16  -2  -6    8.41    4.90
  16   2  -7   50.68   10.17
  16  -2  -7   46.45   10.07
 -16  -2   7   51.33    8.84
  16  -2  -8    5.71    4.23
  16   2  -8    3.11    2.92
 -16  -2   8    5.04    3.31
  16   2  -9   13.52    5.58
 -16  -2   9   10.39    4.13
  16  -2  -9   15.00    6.03
  16  -2 -10    3.27    2.59
  16   2 -10    2.53    2.80
 -16  -2  10    3.31    2.70
  16   2 -11   16.02    6.17
 -16  -2  11   12.34    4.83
  16  -2 -11   13.47    5.86
 -16  -2  12    9.00    4.06
  16   2 -12   10.57    4.97
 -16  -2  13   61.61   10.77
 -16  -2  14    3.59    3.00
  17   2   0   -6.21    4.06
  17   2  -1   -0.72    2.47
  17   2   1    2.34    2.62
  17   2   2    3.82    2.93
  17   2  -2    0.19    2.22
  17   2  -3   -2.40    3.40
  17   2   3   -3.10    2.84
  17   2   4    3.57    2.82
  17   2  -4   -1.50    3.10
  17  -2  -5   10.38    5.84
  17   2   5    5.02    3.24
  17   2  -5   -5.48    4.74
  17  -2  -6   15.33    6.80
  17   2  -6    4.27    3.35
  17  -2  -7    7.57    4.94
  17   2  -7    3.95    3.32
  17   2  -8   12.52    5.73
  17  -2  -8    7.58    4.40
  17   2  -9   12.90    5.97
  18   2   0   37.79    8.21
  18   2  -1   42.73    9.02
  18   2   1   41.28    8.65
  18   2  -2    8.85    4.38
  18   2   2   14.68    5.48
  18   2   3    6.81    3.66
  18   2  -3   -0.80    2.93
  18   2  -4   19.47    5.84
  18   2  -5   25.91    7.35
  18   2  -6   24.70    7.54
  19   2   0    1.51    2.06
  19   2  -1    1.33    1.95
  19   2   1    7.23    3.87
  19   2  -2   -2.32    3.01
  19   2   2    1.66    2.05
   0  -3   0    3.93    1.75
   0  -3   0   -3.42    2.55
   0   3   0    1.11    1.15
   0  -3   0    3.09    1.40
   0  -3   1  776.33   15.69
   0  -3  -1  797.76   18.65
   0  -3   1  800.22   18.26
   0   3   1  788.20   18.50
   0  -3   1  790.08   18.27
   0  -3   2    0.94    1.06
   0   3   2    0.28    0.92
   0  -3   2   -1.89    2.12
   0  -3   2    1.61    1.16
   0  -3   3  406.63    9.32
   0   3   3  410.21   14.10
   0  -3   3  412.45   14.43
   0  -3   4    1.05    0.53
   0  -3   4    0.55    0.79
   0   3   4   -0.22    0.99
   0   3  -5  271.56   12.92
   0   3   5  279.92   12.29
   0   3  -6    0.75    2.07
   0   3  -7   12.38    3.50
   0  -3  -7   14.56    2.03
   0  -3  -8    2.50    3.45
   0   3  -8    5.59    4.15
   0  -3  -8   -0.06    0.82
   0   3  -9 1434.20   34.43
   0  -3  -9 1430.46   34.31
   0  -3  -9 1396.93   20.58
   0   3 -10    4.72    4.72
   0  -3 -10    7.61    4.24
   0  -3 -10    0.85    1.00
   0  -3 -11   81.85    8.73
   0  -3 -11   76.55    5.36
   0   3 -11   77.16    8.82
   0  -3 -12    0.94    2.04
   0   3 -12    2.43    2.46
   0  -3 -12   -0.51    1.18
   0  -3 -13   87.48    6.41
   0   3 -13   84.81    9.70
   0  -3 -13   84.85    9.43
   0   3 -14    3.20    3.54
   0  -3 -14   -0.42    0.93
   0  -3 -14   -0.20    1.96
   0  -3 -15   55.57    5.62
   0  -3 -15   55.36    8.14
   0   3 -15   59.69    8.52
   0  -3 -16   -0.39    0.94
   0  -3 -16   -1.88    2.72
   0   3 -16    1.28    3.14
   0  -3 -17   28.72    4.45
   0   3 -17   29.36    6.79
   0  -3 -17   27.82    6.31
   0  -3 -18   -0.48    1.07
   0  -3 -18    0.90    1.93
   0   3 -18    2.72    3.52
   0  -3 -19   90.84   11.45
   0  -3 -19   94.08    8.68
   0   3 -19   93.50   11.80
   0  -3 -20    2.39    2.78
   0   3 -20    2.88    3.91
   0  -3 -21   48.68    8.87
   0   3 -21   53.29    9.79
   0  -3 -22   -0.41    1.81
   0   3 -22    6.76    4.39
   0   3 -23    1.39    2.35
   0  -3 -23    1.46    2.12
   0  -3 -24   -0.57    1.90
   0  -3 -25    1.00    1.65
   0  -3 -26   -3.37    2.92
   0  -3 -27    7.85    4.21
   0  -3 -28   -1.36    2.16
  -1  -3   0  926.38   21.03
   1  -3   0  951.53   18.73
   1  -3   0  935.00   18.87
  -1  -3   0  943.08   18.05
   1   3   0  970.56   21.54
  -1   3   0  938.14   18.67
  -1  -3   1  482.62   13.76
   1  -3   1  475.35   12.54
  -1  -3  -1  475.78   11.88
   1  -3  -1  457.71   14.17
   1  -3  -1  476.59   13.32
  -1  -3  -1  482.18   15.40
  -1  -3   1  469.66   15.08
   1   3   1  482.66   15.26
  -1   3   1  473.48   13.33
   1  -3   1  472.65   13.03
   1   3   2  125.91    7.94
   1  -3  -2  119.72    7.80
  -1   3   2  121.30    6.90
  -1  -3  -2  127.12    8.13
   1  -3   2  124.74    5.99
   1  -3   2  121.69    7.72
   1  -3  -2  128.93    7.41
  -1  -3  -2  118.12    5.50
  -1  -3   2  127.28    7.48
  -1  -3   2  123.91    7.57
   1  -3   2  118.97    6.64
   1   3  -2  124.29    7.52
   1  -3  -3  115.77    7.93
  -1   3   3  120.18    7.24
   1   3   3  118.89    7.92
   1   3  -3  115.51    7.67
  -1  -3  -3  131.05    8.68
  -1  -3  -3  110.97    4.89
  -1  -3   3  119.86    7.75
   1  -3   3  121.90    8.10
  -1   3   4  481.13   14.82
   1  -3  -4  476.17   16.53
   1   3   4  485.23   16.37
  -1  -3   4  478.95   16.25
  -1  -3  -4  458.88    8.95
   1   3  -4  468.02   16.16
   1  -3  -5  143.39    9.52
  -1   3   5  149.57    8.70
   1   3  -5  146.87    9.31
   1  -3  -6   42.88    5.51
  -1  -3  -6   41.85    2.32
   1   3  -6   47.31    5.69
  -1  -3  -7  285.94    6.19
   1  -3  -7  303.39   14.84
   1   3  -7  302.64   14.64
  -1  -3  -8   91.10    3.80
   1  -3  -8  100.86    9.02
   1  -3  -8   99.23    6.14
   1   3  -8  105.95    9.18
  -1  -3  -9  159.36    5.57
   1   3  -9  169.95   12.12
   1  -3  -9  161.30   11.72
   1  -3  -9  163.20    8.01
   1  -3 -10  686.41   24.44
   1   3 -10  651.53   24.25
   1  -3 -10  656.76   17.00
  -1  -3 -10  659.41   12.42
   1  -3 -11  130.37   11.29
   1  -3 -11  128.02    7.95
  -1  -3 -11  133.45    6.10
   1   3 -11  138.41   11.87
  -1  -3 -12  190.23    7.96
   1  -3 -12  200.28   14.24
   1   3 -12  200.21   14.22
   1  -3 -12  196.83   10.17
  -1   3 -12  198.54   14.43
   1   3 -13  469.97   22.48
   1  -3 -13  454.70   21.96
   1  -3 -13  455.33   16.15
  -1  -3 -13  464.67   13.24
  -1   3 -13  494.17   22.87
  -1  -3 -14  296.03   11.40
  -1   3 -14  320.84   19.03
   1  -3 -14  304.58   13.56
   1  -3 -14  304.50   18.43
   1   3 -14  309.28   18.92
   1  -3 -15   50.53    8.15
   1  -3 -15   47.37    5.57
  -1  -3 -15   47.84    4.89
  -1  -3 -15   46.70    7.57
  -1   3 -15   61.53    9.41
   1   3 -15   53.91    8.76
  -1   3 -16  416.16   22.97
   1  -3 -16  415.12   22.43
   1  -3 -16  422.08   17.27
   1   3 -16  420.49   23.15
  -1  -3 -16  409.29   14.81
  -1  -3 -16  402.76   22.42
  -1   3 -17  114.52   12.65
   1  -3 -17  105.24   11.86
  -1  -3 -17  105.76   11.98
   1  -3 -17  109.98    9.25
   1   3 -17  105.82   12.25
  -1  -3 -17  105.77    7.96
   1   3 -18   41.89    8.17
  -1  -3 -18   33.33    6.97
   1  -3 -18   32.61    6.90
   1  -3 -18   40.68    5.78
  -1  -3 -18   36.56    5.02
  -1  -3 -19   86.56   11.43
   1  -3 -19   89.91   11.56
   1   3 -19   95.52   12.05
   1  -3 -19   93.51    9.03
   1  -3 -20  103.09    9.81
  -1  -3 -20   91.99   11.71
   1  -3 -20   96.23   12.22
   1   3 -20   94.07   12.42
  -1  -3 -21   15.33    5.26
   1   3 -21   17.35    6.02
   1  -3 -21   21.89    6.15
   1   3 -22   92.13   12.85
  -1  -3 -22   91.44   12.33
   1  -3 -22   89.34   12.21
   1   3 -23   41.81    9.10
  -1  -3 -23   40.87    8.55
   1  -3 -23   39.37    8.45
   1   3 -24   17.50    6.30
  -1  -3 -24   16.11    5.60
   1  -3 -24   17.43    5.87
   1   3 -25   25.67    7.62
  -1  -3 -25   19.17    5.93
   1  -3 -25   25.87    7.14
   1  -3 -26   48.11    9.73
   1   3 -26   50.10   10.55
  -1  -3 -26   45.94    9.47
  -1  -3 -27    6.76    3.95
   1  -3 -27    2.38    2.09
   1   3 -27    2.96    3.46
  -1  -3 -28    8.44    4.40
   1  -3 -28    5.10    3.71
  -2  -3   0   92.32    5.61
  -2  -3   0   94.32    7.25
  -2   3   0   91.47    6.18
   2   3   0   89.84    6.99
  -2   3   0   84.46    5.14
   2  -3   0   88.30    5.32
   2   3   0   88.26    5.57
   2  -3   1  800.90   15.66
  -2   3  -1  805.10   17.48
  -2  -3  -1  824.36   21.18
  -2  -3   1  829.15   17.97
  -2  -3  -1  799.34   15.07
   2  -3  -1  801.37   19.41
   2   3   1  848.17   21.20
  -2   3   1  826.48   19.40
   2  -3  -1  771.21   15.63
   2   3   1  808.18   15.11
  -2  -3   1  809.50   20.80
  -2   3   1  809.08   16.19
   2   3  -1  811.70   17.78
  -2  -3   2   33.51    3.98
  -2   3   2   31.30    4.00
  -2   3  -2   31.12    3.32
   2  -3  -2   31.94    4.12
  -2  -3  -2   32.74    4.61
  -2   3   2   28.98    3.19
  -2  -3   2   29.07    3.88
  -2  -3  -2   30.56    2.68
   2  -3   2   31.34    3.11
   2   3   2   29.07    4.03
   2   3  -2   36.15    4.10
  -2  -3  -3   11.41    1.42
  -2   3  -3   11.91    1.95
  -2  -3   3   11.27    2.41
   2   3  -3   13.45    2.73
  -2   3   3   13.23    2.42
   2  -3  -3   12.32    2.89
  -2  -3  -3   20.21    4.38
  -2   3   3   10.80    2.41
  -2  -3  -4   11.83    1.18
  -2   3  -4   13.03    1.91
  -2  -3   4   12.14    2.68
  -2   3   4   15.86    2.89
   2  -3  -4   13.25    3.23
   2   3  -4   13.49    3.08
   2  -3  -5  115.84    8.61
  -2   3  -5  115.37    5.14
   2   3  -5  117.28    8.58
   2   3  -6    1.75    1.86
   2  -3  -6    0.59    1.84
  -2   3  -6    1.91    0.85
   2   3  -7   24.36    4.46
   2  -3  -7   23.51    4.24
   2   3  -8    3.27    2.00
   2  -3  -8    9.83    3.02
   2  -3  -8    5.41    2.38
  -2  -3   9   31.38    2.00
   2   3  -9   33.41    5.61
   2  -3  -9   35.91    5.59
   2  -3  -9   34.49    4.29
   2   3 -10   31.03    5.51
   2  -3 -10   29.09    3.88
   2  -3 -10   31.39    5.47
   2   3 -11   30.53    5.89
   2  -3 -11   31.48    5.35
   2  -3 -11   26.24    3.65
   2  -3 -12   24.67    4.00
   2  -3 -12   22.37    4.98
   2   3 -12   23.41    5.23
  -2  -3 -12   21.46    2.27
   2   3 -13    2.83    3.03
  -2   3 -13    1.00    0.49
   2  -3 -13    2.95    2.08
   2  -3 -13    1.86    1.74
  -2  -3 -13    1.62    1.00
   2   3 -14    8.30    3.65
  -2   3 -14    6.41    1.25
   2  -3 -14    8.16    3.32
   2  -3 -14    9.37    2.63
  -2  -3 -14    8.08    1.74
   2   3 -15    2.78    2.74
  -2   3 -15    6.61    1.40
   2  -3 -15    5.71    2.01
   2  -3 -15    4.63    2.59
  -2  -3 -15    6.04    1.80
   2   3 -16    3.43    2.02
   2  -3 -16    5.26    2.33
  -2   3 -16    3.70    1.09
   2  -3 -16    0.78    1.92
   2  -3 -17   -0.48    2.02
   2   3 -17    0.26    2.19
   2  -3 -17   -0.64    2.54
   2  -3 -18    2.91    1.21
  -2  -3 -18   -0.38    2.36
   2  -3 -18    0.27    1.63
   2   3 -18    2.42    2.18
   2   3 -19   -0.30    2.84
  -2  -3 -19   -1.72    2.74
   2  -3 -19    1.46    1.88
   2  -3 -19   -0.69    2.12
   2   3 -20    6.26    3.43
   2  -3 -20    4.12    2.10
  -2  -3 -20    1.96    1.93
   2  -3 -20    0.72    1.78
   2   3 -21    9.85    4.12
   2  -3 -21    8.51    3.07
  -2  -3 -21    7.71    3.22
   2  -3 -21    9.31    3.87
  -2  -3 -22   -1.17    2.16
   2  -3 -22    0.65    1.82
   2   3 -22   -0.68    2.00
   2   3 -23   -1.87    3.02
  -2  -3 -23    0.91    2.02
   2  -3 -23   -1.46    2.92
   2   3 -24   -1.25    2.27
  -2  -3 -24   -0.03    1.60
   2  -3 -24   -0.56    1.92
   2   3 -25   12.68    5.69
  -2  -3 -25   14.08    5.09
   2  -3 -25    9.73    4.41
   2   3 -26   -0.13    2.37
  -2  -3 -26    1.56    2.65
   2   3 -27    0.94    3.05
  -2  -3 -27   -0.96    1.63
  -2  -3 -28    2.06    2.57
  -3   3   0  338.80   12.66
   3   3   0  322.44   10.86
  -3  -3   0  326.25   10.81
   3  -3   0  332.75    8.95
  -3  -3   0  322.93   13.89
  -3  -3  -1  436.79   11.49
  -3  -3  -1  439.68   16.18
   3  -3   1  452.80   10.61
   3   3  -1  449.44   13.68
  -3   3   1  447.49   15.16
  -3   3  -1  445.81   14.05
   3   3   1  460.32   11.79
  -3  -3   1  456.60   13.76
  -3  -3   1  473.48   16.69
  -3   3   1  442.95   11.03
   3   3  -2  322.87   12.31
  -3  -3  -2  305.01   13.48
  -3  -3   2  329.66   12.36
  -3   3  -2  309.75   11.28
  -3  -3  -2  302.08    8.62
  -3   3   2  322.37   13.29
  -3   3   2  309.78    9.84
  -3  -3   2  315.43   13.75
   3  -3   2  319.01    9.03
   3   3   2  322.86    8.79
  -3   3   3 1678.86   24.08
   3   3   3 1730.78   17.65
  -3  -3  -3 1701.96   32.43
  -3  -3   3 1720.17   30.02
   3   3  -3 1696.02   29.84
  -3  -3  -3 1686.51   17.43
   3   3  -4  914.04   23.22
  -3  -3  -4  877.06   24.02
  -3   3   4  859.93   18.04
   3  -3  -5   65.07    6.98
   3   3  -5   72.50    7.16
   3  -3  -6  510.87   19.46
   3   3  -6  506.81   19.05
   3   3  -7  441.96   18.30
   3  -3  -7  429.40   18.44
   3   3  -8   25.08    5.73
   3  -3  -8   19.97    4.94
   3  -3  -8   25.62    4.97
   3   3  -9  637.57   23.64
   3  -3  -9  620.28   23.33
   3  -3  -9  614.56   19.10
   3   3 -10  136.30   11.65
  -3  -3  10  129.31    5.70
   3  -3 -10  138.64   11.54
   3  -3 -10  133.52    9.00
   3   3 -11   45.31    7.21
   3  -3 -11   43.04    6.76
   3  -3 -11   39.58    4.96
  -3  -3  11   39.28    3.21
   3   3 -12  408.17   20.98
  -3  -3  12  403.65   10.46
   3  -3 -12  410.16   20.55
   3  -3 -12  409.11   16.99
   3  -3 -13  253.68   13.81
   3  -3 -13  251.76   16.63
   3   3 -13  267.76   17.49
   3   3 -14   12.68    4.46
   3  -3 -14   14.19    3.67
   3  -3 -14   13.67    4.38
   3   3 -15   69.51    9.77
   3  -3 -15   71.58    9.23
   3  -3 -15   66.00    7.56
   3   3 -16   35.59    7.01
   3  -3 -16   38.97    5.93
   3  -3 -16   34.02    6.62
   3  -3 -17   42.01    7.62
   3   3 -17   45.97    8.34
   3  -3 -17   41.75    6.30
   3   3 -18   59.65    9.59
   3  -3 -18   55.61    7.49
   3  -3 -18   54.14    8.73
   3   3 -19   41.07    8.29
   3  -3 -19   39.92    6.44
   3  -3 -19   41.10    7.73
   3  -3 -20    5.41    2.68
   3   3 -20    4.32    3.30
   3  -3 -20    4.52    3.11
   3   3 -21    1.72    2.98
   3  -3 -21   -0.03    1.50
   3  -3 -21    2.72    3.08
  -3  -3 -21    0.92    1.51
   3   3 -22   10.45    4.68
   3  -3 -22   11.04    3.71
  -3  -3 -22    4.99    3.10
  -3  -3 -23   58.37   10.35
   3   3 -23   61.56   11.11
   3   3 -24    1.92    2.33
  -3  -3 -24    2.80    2.98
   3   3 -25   29.00    8.02
  -3  -3 -25   31.36    7.86
  -3  -3 -26   20.58    6.48
   3   3 -26   26.06    7.66
  -3  -3 -27   38.89    9.08
  -4   3   0  215.27   10.74
  -4  -3   0  204.73    9.02
  -4  -3   0  206.16   11.75
   4   3   0  203.25    9.10
  -4  -3  -1   67.65    6.43
   4   3   1   66.97    4.94
   4   3  -1   68.80    5.75
   4  -3   1   74.98    3.66
  -4  -3   1   69.94    5.66
  -4  -3   1   73.70    7.08
  -4  -3  -1   68.80    4.89
  -4   3   1   71.49    3.95
   4  -3   2   32.29    2.43
  -4  -3  -2   30.85    4.51
   4   3  -2   33.20    4.17
   4   3   2   32.75    3.18
  -4  -3   2   35.41    4.20
  -4   3   2   32.65    2.97
  -4  -3  -2   31.89    3.07
  -4  -3   2   31.92    4.68
   4   3  -3   33.24    4.35
  -4  -3  -3   40.29    6.01
   4   3   3   34.67    2.85
  -4  -3   3   35.30    4.57
  -4  -3   3   35.61    4.62
   4  -3   3   33.78    2.69
  -4   3   3   38.17    3.60
   4   3   4    9.51    1.30
   4   3  -4   11.35    2.92
   4   3  -5   33.03    5.05
   4   3  -6  211.94   12.62
   4   3  -7   26.14    4.81
   4   3  -8    3.18    2.09
   4   3  -9   24.29    4.85
   4  -3  -9   37.47    5.55
   4   3 -10    9.11    2.79
   4  -3 -10   14.71    3.67
   4   3 -11    5.28    3.38
  -4  -3  11    6.08    1.57
   4  -3 -11    5.05    2.20
   4   3 -12   22.56    5.10
   4  -3 -12   22.60    3.99
  -4  -3  12   22.95    3.04
   4   3 -13   15.03    4.22
  -4  -3  13   14.98    2.45
   4   3  13   15.18    1.57
   4  -3 -13   10.08    2.39
   4   3 -14    0.32    2.93
  -4  -3  14    0.80    0.77
   4  -3 -14    2.90    2.32
   4   3 -15   32.82    6.56
   4  -3 -15   31.47    5.81
   4   3 -16    7.88    3.84
   4  -3 -16    9.77    3.45
   4  -3 -17   22.07    5.13
   4   3 -17   21.39    5.60
   4   3 -18    5.46    3.59
   4  -3 -18    4.63    2.20
   4   3 -19    0.34    2.97
   4  -3 -19    3.19    1.99
   4   3 -20    1.31    2.59
   4  -3 -20   -2.36    2.88
   4   3 -21    1.79    2.47
   4  -3 -21   -0.25    2.10
   4   3 -22    1.26    2.71
   4  -3 -22    3.60    2.58
  -4  -3 -23    1.25    1.82
   4   3 -23    3.31    2.97
   4   3 -24    2.53    2.51
  -4  -3 -24    2.25    2.87
  -4  -3 -25   -1.52    2.29
   4   3 -25    0.72    3.05
   4   3 -26    3.56    3.71
  -4  -3 -26    1.70    2.81
  -4  -3 -27   -3.42    3.29
  -5  -3   0  557.10   19.69
   5   3   0  531.37   15.80
  -5  -3   0  538.02   15.55
  -5  -3  -1  696.12   22.23
   5   3   1  668.30   16.80
   5   3  -1  678.30   18.77
  -5  -3   1  690.45   22.32
  -5  -3   1  687.72   18.49
  -5  -3  -1  689.95   16.46
  -5   3   1  663.06   10.12
  -5  -3  -2  205.71   12.18
  -5   3   2  205.26    6.60
   5   3   2  204.04    8.78
  -5  -3   2  216.46   10.96
   5   3  -2  205.38   10.91
  -5  -3   2  204.23   12.17
  -5   3   3   90.66    4.98
   5   3   3   84.99    5.15
   5   3  -3   82.75    7.23
  -5  -3   3   87.61    7.73
   5  -3   3   82.26    3.43
  -5  -3  -3   90.02    8.53
   5   3   4  121.07    5.62
  -5  -3  -4  133.27   10.48
   5   3  -4  125.39    9.21
   5   3  -5  264.16   13.92
   5   3   5  249.10    7.10
  -5  -3  -5  259.74   14.77
   5   3  -6  306.44   15.74
   5   3   6  292.06    6.46
   5   3  -7   73.76    7.96
   5   3  -8   12.77    4.11
   5   3  -9   25.86    5.56
   5  -3  -9   33.82    5.90
   5   3 -10  130.68   11.96
   5  -3 -10  129.23   10.43
   5  -3 -11   64.07    7.56
   5   3 -11   64.81    8.75
  -5  -3  12   31.25    3.99
   5   3 -12   33.19    6.61
   5  -3 -12   28.24    4.88
   5   3 -13   10.42    4.09
   5   3  13    6.86    1.03
  -5  -3  13   11.69    2.47
   5  -3 -13    6.85    2.60
   5   3 -14   58.02    8.89
  -5  -3  14   53.21    5.30
   5  -3 -14   53.03    6.91
   5  -3 -15  295.52   17.58
   5   3 -15  290.38   20.19
   5  -3 -16   90.81   10.19
   5   3 -16   88.00   11.52
   5   3 -17   13.04    4.77
   5  -3 -17   14.38    4.58
   5   3 -18   16.42    5.48
   5  -3 -18   16.29    4.72
   5   3 -19   77.80   11.69
   5  -3 -19   76.02    9.83
   5   3 -20   46.28    9.34
   5  -3 -20   44.96    7.76
   5   3 -21   80.49   12.59
   5  -3 -21   79.44   10.40
   5   3 -22   89.74   13.37
   5  -3 -22   78.76   10.56
   5  -3 -23    4.21    3.14
   5   3 -23    4.00    4.04
   5   3 -24    5.26    4.12
  -5  -3 -25   71.01   12.03
   5   3 -25   69.09   12.54
  -5  -3 -26   13.78    5.54
  -5  -3 -27   53.04   10.76
   6   3   0   28.96    4.09
  -6  -3   0   29.78    5.11
  -6  -3   0   32.11    4.19
   6   3  -1   42.01    5.09
   6   3   1   38.06    4.39
  -6  -3  -1   34.98    4.70
  -6  -3   1   41.21    5.82
  -6   3   2   43.82    2.69
  -6  -3  -2   45.36    6.00
   6   3  -2   47.09    5.54
   6   3   2   43.65    4.56
  -6  -3   2   42.43    5.82
   6   3  -3  357.90   15.93
   6   3   3  363.51   11.92
  -6  -3  -3  371.80   17.03
  -6  -3   3  369.21   17.21
   6   3  -4  165.23   11.09
  -6  -3  -4  187.60   12.70
   6   3   4  158.49    7.37
   6   3  -5  225.81   13.34
   6   3   5  224.14    8.16
  -6  -3  -5  238.33   14.54
   6   3  -6  172.15   12.36
   6   3   6  176.31    6.70
   6   3  -7  176.50   12.66
   6   3   7  170.74    6.05
   6   3  -8   36.36    6.10
   6   3   8   35.25    2.51
   6   3  -9   28.35    5.49
   6   3   9   31.72    2.20
   6  -3  -9   41.64    7.05
   6   3   9   31.70    2.24
   6  -3 -10   18.51    5.25
   6   3 -10   12.75    4.21
   6   3  10   10.98    1.26
   6   3  10   11.55    1.28
   6   3 -11   95.71   10.71
   6  -3 -11   88.70    9.41
   6   3  11   78.87    3.26
   6   3  11   75.73    3.24
   6   3 -12   43.56    7.76
   6   3  12   37.45    2.40
   6  -3 -12   38.94    6.25
   6   3 -13   27.44    6.16
   6  -3 -13   31.02    5.62
   6   3 -14  107.65   12.23
   6  -3 -14  110.81   10.86
   6   3 -15   14.50    4.91
   6  -3 -15   18.78    4.87
   6  -3 -16   35.68    6.69
   6   3 -16   35.61    7.33
   6   3 -17   78.78   11.40
   6  -3 -17   85.74   10.44
   6   3 -18   33.47    7.84
   6  -3 -18   38.39    7.31
   6   3 -19   68.87   11.14
   6  -3 -19   67.53    9.72
   6   3 -20   21.62    6.60
   6  -3 -20   21.00    5.55
   6   3 -21    5.21    3.77
   6  -3 -21    5.08    2.53
   6   3 -22    1.15    3.17
   6  -3 -22   -0.43    2.24
   6   3 -23    5.47    3.73
   6  -3 -23    1.76    1.58
   6   3 -24    6.08    4.17
   6  -3 -24    5.67    3.18
   6   3 -25   31.80    8.76
  -6  -3 -26   16.13    5.88
  -7  -3   0    0.25    2.26
   7   3   0    0.59    1.59
   7   3  -1   12.78    3.20
   7   3   1   13.78    3.14
  -7  -3  -1   -1.67    3.65
  -7  -3   1   11.81    3.41
  -7   3   2  474.49    7.39
  -7  -3  -2  545.15   21.37
   7   3   2  533.06   16.77
   7   3  -2  534.72   19.57
  -7  -3   2  535.90   21.26
   7   3  -3   12.91    3.69
  -7  -3   3   13.47    3.57
   7   3   3   14.22    2.84
  -7  -3  -3   12.84    3.42
  -7  -3   4   -0.78    2.28
   7   3  -4    0.50    1.45
   7   3   4    0.85    1.29
   7   3  -5   29.85    5.60
   7   3   5   28.85    3.35
   7   3  -6  324.07   17.58
   7   3   6  329.80   10.86
   7   3  -7   12.31    4.29
   7   3   7   10.31    1.82
   7   3  -8  556.02   23.93
   7   3   8  530.29   12.33
   7   3  -9   15.68    4.53
   7   3   9   14.24    2.01
   7   3 -10   22.14    5.43
   7   3  10   24.89    2.54
   7  -3 -10   29.89    6.47
   7   3  10   23.12    2.44
   7   3 -11   52.98    8.29
   7  -3 -11   48.06    7.55
   7   3 -12  607.16   28.48
   7  -3 -12  606.22   25.43
   7   3 -13    6.65    4.39
   7  -3 -13   -0.87    2.77
   7  -3 -14  596.86   27.03
   7   3 -14  614.06   29.75
   7   3 -15   16.88    5.82
   7  -3 -15   11.86    3.71
   7   3 -16    6.01    3.68
   7  -3 -16   11.99    4.83
   7   3 -17   18.73    6.36
   7  -3 -17   18.64    5.58
   7   3 -18  306.96   23.40
   7  -3 -18  302.04   20.60
   7   3 -19   14.89    6.32
   7  -3 -19   10.99    4.42
   7  -3 -20  140.10   14.64
   7   3 -20  133.98   16.17
   7   3 -21    2.29    3.50
   7  -3 -21    1.36    2.19
   7   3 -22    0.35    2.46
   7  -3 -22    1.36    2.20
   7   3 -23    5.79    3.88
   7  -3 -23    4.10    2.83
   7   3 -24   92.70   14.81
   7  -3 -24   87.03   12.39
  -8  -3   0   -3.31    3.68
   8   3   0    6.13    2.59
  -8  -3   1   10.66    4.02
   8   3  -1   11.69    3.25
   8   3   1   13.22    3.23
  -8  -3  -1    3.54    2.05
  -8  -3  -2   27.79    4.99
  -8  -3   2   24.90    4.98
   8   3  -2   23.76    4.68
   8   3   2   21.50    3.49
   8   3  -3   21.57    4.47
  -8  -3   3   19.53    4.29
   8   3   3   16.08    2.85
  -8  -3  -3   28.47    5.91
   8   3  -4    2.87    2.45
  -8  -3   4   -2.57    3.11
   8   3   4   -1.55    1.61
   8   3  -5    5.30    2.90
  -8  -3   5    2.75    2.50
   8   3   5    5.32    1.66
   8  -3   6   15.48    1.65
   8   3  -6   18.08    4.82
   8   3   6   16.44    2.70
   8   3  -7   42.65    6.82
   8   3   7   42.09    4.24
   8   3  -8   32.20    6.04
   8   3   8   33.83    3.71
   8   3   9   31.54    3.56
   8   3  -9   25.35    6.02
   8  -3  -9   43.37    7.63
   8   3 -10   30.24    6.46
   8   3  10   31.62    3.45
   8  -3 -10   33.65    6.83
   8   3 -11   23.45    5.94
   8  -3 -11   23.88    6.08
   8   3 -12    0.76    2.32
   8  -3 -12    2.47    2.98
   8   3 -13   27.44    6.36
   8  -3 -13   21.93    5.48
   8   3 -14   29.36    7.04
   8  -3 -14   30.13    6.36
   8   3 -15   37.00    7.98
   8  -3 -15   34.01    6.85
   8   3 -16   70.84   11.23
   8  -3 -16   57.80    8.92
   8  -3 -17   88.07   11.54
   8   3 -17   91.48   12.84
   8   3 -18   11.62    4.93
   8  -3 -18   13.00    4.75
   8   3 -19    7.37    4.32
   8  -3 -19    6.10    3.85
   8   3 -20    1.50    2.65
   8  -3 -20    2.45    2.95
   8   3 -21    2.44    3.01
   8  -3 -21    2.05    2.27
   8   3 -22    0.51    2.55
   8  -3 -22    1.60    2.03
   8   3 -23    1.46    2.40
   8  -3 -23    0.53    1.98
   8  -3 -24   -0.38    2.33
   8  -3 -25    3.45    3.16
  -9  -3   0   -5.45    4.24
   9   3   0    7.81    3.91
  -9  -3   1 1269.19   35.27
  -9  -3  -1 1264.16   35.46
   9   3  -1 1251.81   32.81
   9   3   1 1241.57   30.80
  -9  -3   2   20.85    5.02
  -9  -3  -2   17.46    4.39
   9   3  -2   22.20    5.32
   9   3   2   14.75    3.49
  -9  -3  -3    0.88    1.99
   9   3  -3    4.90    3.05
   9   3   3   -0.21    1.27
  -9  -3   3   -2.91    2.86
  -9  -3  -4  353.24   18.81
   9   3  -4  333.93   18.53
   9   3   4  333.14   14.54
  -9  -3   4  344.83   18.67
  -9  -3  -5  851.25   28.94
   9   3   5  860.44   22.66
   9   3  -5  895.06   30.42
  -9  -3   5  884.78   30.91
   9   3  -6   38.01    7.22
   9   3   6   24.57    3.81
   9  -3   7  634.69   11.67
   9   3  -7  648.98   27.69
   9   3   7  670.30   18.70
   9   3   8   68.47    5.87
   9   3  -8   68.52    9.35
   9   3  -9    1.76    2.12
   9   3   9    3.77    1.89
   9   3 -10  373.74   22.41
   9   3  10  371.91   12.78
   9  -3 -10  372.30   21.73
   9   3 -11  329.56   21.63
   9  -3 -11  313.61   20.27
   9   3  11  320.71   11.67
   9   3 -12  214.08   17.58
   9  -3 -12  214.82   16.72
   9   3 -13   53.71    9.37
   9  -3 -13   50.09    8.55
   9   3 -14   51.74    9.28
   9  -3 -14   46.69    8.09
   9   3 -15   40.80    8.22
   9  -3 -15   41.29    7.82
   9   3 -16  264.92   21.95
   9  -3 -16  259.84   19.73
   9   3 -17   41.43    8.81
   9  -3 -17   44.38    8.73
   9  -3 -18   56.73   10.02
   9   3 -18   53.31   10.27
   9   3 -19   14.44    5.85
   9  -3 -19   14.03    5.13
   9   3 -20    1.55    2.95
   9  -3 -20    0.24    1.90
   9   3 -21   75.86   12.97
   9  -3 -21   82.93   12.30
   9  -3 -22   55.52   10.26
   9   3 -22   62.04   12.05
   9  -3 -23    5.33    3.51
   9  -3 -24   14.89    5.88
   9  -3 -25   52.81   10.45
 -10  -3   0   -0.84    3.16
  10   3   0    2.72    1.68
 -10  -3  -1   10.71    3.66
 -10  -3   1    9.80    2.91
  10   3  -1   13.32    4.29
  10   3   1    8.86    2.83
 -10  -3   2    7.85    3.57
 -10  -3  -2    5.99    3.38
  10   3  -2    7.07    3.67
  10   3   2    1.59    1.44
 -10  -3   3    0.53    2.21
  10   3  -3    3.57    2.70
  10   3   3   -0.08    1.39
  10   3  -4   12.54    4.57
 -10  -3   4    8.43    2.81
  10   3   4    7.06    2.34
  10   3  -5    2.88    3.02
  10   3   5    0.73    1.06
 -10  -3   6    7.23    3.13
  10   3  -6    7.26    3.26
  10   3   6    7.38    2.31
  10   3   7   18.86    3.56
  10   3  -7   17.97    5.05
  10   3  -8   -0.15    2.17
  10   3   8    1.11    1.47
  10  -3  -9   12.80    6.06
  10   3   9    6.35    2.35
  10   3  -9    5.16    2.92
  10  -3 -10   20.56    6.52
  10   3 -10   10.78    4.23
  10   3  10   16.77    3.38
  10   3 -11    2.10    2.22
  10  -3 -11    5.77    4.12
  10  -3 -12    5.37    3.64
  10   3 -12    1.04    2.14
  10   3 -13    8.80    3.85
  10  -3 -13    9.67    3.77
  10   3 -14    0.78    2.52
  10  -3 -14   -0.47    2.47
  10   3 -15   -0.22    2.66
  10  -3 -15   -2.74    3.49
  10   3 -16    3.25    2.20
  10  -3 -16    3.98    2.06
  10   3 -17   -1.66    2.99
  10  -3 -17   -1.43    2.54
  10   3 -18    1.24    2.87
  10  -3 -18    2.04    3.02
  10   3 -19   -0.54    2.72
  10  -3 -19   -0.75    2.34
  10   3 -20   -0.30    2.63
  10  -3 -20   -0.41    2.19
  10   3 -21   -0.69    2.45
  10  -3 -21    3.71    3.46
  10  -3 -22    1.99    2.35
  10  -3 -23    1.78    2.49
  10  -3 -24    2.82    2.96
  11   3   0   54.66    7.58
 -11  -3   0   36.15    5.79
 -11  -3  -1  708.10   28.20
  11   3  -1  713.68   27.36
  11   3   1  714.53   26.38
 -11  -3   1  672.66   27.99
 -11  -3   2  197.89   15.28
 -11  -3  -2  165.75   13.67
  11   3  -2  194.48   15.03
  11   3   2  179.24   12.86
 -11  -3   3  829.51   31.06
 -11  -3  -3  788.58   29.73
  11   3  -3  823.01   30.79
  11   3   3  826.66   27.00
 -11  -3  -4  154.78   13.53
  11   3  -4  148.14   13.80
  11   3   4  150.63   11.28
 -11  -3   4  142.80   13.24
  11   3  -5  245.94   17.43
 -11  -3  -5  233.60   16.74
  11   3   5  235.94   13.73
 -11  -3   5  233.16   17.02
  11   3   6   34.85    5.22
  11   3  -6   32.82    7.10
 -11  -3   6   30.14    6.11
 -11  -3   7   34.03    6.71
  11   3  -7   37.42    7.52
  11   3   7   37.35    5.35
  11  -3  -8  146.99   14.91
  11   3  -8  140.14   14.13
  11   3   8  151.09   10.38
  11   3  -9  353.45   22.95
  11   3   9  345.78   15.36
  11  -3  -9  342.12   22.31
  11  -3 -10   37.12    8.37
  11   3 -10   28.65    6.84
  11   3 -11   87.29   11.92
  11  -3 -11   94.76   12.18
  11   3 -12   60.46   10.21
  11  -3 -12   57.84    9.74
  11  -3 -13   47.68    8.79
  11   3 -13   49.64    9.25
  11   3 -14   53.75    9.91
  11  -3 -14   52.33    8.96
  11   3 -15   12.66    4.80
  11  -3 -15   10.53    3.95
  11   3 -16   -1.31    2.13
  11  -3 -16   -4.79    4.46
  11   3 -17   25.02    7.09
  11  -3 -17   31.92    7.29
  11   3 -18   67.46   12.00
  11  -3 -18   74.73   12.04
  11   3 -19   21.03    7.21
  11  -3 -19   16.62    6.27
  11   3 -20   20.86    7.36
  11  -3 -20   17.13    6.44
  11  -3 -21    7.70    4.14
  11  -3 -22    5.91    3.36
  12   3   0    7.41    2.45
 -12  -3   0    2.10    3.35
 -12  -3  -1   17.43    4.61
 -12  -3   1   13.00    2.93
  12   3  -1   16.41    4.16
  12   3   1   18.76    4.54
 -12  -3   2   84.23   10.18
 -12  -3  -2   94.56   10.73
  12   3  -2   87.66   10.38
  12   3   2   83.56    9.27
 -12  -3  -3  183.15   15.02
 -12  -3   3  181.13   15.01
  12   3  -3  185.28   15.05
  12   3   3  166.81   12.87
  12   3  -4   90.65   10.90
 -12  -3  -4  107.78   11.75
  12   3   4   86.49    9.04
 -12  -3   4   86.62   10.51
  12   3  -5   23.12    5.98
 -12  -3   5   13.91    4.24
  12   3   5   16.37    3.96
  12   3  -6    4.86    3.32
  12   3   6    2.92    1.40
 -12  -3   6    1.28    1.75
  12   3   7    2.73    2.01
  12   3  -7    2.50    2.41
 -12  -3   7    4.66    2.28
  12   3   8   17.23    3.81
  12  -3  -8   22.14    7.20
 -12  -3   8   11.49    3.99
  12   3  -8   14.79    5.13
  12   3  -9   12.79    4.56
 -12  -3   9    7.39    3.20
  12  -3 -10   30.98    7.84
  12   3 -10   29.56    7.33
  12  -3 -11   33.33    7.98
  12   3 -11   22.61    6.56
  12   3 -12   34.88    8.09
  12  -3 -12   46.79    9.08
  12   3 -13    1.85    2.53
  12  -3 -13    1.30    2.57
  12   3 -14    4.31    3.14
  12  -3 -14    2.62    2.79
  12   3 -15   -1.40    3.02
  12  -3 -15   -2.62    3.59
  12   3 -16    0.73    2.25
  12  -3 -16   -0.96    3.01
  12   3 -17   -0.45    2.88
  12  -3 -17    0.17    2.79
  12   3 -18   13.67    5.49
  12  -3 -18   22.11    7.15
  12  -3 -19    6.72    4.33
  12  -3 -20    6.14    4.14
 -13  -3   0   48.75    7.87
  13   3   0   48.72    7.62
 -13  -3  -1    8.24    3.57
  13   3  -1    1.84    2.36
  13   3   1    5.61    2.50
 -13  -3   1    4.95    1.83
 -13  -3  -2    5.36    3.79
 -13  -3   2   -2.82    3.54
  13   3  -2    0.87    2.11
  13   3   2    1.52    2.16
 -13  -3   3   30.75    6.60
 -13  -3  -3   29.45    7.12
  13   3  -3   20.58    5.47
  13   3   3   19.59    4.53
 -13  -3   4  129.48   13.09
  13   3  -4  128.85   13.40
 -13  -3  -4  142.75   13.55
  13   3   4  126.50   11.62
 -13  -3   5    2.74    2.53
  13   3  -5    7.18    4.09
  13   3   5    5.35    2.60
  13   3   6   36.95    6.02
  13   3  -6   40.05    7.81
 -13  -3   6   43.74    7.82
  13   3  -7   23.62    6.67
 -13  -3   7   19.52    5.45
  13   3   7   17.56    4.05
  13  -3  -8   33.56    8.57
  13   3  -8   29.58    7.07
 -13  -3   8   26.54    6.30
  13  -3  -9   23.64    7.04
 -13  -3   9   18.15    5.01
  13   3  -9   21.85    6.41
  13   3 -10  177.23   17.56
  13  -3 -10  162.58   17.00
 -13  -3  10  176.39   16.99
  13   3 -11   11.94    5.40
  13  -3 -11   14.56    5.99
  13   3 -12   94.75   13.55
  13  -3 -12   84.00   12.47
  13   3 -13   34.02    8.46
  13  -3 -13   29.51    7.76
  13   3 -14   71.47   12.15
  13  -3 -14   59.32   10.86
  13   3 -15   29.80    8.32
  13  -3 -15   18.50    6.09
  13   3 -16  125.45   16.51
  13  -3 -16  125.09   15.82
  13   3 -17   13.45    5.96
  13  -3 -17    5.54    2.80
  13  -3 -18   15.21    6.30
  14   3   0   70.37    9.72
 -14  -3   0   68.53    9.77
 -14  -3   1    7.36    2.95
  14   3  -1   13.31    4.36
  14   3   1    8.92    3.03
 -14  -3  -1   13.97    4.60
 -14  -3   2   75.31   10.06
 -14  -3  -2   87.72   11.06
  14   3  -2   83.93   10.76
  14   3   2   84.22   10.21
 -14  -3   3    2.80    2.73
  14   3  -3    9.81    3.96
 -14  -3  -3   16.97    5.48
  14   3   3   10.57    3.72
 -14  -3   4    4.22    3.47
  14   3  -4    0.08    2.20
  14   3   4    0.06    1.60
 -14  -3   5   11.28    4.55
  14   3  -5   10.29    4.50
  14   3   5    8.01    3.05
 -14  -3   6    5.17    2.88
  14   3  -6    5.64    3.46
  14   3   6    7.22    3.07
  14   3  -7    4.13    3.38
  14  -3  -7    6.87    5.11
 -14  -3   7    3.63    3.04
  14  -3  -8    4.83    5.12
  14   3  -8    0.17    2.25
 -14  -3   8    0.36    2.61
  14  -3  -9    9.18    5.38
  14   3  -9    4.92    3.92
 -14  -3   9    3.23    2.42
  14   3 -10   22.29    6.59
  14  -3 -10   31.91    7.72
 -14  -3  10   24.67    6.46
  14  -3 -11    6.81    4.20
 -14  -3  11    5.90    3.29
  14   3 -11    6.46    3.55
  14   3 -12    1.80    3.03
 -14  -3  12   -0.07    3.20
  14  -3 -12    3.51    2.93
  14   3 -13    3.52    3.60
  14  -3 -13    1.24    2.95
  14   3 -14    1.16    2.40
  14  -3 -14   -0.26    2.91
  14   3 -15    6.42    4.13
  14  -3 -15    3.98    2.86
  14  -3 -16    5.94    3.66
 -15  -3   0   31.56    6.89
  15   3   0   26.74    6.19
 -15  -3  -1   18.86    5.66
 -15  -3   1   14.58    4.61
  15   3  -1   16.47    4.69
  15   3   1   11.20    3.83
 -15  -3  -2   24.35    6.48
 -15  -3   2   10.38    3.60
  15   3  -2   14.20    4.79
  15   3   2   16.44    4.63
 -15  -3   3   53.34    8.84
  15   3  -3   62.49    9.96
 -15  -3  -3   75.47   10.67
  15   3   3   57.89    8.62
 -15  -3   4    9.53    3.05
  15   3  -4   14.52    5.25
  15   3   4   11.55    3.85
 -15  -3   5   15.47    5.25
  15   3  -5   10.44    4.31
  15  -3  -6   35.74    9.44
 -15  -3   6   21.61    6.15
  15   3  -6   21.35    6.14
 -15  -3   7    9.45    4.26
  15  -3  -7   20.67    7.04
  15   3  -7   13.26    5.62
  15  -3  -8   22.53    7.22
  15   3  -8   12.67    4.60
 -15  -3   8   11.29    4.34
  15   3  -9    9.05    4.31
 -15  -3   9    8.57    4.05
  15  -3  -9   19.36    6.83
  15   3 -10    2.99    3.48
  15  -3 -10    1.35    3.49
 -15  -3  10   -0.22    2.24
  15  -3 -11   12.96    5.49
  15   3 -11   12.81    5.53
 -15  -3  11   14.56    5.38
  15   3 -12   44.82    9.96
 -15  -3  12   43.86    9.20
  15  -3 -12   36.20    8.74
 -15  -3  13    2.65    2.93
  15   3 -13    2.99    3.71
  15  -3 -13   -1.03    3.25
 -15  -3  14   10.09    4.59
 -16  -3   0    6.63    3.88
  16   3   0   -4.22    3.50
 -16  -3   1    3.97    3.00
  16   3  -1   -1.51    1.79
 -16  -3  -1    5.82    3.81
  16   3   1   -3.72    3.32
 -16  -3   2    4.22    3.04
  16   3  -2    1.90    2.11
  16   3   2   -2.77    3.24
  16   3  -3    3.23    3.25
  16   3   3   -2.19    2.62
 -16  -3   3   -2.82    3.13
 -16  -3   4   -4.57    4.21
  16   3  -4    3.29    3.28
 -16  -3   5   -1.26    3.04
  16   3  -5    1.96    2.10
  16  -3  -6    9.21    5.99
 -16  -3   6    2.36    2.83
  16   3  -6    2.06    2.85
  16  -3  -7   10.16    5.87
 -16  -3   7    2.28    2.28
  16   3  -7    4.56    3.39
  16  -3  -8    7.22    5.59
 -16  -3   8    4.05    2.88
  16   3  -8    3.59    3.01
 -16  -3   9    2.73    2.78
  16   3  -9    3.92    3.59
  16  -3  -9    8.36    5.41
  16   3 -10   -2.22    3.06
 -16  -3  10   -1.86    2.85
  16  -3 -10    3.76    3.70
  16   3 -11    7.42    4.31
 -16  -3  11    6.74    3.39
 -16  -3  12    0.50    1.63
 -16  -3  13    0.75    2.06
 -16  -3  14    2.10    2.26
  17   3   0   -3.06    3.22
  17   3  -1   75.03   11.18
  17   3   1   64.23   10.30
  17   3  -2   44.63    9.42
  17   3   2   36.60    7.67
  17   3  -3    6.04    3.78
  17   3  -4   33.81    8.15
 -17  -3   4   27.02    6.89
 -17  -3   5   19.18    5.76
  17   3  -5   29.22    7.63
 -17  -3   6   -0.85    2.91
  17   3  -6    2.20    3.10
 -17  -3   7   10.23    4.27
  17   3  -7   12.91    5.05
 -17  -3   8    5.90    3.67
  17   3  -8    1.54    2.42
 -17  -3   9   13.83    5.41
  17   3  -9   11.99    5.42
 -17  -3  10   25.32    7.08
  18   3   0    7.54    4.04
  18   3  -1    5.97    3.88
  18   3  -2    4.27    3.41
  18   3  -3    2.68    3.14
  18   3  -4   10.24    4.77
  18   3  -5    5.23    3.94
  18   3  -6   33.95    8.59
  19   3  -2    7.09    4.16
   0  -4   0  170.85    9.86
   0  -4   0  171.39    9.21
   0  -4   0  171.02    9.29
   0  -4  -1    0.27    0.92
   0  -4   1    0.20    0.78
   0  -4  -1   -1.30    1.55
   0  -4  -1   -0.79    1.66
   0  -4   1   -0.14    1.70
   0  -4   1    0.33    0.90
   0  -4  -2  318.05   13.80
   0  -4   2  305.91   10.93
   0  -4  -2  316.41   13.67
   0  -4  -2  308.91   11.61
   0  -4   2  311.54   13.49
   0  -4  -3    2.28    2.56
   0  -4   3   -0.93    2.26
   0  -4  -4 1010.53   26.73
   0  -4   4 1034.69   17.04
   0  -4  -5    7.95    3.91
   0  -4  -6  561.25   21.19
   0  -4  -7    2.87    2.83
   0  -4  -8  297.84   16.57
   0  -4  -8  288.07    9.13
   0  -4  -9    5.95    4.08
   0   4  -9    3.59    4.54
   0  -4  -9   -0.97    0.95
   0  -4 -10 1121.74   33.83
   0  -4 -10 1106.31   18.78
   0   4 -10 1085.62   33.24
   0  -4 -11    3.36    3.58
   0  -4 -11    1.31    1.10
   0  -4 -12  449.21   12.91
   0  -4 -12  447.62   22.57
   0   4 -12  448.78   22.55
   0   4 -13    7.23    4.96
   0  -4 -13    5.86    3.89
   0  -4 -13   -0.17    0.67
   0  -4 -14   86.83    6.17
   0  -4 -14   90.66   10.75
   0   4 -14   91.11   11.08
   0   4 -15    6.27    4.84
   0  -4 -15    0.19    0.78
   0  -4 -15    1.91    3.52
   0  -4 -16  489.50   15.88
   0  -4 -16  476.65   25.94
   0   4 -16  473.97   25.88
   0  -4 -17    0.94    2.25
   0   4 -17    7.19    4.91
   0  -4 -18  139.56   14.69
   0   4 -18  140.21   14.84
   0   4 -19    5.23    4.52
   0  -4 -19    0.83    1.71
   0  -4 -20   21.29    6.13
   0  -4 -21   -0.28    1.89
   0  -4 -22  184.69   18.48
   0  -4 -23   -0.43    1.87
   0  -4 -24    3.16    3.21
   0  -4 -25   -0.32    2.00
   0  -4 -26   35.58    8.82
  -1  -4   0  757.23   18.85
  -1  -4   0  745.29   21.53
   1  -4   0  748.06   19.62
   1  -4   0  732.30   19.25
  -1  -4  -1  310.84   11.40
  -1  -4   1  297.87   13.77
  -1  -4  -1  308.46   13.86
   1  -4  -1  301.72   12.93
   1  -4   1  304.19   11.77
   1  -4  -1  298.08   12.53
  -1  -4   1  314.18   12.87
  -1   4   1  313.29   12.72
   1  -4   1  295.87   12.40
  -1  -4   2  159.89    9.51
   1  -4  -2  150.33    9.64
  -1  -4  -2  160.68   10.12
   1  -4   2  152.97    7.87
   1  -4  -2  156.47    9.58
  -1  -4   2  156.18    9.93
   1  -4   2  154.63    9.01
  -1   4   2  154.41    9.18
  -1  -4  -2  164.36    7.89
   1  -4  -3   47.41    5.58
  -1  -4  -3   53.12    7.01
  -1  -4   3   48.87    5.53
   1  -4   3   46.85    5.07
  -1  -4  -3   47.69    3.98
   1  -4  -4   35.98    5.22
  -1  -4  -4   38.44    3.36
   1   4  -4   38.76    5.43
  -1  -4   5   59.50    3.71
  -1  -4  -5   59.13    3.84
   1  -4  -5   64.22    6.98
   1   4  -5   60.76    6.89
  -1  -4   6   51.00    2.97
   1  -4  -6   52.24    6.72
  -1  -4  -6   51.52    3.38
   1   4  -6   53.88    6.59
   1  -4  -7    5.64    2.76
   1   4  -7    6.01    2.90
   1   4  -8   94.67    9.48
  -1  -4  -8   86.66    3.83
   1  -4  -8   89.91    9.23
   1  -4  -9  206.64   14.26
  -1  -4  -9  199.65    5.76
   1  -4  -9  205.40    9.41
   1   4  -9  208.00   14.37
   1  -4 -10  131.08   11.80
  -1  -4 -10  118.85    4.61
   1  -4 -10  118.73    7.22
   1   4 -10  128.63   11.74
   1   4 -11   33.85    6.55
  -1  -4 -11   32.62    2.58
   1  -4 -11   33.20    5.97
   1  -4 -11   27.67    3.54
  -1  -4 -12   88.01    4.56
   1  -4 -12   90.32   10.25
   1  -4 -12   88.47    6.68
   1   4 -12   93.77   10.40
   1   4 -13    5.17    3.40
  -1  -4 -13    5.18    2.77
  -1  -4 -13    3.94    1.14
   1  -4 -13    3.24    2.52
   1  -4 -13    4.42    1.81
   1   4 -14    6.33    3.47
  -1  -4 -14    4.80    1.24
  -1  -4 -14    5.24    2.69
   1  -4 -14    4.92    2.66
   1  -4 -14    6.70    2.23
   1   4 -15   22.93    5.77
  -1  -4 -15   17.50    4.93
   1  -4 -15   19.53    3.45
   1  -4 -15   19.53    5.37
  -1  -4 -15   19.33    2.64
  -1  -4 -16    6.62    3.44
   1  -4 -16    9.28    2.41
   1  -4 -16    9.47    3.75
   1   4 -16    6.22    3.56
   1   4 -17   17.84    5.78
   1  -4 -17   17.28    3.39
  -1  -4 -17   17.37    5.23
   1  -4 -17   19.69    5.34
   1   4 -18   14.40    5.01
  -1  -4 -18   14.76    4.93
   1  -4 -18   11.60    4.12
  -1  -4 -19    4.17    2.94
   1  -4 -19    3.85    1.91
   1   4 -19    3.60    3.55
   1   4 -20    2.60    3.37
  -1  -4 -20    2.71    1.95
   1  -4 -20    3.18    2.69
   1   4 -21   30.10    8.00
  -1  -4 -21   25.98    6.84
   1  -4 -21   29.16    7.28
   1   4 -22   19.42    6.53
  -1  -4 -22   20.22    6.40
   1  -4 -22   17.03    5.65
  -1  -4 -23   16.24    6.04
   1  -4 -23   20.37    6.49
   1   4 -23   26.72    7.78
  -1  -4 -24    6.63    4.19
   1  -4 -24    9.84    4.73
   1   4 -24    8.52    5.29
  -1  -4 -25    0.93    2.04
   1  -4 -25    1.19    2.07
  -1  -4 -26    0.30    2.45
   1  -4 -26    6.94    4.21
  -2  -4   0  139.45    8.02
   2  -4   0  131.97    7.76
  -2  -4   0  124.83    9.00
  -2  -4   1 1239.41   28.97
  -2  -4  -1 1258.56   22.45
   2  -4   1 1254.36   23.93
  -2  -4   1 1255.94   25.37
  -2  -4  -1 1247.28   29.73
   2  -4  -1 1267.58   26.98
   2  -4  -1 1199.62   23.48
  -2   4   1 1253.18   24.20
   2   4  -1 1262.42   25.35
  -2  -4  -2   25.52    3.09
  -2   4   2   23.90    3.41
  -2  -4  -2   22.18    3.95
   2  -4  -2   24.41    4.31
  -2  -4   2   22.86    3.82
   2   4  -2   22.89    4.07
  -2  -4   2   31.24    4.26
   2  -4   2   27.03    3.76
   2   4  -3  269.08   12.91
  -2   4   3  267.16   11.80
  -2  -4  -3  255.68    8.70
   2  -4  -3  267.29   13.39
  -2  -4  -3  271.20   13.91
  -2  -4   3  250.33   13.32
   2  -4   3  255.37   11.02
  -2  -4  -4  100.15    4.88
  -2   4   4  106.13    7.62
   2  -4  -4   98.97    8.61
  -2  -4  -4  129.33   10.30
   2  -4   4  101.98    7.15
  -2  -4   4   99.59    8.27
   2   4  -4  102.49    8.35
  -2  -4  -5   28.54    2.21
   2  -4  -5   28.38    4.92
   2   4  -5   28.18    4.81
   2   4  -6   53.69    6.89
   2  -4  -6   52.73    6.71
   2  -4  -7   87.79    8.92
   2   4  -7   96.99    8.93
   2  -4  -8   41.08    6.46
   2   4  -8   45.09    6.84
   2  -4  -9  357.74   18.72
   2  -4  -9  360.06   13.55
   2   4  -9  360.10   18.62
   2   4 -10    6.91    3.51
   2  -4 -10    5.52    2.97
   2  -4 -10    6.57    2.56
   2  -4 -11   35.41    6.32
   2  -4 -11   35.04    4.46
   2   4 -11   40.16    6.91
   2  -4 -12  105.81   10.99
   2  -4 -12  100.88    7.77
   2   4 -12  106.49   11.41
   2  -4 -13  325.99   20.09
   2  -4 -13  342.45   14.74
   2   4 -13  340.29   20.37
   2  -4 -14   64.85    9.27
   2  -4 -14   61.10    6.54
   2   4 -14   56.11    9.05
   2  -4 -15   41.11    5.49
   2  -4 -15   35.31    7.06
   2   4 -15   42.47    8.13
   2   4 -16    1.99    2.46
   2  -4 -16    2.19    1.57
   2  -4 -16    4.83    2.99
  -2  -4 -17  120.19   13.28
   2  -4 -17  126.50    9.94
   2  -4 -17  117.78   13.32
   2   4 -17  120.45   13.75
   2   4 -18   42.09    8.66
   2  -4 -18   42.38    5.92
  -2  -4 -18   39.37    8.03
   2  -4 -18   40.37    8.15
  -2  -4 -19  148.47   15.66
   2  -4 -19  157.35   15.95
   2   4 -19  163.81   16.70
   2   4 -20    7.40    4.64
  -2  -4 -20    2.96    2.15
   2  -4 -20    3.00    2.75
  -2  -4 -21   -2.61    3.49
   2  -4 -21    2.62    2.75
   2   4 -21    0.47    2.16
   2   4 -22    4.96    4.13
  -2  -4 -22    2.12    2.41
   2  -4 -22    1.91    2.50
  -2  -4 -23   49.68    9.94
   2  -4 -23   41.95    9.11
   2   4 -23   52.53   10.52
  -2  -4 -24    5.51    3.27
   2   4 -24    2.64    3.72
   2  -4 -24    2.63    2.75
  -2  -4 -25   73.64   12.52
   2  -4 -25   72.28   12.41
   2   4 -25   86.31   13.90
  -2  -4 -26    2.06    2.79
   2  -4 -26    5.47    4.06
  -3  -4   0   83.48    7.78
  -3  -4   0   89.38    6.38
   3  -4   0   90.51    6.06
   3   4   0   94.48    6.59
  -3  -4   1  238.18   13.47
   3  -4   1  240.15    9.64
  -3   4  -1  238.98   11.40
  -3  -4   1  240.49   11.12
  -3  -4  -1  243.10    9.81
  -3   4   1  239.36    9.89
   3   4   1  251.06   10.06
   3   4  -1  240.02   11.13
  -3  -4  -1  238.16   13.44
   3  -4   2  184.14    8.42
  -3   4  -2  185.18    9.60
  -3  -4  -2  186.87   12.09
  -3  -4  -2  188.02    7.94
   3   4  -2  180.59   10.21
  -3  -4   2  184.59   10.26
  -3  -4   2  175.95   11.63
  -3   4   2  183.73    8.88
  -3   4   3   79.74    6.10
  -3   4  -3   82.55    6.14
  -3  -4  -3   85.59    8.78
  -3  -4  -3   84.46    4.72
   3   4  -3   83.37    7.44
  -3  -4   3   77.64    7.65
   3  -4   3   79.36    5.73
   3   4  -4  114.51    9.05
  -3   4   4  115.00    7.66
  -3   4  -4  116.31    6.95
   3  -4  -4  117.10    9.65
  -3  -4  -4  140.07   11.01
  -3  -4  -4  115.74    4.86
  -3  -4   4  113.48    9.33
   3  -4   4  118.63    7.16
  -3   4  -5  175.74    8.20
  -3   4   5  172.27    9.78
   3   4  -5  181.32   11.56
   3  -4  -5  171.83   11.80
  -3  -4  -5  148.88    4.06
   3   4  -6   41.26    6.06
  -3   4  -6   40.35    3.70
   3  -4  -6   43.33    6.06
   3   4  -7   27.56    4.97
  -3   4  -7   28.51    3.01
   3  -4  -7   28.14    5.41
  -3   4  -8   29.14    2.83
   3   4  -8   28.43    5.38
   3  -4  -8   30.89    5.44
   3   4  -9   32.11    5.94
  -3   4  -9   34.48    2.84
   3  -4  -9   33.34    5.84
   3   4 -10   67.60    8.72
  -3  -4  10   65.68    3.36
  -3   4 -10   62.09    3.52
   3  -4 -10   73.52    7.02
   3  -4 -10   62.88    8.25
   3   4 -11   37.89    7.02
  -3  -4  11   31.74    2.02
  -3   4 -11   33.06    2.35
   3  -4 -11   38.30    6.72
   3  -4 -11   34.72    5.02
   3   4 -12    2.56    2.47
   3  -4 -12    3.59    2.38
   3  -4 -12    5.18    1.27
   3   4 -13   15.68    4.60
   3  -4 -13   15.67    4.44
   3  -4 -13   14.86    3.22
   3   4 -14   -0.72    3.04
   3  -4 -14    1.52    1.96
   3  -4 -14    3.90    2.47
   3   4 -15   15.37    4.58
   3  -4 -15   17.90    3.96
   3  -4 -15   19.08    5.32
   3   4 -16    3.33    2.24
   3  -4 -16    5.41    2.58
   3  -4 -16    5.34    2.72
   3   4 -17   -3.58    3.77
   3  -4 -17    0.24    1.32
   3  -4 -17    0.49    1.99
   3   4 -18    3.77    3.13
   3  -4 -18    8.72    3.11
   3  -4 -18    6.00    3.22
   3   4 -19   28.86    7.10
   3  -4 -19   28.47    5.29
   3  -4 -19   27.63    6.98
  -3  -4 -20    3.16    2.29
   3   4 -20    2.19    2.51
   3  -4 -20    1.57    2.18
   3   4 -21   13.51    5.36
  -3  -4 -21   11.54    4.67
   3  -4 -21    9.39    4.13
   3   4 -22    6.32    3.90
  -3  -4 -22    2.89    2.73
   3  -4 -22    1.85    1.81
   3   4 -23    6.31    4.45
  -3  -4 -23    2.53    2.77
   3   4 -24    4.03    3.80
  -3  -4 -24    6.63    4.25
   3   4 -25   25.48    8.15
  -3  -4 -25   17.19    6.13
  -3  -4 -26    8.97    4.76
   4   4   0    8.32    2.17
  -4  -4   0    1.44    2.44
  -4  -4   0    7.39    2.03
   4   4  -1    3.45    1.55
   4   4   1    5.01    1.72
   4  -4   1    7.95    2.27
  -4   4   1    4.22    1.31
  -4  -4   1    5.47    1.93
  -4  -4  -1    4.01    1.48
  -4  -4  -1   -3.34    3.26
  -4  -4   1    7.15    3.07
  -4   4   2    6.19    1.70
   4   4   2    6.52    1.66
   4   4  -2    3.80    1.98
  -4  -4  -2    4.99    2.95
  -4  -4   2    4.96    2.34
   4  -4   2    5.16    1.21
  -4  -4  -2    3.35    0.96
   4   4  -3   66.47    6.79
  -4   4   3   66.83    5.28
  -4  -4  -3   78.79    8.45
  -4  -4  -3   71.44    4.47
   4  -4   3   75.71    5.05
  -4   4  -3   69.57    6.06
  -4  -4   3   78.88    7.94
   4   4   3   75.09    4.68
   4   4  -4  189.85   11.80
  -4   4   4  188.24    9.38
  -4   4  -4  192.48    9.79
  -4  -4  -4  208.87   13.65
  -4  -4  -4  185.08    6.20
  -4  -4   4  196.25   12.77
   4  -4   4  182.90    8.36
   4   4  -5   60.32    6.92
  -4   4   5   59.88    5.56
  -4   4  -5   55.52    5.13
  -4  -4  -5   80.14    9.69
   4   4  -6   12.94    3.70
   4   4  -7  104.05    9.61
   4   4  -8   11.02    3.62
   4   4  -9   55.01    7.70
   4   4 -10   94.35   10.13
   4  -4 -10  101.76    8.67
   4   4 -11   97.31   10.92
   4  -4 -11   99.35    8.79
   4   4 -12   97.20   11.24
  -4  -4  12   94.34    5.10
   4  -4 -12   96.01    8.88
   4   4 -13   28.94    6.16
   4  -4 -13   30.44    4.91
   4   4 -14   57.37    9.15
   4  -4 -14   53.62    6.78
   4   4 -15  341.71   22.22
   4  -4 -15  343.75   17.91
   4   4 -16   94.46   12.12
   4  -4 -16   86.55    9.21
   4   4 -17    6.32    3.63
   4  -4 -17    5.96    2.74
   4   4 -18    6.85    3.37
   4  -4 -18    8.76    3.17
   4   4 -19    4.67    2.97
   4  -4 -19    4.94    2.58
   4   4 -20   26.14    7.13
   4  -4 -20   25.19    5.34
   4   4 -21   47.28    9.53
  -4  -4 -22   18.25    6.17
   4   4 -22   15.31    5.88
   4   4 -23   18.65    6.85
  -4  -4 -23   16.17    6.00
  -4  -4 -24    6.28    4.10
   4   4 -24    2.95    3.32
  -4  -4 -25    9.29    4.70
   5   4   0   52.35    5.31
  -5  -4   0   53.19    5.15
  -5  -4   0   51.35    6.53
  -5  -4   1    3.93    2.29
   5   4   1    2.13    1.36
   5   4  -1    2.63    1.37
  -5  -4  -1   -2.84    3.41
  -5  -4  -1    0.75    0.87
   5   4   2   17.92    2.73
  -5  -4  -2   16.75    3.95
   5  -4   2   20.78    2.40
   5   4  -2   16.29    3.30
  -5  -4  -2   17.42    2.64
  -5  -4   2   16.63    3.82
  -5   4   2   16.50    2.32
  -5  -4  -3    7.69    1.88
   5   4   3    3.65    1.24
   5   4  -3    3.93    2.01
  -5   4   3    1.79    0.73
   5  -4   3    1.27    0.79
  -5  -4   3    2.53    1.77
  -5  -4  -3    6.26    3.85
   5   4  -4   60.72    6.86
  -5   4   4   62.38    5.16
  -5  -4  -4   81.32    9.18
  -5  -4   4   62.77    7.45
   5  -4   4   61.66    4.25
   5   4   4   59.83    4.00
   5   4  -5   32.83    5.37
  -5   4   5   42.32    4.56
   5   4   5   33.14    2.50
   5   4  -6  117.00   10.30
  -5   4   6  115.28    7.77
   5   4  -7   40.83    6.41
   5   4  -8   13.74    4.46
   5   4  -9   67.02    8.55
   5  -4 -10   16.02    5.01
   5   4 -10    8.95    3.75
   5   4 -11   23.13    5.51
   5  -4 -11   30.56    5.48
   5   4 -12   91.27   11.16
   5  -4 -12   87.26    9.04
   5   4 -13   62.57    9.50
   5  -4 -13   57.52    7.38
   5   4 -14    9.65    4.27
   5  -4 -14    5.29    1.56
   5   4 -15   25.51    6.17
   5  -4 -15   23.40    4.69
   5   4 -16   57.72    9.68
   5  -4 -16   66.55    8.51
   5  -4 -17  150.87   13.14
   5   4 -17  150.93   16.08
   5   4 -18    2.08    2.15
   5  -4 -18    8.07    3.53
   5   4 -19    0.98    2.46
   5  -4 -19    5.69    2.75
   5   4 -20   41.99    9.14
   5  -4 -20   38.11    6.95
   5   4 -21   13.27    5.19
   5   4 -22    5.52    4.09
   5   4 -23   17.34    6.74
  -5  -4 -24   28.67    7.78
   5   4 -24   35.37    9.37
  -5  -4 -25    8.02    4.25
   6   4   0   74.99    6.74
  -6  -4   0   73.87    6.35
  -6  -4   0   68.92    7.21
  -6  -4   1   43.73    6.59
   6   4   1   44.50    4.87
   6   4  -1   46.04    5.63
  -6  -4  -1   45.90    4.89
  -6  -4  -1   30.65    5.14
   6   4   2   53.15    5.05
   6   4  -2   53.74    6.39
  -6  -4  -2   49.53    6.45
  -6   4   2   52.62    3.63
  -6  -4   2   55.12    7.11
  -6   4   3  102.29    5.71
   6   4  -3  106.52    8.97
  -6  -4  -3  111.79   10.41
   6  -4   3   97.36    3.78
  -6  -4   3  110.32    9.97
   6   4   3  103.26    6.48
   6   4   4    0.54    0.74
   6   4  -4    3.92    2.26
  -6   4   4    0.91    0.83
   6  -4   4   -0.40    0.72
  -6  -4   4   -1.09    2.32
   6   4   5  261.52    8.24
   6   4  -5  259.75   15.08
  -6   4   5  244.44   10.34
  -6  -4  -5  264.49   16.54
  -6  -4   5  275.24   16.29
   6  -4   5  267.31    8.29
   6   4   6   39.09    2.63
   6   4  -6   42.06    6.53
   6   4  -7   21.34    5.16
   6   4  -8  260.95   16.79
   6   4  -9   65.31    8.81
   6   4 -10   17.51    5.00
   6  -4 -10   26.48    6.24
   6   4 -11   79.42   10.14
   6  -4 -11   83.24    9.24
   6   4 -12  199.64   16.47
   6  -4 -12  201.69   14.25
   6   4 -13   45.25    8.08
   6  -4 -13   38.11    6.50
   6   4 -14    3.61    3.10
   6  -4 -14    0.76    1.84
   6   4 -15   27.36    6.55
   6  -4 -15   26.31    5.34
   6   4 -16   31.48    7.61
   6  -4 -16   23.10    5.16
   6   4 -17   45.16    9.07
   6  -4 -17   40.04    7.35
   6   4 -18  130.26   15.32
   6  -4 -18  135.25   13.24
   6   4 -19   -0.10    2.46
   6  -4 -19   -0.40    2.04
   6   4 -20   13.73    5.61
   6  -4 -20   15.37    4.56
   6   4 -21   21.58    7.17
   6  -4 -21   19.01    5.20
   6   4 -22   21.48    7.30
   6   4 -23   15.98    6.14
   7   4   0   -0.69    1.75
  -7  -4   0   -6.96    4.73
  -7  -4   1    6.08    3.17
   7   4  -1    3.73    1.68
   7   4   1    4.36    1.83
  -7  -4  -1   -1.32    3.61
  -7  -4   2    5.68    3.11
  -7  -4  -2    5.49    2.42
   7   4  -2    4.98    1.97
   7   4   2    7.46    2.26
  -7   4   3   46.36    3.38
   7   4  -3   45.68    6.13
   7   4   3   44.31    4.61
  -7  -4  -3   53.59    7.88
  -7  -4   3   44.88    6.80
  -7   4   4    3.62    1.18
   7   4  -4    0.74    1.82
   7   4   4    2.92    1.25
  -7  -4   4    0.62    2.30
   7   4   5    3.79    1.16
   7   4  -5    3.59    2.24
  -7  -4   5    0.73    2.97
   7   4  -6   33.54    6.00
   7  -4   6   31.27    2.68
  -7  -4   6   28.37    5.18
   7   4   6   33.86    3.09
   7   4   7  268.96    7.33
   7   4  -7  269.56   17.19
   7   4  -8   32.60    6.59
   7   4  -9    1.05    1.83
   7  -4 -10   17.95    5.88
   7   4 -10   13.99    4.39
   7   4 -11  112.31   12.33
   7  -4 -11  113.49   11.41
   7  -4 -12   16.51    5.03
   7   4 -12   15.67    5.28
   7   4 -13   51.94    8.85
   7  -4 -13   51.96    7.79
   7   4 -14   68.55   10.47
   7  -4 -14   67.90    8.92
   7   4 -15   21.54    5.98
   7  -4 -15   17.60    4.77
   7   4 -16   12.07    4.86
   7  -4 -16    5.64    2.30
   7   4 -17    6.80    4.05
   7  -4 -17    8.49    3.99
   7   4 -18   40.41    9.01
   7  -4 -18   46.85    8.11
   7   4 -19  112.61   15.15
   7  -4 -19  108.78   12.44
   7   4 -20    5.32    4.37
   7  -4 -20    3.39    2.48
   7   4 -21    9.14    4.91
   7  -4 -21    8.14    3.85
   7   4 -22   17.45    6.67
   7  -4 -22   18.61    5.56
   8   4   0   33.50    5.10
  -8  -4   0   19.23    3.25
  -8  -4   1  305.19   17.85
  -8  -4  -1  303.92   17.66
   8   4  -1  294.03   15.31
   8   4   1  302.52   14.26
  -8  -4  -2  190.71   13.97
   8   4  -2  188.11   12.49
   8   4   2  192.22   10.99
  -8  -4   2  198.47   14.56
   8   4   3   29.36    4.23
   8   4  -3   25.05    4.85
  -8   4   3   23.21    1.94
  -8  -4  -3   26.90    5.82
  -8  -4   3   25.38    5.16
  -8   4   4  101.16    5.31
   8   4  -4  109.44   10.44
   8   4   4  110.28    7.53
  -8  -4  -4  115.46   11.59
  -8  -4   4  105.64   10.80
   8   4  -5  187.77   14.02
   8   4   5  196.60    9.37
  -8   4   5  186.81    8.11
  -8  -4  -5  202.98   15.40
  -8  -4   5  192.64   14.86
   8   4  -6    9.48    3.16
   8   4   6   11.44    2.13
  -8  -4   6    7.54    2.67
   8   4  -7   59.89    8.28
   8   4   7   62.33    4.49
   8   4   8    8.08    1.43
   8   4  -8    5.58    2.48
   8   4  -9   13.91    4.13
   8   4 -10   23.73    6.05
   8  -4 -10   26.20    6.79
   8   4 -11   59.89    9.38
   8  -4 -11   64.60    8.96
   8  -4 -12   22.25    5.42
   8   4 -12   18.74    5.29
   8   4 -13   28.18    6.66
   8  -4 -13   27.19    6.34
   8   4 -14   35.61    8.00
   8  -4 -14   34.00    6.56
   8   4 -15  105.19   13.46
   8  -4 -15   93.01   11.06
   8   4 -16   65.09   11.03
   8  -4 -16   60.19    9.15
   8   4 -17    8.29    4.79
   8  -4 -17    3.72    2.05
   8   4 -18   22.45    6.89
   8  -4 -18   19.02    5.58
   8   4 -19    9.27    4.29
   8  -4 -19   10.62    4.44
   8   4 -20    0.30    2.26
   8  -4 -20    1.19    2.17
   8   4 -21   28.81    8.23
   8  -4 -21   34.32    7.55
   8   4 -22   21.49    7.05
   8  -4 -22   17.39    5.78
  -9  -4   0  198.37   15.12
   9   4   0  211.65   13.18
  -9  -4  -1   -1.54    2.96
  -9  -4   1   -3.91    2.90
   9   4  -1    1.77    1.98
   9   4   1    2.34    1.76
  -9  -4   2   77.90    9.70
  -9  -4  -2   66.37    8.97
   9   4  -2   75.39    8.45
   9   4   2   72.87    7.24
   9   4  -3    9.65    2.94
   9   4   3   11.40    2.83
  -9  -4   3   11.80    4.31
  -9  -4  -3   16.96    5.14
   9   4  -4   33.06    6.09
   9   4   4   31.65    4.41
  -9  -4  -4   43.24    8.05
  -9  -4   4   33.59    6.45
   9   4  -5   43.47    6.91
   9   4   5   48.25    5.10
  -9  -4  -5   63.73    9.70
  -9  -4   5   41.80    7.10
   9   4  -6   99.42   10.52
   9   4   6  104.83    7.21
  -9  -4   6  104.23   11.29
   9   4  -7    0.43    2.34
  -9  -4   7    1.65    2.30
   9   4   7    0.68    0.95
   9   4  -8   60.18    8.78
   9   4  -9   85.26   10.72
   9  -4 -10   11.74    5.35
   9   4 -10   -3.69    3.54
   9   4 -11  125.39   13.53
   9  -4 -11  136.51   13.45
   9   4 -12   37.37    7.94
   9  -4 -12   41.16    7.80
   9   4 -13    1.85    2.27
   9  -4 -13   -2.68    3.24
   9   4 -14   14.62    5.46
   9  -4 -14   11.82    4.40
   9   4 -15   10.72    4.76
   9  -4 -15    2.51    1.99
   9   4 -16    4.52    4.23
   9  -4 -16   -0.89    2.52
   9  -4 -17   99.44   12.26
   9   4 -17  109.44   14.82
   9   4 -18    0.11    2.13
   9  -4 -18    8.72    4.51
   9   4 -19    2.28    2.96
   9  -4 -19   -0.48    1.76
   9   4 -20   -2.21    3.34
   9  -4 -20   -0.23    1.64
   9   4 -21    2.48    4.02
   9  -4 -21    4.41    3.24
   9  -4 -22    3.85    3.42
  10   4   0   64.02    7.85
 -10  -4   0   53.71    7.58
 -10  -4   1  111.47   11.56
 -10  -4  -1  121.07   11.99
  10   4  -1  123.63   11.12
  10   4   1  127.28   10.52
 -10  -4   2  123.64   12.55
 -10  -4  -2  113.72   12.00
  10   4  -2  124.31   11.41
  10   4   2  123.08   10.12
 -10  -4  -3   42.48    7.63
 -10  -4   3   39.41    7.21
  10   4  -3   34.65    6.50
  10   4   3   37.80    5.40
  10   4  -4   34.52    6.59
  10   4   4   37.83    5.26
 -10  -4  -4   43.11    8.11
 -10  -4   4   33.42    6.84
  10   4  -5   87.67   10.37
  10   4   5   93.29    7.78
 -10  -4  -5   99.35   12.10
 -10  -4   5   86.62   10.81
  10   4   6   21.06    3.63
  10   4  -6   17.67    4.77
 -10  -4   6   18.55    4.99
  10   4   7   18.10    3.25
  10   4  -7   14.90    4.33
 -10  -4   7   12.71    3.64
  10   4  -8   58.14    8.87
 -10  -4   8   55.54    8.74
  10   4  -9   33.29    7.05
  10   4 -10   38.78    7.66
  10  -4 -10   54.49    9.59
  10   4 -11  133.39   14.73
  10  -4 -11  145.73   14.72
  10   4 -12   57.91   10.07
  10  -4 -12   66.71   10.20
  10  -4 -13   33.10    7.19
  10   4 -13   26.50    7.00
  10   4 -14   52.09    9.74
  10  -4 -14   43.79    8.13
  10  -4 -15   58.03    9.73
  10   4 -15   54.01   10.01
  10   4 -16   22.02    6.94
  10  -4 -16   18.79    5.34
  10   4 -17   40.51    9.31
  10  -4 -17   37.63    8.00
  10   4 -18   52.30   10.85
  10  -4 -18   47.57    9.11
  10   4 -19   16.97    6.46
  10  -4 -19   19.86    6.33
  10   4 -20    9.37    4.93
  10  -4 -20    6.96    3.74
  10  -4 -21   20.08    6.37
  10  -4 -22   12.25    4.84
  10  -4 -23    3.67    3.16
  11   4   0    3.26    2.69
 -11  -4   0   -5.23    4.61
 -11  -4   1  112.15   12.30
 -11  -4  -1  116.94   12.32
  11   4  -1  129.03   11.89
  11   4   1  123.25   11.00
 -11  -4   2   75.63    9.99
 -11  -4  -2   79.26   10.51
  11   4  -2   80.44    9.73
  11   4   2   80.86    8.62
 -11  -4   3   40.31    7.61
  11   4  -3   44.02    7.57
 -11  -4  -3   46.43    8.37
  11   4   3   41.36    6.14
  11   4  -4  371.69   21.17
 -11  -4  -4  358.57   21.73
  11   4   4  369.86   17.20
 -11  -4   4  365.01   22.30
  11   4  -5    3.74    3.26
  11   4   5    2.83    1.96
 -11  -4   5    1.19    2.14
  11   4  -6    2.94    2.77
  11   4   6    6.40    2.42
 -11  -4   6    2.08    2.57
  11   4  -7    8.62    4.09
 -11  -4   7    8.12    3.49
  11   4  -8   52.44    8.90
 -11  -4   8   52.76    8.84
  11   4  -9    4.63    3.53
 -11  -4   9   -1.48    3.19
  11  -4 -10   38.52    8.33
  11   4 -10   24.17    6.40
  11  -4 -11    8.21    4.89
  11   4 -11    3.64    2.30
  11  -4 -12   22.02    6.45
  11   4 -12   17.19    5.43
  11   4 -13   -1.71    3.14
  11  -4 -13    3.86    3.48
  11   4 -14    0.17    2.19
  11  -4 -14    0.95    2.64
  11   4 -15    3.29    2.99
  11  -4 -15    3.16    2.25
  11   4 -16    0.03    2.24
  11  -4 -16   -3.58    3.94
  11   4 -17   -4.23    4.34
  11  -4 -17   -0.52    2.35
  11   4 -18    3.62    3.95
  11  -4 -18   -4.11    4.03
  11   4 -19    3.42    3.95
  11  -4 -19    2.06    3.00
  11  -4 -20    3.73    3.17
  11  -4 -21   12.24    5.38
  11  -4 -22   12.03    5.38
 -12  -4   0    1.54    4.18
  12   4   0   11.20    3.74
 -12  -4   1   61.28    8.73
 -12  -4  -1   61.86    9.39
  12   4  -1   68.17    8.99
  12   4   1   76.63    9.17
 -12  -4   2  171.74   15.36
 -12  -4  -2  189.49   16.20
  12   4  -2  187.81   15.05
  12   4   2  192.79   13.94
 -12  -4   3  143.47   14.37
  12   4  -3  131.65   13.07
 -12  -4  -3  141.32   14.04
  12   4   3  137.90   11.48
  12   4  -4  225.43   17.41
 -12  -4   4  227.01   18.07
  12   4   4  228.08   14.30
 -12  -4  -4  235.34   18.20
  12   4  -5   85.53   11.17
  12   4   5   92.57    8.95
 -12  -4  -5  108.90   12.82
 -12  -4   5   83.11   11.36
  12   4  -6   32.10    7.29
 -12  -4   6   27.04    6.46
  12   4  -7  116.74   13.45
 -12  -4   7  116.50   13.63
  12   4  -8  121.40   13.98
 -12  -4   8  125.44   14.20
  12  -4  -9   53.53   10.09
  12   4  -9   36.83    7.88
 -12  -4   9   35.58    7.62
  12  -4 -10   26.05    7.81
  12   4 -10   15.94    5.36
 -12  -4  10   14.29    5.01
  12   4 -11    2.96    2.33
 -12  -4  11    1.33    2.47
  12  -4 -12    2.62    3.13
  12   4 -12    2.75    2.48
  12   4 -13   20.55    6.33
  12  -4 -13   22.02    6.34
  12   4 -14   16.17    5.44
  12  -4 -14   22.35    6.32
  12   4 -15    7.11    4.07
  12  -4 -15    2.53    2.91
  12   4 -16    7.72    4.14
  12  -4 -16    1.52    2.68
  12   4 -17    5.67    4.33
  12  -4 -17    3.89    2.92
  12  -4 -18    5.84    2.87
  12  -4 -19    6.72    3.88
  12  -4 -20   16.78    6.30
 -13  -4   0   -1.84    3.77
  13   4   0    2.40    2.15
  13   4  -1   44.85    7.67
  13   4   1   43.13    7.13
 -13  -4  -1   43.39    8.05
 -13  -4   1   34.83    6.97
 -13  -4   2   77.68   10.69
 -13  -4  -2   87.98   11.43
  13   4  -2   84.58   10.68
  13   4   2   84.49    9.75
 -13  -4   3   -2.88    4.44
  13   4  -3    7.58    3.69
  13   4   3    6.13    2.82
 -13  -4  -3   10.90    5.00
 -13  -4  -4   26.70    6.99
 -13  -4   4   22.15    6.52
  13   4  -4   13.12    4.85
  13   4   4   12.65    3.57
 -13  -4   5    3.27    3.23
  13   4  -5    6.23    3.57
 -13  -4   6   54.69    9.37
  13   4  -6   49.43    8.92
  13   4  -7    7.90    4.18
 -13  -4   7    4.10    2.65
  13   4  -8   -1.71    2.63
 -13  -4   8   -1.81    3.53
  13   4  -9   94.44   12.88
  13  -4  -9  108.59   14.33
 -13  -4   9  102.08   13.26
  13  -4 -10    9.04    5.17
  13   4 -10    5.07    3.47
 -13  -4  10    4.11    3.13
  13  -4 -11    5.72    4.80
  13   4 -11    1.05    2.06
 -13  -4  11   -1.53    2.81
  13  -4 -12    5.48    4.20
  13   4 -12    5.65    3.60
 -13  -4  12    6.13    3.62
  13  -4 -13   -0.25    2.64
  13   4 -13   -4.30    4.20
  13   4 -14    2.04    2.17
  13  -4 -14   -1.96    3.54
  13   4 -15    9.01    4.38
  13  -4 -15    7.10    3.65
  13   4 -16    1.81    2.97
  13  -4 -16   -1.53    2.92
  13  -4 -17    6.87    3.85
  13  -4 -18   -5.07    4.63
 -14  -4   0  282.80   21.12
  14   4   0  295.80   19.75
 -14  -4   1   12.62    3.75
  14   4  -1   22.04    5.73
  14   4   1   17.54    4.96
 -14  -4  -1   18.63    5.88
 -14  -4  -2    9.37    4.68
  14   4  -2    7.39    3.61
  14   4   2   10.05    3.78
 -14  -4   2    1.22    3.33
 -14  -4  -3   28.88    7.61
 -14  -4   3   21.76    5.51
  14   4  -3   30.81    7.05
  14   4  -4   41.51    8.06
 -14  -4   4   27.27    6.58
 -14  -4  -4   51.13    9.63
 -14  -4   5   19.62    6.02
  14   4  -5   17.86    5.73
 -14  -4   6   43.77    8.79
  14   4  -6   54.20    9.75
  14   4  -7    4.34    2.76
 -14  -4   7    4.15    3.14
  14   4  -8   17.47    5.72
 -14  -4   8   15.70    5.55
  14   4  -9   39.29    8.90
  14  -4  -9   47.12    9.84
 -14  -4   9   45.35    9.03
  14  -4 -10   25.25    7.58
  14   4 -10   18.54    6.32
 -14  -4  10   17.86    6.23
  14   4 -11   43.67    9.34
  14  -4 -11   55.26   10.81
 -14  -4  11   51.63   10.26
  14   4 -12   29.03    7.88
  14  -4 -12   30.76    8.14
 -14  -4  12   22.32    6.56
  14   4 -13    9.32    4.79
 -14  -4  13    4.55    3.08
  14  -4 -13    9.08    4.84
  14   4 -14   17.63    6.37
 -14  -4  14   21.65    6.94
  14  -4 -14   19.19    6.77
  14  -4 -15   13.79    5.13
  15   4   0   11.98    4.37
 -15  -4   0   11.07    4.51
 -15  -4  -1    5.03    3.52
 -15  -4   1    5.51    2.72
  15   4  -1    7.75    3.52
  15   4   1    7.81    3.63
 -15  -4   2   -1.30    2.29
  15   4  -2    3.07    2.15
  15   4  -3    4.40    3.66
 -15  -4   3   -1.55    3.81
 -15  -4   4   -0.54    3.21
  15   4  -4    5.01    3.06
 -15  -4   5    9.05    4.27
  15   4  -5   15.28    5.56
 -15  -4   6    7.85    4.12
  15   4  -6    9.29    4.39
 -15  -4   7   27.94    7.18
  15   4  -7   21.02    6.33
 -15  -4   8   24.68    6.96
  15  -4  -8   31.11    8.68
  15   4  -8   21.08    6.68
  15  -4  -9   19.41    7.10
  15   4  -9    9.18    4.57
 -15  -4   9   11.56    4.40
  15  -4 -10   11.33    5.74
  15   4 -10    5.66    3.64
 -15  -4  10    7.34    4.02
  15  -4 -11   28.75    8.24
  15   4 -11   18.48    6.20
 -15  -4  11   23.26    6.73
  15   4 -12    2.74    2.32
 -15  -4  12    3.07    3.27
  15  -4 -12    5.83    4.31
 -15  -4  13   14.70    5.86
 -16  -4   0    3.53    3.53
  16   4   0   -0.59    1.53
 -16  -4   1    9.73    4.18
 -16  -4  -1   15.46    5.67
  16   4  -1    9.41    4.04
 -16  -4   2    2.96    2.49
  16   4  -2    6.43    3.69
 -16  -4   3   53.32    9.63
  16   4  -3   52.55    9.65
 -16  -4  -3   81.57   12.16
  16   4  -4    3.22    2.91
 -16  -4   4   -2.65    3.74
 -16  -4   5   10.28    4.17
  16   4  -5   10.55    4.65
 -16  -4   6   -4.83    4.10
  16   4  -6    3.82    3.34
  16  -4  -7   38.44    9.71
 -16  -4   7   31.68    7.80
  16   4  -7   30.40    7.98
 -16  -4   8   -1.35    1.97
  16   4  -8    0.60    2.02
 -16  -4   9   25.78    7.17
  16   4  -9   29.62    7.99
  16   4 -10   15.14    6.28
 -16  -4  10    7.49    4.73
 -16  -4  11    6.12    3.40
 -17  -4   0   16.40    6.05
 -17  -4  -1   18.45    6.34
 -17  -4   1   15.19    5.65
 -17  -4   2    9.98    4.62
  17   4  -2   13.03    5.20
 -17  -4   3    0.97    2.45
  17   4  -3    4.20    3.30
 -17  -4   4   -0.79    2.93
  17   4  -4    4.96    3.72
  17   4  -5   15.38    5.84
 -17  -4   5    8.03    3.88
  17   4  -6    7.81    4.49
 -17  -4   6    2.82    2.09
 -17  -4   7   -4.84    4.25
  17   4  -7    1.43    2.15
 -17  -4   8    8.27    4.62
  17   4  -8    0.83    1.76
 -17  -4   9    0.96    2.41
  18   4  -4    6.67    4.48
  18   4  -5   36.59    9.02
   0  -5   0   -1.63    2.36
   0  -5   0    0.28    1.20
   0  -5   1   25.35    3.83
   0  -5  -1   29.48    5.13
   0  -5  -1   24.32    4.13
   0  -5   1   22.92    3.87
   0  -5   2   -0.15    1.56
   0  -5  -2    0.65    1.14
   0  -5  -2   -0.14    1.51
   0  -5   2    0.09    0.92
   0  -5  -3   89.54    8.56
   0  -5   3   96.95    6.69
   0  -5  -3  109.75    9.58
   0  -5   3   93.92    8.44
   0  -5  -3   95.69    7.10
   0  -5  -4   -0.96    1.52
   0  -5   4    0.01    0.77
   0  -5   4   -1.29    2.20
   0  -5  -4    0.48    0.87
   0  -5  -5   69.58    7.97
   0  -5   5   72.01    7.47
   0  -5  -6    2.64    2.51
   0  -5  -7   67.42    8.33
   0  -5  -8    2.85    2.53
   0  -5  -9    3.72    1.61
   0  -5  -9    1.91    2.19
   0  -5 -10   -2.42    2.71
   0  -5 -10   -0.98    0.99
   0  -5 -11   14.80    4.71
   0  -5 -11   11.52    2.00
   0  -5 -12    0.07    1.98
   0  -5 -12    0.96    0.84
   0  -5 -13   24.65    6.07
   0  -5 -14   -0.38    1.89
   0  -5 -15    8.50    4.00
   0  -5 -16   -2.10    3.15
   0  -5 -17    2.69    2.30
   0  -5 -18   -1.56    2.45
   0  -5 -19    4.67    3.19
   0  -5 -20   -0.43    2.13
   0  -5 -21    2.87    2.53
   0  -5 -22   -1.15    1.92
   0  -5 -23    9.30    4.41
   0  -5 -24   -0.15    1.93
  -1  -5   0  139.95   10.42
   1  -5   0  142.13    9.78
   1  -5   0  136.61    9.47
  -1  -5  -1   21.25    3.40
   1  -5  -1   24.47    4.60
   1  -5   1   20.31    3.63
  -1  -5  -1   20.16    4.01
  -1  -5   1   16.89    2.94
   1  -5  -1   21.50    4.08
   1  -5   1   15.59    2.60
  -1  -5  -2   43.27    4.69
  -1  -5   2   46.44    5.93
   1  -5   2   43.01    5.40
  -1  -5   2   40.83    4.76
   1  -5  -2   46.33    5.88
  -1  -5  -2   57.72    7.25
   1  -5   2   42.11    4.80
   1  -5  -2   54.88    7.18
  -1  -5   3  243.63   10.74
   1  -5  -3  234.00   13.63
  -1  -5  -3  244.12   14.40
  -1  -5   3  235.42   13.66
   1  -5   3  235.16   12.71
  -1  -5  -3  231.12   10.34
  -1  -5   4  174.33    8.55
   1  -5  -4  181.94   12.42
  -1  -5  -4  214.43   13.39
  -1  -5   4  182.54   12.17
   1  -5   4  179.95   11.31
  -1  -5  -4  180.01    8.65
  -1  -5   5   34.73    3.57
   1  -5  -5   34.87    5.76
  -1  -5   5   32.89    5.04
   1  -5   5   34.46    4.92
  -1  -5  -5   35.77    3.68
   1  -5  -6  123.03   11.02
  -1  -5   6  130.75    6.06
  -1  -5  -6  125.86    6.35
   1  -5  -7  142.26   11.93
  -1  -5  -7  129.62    6.08
   1  -5  -8   36.50    6.59
  -1  -5  -8   26.90    2.61
   1  -5  -9  149.58   12.84
  -1  -5  -9  131.62    5.07
   1   5  -9  146.51   12.91
  -1  -5  -9  132.45    5.26
  -1  -5 -10  241.46   16.78
   1  -5 -10  229.04   16.50
  -1  -5 -10  216.12    5.99
  -1  -5 -10  218.60    6.12
   1  -5 -10  233.18   10.40
   1   5 -10  250.10   17.20
  -1  -5 -11   17.62    5.14
  -1  -5 -11   14.93    1.51
   1  -5 -11   20.28    5.47
   1   5 -11   24.77    6.61
   1  -5 -11   15.48    2.68
  -1  -5 -12  104.29   11.76
   1  -5 -12  100.75   11.44
   1  -5 -12  101.77    6.94
   1   5 -12  108.73   12.20
  -1  -5 -13  130.61   13.38
   1  -5 -13  118.79   12.84
   1  -5 -13  127.60    8.04
   1   5 -13  133.90   13.53
   1   5 -14   37.42    7.44
   1  -5 -14   38.40    4.53
  -1  -5 -14   36.73    7.44
   1  -5 -14   38.23    7.48
   1  -5 -15   41.40    8.05
  -1  -5 -15   43.54    8.30
   1   5 -15   39.71    7.92
  -1  -5 -16  158.37   15.88
   1  -5 -16  147.04   15.31
   1   5 -16  157.36   15.91
  -1  -5 -17   14.84    5.21
   1  -5 -17   17.51    5.53
   1   5 -17   13.40    5.08
  -1  -5 -18   18.88    6.04
   1  -5 -18   22.70    6.49
   1   5 -18   20.16    6.66
  -1  -5 -19   49.06    9.54
   1  -5 -19   45.82    9.12
   1   5 -19   47.81    9.69
  -1  -5 -20   17.98    5.96
   1  -5 -20   19.12    6.30
  -1  -5 -21   10.02    4.40
   1  -5 -21    7.89    4.23
  -1  -5 -22   63.86   11.63
   1  -5 -22   63.51   11.53
  -1  -5 -23   19.25    6.37
   1  -5 -23   17.54    5.99
  -1  -5 -24    0.39    2.69
   1  -5 -24    2.74    3.22
  -2  -5   0   31.23    4.37
   2  -5   0   27.66    4.34
  -2  -5   0   21.56    3.94
  -2  -5   1  301.98   15.54
  -2  -5  -1  292.29   12.43
   2  -5   1  290.33   13.28
  -2  -5  -1  293.25   15.59
   2  -5  -1  300.04   14.52
   2  -5  -1  284.81   13.28
  -2  -5   2   13.81    3.99
  -2  -5  -2   11.65    2.48
   2  -5   2    7.38    1.76
   2  -5  -2    9.86    3.05
  -2  -5  -2   13.47    3.90
  -2  -5  -3   65.93    5.20
   2  -5  -3   65.88    7.52
  -2  -5  -3   76.20    8.72
   2  -5   3   68.23    6.61
  -2  -5   3   70.68    7.82
  -2  -5  -4   65.55    4.88
   2  -5  -4   69.29    7.85
  -2  -5  -4   91.96    9.69
  -2  -5   4   60.80    7.17
   2  -5   4   60.17    6.26
   2   5  -5   19.54    4.36
  -2  -5  -5   17.36    2.26
  -2  -5   5   13.85    3.33
   2  -5  -5   18.97    4.32
   2  -5   5   16.45    3.23
   2   5  -6    9.16    3.64
  -2  -5  -6    7.64    1.31
   2  -5  -6    7.44    3.02
   2   5  -7    0.19    2.12
  -2  -5   7    0.17    0.41
  -2  -5  -7    0.07    0.21
   2  -5  -7    0.62    1.68
   2   5  -8    3.28    2.87
  -2  -5   8    1.35    0.57
   2  -5  -8    0.44    1.86
   2   5  -9   12.72    4.62
   2  -5  -9   15.78    4.35
   2   5 -10   16.44    4.90
   2  -5 -10   13.17    3.94
   2  -5 -10   21.23    4.02
   2   5 -11    6.05    3.60
   2  -5 -11    1.36    2.13
   2  -5 -11    2.50    1.55
   2   5 -12   32.51    6.61
   2  -5 -12   30.25    4.26
   2  -5 -12   28.88    6.08
   2  -5 -13   66.59    9.57
   2  -5 -13   69.25    6.50
   2   5 -13   75.41   10.23
   2   5 -14    3.15    3.22
   2  -5 -14    3.77    2.54
   2  -5 -14    7.90    2.67
   2   5 -15    4.05    3.36
  -2  -5 -15    2.53    1.87
   2  -5 -15    0.66    2.71
   2  -5 -15    3.68    1.81
   2   5 -16    9.12    4.01
  -2  -5 -16    5.53    3.31
   2  -5 -16    6.49    3.66
   2   5 -17    2.08    2.48
  -2  -5 -17    2.97    2.53
   2  -5 -17    2.76    2.40
   2   5 -18    3.77    2.45
  -2  -5 -18   -2.30    3.22
   2  -5 -18    0.02    1.57
   2   5 -19   14.52    5.67
  -2  -5 -19   11.01    4.95
   2  -5 -19    6.76    4.21
   2   5 -20    1.04    2.20
  -2  -5 -20    1.04    2.56
   2  -5 -20   -0.26    2.71
   2   5 -21    1.33    3.04
  -2  -5 -21    1.30    2.34
   2  -5 -21    1.75    2.83
  -2  -5 -22   11.83    5.28
   2   5 -22   12.08    5.91
   2  -5 -22    8.60    4.35
  -2  -5 -23    2.11    2.78
   2   5 -23    9.96    5.46
   2  -5 -23    7.28    4.69
  -2  -5 -24    4.00    3.58
   2  -5 -24    2.14    2.39
  -3  -5   0   77.82    8.22
  -3  -5   0   83.35    6.86
   3  -5   0   84.87    6.96
  -3  -5   1  168.79   12.39
  -3  -5  -1  165.94   12.21
  -3  -5  -1  163.39    9.11
   3  -5   1  171.19    9.61
  -3  -5   2    5.51    2.81
  -3  -5  -2    6.75    1.87
  -3  -5  -2    4.66    3.28
   3  -5   2    2.29    1.58
   3   5  -2    7.31    2.84
   3  -5   3  141.72    8.92
  -3  -5  -3  129.01    7.13
  -3  -5  -3  150.22   11.82
  -3  -5   3  142.16   11.41
   3   5  -3  143.55   10.31
  -3  -5  -4   43.30    3.67
   3  -5  -4   41.35    6.17
  -3  -5  -4   56.97    8.22
   3  -5   4   41.71    4.93
  -3  -5   4   39.75    5.98
   3   5  -4   44.07    6.17
   3   5  -5    3.17    2.15
  -3  -5   5   -1.64    3.10
  -3  -5  -5    4.00    1.02
   3  -5   5    2.61    1.13
   3  -5  -5    4.28    2.98
   3  -5  -6   51.31    7.23
  -3  -5  -6   40.66    2.27
   3  -5   6   51.98    5.78
  -3  -5   6   46.08    6.35
   3   5  -6   51.17    7.02
   3  -5  -7   71.06    8.73
   3   5  -7   67.56    8.48
   3   5  -8   14.77    4.61
   3  -5  -8   13.94    4.30
   3  -5  -9  147.28   13.11
   3   5  -9  148.79   12.75
   3   5 -10   38.10    6.87
   3  -5 -10   35.59    6.74
   3   5 -11   30.26    6.39
   3  -5 -11   30.94    6.36
   3  -5 -11   32.70    5.26
   3  -5 -12   80.25   10.57
   3  -5 -12   76.03    7.31
   3   5 -12   81.65   10.43
   3  -5 -13  164.66   15.22
   3  -5 -13  160.87   10.99
   3   5 -13  152.09   14.74
   3  -5 -14   45.50    8.61
   3  -5 -14   41.69    5.66
   3   5 -14   48.44    8.83
   3  -5 -15   51.96    9.17
   3  -5 -15   50.84    6.46
   3   5 -15   45.99    8.76
   3   5 -16   26.17    6.83
   3  -5 -16   30.01    5.22
   3  -5 -16   27.89    6.97
   3   5 -17   41.45    8.69
   3  -5 -17   43.20    8.86
   3   5 -18   13.86    5.09
  -3  -5 -18   15.28    5.31
   3  -5 -18   19.40    6.31
   3   5 -19   38.80    8.78
  -3  -5 -19   46.14    9.45
   3  -5 -19   42.44    9.09
  -3  -5 -20   23.26    6.90
   3   5 -20   23.79    7.30
   3  -5 -20   23.53    7.30
   3   5 -21    5.42    4.32
  -3  -5 -21    8.02    4.74
   3  -5 -21    5.51    3.13
  -3  -5 -22   11.72    5.24
   3   5 -22    9.65    5.01
   3  -5 -22    9.90    4.55
   3   5 -23   10.32    5.27
  -3  -5 -23   10.58    4.95
  -3  -5 -24    7.10    4.57
   4   5   0   17.29    3.37
  -4  -5   0   17.20    3.19
  -4  -5   0   10.50    2.92
  -4  -5  -1   34.78    5.64
  -4  -5   1   45.45    7.02
   4   5   1   39.19    4.65
   4  -5   1   45.46    4.87
  -4  -5  -1   36.81    4.41
   4   5  -1   38.67    5.10
   4   5  -2    1.95    1.55
  -4  -5   2    2.36    2.16
   4  -5   2    1.67    1.22
  -4  -5  -2    1.39    2.78
  -4   5   2    0.84    0.93
  -4  -5  -2    0.97    0.97
   4   5  -3   14.56    3.51
  -4  -5  -3   26.32    6.24
  -4  -5  -3   14.26    2.33
   4  -5   3   11.06    1.93
  -4  -5   3   11.54    3.37
  -4   5   3   14.91    2.93
   4   5  -4   58.42    7.24
  -4  -5  -4   82.08    9.66
  -4  -5  -4   55.53    4.02
  -4  -5   4   56.29    7.34
   4  -5   4   55.27    5.39
   4   5  -5   10.21    3.01
  -4   5  -5   13.23    2.73
  -4  -5   5    9.15    3.03
  -4  -5  -5   12.84    1.62
   4  -5   5   13.46    2.88
   4   5  -6    6.62    2.91
  -4   5  -6    6.45    1.88
   4  -5   6    6.85    2.12
  -4  -5   6    2.78    2.28
   4   5  -7   18.79    4.44
  -4   5  -7   16.53    2.78
   4   5  -8    9.33    3.54
  -4   5  -8   10.14    2.06
   4   5  -9   16.54    4.96
  -4   5  -9   16.67    2.40
   4   5 -10   39.17    7.25
   4  -5 -11   10.86    3.91
   4   5 -11    5.73    3.81
   4  -5 -12   70.46    7.83
   4   5 -12   77.65   10.47
   4  -5 -13   58.99    7.15
   4   5 -13   62.16    9.62
   4   5 -14    9.56    4.36
   4  -5 -14    7.74    2.81
   4  -5 -15   98.97    9.49
   4   5 -15   94.17   12.40
   4  -5 -16   57.05    7.51
   4   5 -16   54.52    9.58
   4  -5 -17   49.12    7.03
   4   5 -17   40.16    8.69
   4   5 -18   18.14    5.85
   4   5 -19    5.34    3.68
   4   5 -20    6.87    4.06
   4   5 -21    2.13    2.03
  -4  -5 -21    4.55    4.06
   4   5 -22    3.43    3.39
  -4  -5 -22    7.05    3.93
   4   5 -23   -2.55    3.25
  -4  -5 -23    3.09    3.33
  -5  -5   0   99.36    9.31
   5   5   0  106.20    8.23
  -5  -5  -1   23.92    4.35
  -5  -5   1   33.96    5.82
  -5  -5  -1   25.77    3.81
   5   5   1   28.73    4.01
   5   5  -1   30.56    4.73
  -5  -5   2   21.06    5.08
   5   5  -2   17.83    3.90
   5  -5   2   20.65    3.21
   5   5   2   16.40    2.99
  -5  -5  -2   15.36    4.22
  -5  -5  -2   14.30    2.64
  -5   5   2   15.55    2.59
  -5  -5  -3   20.09    5.29
   5  -5   3   22.49    3.00
   5   5  -3   20.03    4.28
  -5  -5  -3   23.30    3.05
  -5   5   3   19.16    3.07
   5   5   3   21.78    3.17
  -5  -5   3   18.55    4.45
   5   5  -4    5.77    2.64
  -5   5   4    7.57    2.14
   5  -5   4    4.56    1.04
  -5  -5  -4   10.33    1.91
  -5  -5   4    0.90    2.50
   5   5  -5   92.79    9.22
  -5  -5  -5  130.26   12.30
  -5  -5   5  105.21   10.38
   5  -5   5   98.06    6.67
  -5  -5   6  199.25   14.51
   5  -5   6  183.02    9.54
   5   5  -6  179.42   13.44
   5   5  -7   16.55    4.87
  -5   5  -7   14.76    2.95
   5   5  -8   11.21    4.05
  -5   5  -8   10.94    2.41
   5   5  -9   56.35    8.35
  -5   5  -9   52.17    5.04
   5   5 -10   31.39    6.38
   5  -5 -11   99.48    9.69
   5   5 -11   88.50   10.92
   5  -5 -12   11.94    4.04
   5   5 -12    9.89    3.94
   5   5 -13    2.83    2.66
   5  -5 -13    0.84    1.63
   5   5 -14   32.42    7.71
   5  -5 -14   34.66    5.91
   5   5 -15   82.39   11.94
   5  -5 -15   74.89    8.72
   5   5 -16    1.02    2.50
   5  -5 -16   -2.30    2.60
   5   5 -17   28.73    7.36
   5  -5 -17   33.97    6.20
   5   5 -18    4.65    3.54
   5   5 -19    7.66    4.83
   5   5 -20   70.77   12.16
   5   5 -21   27.04    7.91
   5   5 -22    9.25    5.46
  -5  -5 -23    4.61    3.27
   6   5   0   11.37    3.01
  -6  -5   0    1.54    3.87
  -6  -5  -1    1.64    3.06
   6   5   1   13.50    2.98
   6   5  -1   14.33    3.58
  -6  -5   1   12.89    3.14
  -6  -5  -1   16.16    3.11
   6   5  -2   34.61    5.48
  -6  -5   2   36.47    6.63
  -6  -5  -2   38.31    6.94
  -6  -5  -2   38.24    4.52
   6   5   2   39.88    4.61
   6   5  -3   43.09    6.05
  -6  -5  -3   55.05    8.02
   6  -5   3   50.95    3.93
  -6  -5   3   47.61    7.31
  -6   5   3   42.87    4.29
   6   5   3   45.71    4.53
  -6   5   4   49.33    4.90
   6   5  -4   51.73    7.03
   6  -5   4   51.76    4.06
  -6  -5  -4   64.65    9.63
  -6  -5   4   45.35    7.17
   6   5   4   52.08    4.37
  -6   5   5   16.44    3.01
   6   5  -5   18.32    4.58
  -6  -5   5   21.30    5.08
   6  -5   5   20.97    2.67
   6   5  -6    5.05    2.42
  -6  -5   6    2.63    2.59
   6  -5   6    4.73    1.45
   6   5  -7   11.73    4.03
   6  -5   7   10.82    2.16
  -6  -5   7    9.76    3.04
   6   5  -8   10.29    3.60
   6   5  -9   19.24    5.19
   6   5 -10    5.54    3.34
   6  -5 -11    9.88    4.43
   6   5 -11    1.60    2.58
   6  -5 -12    8.03    3.80
   6   5 -12    4.04    2.43
   6   5 -13   37.45    7.89
   6  -5 -13   39.47    6.84
   6   5 -14   10.50    4.53
   6  -5 -14   10.02    3.55
   6   5 -15    6.87    3.53
   6  -5 -15    8.70    3.28
   6   5 -16    7.13    4.39
   6  -5 -16    4.99    1.90
   6   5 -17   17.97    5.98
   6  -5 -17   20.99    5.22
   6   5 -18    5.83    4.22
   6  -5 -18    5.74    2.84
   6   5 -19    0.19    2.43
   6   5 -20    3.73    3.39
   6   5 -21    8.28    4.79
   6   5 -22   12.43    5.80
   7   5   0    0.81    1.17
  -7  -5  -1   -3.75    4.78
   7   5   1    5.68    2.14
   7   5  -1    8.10    2.86
  -7  -5   1   -6.07    5.42
   7   5   2  151.07    9.34
  -7  -5   2  159.35   13.49
   7   5  -2  148.46   11.30
  -7  -5  -2  145.34   12.56
   7   5   3   35.61    4.34
   7   5  -3   34.79    5.95
  -7  -5   3   43.15    7.09
  -7   5   3   31.46    3.29
  -7  -5  -3   37.48    6.77
   7   5  -4   26.64    5.47
  -7  -5  -4   34.67    7.45
  -7  -5   4   29.38    5.87
  -7   5   4   28.17    3.38
   7   5   4   27.50    3.49
   7  -5   5   18.22    2.07
   7   5  -5   18.48    4.93
  -7   5   5   17.01    2.79
  -7  -5   5   20.93    4.67
   7   5   5   17.97    2.45
  -7   5   6    5.59    1.68
   7  -5   6    6.69    1.36
   7   5  -6    8.55    3.90
  -7  -5   6    4.00    2.31
   7   5   6    7.12    1.35
   7   5  -7   34.35    6.59
  -7  -5   7   28.54    5.98
   7  -5   7   33.96    3.48
   7   5  -8  147.89   13.71
  -7  -5   8  141.29   13.60
   7   5  -9   11.73    4.58
   7   5 -10    4.34    2.97
   7   5 -11   23.06    6.18
   7  -5 -11   38.64    7.16
   7   5 -12  126.84   13.98
   7  -5 -12  117.57   12.01
   7  -5 -13    2.36    2.98
   7   5 -13    1.11    2.63
   7   5 -14    5.36    3.46
   7  -5 -14    7.33    3.12
   7   5 -15    4.57    3.39
   7  -5 -15    6.05    2.97
   7   5 -16    2.01    3.27
   7  -5 -16   -0.35    2.14
   7   5 -17   44.94    9.78
   7  -5 -17   36.24    6.96
   7   5 -18  140.82   16.99
   7  -5 -18  140.77   14.04
   7   5 -19   26.15    7.79
   7  -5 -19   32.72    6.90
   7   5 -20    2.28    2.82
   7   5 -21    8.06    4.88
   8   5   0   16.86    3.68
  -8  -5   0    9.72    3.06
  -8  -5  -1    1.74    2.51
   8   5   1   12.34    3.14
   8   5  -1    9.68    2.81
  -8  -5   1    0.97    3.68
  -8  -5   2   18.95    5.44
   8   5   2   16.15    3.35
   8   5  -2   18.07    4.12
  -8  -5  -2   14.24    4.57
  -8  -5  -3   37.74    7.13
   8   5   3   30.55    4.20
  -8  -5   3   37.47    7.21
   8   5  -3   30.68    5.57
  -8  -5   4   39.33    7.15
   8   5   4   36.51    4.28
   8   5  -4   36.90    6.29
  -8  -5  -4   49.01    9.34
   8   5   5   12.15    2.25
   8   5  -5   13.21    4.42
  -8  -5   5   16.28    5.01
   8   5  -6   15.58    4.66
  -8  -5   6   12.82    4.54
   8   5  -7   38.00    6.86
  -8  -5   7   40.00    7.16
   8   5  -8   11.10    3.83
  -8  -5   8    8.65    2.57
   8   5  -9    4.59    2.74
   8   5 -10    0.29    2.08
   8  -5 -11   18.73    5.67
   8   5 -11   11.32    4.73
   8  -5 -12   15.67    5.19
   8   5 -12   10.87    4.33
   8  -5 -13    9.41    4.08
   8   5 -13    5.80    3.85
   8   5 -14   19.15    5.96
   8  -5 -14   23.10    5.89
   8   5 -15   22.99    6.97
   8  -5 -15   22.29    5.74
   8   5 -16   23.89    7.04
   8  -5 -16   23.29    5.80
   8   5 -17   11.08    5.04
   8  -5 -17    6.90    3.18
   8   5 -18    8.75    4.72
   8  -5 -18    3.96    2.45
   8   5 -19    3.97    2.76
   8  -5 -19    3.27    2.55
   8   5 -20    0.05    2.41
   9   5   0   15.90    3.94
  -9  -5   0    6.72    3.02
  -9  -5   1  213.35   16.53
   9   5   1  217.48   13.24
   9   5  -1  216.98   14.14
  -9  -5  -1  206.74   16.37
  -9  -5   2   10.62    3.87
   9   5   2    7.46    2.66
   9   5  -2    6.80    3.07
  -9  -5  -2    1.33    2.96
  -9  -5  -3    8.14    4.79
  -9  -5   3    5.09    2.93
   9   5   3    6.81    2.32
   9   5  -3    4.95    2.58
  -9  -5   4   24.85    5.82
   9   5   4   19.34    3.39
   9   5  -4   18.94    4.85
  -9  -5  -4   36.51    7.71
   9   5  -5  230.56   16.63
  -9  -5  -5  249.62   18.17
  -9  -5   5  235.32   17.73
   9   5  -6   10.86    3.90
  -9  -5   6   10.41    3.63
   9   5  -7   31.43    6.54
  -9  -5   7   33.18    6.70
   9   5  -8    0.03    1.90
  -9  -5   8   -3.38    3.48
   9   5  -9    4.04    2.70
  -9  -5   9   -1.49    3.03
   9   5 -10    6.35    3.45
   9   5 -11  136.50   14.83
   9  -5 -11  145.88   14.40
   9  -5 -12   24.51    6.49
   9   5 -12   20.08    6.07
   9  -5 -13    5.50    3.41
   9   5 -13    6.34    4.02
   9   5 -14   15.72    6.08
   9  -5 -14   11.45    4.62
   9   5 -15  109.35   14.57
   9  -5 -15  106.80   12.76
   9   5 -16   15.23    5.79
   9  -5 -16   11.13    4.19
   9   5 -17    5.37    3.49
   9  -5 -17    3.34    1.79
   9   5 -18    1.47    2.71
   9  -5 -18   -2.28    3.18
   9   5 -19   12.01    5.65
   9  -5 -19   12.94    4.98
   9  -5 -20    5.86    3.76
  10   5   0   65.98    7.83
 -10  -5   0   58.97    9.14
  10   5  -1   64.36    8.04
 -10  -5   1   59.08    8.65
  10   5   1   67.65    7.61
 -10  -5  -1   65.23    9.70
  10   5   2   28.33    4.87
  10   5  -2   22.31    4.74
 -10  -5   2   18.06    3.66
 -10  -5  -2   26.27    6.55
 -10  -5  -3   11.16    4.67
 -10  -5   3    8.85    4.10
  10   5   3    6.99    2.30
  10   5  -3    7.50    3.33
 -10  -5  -4   24.74    6.96
 -10  -5   4   20.64    5.67
  10   5  -4   14.36    4.14
 -10  -5   5    5.95    3.68
  10   5  -5    5.17    2.94
 -10  -5  -5   14.28    6.05
  10   5  -6    4.04    2.55
 -10  -5   6    0.93    1.86
  10   5  -7    9.86    4.07
 -10  -5   7    2.77    2.15
  10   5  -8   14.65    4.83
 -10  -5   8   13.99    4.66
  10   5  -9    1.12    2.10
 -10  -5   9   -1.03    3.20
  10   5 -10   12.72    4.84
 -10  -5  10    9.91    4.20
  10  -5 -11    9.92    5.39
  10   5 -11    2.31    3.03
  10  -5 -12    1.91    3.48
  10   5 -12    0.44    2.28
  10  -5 -13    4.20    3.84
  10   5 -13   -0.26    2.33
  10   5 -14   -0.27    2.50
  10  -5 -14    2.53    2.75
  10   5 -15   11.56    5.23
  10  -5 -15   10.96    4.46
  10   5 -16    5.39    4.14
  10  -5 -16    3.59    2.67
  10   5 -17    2.56    2.86
  10  -5 -17   -3.73    3.44
  10   5 -18    0.95    2.89
  10  -5 -18   -2.98    3.69
  10  -5 -19    2.43    3.06
  10  -5 -20    4.75    3.51
 -11  -5   0   -3.44    4.20
  11   5   0    1.85    1.97
 -11  -5   1   81.43   10.67
  11   5  -1   86.51    9.72
  11   5   1   89.89    9.29
 -11  -5  -1   77.83   11.00
  11   5  -2   59.81    8.33
  11   5   2   61.32    7.38
 -11  -5  -2   55.64    9.34
 -11  -5   2   51.76    8.31
 -11  -5   3   23.80    6.15
 -11  -5  -3   25.83    6.69
  11   5  -3   26.39    5.99
 -11  -5   4  168.28   16.08
  11   5  -4  157.15   14.29
 -11  -5  -4  167.77   16.12
 -11  -5   5    8.90    4.60
  11   5  -5    4.86    2.75
  11   5  -6   16.03    4.70
 -11  -5   6   17.76    5.47
  11   5  -7   25.42    6.37
 -11  -5   7   20.20    5.85
  11   5  -8  170.72   16.30
 -11  -5   8  170.60   16.88
  11   5  -9   38.50    8.09
 -11  -5   9   45.99    9.03
  11   5 -10    0.43    1.81
 -11  -5  10   -2.22    3.31
  11   5 -11    1.61    1.91
 -11  -5  11    0.98    1.96
  11  -5 -12   17.25    6.19
  11   5 -12   10.13    4.96
 -11  -5  12   10.33    4.25
  11   5 -13   31.91    7.68
  11  -5 -13   34.74    7.87
  11   5 -14   46.36    9.81
  11  -5 -14   47.21    9.03
  11   5 -15   12.59    5.36
  11  -5 -15   15.05    5.42
  11   5 -16    2.08    3.05
  11  -5 -16   -3.16    3.84
  11   5 -17    7.31    4.44
  11  -5 -17    7.62    3.49
  11  -5 -18   17.97    5.89
  11  -5 -19    6.46    3.88
  11  -5 -20   26.36    7.58
 -12  -5   0   -2.45    3.74
  12   5   0    3.88    2.25
  12   5  -1   15.18    4.12
  12   5   1   17.29    4.30
 -12  -5  -1   15.01    5.30
 -12  -5   1   11.62    3.90
  12   5  -2   38.04    7.06
 -12  -5  -2   43.59    8.62
 -12  -5   2   32.17    7.07
  12   5  -3   10.85    3.79
 -12  -5   3    6.61    2.46
 -12  -5  -3   17.12    5.91
 -12  -5   4    3.39    3.12
  12   5  -4    0.77    1.64
 -12  -5   5    4.59    3.95
  12   5  -5   -2.73    3.00
 -12  -5   6   -0.61    2.64
  12   5  -6   -2.48    2.38
  12   5  -7    0.07    2.56
 -12  -5   7    6.84    3.81
  12   5  -8   -0.87    2.70
 -12  -5   8    0.30    2.39
  12   5  -9    8.43    4.28
 -12  -5   9    5.12    3.75
  12  -5 -10   24.28    7.48
  12   5 -10   19.56    5.90
 -12  -5  10   13.48    4.90
  12  -5 -11   11.17    5.33
  12   5 -11    4.51    3.52
 -12  -5  11    3.04    2.62
  12   5 -12    2.20    2.18
 -12  -5  12    4.61    2.13
  12  -5 -13   16.75    6.09
  12   5 -13    6.79    3.57
 -12  -5  13    9.30    3.97
  12  -5 -14    2.05    3.04
  12   5 -14   -6.49    4.79
  12   5 -15   -0.69    3.30
  12  -5 -15    1.58    3.19
  12   5 -16    2.37    3.09
  12  -5 -16   -1.88    2.52
  12  -5 -17    2.53    2.69
  12  -5 -18   -0.31    2.80
  12  -5 -19    2.97    2.63
 -13  -5   0   -0.20    3.34
  13   5   0    5.42    2.88
 -13  -5   1   70.49   10.55
  13   5  -1   72.95    9.59
 -13  -5  -1   63.32   10.39
 -13  -5   2   92.78   12.59
  13   5  -2   91.51   11.00
 -13  -5  -2  104.89   13.39
  13   5  -3   41.78    7.90
 -13  -5  -3   40.04    8.60
 -13  -5   3   32.14    7.05
  13   5  -4   38.02    7.55
 -13  -5   4   32.63    7.55
 -13  -5  -4   54.67   10.15
 -13  -5   5   15.85    5.33
  13   5  -5   18.53    5.35
 -13  -5   6   46.97    9.22
  13   5  -6   43.54    8.61
 -13  -5   7   25.40    6.98
  13   5  -7   22.69    6.56
  13   5  -8    5.28    3.00
 -13  -5   8    7.03    4.18
  13   5  -9    1.75    3.11
 -13  -5   9    1.19    2.73
  13  -5 -10   24.53    7.47
  13   5 -10   17.19    6.16
 -13  -5  10   19.71    6.25
  13   5 -11   44.17    9.47
  13  -5 -11   48.15    9.66
 -13  -5  11   47.83    9.84
  13  -5 -12   13.78    5.82
  13   5 -12    8.54    4.23
 -13  -5  12    7.54    4.09
  13   5 -13    3.10    2.87
 -13  -5  13    7.06    4.20
  13  -5 -13    4.12    3.26
  13   5 -14   17.79    6.32
 -13  -5  14    9.82    4.68
  13  -5 -14   10.44    4.72
  13   5 -15    4.06    3.88
  13  -5 -15    7.14    4.18
  13  -5 -16    4.69    3.72
 -14  -5   0   56.39   10.02
 -14  -5   1   26.14    6.91
  14   5  -1   30.68    6.59
 -14  -5  -1   28.53    7.48
  14   5  -2    7.26    3.32
 -14  -5  -2    9.21    4.77
 -14  -5   2   -4.11    4.39
  14   5  -3    3.65    2.49
 -14  -5   3   -1.10    4.02
  14   5  -4    6.61    3.57
 -14  -5   4    4.64    2.42
 -14  -5   5   -1.41    2.68
  14   5  -5    2.96    2.82
 -14  -5   6   -0.70    2.44
  14   5  -6    0.31    1.55
 -14  -5   7    8.43    4.48
  14   5  -7    7.66    4.07
 -14  -5   8    0.64    2.13
  14   5  -8    3.18    3.09
  14  -5  -9   20.38    7.20
  14   5  -9    8.57    4.28
 -14  -5   9   10.50    5.09
  14  -5 -10   14.89    6.34
  14   5 -10    5.48    3.61
 -14  -5  10    6.05    3.57
  14  -5 -11   17.96    6.87
  14   5 -11    6.54    4.07
 -14  -5  11   10.50    4.98
  14  -5 -12   16.43    6.59
  14   5 -12    4.61    3.62
 -14  -5  12    9.17    4.65
  14   5 -13    2.85    3.54
  14  -5 -13    2.59    3.34
 -15  -5   0   37.91    8.73
 -15  -5  -1   40.44    8.85
 -15  -5   1   35.66    8.07
 -15  -5  -2    5.90    4.40
 -15  -5   2   -7.07    4.59
 -15  -5  -3   44.64    9.21
  15   5  -3   32.86    7.21
 -15  -5   3   36.31    8.23
  15   5  -4    9.79    4.27
 -15  -5   4    4.71    2.00
  15   5  -5    1.26    2.05
 -15  -5   5   -8.28    5.70
 -15  -5   6    9.60    4.66
  15   5  -6   13.68    5.24
 -15  -5   7    8.00    4.68
  15   5  -7    9.71    4.64
 -15  -5   8    5.04    3.67
  15   5  -8    2.25    3.01
  15   5  -9   40.69    9.10
  15  -5  -9   54.30   10.97
 -15  -5   9   45.23    9.86
 -15  -5  10   17.69    6.51
  15   5 -10   18.56    6.51
  15   5 -11    1.31    1.92
 -16  -5   0    4.71    3.55
 -16  -5   1    8.34    4.36
 -16  -5  -1   14.94    6.19
 -16  -5   2    3.33    3.23
 -16  -5  -2   17.55    6.22
 -16  -5   3   -1.82    3.28
 -16  -5  -3   16.81    6.48
  16   5  -4    5.90    3.35
 -16  -5   4    0.92    1.85
  16   5  -5    7.73    3.76
 -16  -5   5    3.27    2.20
  16   5  -6    0.95    1.69
 -16  -5   6   -7.17    4.85
 -16  -5   7   -0.89    2.16
  16   5  -7    0.59    1.96
  16   5  -8   -1.24    2.45
  16   5  -9   -0.90    1.86
 -17  -5   0   20.23    6.85
 -17  -5   1   12.97    5.55
 -17  -5  -1   18.48    6.62
 -17  -5  -2   27.50    8.16
 -17  -5   2    6.93    4.40
 -17  -5  -3   27.86    7.91
 -17  -5   3    4.52    3.03
  17   5  -6   33.75    8.52
  17   5  -7   18.16    6.55
   0  -6   0  582.82   21.09
   0  -6   0  556.90   22.50
   0  -6  -1    0.32    2.37
   0  -6  -1    6.79    3.47
   0  -6   1    4.12    2.71
   0  -6   1   -3.23    3.27
   0  -6   2  849.02   27.77
   0  -6  -2  843.95   27.26
   0  -6   2  833.04   23.56
   0  -6  -2  853.93   27.51
   0  -6   3    8.94    3.83
   0  -6  -3    7.04    3.77
   0  -6   3    3.05    1.99
   0  -6  -4  465.08   21.80
   0  -6   4  489.83   16.04
   0  -6   4  480.17   21.17
   0  -6  -5    2.45    1.66
   0  -6   5    1.48    2.61
   0  -6  -6 1126.82   35.39
   0  -6   6 1137.50   33.34
   0  -6  -7    8.09    4.36
   0  -6   7    0.53    2.00
   0  -6  -8   25.62    5.94
   0  -6  -9    2.96    2.85
   0  -6 -10  187.85   16.01
   0  -6 -11    0.01    2.26
   0  -6 -12  159.97   15.39
   0  -6 -13   -1.72    3.14
   0  -6 -14    2.06    2.25
   0  -6 -15   -0.47    2.57
   0  -6 -16  136.99   15.53
   0  -6 -17   -1.80    2.71
   0  -6 -18    2.10    2.81
   0  -6 -19   -1.49    2.79
   0  -6 -20   55.96   11.05
   0  -6 -21   -0.86    2.98
   0  -6 -22  134.50   17.57
  -1  -6   0   19.45    4.56
  -1  -6   0   18.59    3.91
   1  -6   0   20.08    3.81
   1  -6   0   23.54    4.81
   1  -6   1    9.85    2.28
  -1  -6  -1    9.70    2.84
  -1  -6   1   12.05    3.07
   1  -6  -1   21.44    5.07
   1  -6  -1   12.18    3.25
   1  -6   1   12.54    3.30
  -1  -6  -1   15.34    4.44
  -1  -6   1    8.78    2.23
  -1  -6   2   52.35    6.72
   1  -6   2   53.45    6.53
  -1  -6  -2   53.62    6.98
  -1  -6   2   55.33    6.01
   1  -6  -2   53.35    6.97
   1  -6   2   55.57    6.00
  -1  -6  -2   72.56    8.93
   1  -6  -2   67.09    8.50
  -1  -6  -3   54.51    5.75
  -1  -6   3   56.87    7.73
   1  -6   3   58.89    7.28
  -1  -6  -3   52.68    7.22
  -1  -6   3   52.71    5.58
   1  -6  -3   49.15    6.94
  -1  -6  -3   66.64    9.19
  -1  -6  -4   58.40    5.65
  -1  -6  -4   60.41    8.05
  -1  -6   4   61.46    5.79
   1  -6  -4   61.57    8.01
  -1  -6   4   61.65    8.06
   1  -6   4   64.72    7.59
  -1  -6  -5   57.55    5.34
  -1  -6  -5   61.61    8.24
   1  -6  -5   62.27    8.18
  -1  -6   5   59.10    5.26
  -1  -6   5   59.87    7.70
   1  -6   5   60.34    7.22
  -1  -6  -6   59.87    8.34
   1  -6  -6   57.23    8.22
  -1  -6   6   60.95    4.92
  -1  -6   6   54.38    7.56
   1  -6   6   55.31    7.28
  -1  -6  -7   28.14    5.88
   1  -6  -7   30.41    6.20
  -1  -6   7   29.49    5.54
   1  -6   7   31.00    5.37
  -1  -6  -8   -1.92    2.70
   1  -6  -8    1.10    2.10
  -1  -6  -9    2.67    2.34
   1  -6  -9    2.90    2.05
  -1  -6 -10    7.82    3.31
   1  -6 -10    6.92    3.37
   1  -6 -10   12.35    3.03
  -1  -6 -11    8.70    3.62
   1  -6 -11    7.50    3.58
   1  -6 -11   13.84    2.80
  -1  -6 -12   13.02    4.47
   1  -6 -12   18.74    5.67
  -1  -6 -13   10.03    4.12
   1  -6 -13   10.20    3.79
  -1  -6 -14    2.24    2.26
   1  -6 -14    4.17    2.66
  -1  -6 -15    1.15    2.07
   1  -6 -15    6.35    4.00
  -1  -6 -16    0.51    2.79
   1  -6 -16    1.53    2.15
  -1  -6 -17    2.67    2.14
   1  -6 -17   -1.14    2.94
  -1  -6 -18    1.83    2.38
   1  -6 -18    0.25    2.39
  -1  -6 -19    2.06    2.45
   1  -6 -19    1.20    1.63
  -1  -6 -20   -0.12    1.96
   1  -6 -20    1.42    2.39
  -1  -6 -21    2.39    2.46
   1  -6 -21    2.23    2.50
  -1  -6 -22    7.50    4.51
   1  -6 -22    8.69    4.02
  -2  -6   0   16.79    3.69
   2  -6   0   23.89    4.70
  -2  -6   1  247.89   15.62
   2  -6   1  245.76   13.76
  -2  -6  -1  247.23   15.78
   2  -6  -1  252.77   14.84
   2  -6  -1  249.46   14.04
  -2  -6   2  114.78   10.90
   2  -6   2  106.40    9.00
  -2  -6  -2  117.85   11.13
   2  -6  -2  104.38    9.79
  -2  -6   3  224.37   15.51
   2  -6   3  208.48   12.70
  -2  -6  -3  211.93   10.73
   2  -6  -3  213.41   14.42
  -2  -6  -3  249.46   16.08
   2  -6   4  305.85   15.80
  -2  -6  -4  293.14   11.97
  -2  -6   4  304.80   13.17
   2  -6  -4  310.84   17.60
  -2  -6  -4  309.18   18.39
  -2  -6   4  312.90   18.12
  -2  -6   5   27.88    3.72
   2  -6  -5   24.70    5.16
  -2  -6   5   31.37    5.83
   2  -6   5   28.19    5.17
  -2  -6   6    6.30    1.86
   2  -6  -6    7.01    3.44
  -2  -6   6    4.51    2.76
   2  -6   6    5.62    2.45
  -2  -6   7  271.81    9.74
   2  -6  -7  263.95   17.70
  -2  -6   7  270.18   17.60
   2  -6   7  269.51   15.67
   2  -6  -8  166.00   14.67
  -2  -6   8  166.01    6.43
   2  -6   8  165.73   12.49
  -2  -6   8  170.80   14.09
   2  -6  -9  304.81   19.94
   2  -6 -10   29.46    6.80
   2  -6 -11   61.13    9.53
   2  -6 -11   60.62    6.38
   2   6 -11   59.60    9.48
  -2  -6 -12   13.54    4.79
   2   6 -12   18.25    6.13
   2  -6 -12   13.04    5.22
   2  -6 -12   13.12    2.94
  -2  -6 -13  390.27   24.98
   2  -6 -13  376.59   24.39
   2   6 -13  409.22   24.83
  -2  -6 -14   32.43    7.66
   2  -6 -14   33.74    8.23
   2   6 -14   39.26    8.35
  -2  -6 -15   96.55   12.96
   2  -6 -15   86.88   12.30
   2   6 -15   92.10   12.47
  -2  -6 -16    5.92    3.62
   2  -6 -16    8.60    4.17
   2   6 -16    8.93    4.68
  -2  -6 -17   57.54   10.52
   2  -6 -17   52.32    9.91
   2   6 -17   50.87    9.92
  -2  -6 -18    8.53    4.70
   2  -6 -18    8.92    4.54
  -2  -6 -19  127.86   15.99
   2  -6 -19  128.39   16.22
  -2  -6 -20   11.91    5.28
   2  -6 -20   11.68    5.22
  -2  -6 -21    9.88    4.74
   2  -6 -21   10.85    5.15
  -2  -6 -22   19.59    6.56
   2  -6 -22   16.28    5.65
   3  -6   0    5.48    3.07
  -3  -6   0   -7.66    4.80
  -3  -6   1   59.12    7.67
  -3  -6  -1   65.46    8.52
   3  -6   1   66.51    6.94
  -3  -6   2   71.94    8.52
   3  -6   2   66.01    6.73
  -3  -6  -2   63.47    6.00
  -3  -6  -2   78.93    9.46
  -3  -6   3   60.57    8.43
   3  -6   3   51.72    5.76
  -3  -6  -3   55.84    5.30
  -3  -6  -3   72.15    9.72
  -3  -6   4    8.79    3.38
   3  -6   4   11.80    2.97
   3  -6  -5   46.36    7.18
  -3  -6   5   52.37    7.52
   3  -6   5   53.82    6.54
   3  -6  -6   11.19    3.55
  -3  -6   6    7.45    2.45
   3  -6   6   11.32    3.02
   3   6  -6   12.83    4.40
   3  -6  -7   61.19    8.68
  -3  -6   7   64.77    8.69
   3  -6   7   70.68    7.55
   3   6  -7   65.87    8.99
   3   6  -8   20.78    5.65
  -3  -6   8   18.97    2.57
   3  -6  -8   15.84    4.70
  -3  -6   8   14.23    4.19
   3  -6   8   16.52    3.89
   3   6  -9   24.44    5.92
   3  -6  -9   22.17    5.60
   3   6 -10   30.06    6.74
   3  -6 -10   29.55    6.41
   3  -6 -11   47.25    8.47
   3   6 -11   47.13    8.48
   3  -6 -11   52.23    6.38
   3  -6 -12    9.01    3.06
   3   6 -12    8.73    4.40
   3  -6 -12    9.68    4.55
   3  -6 -13  108.13   13.20
   3  -6 -13  115.30    9.32
   3   6 -13  116.00   13.61
   3   6 -14   13.74    5.39
   3  -6 -14   12.87    4.87
   3  -6 -15   45.44    9.13
   3   6 -15   51.82    9.65
   3   6 -16   21.94    6.54
  -3  -6 -16   23.43    6.67
   3  -6 -16   20.49    6.31
   3   6 -17    4.24    3.97
  -3  -6 -17    8.05    4.32
   3  -6 -17    6.26    3.88
   3   6 -18   17.95    6.60
  -3  -6 -18   19.25    6.19
   3  -6 -18   19.80    6.22
   3   6 -19   35.11    8.76
  -3  -6 -19   39.59    9.16
   3  -6 -19   32.83    8.45
   3   6 -20    5.19    3.61
  -3  -6 -20    5.03    4.10
   3  -6 -20    0.61    2.17
   3   6 -21    8.97    5.11
  -3  -6 -21   10.25    5.11
   3  -6 -21    4.96    2.70
  -4  -6   0   96.20   10.05
  -4  -6   1   68.28    8.07
  -4  -6  -1   75.11    9.09
   4  -6   1   83.43    7.48
  -4  -6   2   14.62    3.45
  -4  -6  -2   10.91    4.24
   4  -6   2   16.49    3.76
  -4  -6   3   61.80    8.54
   4  -6   3   57.42    6.01
  -4  -6  -3   63.10    9.12
   4   6  -3   56.31    7.42
  -4  -6   4    3.37    2.65
   4   6  -4    6.10    3.13
   4  -6   5  148.33   10.00
  -4  -6  -5  164.61   14.60
  -4  -6   5  141.20   12.95
   4   6  -5  147.82   12.34
  -4  -6   6  107.45   11.40
   4  -6   6  108.28    8.73
   4   6  -6  105.17   10.80
   4   6  -7   10.51    3.67
  -4  -6   7    8.18    2.77
   4  -6   7   12.19    3.13
   4   6  -8   24.03    5.84
  -4  -6   8   21.64    4.79
   4  -6   8   21.04    4.02
   4   6  -9   84.34   10.54
   4   6 -10   47.96    8.25
   4  -6 -11  213.32   13.55
   4   6 -11  222.23   17.94
   4  -6 -12   20.97    4.56
   4   6 -12   29.97    7.34
   4   6 -13   14.36    5.46
   4  -6 -13   15.21    3.76
   4  -6 -14   63.11    7.53
   4   6 -14   69.20   10.94
   4   6 -15  251.35   21.07
   4   6 -16   17.18    5.94
   4   6 -17   47.46    9.83
   4   6 -18    7.20    4.27
   4   6 -19   11.09    5.08
  -4  -6 -19    8.07    4.69
  -4  -6 -20  102.76   14.98
   4   6 -20   96.48   14.54
  -4  -6 -21   42.01    9.83
   4   6 -21   43.18   10.08
  -5  -6   0   24.31    4.96
   5   6   0   46.15    5.91
  -5  -6  -1   34.31    5.86
  -5  -6   1   29.55    4.91
   5   6  -1   44.21    6.04
  -5  -6   2   38.38    5.94
   5  -6   2   42.18    5.00
  -5  -6  -2   34.28    6.76
   5   6  -2   32.99    5.43
   5   6  -3   16.01    4.14
  -5  -6   3   20.92    5.34
   5  -6   3   21.51    3.63
  -5  -6  -3   32.41    7.12
   5  -6   4   73.94    6.46
  -5  -6  -4   91.39   11.23
  -5  -6   4   74.78    9.57
   5   6  -4   73.98    8.78
   5   6  -5    7.35    3.47
  -5  -6   5    5.67    3.45
   5   6  -6    4.93    2.91
   5  -6   6    6.34    2.39
  -5  -6   6   -0.30    2.08
  -5  -6   7   55.72    8.39
   5  -6   7   56.72    6.10
   5   6  -7   55.41    8.27
   5   6  -8   25.97    6.07
  -5  -6   8   19.21    5.13
   5  -6   8   19.59    3.75
   5   6  -9   20.23    5.45
   5  -6   9   16.64    3.28
  -5  -6   9   15.56    4.83
   5   6 -10    3.59    3.27
   5   6 -11    9.10    4.37
   5  -6 -12   51.61    7.55
   5   6 -12   49.11    8.72
   5  -6 -13   13.01    3.88
   5   6 -13    9.69    4.53
   5   6 -14    6.94    4.31
   5  -6 -14    6.02    2.82
   5   6 -15   25.72    7.02
   5   6 -16   22.77    6.86
   5   6 -17    7.90    4.22
   5   6 -18    2.43    2.64
   5   6 -19    2.90    4.11
   5   6 -20    4.68    4.00
   6   6   0    4.73    2.48
  -6  -6   0  -13.47    4.74
  -6  -6  -1   37.77    6.68
  -6  -6   1   31.52    5.41
   6   6   1   43.69    5.51
   6   6  -1   45.01    6.19
  -6  -6   2  169.50   14.61
  -6  -6  -2  163.51   14.40
   6   6  -2  158.47   11.97
   6   6  -3    3.38    2.24
  -6  -6   3    6.53    4.10
  -6  -6  -3    9.15    5.62
   6  -6   3   11.97    3.15
   6  -6   4  101.16    6.69
  -6  -6  -4  116.65   12.79
  -6  -6   4   93.81   10.96
   6   6  -4   90.84    9.76
   6   6  -5   25.20    5.45
   6  -6   5   28.76    3.62
  -6  -6   5   28.28    6.41
   6   6  -6    2.41    2.61
   6  -6   6   -2.70    2.00
  -6  -6   6    0.19    2.14
  -6  -6   7   45.53    7.92
   6  -6   7   43.11    4.90
   6   6  -7   45.04    7.96
  -6  -6   8  210.06   17.19
   6  -6   8  213.93   11.38
   6   6  -8  199.54   16.29
   6   6  -9   21.01    5.81
  -6  -6   9   21.55    5.29
   6   6 -10    4.14    2.83
   6   6 -11   21.65    6.00
   6  -6 -12   85.85    9.87
   6   6 -12   83.64   11.57
   6  -6 -13   12.14    4.28
   6   6 -13    6.74    4.13
   6   6 -14    2.13    2.58
   6  -6 -14    0.33    1.42
   6   6 -15    3.48    3.10
   6  -6 -15    4.27    2.28
   6   6 -16    0.25    1.90
   6   6 -17   22.23    7.19
   6   6 -18  117.00   15.51
   6   6 -19   15.29    6.18
   6   6 -20   -2.22    3.05
   7   6   0    2.68    1.68
  -7  -6   0   -2.62    3.64
   7   6   1    9.88    2.84
   7   6  -1    8.77    2.81
  -7  -6  -1    5.30    3.12
  -7  -6   1    5.03    2.25
   7   6   2   12.13    2.96
   7   6  -2   10.30    3.20
  -7  -6   2    7.15    2.56
  -7  -6  -2   13.71    5.00
   7   6   3    4.36    1.78
   7   6  -3    3.31    2.24
  -7  -6   3    5.01    3.81
  -7  -6  -3    8.77    5.04
  -7  -6   4   10.18    3.73
  -7  -6  -4   18.41    6.70
   7   6  -4    6.36    2.78
  -7  -6   5   21.16    5.79
   7   6  -5   24.13    5.44
   7   6  -6    2.57    2.22
  -7  -6   6    2.06    2.65
   7   6  -7    3.61    2.70
  -7  -6   7    2.06    2.39
   7   6  -8    2.51    2.00
  -7  -6   8    1.85    2.88
   7   6  -9    2.82    2.21
  -7  -6   9   -1.49    3.21
   7   6 -10    5.83    3.40
  -7  -6  10    5.26    3.08
   7   6 -11   11.54    4.69
   7  -6 -12   14.53    4.84
   7   6 -12    3.57    3.17
   7  -6 -13   23.44    5.75
   7   6 -13   21.23    6.23
   7   6 -14    5.11    3.48
   7  -6 -14    8.20    3.61
   7   6 -15    1.60    2.58
   7  -6 -15    2.28    2.18
   7   6 -16   -0.21    2.52
   7  -6 -16   -1.43    2.71
   7   6 -17    1.06    3.11
   7   6 -18    4.39    3.95
   7   6 -19    8.89    5.63
   8   6   0   51.02    6.61
  -8  -6   0   30.94    6.38
   8   6  -1   50.63    6.95
  -8  -6  -1   50.28    8.23
  -8  -6   1   39.43    6.63
   8   6   1   50.73    6.29
   8   6  -2   42.95    6.71
  -8  -6   2   32.16    6.12
  -8  -6  -2   44.20    7.85
   8   6   2   44.66    5.57
   8   6  -3   29.78    5.76
  -8  -6   3   26.86    6.28
  -8  -6  -3   36.96    7.64
  -8  -6   4   17.66    5.66
  -8  -6  -4   22.57    7.49
   8   6  -4   13.94    4.50
   8   6  -5  113.06   11.85
  -8  -6  -5  145.92   14.88
  -8  -6   5  126.56   13.60
   8   6  -6   98.67   11.44
  -8  -6   6   89.77   11.71
   8   6  -7   23.77    6.01
  -8  -6   7   12.28    4.58
   8   6  -8   30.81    6.84
  -8  -6   8   29.55    6.52
   8   6  -9   48.97    8.90
  -8  -6   9   49.32    8.84
   8   6 -10   13.87    5.01
  -8  -6  10    7.35    3.78
   8   6 -11   77.62   11.44
  -8  -6  11   76.58   11.43
   8   6 -12   42.72    8.81
   8  -6 -12   49.39    8.47
   8  -6 -13    2.99    3.05
   8   6 -13    6.16    3.35
   8   6 -14   35.00    8.36
   8  -6 -14   43.11    7.76
   8   6 -15   65.97   11.62
   8  -6 -15   58.47    9.05
   8   6 -16   12.60    5.78
   8  -6 -16    9.01    3.76
   8   6 -17   19.35    6.71
   8   6 -18   30.12    8.47
   8   6 -19   12.99    5.87
   9   6   0   47.49    6.61
  -9  -6   0   47.16    8.27
   9   6   1   32.29    5.21
   9   6  -1   32.74    5.78
  -9  -6  -1   26.26    6.37
  -9  -6   1   24.62    5.77
   9   6  -2    1.79    1.84
  -9  -6   2   -3.39    4.66
  -9  -6  -2    2.40    2.95
   9   6  -3    3.13    2.39
  -9  -6   3    7.19    2.96
  -9  -6  -3    5.31    4.28
  -9  -6   4   11.73    4.81
   9   6  -4    5.79    2.68
  -9  -6   5    3.66    3.12
   9   6  -5    3.90    2.23
  -9  -6   6    0.97    1.81
   9   6  -6    0.61    1.89
   9   6  -7   32.74    6.92
  -9  -6   7   31.10    7.45
   9   6  -8   25.71    6.42
  -9  -6   8   31.87    7.59
   9   6  -9    1.56    2.47
  -9  -6   9    2.99    3.11
   9   6 -10    9.88    4.29
  -9  -6  10   12.76    4.84
   9   6 -11   -2.09    2.66
  -9  -6  11   -2.48    3.40
   9  -6 -12    8.36    4.29
   9   6 -12    2.61    2.48
  -9  -6  12    0.35    2.85
   9  -6 -13   13.67    5.15
   9   6 -13   10.97    4.88
   9   6 -14    2.47    3.16
   9  -6 -14    3.94    3.37
   9   6 -15   28.97    7.83
   9  -6 -15   32.95    7.10
   9   6 -16   15.37    6.02
   9  -6 -16   13.23    4.79
   9   6 -17    5.91    4.17
   9  -6 -17    2.01    1.80
   9   6 -18   10.36    5.19
  10   6   0   65.32    7.91
 -10  -6   0   54.10    9.46
  10   6  -1   54.18    7.70
 -10  -6  -1   50.09    8.93
 -10  -6   1   44.83    8.05
  10   6  -2   25.16    5.43
 -10  -6   2   14.20    4.02
 -10  -6  -2   19.76    5.98
  10   6  -3    2.41    1.92
 -10  -6  -3    2.57    3.40
  10   6  -4   32.03    6.41
 -10  -6   4   37.93    8.19
 -10  -6  -4   43.94    9.27
 -10  -6   5   64.78   10.47
  10   6  -5   61.08    9.11
 -10  -6  -5   83.48   12.16
 -10  -6   6   23.57    6.86
  10   6  -6   20.49    5.45
  10   6  -7    8.77    3.91
 -10  -6   7   10.30    4.84
  10   6  -8   37.64    7.86
 -10  -6   8   45.39    9.22
  10   6  -9   40.82    8.11
 -10  -6   9   35.75    7.82
  10   6 -10   23.01    6.50
 -10  -6  10   22.58    6.70
  10  -6 -11   39.63    8.49
  10   6 -11   33.18    7.85
 -10  -6  11   29.78    7.45
  10  -6 -12   28.77    7.36
  10   6 -12   26.92    7.34
 -10  -6  12   18.99    5.94
  10  -6 -13   30.12    7.39
  10   6 -13   32.46    8.24
 -10  -6  13   29.83    7.75
  10   6 -14   48.06   10.06
  10  -6 -14   37.40    8.01
  10   6 -15   72.22   12.64
  10  -6 -15   76.58   11.49
  10   6 -16   31.22    8.60
  10  -6 -16   24.47    6.73
  10   6 -17   33.02    9.27
  10  -6 -17   24.35    6.52
 -11  -6   0   -1.87    2.56
 -11  -6   1   -2.32    3.76
  11   6  -1    4.23    2.38
 -11  -6  -1    3.96    3.73
  11   6  -2   46.12    7.48
 -11  -6  -2   51.14    9.64
 -11  -6   2   41.53    8.22
  11   6  -3   -1.29    1.81
 -11  -6   3   -8.12    5.51
  11   6  -4    2.16    1.57
 -11  -6   4    4.42    2.69
 -11  -6   5    6.84    3.78
  11   6  -5    5.01    2.98
 -11  -6   6   22.19    6.59
  11   6  -6   18.77    5.34
 -11  -6   7    9.10    4.68
  11   6  -7    1.88    2.58
  11   6  -8   21.23    5.96
 -11  -6   8   18.59    5.90
  11   6  -9    5.02    3.76
 -11  -6   9    3.76    3.17
  11   6 -10   25.15    6.88
 -11  -6  10   27.35    7.38
  11   6 -11   -0.23    2.05
 -11  -6  11    1.74    2.41
  11  -6 -12    8.08    4.63
  11   6 -12   -0.12    2.57
 -11  -6  12    0.14    3.36
  11  -6 -13   11.21    4.86
  11   6 -13    8.29    4.39
 -11  -6  13    7.99    3.63
  11   6 -14   10.83    4.91
 -11  -6  14   11.77    5.36
  11  -6 -14   12.42    5.34
  11   6 -15    5.24    3.99
  11  -6 -15    6.82    3.84
  11   6 -16    1.83    3.34
  11  -6 -16    2.20    2.91
  11  -6 -17   -2.04    2.97
  11  -6 -18   -3.96    3.51
 -12  -6   0   -5.08    3.96
 -12  -6   1    7.90    2.80
 -12  -6  -1   20.88    6.31
  12   6  -2   83.26   10.41
 -12  -6   2   70.06   10.87
 -12  -6  -2   79.25   12.26
  12   6  -3   78.91   10.41
 -12  -6   3   70.80   11.23
 -12  -6  -3   93.54   13.11
  12   6  -4   60.37    9.43
 -12  -6  -4   69.84   11.74
 -12  -6   4   50.63    9.31
 -12  -6   5   30.82    7.65
  12   6  -5   24.66    6.08
 -12  -6  -5   36.71    9.26
 -12  -6   6   20.46    6.46
  12   6  -6   15.72    5.43
  12   6  -7   92.22   12.54
 -12  -6   7   95.64   13.61
  12   6  -8   85.42   12.22
 -12  -6   8   85.74   12.80
  12   6  -9   14.96    5.39
 -12  -6   9    9.15    4.47
  12   6 -10   32.44    8.04
 -12  -6  10   34.77    8.49
  12  -6 -11   31.33    8.52
  12   6 -11   27.83    7.45
 -12  -6  11   23.76    7.05
  12  -6 -12   11.31    5.86
  12   6 -12    3.97    3.56
 -12  -6  12    3.84    3.25
  12   6 -13   47.30   10.19
 -12  -6  13   47.51   10.19
  12  -6 -13   56.15   10.61
  12   6 -14   44.71    9.83
  12  -6 -14   39.07    8.94
  12  -6 -15    5.69    4.25
  12  -6 -16   14.88    5.55
  12  -6 -17   21.53    6.65
 -13  -6   0    0.28    2.82
 -13  -6   1    2.76    2.15
 -13  -6  -1    7.89    4.31
 -13  -6   2    1.59    2.47
 -13  -6  -2   11.51    5.91
 -13  -6  -3   19.59    7.01
 -13  -6   3    0.51    3.31
  13   6  -4   -1.31    2.55
 -13  -6   4   -6.64    5.17
  13   6  -5   -1.22    2.26
 -13  -6   5   -3.27    4.03
 -13  -6   6    7.41    4.59
  13   6  -6    0.55    1.67
 -13  -6   7    8.48    5.05
  13   6  -7   -0.30    1.74
 -13  -6   8    3.26    3.79
  13   6  -8    0.05    2.11
 -13  -6   9    6.07    4.24
  13   6  -9    2.54    2.01
  13   6 -10    7.32    3.94
 -13  -6  10    5.00    3.73
  13  -6 -11   16.05    6.57
  13   6 -11    7.07    4.10
  13  -6 -12    6.81    4.63
  13   6 -12   -0.34    2.57
  13  -6 -13   12.06    5.58
  13   6 -13    4.25    3.38
  13  -6 -14    7.38    4.35
 -14  -6   0  132.73   16.08
 -14  -6  -1   31.77    8.26
 -14  -6   1   26.18    7.40
 -14  -6   2   18.30    5.53
 -14  -6  -2   25.27    7.41
 -14  -6  -3   30.61    8.39
 -14  -6   3   14.82    4.83
 -14  -6  -4   57.42   11.17
 -14  -6   4   40.63    8.81
  14   6  -5    3.30    2.90
 -14  -6   5   -6.34    5.02
 -14  -6   6   72.35   12.18
  14   6  -6   71.07   11.29
 -14  -6   7   18.57    6.70
  14   6  -7   13.63    5.38
 -14  -6   8    5.84    4.00
  14   6  -8    8.24    4.37
  14   6  -9   14.96    5.59
  14   6 -10   51.89   10.41
  14  -6 -10   67.49   11.94
  14   6 -11   10.15    4.90
 -15  -6   0   25.26    7.54
 -15  -6  -1   35.17    8.81
 -15  -6   1   19.73    6.70
 -15  -6  -2   22.08    7.31
 -15  -6   2   11.42    5.01
 -15  -6   3   -4.56    4.33
 -15  -6  -3   15.38    6.75
 -15  -6  -4   41.39    9.73
 -15  -6   4    7.49    3.46
  15   6  -7    0.41    1.59
  15   6  -8    0.92    2.15
  15   6  -9    1.52    2.60
  15   6 -10   10.95    5.34
   0  -7   0   12.99    4.35
   0  -7   0    0.12    2.52
   0  -7   1  711.81   27.63
   0  -7  -1  734.75   26.78
   0  -7   1  747.59   25.17
   0  -7  -1  701.64   27.43
   0  -7  -2    1.31    2.65
   0  -7   2    1.72    1.94
   0  -7   3   27.24    4.66
   0  -7  -3   25.39    5.49
   0  -7   4    3.07    2.79
   0  -7  -4    1.72    2.31
   0  -7   5  230.79   16.21
   0  -7  -5  228.69   16.79
   0  -7   6    5.49    3.57
   0  -7  -6    5.01    3.70
   0  -7  -7  395.40   22.98
   0  -7   7  387.55   21.44
   0  -7  -8    4.03    3.35
   0  -7   8    2.01    2.86
   0  -7  -9   99.37   12.00
   0  -7   9   94.07   10.88
   0  -7 -10    1.19    2.16
   0  -7  10    0.70    1.70
   0  -7 -11    9.28    3.87
   0  -7 -12    1.44    1.91
   0  -7 -13   23.03    6.49
   0  -7 -14    0.14    1.87
   0  -7 -15   18.85    6.20
   0  -7 -16    2.98    2.33
   0  -7 -17    0.54    2.07
   0  -7 -18   -3.92    3.60
   0  -7 -19    8.62    4.24
  -1  -7   0   32.86    5.55
   1  -7   0   35.44    5.83
   1  -7   0   40.08    6.87
  -1  -7   0   31.84    6.29
  -1  -7   1   -2.13    3.29
  -1  -7  -1    6.90    4.29
  -1  -7  -1    1.93    2.02
  -1  -7   1    1.54    1.66
   1  -7   1    0.59    1.76
   1  -7  -1    0.60    1.49
   1  -7   1    1.71    2.04
  -1  -7   2   63.00    8.45
  -1  -7  -2   69.81    8.65
   1  -7   2   61.18    7.75
  -1  -7   2   69.01    7.45
   1  -7  -2   65.67    8.49
  -1  -7  -2   90.48   10.76
   1  -7  -2   81.75   10.35
  -1  -7   3  151.15   13.11
   1  -7   3  161.41   12.82
  -1  -7  -3  157.24   13.36
  -1  -7   3  164.00   10.98
   1  -7  -3  155.10   13.31
  -1  -7  -3  173.12   14.67
  -1  -7   4   77.42   10.01
   1  -7   4   55.61    7.54
  -1  -7  -4   69.58    9.14
  -1  -7   4   68.13    6.76
   1  -7  -4   59.46    8.52
   1  -7   5   29.66    6.10
  -1  -7   5   28.43    6.04
  -1  -7   5   30.94    4.37
  -1  -7  -5   31.44    6.46
   1  -7  -5   25.58    5.79
  -1  -7  -6  118.92   12.57
   1  -7  -6  126.32   12.88
  -1  -7   6  125.61   12.60
   1  -7   6  137.38   12.20
  -1  -7  -7   48.48    8.30
   1  -7  -7   52.33    8.54
  -1  -7   7   52.63    8.18
   1  -7   7   55.06    7.91
  -1  -7  -8    2.70    2.39
   1  -7  -8    2.96    2.86
  -1  -7   8    2.68    2.56
   1  -7   8    3.87    2.58
  -1  -7  -9   46.37    8.56
   1  -7  -9   45.54    8.46
  -1  -7   9   42.89    7.64
   1  -7   9   46.73    7.45
  -1  -7 -10   68.65   10.40
   1  -7 -10   72.99   10.59
  -1  -7  10   70.39    9.75
   1  -7  10   74.83    9.74
  -1  -7 -11    2.06    2.04
   1  -7 -11    4.72    3.23
  -1  -7 -12   14.66    5.04
   1  -7 -12   17.66    5.44
  -1  -7 -13   14.86    5.16
   1  -7 -13   20.60    6.09
  -1  -7 -14    8.86    4.38
   1  -7 -14    7.47    3.77
  -1  -7 -15    5.30    2.94
   1  -7 -15    6.88    3.70
  -1  -7 -16   32.74    8.31
   1  -7 -16   28.19    7.47
  -1  -7 -17   13.38    5.33
   1  -7 -17   16.76    6.21
  -1  -7 -18    1.18    2.67
   1  -7 -18    3.20    2.56
  -1  -7 -19   13.36    5.67
   1  -7 -19   15.41    6.14
  -2  -7   0    1.77    1.65
  -2  -7   0   -1.39    2.60
   2  -7   1   15.25    4.02
  -2  -7   1   11.95    3.79
  -2  -7  -1   13.21    3.79
  -2  -7   1   13.84    3.67
   2  -7  -1   28.83    6.43
  -2  -7  -1   24.69    6.07
  -2  -7  -2   17.08    4.19
  -2  -7   2   23.17    4.33
   2  -7   2   17.79    3.77
  -2  -7  -2   28.94    7.18
  -2  -7   2   13.21    3.02
   2  -7  -2   20.51    4.89
  -2  -7   3  184.25   14.81
  -2  -7  -3  187.06   14.62
   2  -7   3  174.84   12.82
  -2  -7   3  188.71   11.93
   2  -7  -3  182.01   14.46
  -2  -7  -3  193.57   15.83
  -2  -7  -4    5.17    2.74
  -2  -7   4   10.74    4.89
  -2  -7   4    5.55    2.21
   2  -7  -4    2.52    2.19
   2  -7   5   90.60    9.58
  -2  -7  -5   80.15   10.11
  -2  -7   5   89.10    7.29
   2  -7  -5   81.19   10.16
  -2  -7   5   92.43   10.87
  -2  -7  -6   93.86   11.11
   2  -7  -6   95.05   11.22
  -2  -7   6   97.76   11.47
   2  -7   6  100.71   10.26
  -2  -7  -7    1.13    2.08
   2  -7  -7    0.55    2.09
  -2  -7   7    1.18    2.17
   2  -7   7    1.82    2.17
  -2  -7  -8   97.42   11.87
   2  -7  -8   93.83   11.77
  -2  -7   8   98.25   11.40
   2  -7   8   98.73   10.33
  -2  -7  -9   37.09    7.70
   2  -7  -9   31.79    7.01
  -2  -7   9   43.59    7.91
   2  -7   9   39.60    6.67
  -2  -7 -10   36.89    7.83
  -2  -7  10   37.25    7.41
   2  -7 -10   31.75    7.25
   2  -7  10   34.44    6.44
  -2  -7 -11   39.54    8.26
   2  -7 -11   42.17    8.20
  -2  -7 -12   50.80    9.30
   2  -7 -12   42.19    8.35
  -2  -7 -13   12.77    4.88
   2  -7 -13   13.94    5.06
  -2  -7 -14   58.06   10.50
   2  -7 -14   58.23   10.41
  -2  -7 -15    2.61    2.41
   2  -7 -15   -1.74    2.90
  -2  -7 -16    7.33    4.07
   2  -7 -16   13.21    5.45
  -2  -7 -17    5.29    4.33
   2  -7 -17    1.00    2.14
  -2  -7 -18   16.07    6.22
   2  -7 -18   14.46    5.84
  -2  -7 -19    8.39    4.78
   2  -7 -19    7.01    4.88
  -3  -7   0  116.40   11.88
   3  -7   0  129.45   10.91
  -3  -7   1  166.41   14.15
  -3  -7  -1  174.36   14.85
   3  -7   1  187.10   12.58
   3  -7   2   47.42    6.45
  -3  -7  -2   52.68    8.34
  -3  -7   2   34.11    5.41
  -3  -7   3   73.63    8.87
   3  -7   3   83.27    8.43
  -3  -7  -3   86.99   11.05
  -3  -7   4   95.76   11.33
   3  -7   4   88.61    8.69
  -3  -7  -4   95.21   12.11
  -3  -7   5   21.45    5.60
  -3  -7   5   20.15    3.65
   3  -7   5   14.65    3.05
   3  -7   6   45.35    6.63
   3  -7  -6   35.30    6.85
  -3  -7   6   43.20    7.66
   3  -7  -7   22.56    5.75
  -3  -7   7   21.95    5.52
   3  -7   7   29.25    5.38
   3  -7  -8    7.81    3.89
  -3  -7   8    6.32    3.01
   3  -7   8   11.59    3.63
   3  -7  -9   78.12   11.02
  -3  -7   9   80.69   10.83
   3  -7   9   76.51    8.99
  -3  -7  10   24.62    6.12
   3  -7  10   25.09    5.31
   3  -7 -10   22.96    6.31
   3  -7 -11   -0.45    1.89
   3  -7  11    1.60    2.12
  -3  -7  11   -3.63    3.65
   3  -7 -12   12.88    5.11
  -3  -7 -13   43.89    8.93
   3  -7 -13   46.95    9.32
  -3  -7 -14   14.52    5.59
   3  -7 -14   14.50    5.33
  -3  -7 -15   12.96    5.36
   3  -7 -15    9.25    4.31
  -3  -7 -16   47.14    9.96
   3  -7 -16   37.91    8.79
  -3  -7 -17   23.02    7.33
   3  -7 -17   21.08    6.71
  -3  -7 -18    5.39    3.87
   3  -7 -18    2.34    3.38
  -3  -7 -19   28.53    8.11
   3  -7 -19   29.06    7.99
  -4  -7   0   16.56    4.13
  -4  -7  -1    6.72    3.37
  -4  -7   1    0.87    3.28
  -4  -7  -2   10.52    4.84
  -4  -7   2   -0.89    4.25
   4  -7   2   13.37    3.96
  -4  -7   3    1.98    3.18
   4  -7   3    8.94    3.07
   4  -7   4    0.89    1.29
  -4  -7   4    4.98    3.41
  -4  -7   5   16.18    4.90
   4  -7   5   13.24    2.61
  -4  -7   6   13.39    4.99
   4  -7   6   11.64    3.16
   4  -7   7    5.01    2.55
  -4  -7   7    3.17    2.55
  -4  -7   8   49.73    8.42
   4   7  -8   49.12    8.17
   4  -7   8   50.73    6.73
  -4  -7   9    2.57    2.11
   4  -7   9    5.37    2.40
   4   7  -9    5.70    3.52
  -4  -7  10   42.87    8.22
   4  -7  10   47.77    6.95
   4   7 -10   46.20    8.45
   4   7 -11   21.63    5.78
   4  -7  11   25.20    5.38
  -4  -7  11   21.65    5.99
   4   7 -12    8.02    4.08
   4   7 -13   34.58    8.08
   4   7 -14   10.41    4.75
   4   7 -15   10.51    5.26
   4   7 -16   16.09    6.22
  -4  -7 -16   11.05    5.01
  -4  -7 -17    8.08    4.99
   4   7 -17   12.25    5.73
  -4  -7 -18   32.42    8.89
   4   7 -18   26.96    7.78
   4   7 -19   25.19    8.19
  -5  -7   0   -2.00    3.69
  -5  -7  -1   38.80    7.39
  -5  -7   1   41.23    6.79
  -5  -7  -2   22.28    6.21
   5  -7   2   32.69    5.31
   5  -7   3    7.61    2.95
  -5  -7  -3   10.89    5.40
  -5  -7   4   24.14    6.63
  -5  -7  -4   36.37    8.55
   5  -7   4   21.36    3.94
  -5  -7   5   63.29    9.62
   5  -7   5   62.43    6.67
  -5  -7  -5   88.93   12.26
   5   7  -5   65.59    8.90
  -5  -7   6   26.55    6.40
   5   7  -6   32.72    6.49
  -5  -7   7   72.74   10.47
   5   7  -7   63.16    9.36
  -5  -7   8   53.89    9.16
   5   7  -8   51.99    8.64
  -5  -7   9   49.29    8.83
   5   7  -9   59.86    9.65
  -5  -7  10   84.10   11.84
   5   7 -10   89.00   12.04
  -5  -7  11   53.95    9.65
   5   7 -11   59.55    9.77
   5   7 -12   21.13    6.40
  -5  -7  12   16.11    5.29
   5   7 -13   17.41    6.16
   5   7 -14   13.08    5.19
   5   7 -15    4.20    3.56
   5   7 -16   37.82    8.96
   5   7 -17   37.06    9.19
   5   7 -18   31.17    8.48
  -6  -7   0   -7.11    4.44
  -6  -7  -1    8.56    4.45
  -6  -7   1    3.65    2.88
  -6  -7   2   65.47    9.44
  -6  -7  -2   78.75   11.03
   6   7  -2   68.70    8.30
   6   7  -3   22.25    5.08
  -6  -7  -3   30.59    7.59
  -6  -7   4   57.88    9.59
  -6  -7  -4   69.16   10.95
   6   7  -4   55.89    8.20
   6   7  -5   13.81    4.47
  -6  -7   5   17.05    5.50
  -6  -7   6    6.22    3.51
   6   7  -6    2.70    2.82
   6   7  -7   10.74    4.13
  -6  -7   7   11.40    4.46
  -6  -7   8   52.04    9.16
   6   7  -8   48.42    8.61
   6   7  -9    5.42    3.26
  -6  -7   9    6.80    3.75
   6   7 -10   25.21    6.44
  -6  -7  10   25.44    6.23
   6   7 -11    9.36    4.61
  -6  -7  11    7.17    3.88
   6  -7 -12   14.86    4.62
   6   7 -12   11.10    4.77
  -6  -7  12    5.18    2.77
   6   7 -13   23.71    6.98
   6   7 -14    7.27    4.47
   6   7 -15   15.02    5.59
   6   7 -16   14.41    6.65
   6   7 -17    6.92    4.24
   6   7 -18   34.81    9.09
  -7  -7   0   -3.78    4.47
   7   7   0    2.39    2.03
   7   7  -1    9.72    3.25
  -7  -7  -1    4.78    3.62
  -7  -7   1    4.56    2.31
  -7  -7   2   67.86   10.10
  -7  -7  -2   78.77   11.30
   7   7  -2   78.33    9.02
   7   7  -3    3.65    2.61
  -7  -7   3   -4.21    4.36
  -7  -7  -3    8.64    5.65
  -7  -7   4   68.01   10.65
  -7  -7  -4   80.67   11.73
   7   7  -4   62.60    8.66
   7   7  -5    7.12    3.17
  -7  -7   5   10.02    4.45
  -7  -7   6   18.05    5.67
   7   7  -6   21.75    5.71
   7   7  -7    9.78    4.34
  -7  -7   7    9.05    4.18
  -7  -7   8  171.37   16.79
   7   7  -8  157.71   15.32
   7   7  -9    1.91    3.09
  -7  -7   9   -0.92    2.79
   7   7 -10    0.25    1.97
  -7  -7  10    3.10    2.56
   7   7 -11    5.70    3.70
  -7  -7  11    4.49    3.24
   7  -7 -12  105.98   11.50
  -7  -7  12   96.80   13.44
   7   7 -12   95.40   13.03
   7  -7 -13    9.91    4.38
   7   7 -13    5.04    3.66
  -7  -7  13    0.92    2.20
   7   7 -14   21.18    6.82
   7   7 -15    3.15    3.44
   7   7 -16    2.88    3.12
   7   7 -17   16.00    6.31
  -8  -7   0   45.58    8.54
  -8  -7   1   31.82    7.20
  -8  -7  -1   34.00    7.16
   8   7  -1   38.41    6.32
  -8  -7  -2   26.38    7.11
   8   7  -2   23.57    5.01
  -8  -7   2   11.59    3.52
  -8  -7   3   19.57    4.69
  -8  -7  -3   29.33    7.59
   8   7  -3   30.79    6.13
   8   7  -4   21.39    5.35
  -8  -7   4   25.48    6.10
  -8  -7  -4   36.13    8.74
  -8  -7   5   41.55    8.48
  -8  -7  -5   57.69   10.81
   8   7  -5   42.18    7.54
  -8  -7   6   12.90    5.31
   8   7  -6    9.95    4.15
  -8  -7   7   33.60    8.02
   8   7  -7   25.59    6.36
   8   7  -8   25.05    6.39
  -8  -7   8   27.01    6.87
   8   7  -9    1.56    2.22
  -8  -7   9   -0.85    2.07
   8   7 -10   12.64    4.96
  -8  -7  10   15.92    5.74
   8   7 -11   31.61    7.50
  -8  -7  11   26.20    7.27
   8  -7 -12   28.91    6.70
   8   7 -12   21.31    6.50
  -8  -7  12   25.59    7.22
   8  -7 -13   10.63    4.42
   8   7 -13    7.86    4.37
  -8  -7  13    2.14    2.53
   8   7 -14    0.04    2.10
  -8  -7  14    0.89    2.35
   8   7 -15   -1.30    2.88
   8   7 -16    2.27    2.66
   8   7 -17    6.44    4.46
  -9  -7   0  120.11   14.24
  -9  -7   1   66.77   10.68
  -9  -7  -1   73.89   11.31
   9   7  -2    2.22    2.45
  -9  -7  -2    0.83    3.01
   9   7  -3   15.64    4.57
  -9  -7   3   -0.43    4.14
  -9  -7  -3   17.90    6.63
   9   7  -4    1.35    2.42
  -9  -7   4  -10.17    6.23
  -9  -7   5  125.41   15.02
  -9  -7  -5  161.31   16.60
   9   7  -5  129.98   13.42
  -9  -7   6   31.71    7.80
   9   7  -6   32.16    6.94
  -9  -7   7    2.26    2.12
   9   7  -7    3.29    2.55
  -9  -7   8    6.44    3.67
   9   7  -8    5.25    3.29
   9   7  -9   20.29    5.83
  -9  -7   9   24.48    6.96
   9   7 -10    6.35    3.83
  -9  -7  10    3.70    3.55
  -9  -7  11  108.88   14.75
   9   7 -11  104.31   13.97
   9   7 -12    2.94    3.49
  -9  -7  12    5.33    4.62
   9  -7 -13   12.68    4.87
   9   7 -13    7.73    4.23
  -9  -7  13    5.10    2.93
   9  -7 -14    2.49    2.78
   9   7 -14    2.38    3.01
  -9  -7  14    0.36    2.30
   9   7 -15   99.74   14.92
   9   7 -16    6.53    4.63
 -10  -7   0   18.14    5.96
 -10  -7   1   21.11    6.06
 -10  -7  -1   27.38    7.02
 -10  -7  -2   14.01    5.84
 -10  -7   2    3.99    2.54
  10   7  -3    4.90    2.35
 -10  -7   3   -4.61    5.12
  10   7  -4    4.58    2.66
 -10  -7   4    0.30    4.17
  10   7  -5    3.83    2.60
 -10  -7   5    3.65    2.20
  10   7  -6    1.77    2.28
 -10  -7   6    5.56    4.25
 -10  -7   7    4.34    3.31
  10   7  -7   -1.40    2.19
 -10  -7   8   16.37    5.70
  10   7  -8   10.19    4.49
  10   7  -9   11.92    4.92
 -10  -7   9   15.98    5.82
  10   7 -10   18.45    6.15
 -10  -7  10   16.83    5.59
  10   7 -11    9.71    4.35
 -10  -7  11   16.56    5.84
  10  -7 -12    5.16    3.90
  10   7 -12    4.87    3.48
 -10  -7  12    2.41    2.59
  10  -7 -13    5.57    3.49
  10   7 -13    4.48    3.70
  10  -7 -14   12.89    5.39
  10   7 -14    8.12    4.49
  10   7 -15    5.98    3.95
 -11  -7   0   -0.10    2.99
 -11  -7   1   -3.95    3.68
 -11  -7  -1    5.54    4.25
 -11  -7   2   12.09    4.23
 -11  -7  -2   23.56    7.30
 -11  -7  -3   73.65   12.42
 -11  -7   3   55.00   10.08
 -11  -7  -4   60.55   11.51
 -11  -7   4   26.73    6.71
  11   7  -5    3.28    2.53
 -11  -7   5   -4.12    4.84
  11   7  -6   25.11    6.54
 -11  -7   6   31.17    8.03
  11   7  -7   69.76   10.94
 -11  -7   7   76.27   12.39
  11   7  -8   71.53   11.32
 -11  -7   8   82.57   13.04
 -11  -7   9   14.46    5.60
  11   7  -9   25.26    7.03
  11   7 -10    4.39    3.82
 -11  -7  10    2.66    2.88
  11   7 -11    2.55    2.88
  11  -7 -12   28.45    7.51
  11   7 -12   25.44    7.47
  11  -7 -13   37.43    8.40
  11   7 -13   40.87    9.55
  11   7 -14   46.89   10.24
  11  -7 -14   52.68   10.02
  11  -7 -15   14.01    5.46
 -12  -7   0    8.96    4.60
 -12  -7  -1   24.44    7.32
 -12  -7   1   19.02    6.07
 -12  -7   2    8.51    3.60
 -12  -7  -2   19.27    6.89
 -12  -7  -3   14.31    5.97
 -12  -7   3    0.67    4.14
 -12  -7  -4   49.09   10.72
 -12  -7   4   12.09    3.98
 -12  -7   5   -6.70    5.11
 -12  -7  -5   32.02    9.20
  12   7  -6    1.69    2.08
 -12  -7   6   -3.40    3.57
  12   7  -7   13.04    5.03
 -12  -7   7   14.17    5.55
 -12  -7   8    8.67    4.80
  12   7  -8    6.77    4.00
  12   7  -9   31.36    7.88
  12   7 -10   15.34    5.96
  12  -7 -11   10.41    5.56
  12   7 -11    2.09    3.20
  12  -7 -12   19.89    6.97
  12   7 -12    7.33    4.61
  12  -7 -13   17.79    6.55
  12   7 -13   13.13    5.78
  12  -7 -14    6.68    4.34
  12  -7 -15   20.05    6.65
 -13  -7   0    9.62    4.92
 -13  -7  -1   17.06    6.63
 -13  -7   1   10.36    5.05
 -13  -7   2   13.27    5.24
 -13  -7  -2   31.46    8.43
 -13  -7   3    4.82    3.42
 -13  -7  -3   22.01    7.36
 -13  -7  -4   41.57    9.91
 -13  -7   4   17.11    6.03
  13   7  -8    6.12    3.80
  13   7  -9    8.80    4.62
  13   7 -10   40.17    9.20
  13   7 -11   11.78    5.54
  14   7 -10    3.11    3.62
   0  -8   0   78.09    9.13
   0  -8   0   90.65   10.86
   0  -8  -1    0.79    1.24
   0  -8   1    0.27    1.27
   0  -8   2   47.11    7.77
   0  -8  -2   44.02    7.36
   0  -8   2   48.34    6.62
   0  -8  -2   60.73    9.38
   0  -8   3   -3.78    3.18
   0  -8  -3   -1.44    2.30
   0  -8  -4   43.94    7.48
   0  -8   4   34.07    6.36
   0  -8   5   -5.45    4.22
   0  -8  -5   -1.07    2.48
   0  -8   6  100.45   11.72
   0  -8  -6   89.95   11.42
   0  -8   7   -0.32    1.50
   0  -8  -7    1.49    2.27
   0  -8   8    0.34    1.82
   0  -8  -8    3.13    2.67
   0  -8  -9   -1.17    2.52
   0  -8   9    1.78    2.39
   0  -8 -10   37.81    8.14
   0  -8  10   39.04    7.60
   0  -8 -11   -0.56    1.50
   0  -8  11    0.35    1.67
   0  -8 -12    9.87    4.67
   0  -8  12   10.64    4.30
   0  -8 -13   -3.85    3.80
   0  -8  13   -3.57    3.33
   0  -8 -14    4.76    3.67
   0  -8  14    2.26    1.90
   0  -8 -15    0.83    3.13
   0  -8 -16   35.53    8.84
   0  -8 -17   -1.11    2.13
  -1  -8   0   16.63    5.28
   1  -8   0   18.60    5.42
  -1  -8   0   10.77    3.47
   1  -8   0   14.40    3.97
  -1  -8  -1   10.99    5.25
   1  -8   1    9.21    3.91
  -1  -8  -1    4.04    2.34
  -1  -8   1    5.86    2.84
  -1  -8   1    5.25    3.26
   1  -8  -1    4.65    2.54
   1  -8  -1   14.90    5.96
  -1  -8   2   40.65    7.48
  -1  -8  -2   43.00    7.13
   1  -8   2   42.33    7.24
  -1  -8   2   43.16    6.42
   1  -8  -2   47.24    7.62
  -1  -8  -2   58.50    9.59
   1  -8   3   15.28    4.24
  -1  -8  -3   14.87    4.45
   1  -8  -3   13.59    4.41
  -1  -8   3   11.61    3.70
  -1  -8  -4    7.57    3.32
   1  -8  -4    9.46    3.87
  -1  -8   4    2.52    1.99
   1  -8   4    3.39    1.94
  -1  -8   5   10.22    3.28
  -1  -8  -5   10.95    3.81
   1  -8   5    6.75    2.62
   1  -8  -5   15.78    4.98
  -1  -8   6   54.08    8.64
   1  -8   6   45.68    7.59
  -1  -8  -6   43.88    8.04
   1  -8  -6   45.20    8.09
  -1  -8   7    1.82    2.29
   1  -8   7    4.26    2.96
  -1  -8  -7   -0.83    2.50
   1  -8  -7    2.08    2.36
  -1  -8   8    6.75    3.31
   1  -8   8    3.22    2.20
  -1  -8  -8    0.33    1.82
   1  -8  -8    5.09    3.09
  -1  -8  -9    2.47    2.38
   1  -8  -9    0.01    2.68
  -1  -8   9    3.14    3.12
   1  -8   9   -0.13    1.67
  -1  -8 -10    1.27    2.38
   1  -8 -10    0.33    1.81
  -1  -8  10   -0.29    1.81
   1  -8  10    0.64    2.39
  -1  -8 -11    8.89    4.22
   1  -8 -11    6.93    4.11
  -1  -8  11    3.75    2.26
   1  -8  11    5.36    2.34
  -1  -8 -12   -1.16    2.60
   1  -8 -12   -2.22    3.46
  -1  -8  12    2.95    2.44
   1  -8  12   -2.57    2.63
  -1  -8 -13    5.38    3.81
  -1  -8  13    1.32    1.91
   1  -8  13    2.82    2.26
   1  -8 -13    5.17    3.42
  -1  -8 -14   -0.24    2.42
   1  -8 -14   -0.80    3.00
  -1  -8  14   -2.21    2.90
   1  -8  14    1.30    1.50
  -1  -8 -15   -1.30    2.61
   1  -8 -15    1.30    2.58
  -1  -8 -16   -0.57    2.29
   1  -8 -16    0.76    1.84
  -1  -8 -17    0.78    1.55
   1  -8 -17    1.27    3.06
   2  -8   0   14.71    4.90
  -2  -8   0    7.54    2.95
  -2  -8   0   10.19    4.22
  -2  -8  -1    6.32    3.06
  -2  -8   1    5.95    2.50
  -2  -8   1    2.39    1.97
  -2  -8  -1   13.01    5.10
   2  -8   1    5.96    3.70
   2  -8   2    2.48    2.35
  -2  -8   2    0.02    2.95
  -2  -8  -2    6.14    3.18
  -2  -8   2    6.31    2.55
  -2  -8   3  140.05   14.22
  -2  -8  -3  137.56   13.38
   2  -8   3  139.48   12.51
  -2  -8  -3  155.48   14.91
   2  -8   4   37.33    6.42
  -2  -8  -4   44.54    7.90
   2  -8  -4   43.37    7.92
  -2  -8   4   41.50    7.58
  -2  -8   5   12.94    4.75
  -2  -8  -5   16.01    4.96
   2  -8  -5   15.71    4.90
   2  -8   5    5.22    2.04
  -2  -8   6   12.52    5.05
  -2  -8  -6    8.35    4.15
   2  -8   6    2.69    2.70
   2  -8  -6   10.32    3.93
   2  -8   7   43.95    7.30
   2  -8  -7   38.27    7.77
  -2  -8  -7   34.74    7.57
  -2  -8   7   46.94    8.44
  -2  -8   8    6.97    3.59
   2  -8   8    6.77    3.29
  -2  -8  -8    7.14    4.12
   2  -8  -8    5.76    3.48
   2  -8   9   32.75    6.52
   2  -8  -9   33.49    7.58
  -2  -8  -9   33.21    7.68
  -2  -8   9   33.97    7.39
  -2  -8 -10    2.89    1.91
   2  -8 -10    6.55    3.71
  -2  -8  10    3.62    2.53
   2  -8  10    4.45    2.62
  -2  -8 -11    1.42    2.27
   2  -8 -11    0.76    1.89
  -2  -8  11   -0.42    2.38
   2  -8  11    0.84    1.61
  -2  -8 -12    2.60    2.49
  -2  -8  12    1.48    1.91
   2  -8 -12    5.17    3.74
   2  -8  12    1.36    1.83
  -2  -8 -13   20.73    6.51
  -2  -8  13   17.25    5.50
   2  -8  13   21.97    5.71
   2  -8 -13   18.86    5.89
  -2  -8 -14    5.25    3.37
   2  -8 -14    5.78    3.84
  -2  -8  14    1.67    1.82
   2  -8  14    2.60    2.15
  -2  -8 -15   -0.41    2.10
   2  -8 -15    0.70    1.84
  -2  -8 -16   18.87    6.55
   2  -8 -16   16.91    6.63
  -2  -8 -17   19.95    7.01
   2  -8 -17   10.82    5.19
  -3  -8   0    2.76    2.06
  -3  -8   0    5.90    3.98
  -3  -8   1   26.22    5.39
  -3  -8  -1   28.72    7.08
  -3  -8  -1   24.59    5.54
  -3  -8   1   21.93    5.84
   3  -8   1   35.47    6.58
  -3  -8   2   -2.07    3.47
  -3  -8  -2   12.49    6.01
  -3  -8  -2    3.97    2.33
  -3  -8   2    2.60    1.94
   3  -8   2   11.42    4.11
  -3  -8  -3   17.52    4.96
  -3  -8  -3   24.99    7.62
  -3  -8   3    7.88    3.46
   3  -8   3   20.17    4.95
  -3  -8  -4   25.33    6.01
   3  -8   4   28.43    5.45
  -3  -8   4   19.18    4.75
  -3  -8  -5    9.74    4.18
  -3  -8   5    8.88    3.75
   3  -8   5    5.94    1.92
  -3  -8  -6    1.93    2.37
  -3  -8   6    2.44    2.94
   3  -8   6   -3.13    3.04
  -3  -8   7   15.23    5.35
  -3  -8  -7   13.01    4.88
   3  -8   7    8.18    2.65
  -3  -8   8    6.25    3.75
   3  -8   8   10.41    3.81
  -3  -8  -8    6.75    4.24
   3  -8   9   27.79    5.64
  -3  -8  -9   25.34    6.78
  -3  -8   9   28.08    6.80
  -3  -8 -10    7.21    3.92
   3  -8 -10    9.64    4.72
  -3  -8  10    5.59    3.06
  -3  -8 -11    1.60    2.33
  -3  -8  11   -0.62    2.49
   3  -8 -11    2.88    3.07
  -3  -8 -12   16.11    5.86
  -3  -8  12   11.90    4.74
   3  -8 -12   16.48    5.98
  -3  -8 -13   55.17   10.75
   3  -8 -13   49.01    9.75
  -3  -8  13   41.72    8.84
  -3  -8 -14   10.89    4.91
  -3  -8  14    6.23    3.57
   3  -8 -14   10.72    5.25
  -3  -8 -15   17.50    6.28
   3  -8 -15   19.79    6.90
  -3  -8  15   19.23    6.23
  -3  -8 -16    6.23    3.64
   3  -8 -16    8.93    4.77
  -4  -8   0   84.69   11.56
  -4  -8   1   63.03    9.67
  -4  -8  -1   65.10   10.39
  -4  -8   2   -1.25    4.65
  -4  -8  -2   13.57    5.43
  -4  -8  -3   16.59    6.96
  -4  -8   3   -4.73    5.20
  -4  -8   4    0.64    4.31
  -4  -8  -4   21.90    7.31
  -4  -8   5   24.99    6.07
  -4  -8   6   80.84   11.66
  -4  -8   7   47.24    9.07
  -4  -8   8    3.75    3.13
  -4  -8   9   18.65    6.04
  -4  -8  10   76.44   11.84
  -4  -8  11    1.45    1.57
  -4  -8 -12    4.26    3.19
  -4  -8  12    1.80    2.82
  -4  -8 -13   11.76    5.23
  -4  -8  13    7.18    3.24
  -4  -8 -14    2.27    2.94
  -4  -8  14    1.66    2.40
  -4  -8 -15    6.25    4.25
  -4  -8  15    0.46    1.66
  -4  -8 -16   16.06    6.30
  -5  -8   0   66.21   10.38
  -5  -8  -1    4.64    4.28
  -5  -8   1   -1.28    3.19
  -5  -8   2    1.32    3.17
  -5  -8  -2   17.02    6.21
  -5  -8  -3   25.77    7.82
  -5  -8   3   -5.16    5.14
  -5  -8  -4   29.70    8.54
  -5  -8   4    2.61    4.04
  -5  -8   5   -3.16    4.57
  -5  -8   6   21.44    6.31
  -5  -8   7   11.41    4.68
  -5  -8   8   13.06    5.06
  -5  -8   9    1.41    2.70
  -5  -8  10    3.88    2.62
  -5  -8  11   -0.01    2.01
  -5  -8  12   10.51    4.46
  -5  -8  13   -2.57    3.57
  -5  -8  14   -0.65    2.20
  -5  -8  15   13.65    5.08
  -5  -8  16   -0.98    2.80
  -6  -8   0    1.74    2.47
  -6  -8  -1   17.61    5.94
  -6  -8   1    9.84    4.23
  -6  -8   2   28.26    6.72
  -6  -8  -2   48.85    9.51
  -6  -8  -3   14.94    6.79
  -6  -8   3   -6.36    5.28
  -6  -8  -4   58.25   10.67
  -6  -8   4   28.85    6.86
  -6  -8   5   20.05    6.21
  -6  -8   6   13.36    5.64
  -6  -8   7   34.20    8.22
  -6  -8   8   74.15   11.80
   6   8  -9   17.35    5.77
  -6  -8   9   14.05    5.25
  -6  -8  10   14.02    5.20
   6   8 -10   13.66    5.17
  -6  -8  11   14.96    5.89
   6   8 -11   19.60    6.50
  -6  -8  12   25.73    7.43
   6   8 -12   28.24    7.34
   6   8 -13   37.35    8.75
  -6  -8  13   36.12    8.60
   6   8 -14   22.84    7.21
  -6  -8  14   23.89    7.24
   6   8 -15   20.10    6.68
  -6  -8  15   10.01    4.53
   6   8 -16   17.59    6.80
  -7  -8   0    1.54    3.19
  -7  -8  -1   -0.34    1.77
  -7  -8   1    0.75    2.24
  -7  -8   2    0.92    3.11
  -7  -8  -2   14.53    6.24
  -7  -8  -3   11.96    5.82
  -7  -8   3   -4.66    4.37
  -7  -8   4   -5.74    4.85
  -7  -8  -4   22.51    7.68
  -7  -8   5   -2.64    4.03
   7   8  -5    5.23    3.29
  -7  -8   6    9.73    4.28
   7   8  -6    8.93    3.95
   7   8  -7    5.62    3.48
  -7  -8   7    2.87    3.09
   7   8  -8    3.92    3.48
  -7  -8   8    2.97    2.98
  -7  -8   9    8.45    4.73
   7   8  -9    4.26    2.73
   7   8 -10    3.64    3.19
  -7  -8  10   -0.59    2.54
   7   8 -11    1.29    2.39
  -7  -8  11    1.12    2.20
   7   8 -12   -0.90    2.01
  -7  -8  12   -3.01    3.20
   7   8 -13    2.06    2.89
  -7  -8  13    4.11    3.49
   7   8 -14   13.52    5.52
   7   8 -15    2.44    3.45
  -8  -8   0    1.40    2.30
  -8  -8  -1   20.91    6.75
  -8  -8   1   11.16    4.82
  -8  -8   2   21.86    5.69
  -8  -8  -2   36.38    8.74
  -8  -8  -3   17.12    6.57
  -8  -8   3   -0.81    3.33
  -8  -8   4    7.45    3.65
  -8  -8  -4   33.25    9.29
  -8  -8   5   44.07    8.93
  -8  -8  -5   59.48   11.23
   8   8  -5   46.38    8.20
   8   8  -6   10.24    4.09
  -8  -8   6    9.72    4.44
   8   8  -7   12.91    4.99
  -8  -8   7   14.19    5.65
  -8  -8   8   40.00    9.26
   8   8  -8   38.59    8.23
  -8  -8   9   31.10    7.89
   8   8  -9   34.14    7.68
   8   8 -10    3.78    2.92
  -8  -8  10    3.48    3.31
  -8  -8  11   58.11   11.13
   8   8 -11   56.44   10.43
   8   8 -12   33.67    8.43
  -8  -8  12   29.59    8.16
   8   8 -13    3.29    3.21
   8   8 -14    8.63    4.58
  -9  -8   0   10.59    4.90
  -9  -8  -1    7.20    4.93
  -9  -8   1    0.01    2.34
  -9  -8   2    9.30    3.91
  -9  -8  -2   21.29    7.26
  -9  -8  -3   15.67    7.09
  -9  -8   3    2.10    3.82
  -9  -8   4   -1.52    3.23
  -9  -8  -4   29.62    8.74
  -9  -8   5   -7.29    5.53
  -9  -8  -5   17.44    7.41
   9   8  -6   17.45    5.25
  -9  -8   6   17.72    6.29
   9   8  -7    5.11    3.41
  -9  -8   7    7.58    4.83
   9   8  -8    1.38    2.46
  -9  -8   8    3.47    3.03
   9   8  -9    1.05    2.19
  -9  -8   9   -1.76    2.83
  -9  -8  10    1.71    2.62
   9   8 -10    4.43    3.57
   9   8 -11    4.54    3.69
   9   8 -12   -0.28    2.17
   9   8 -13    0.67    1.74
   9   8 -14    2.88    2.63
 -10  -8   0   14.56    5.44
 -10  -8  -1   15.38    5.78
 -10  -8   1   12.35    4.79
 -10  -8   2   -0.48    3.21
 -10  -8  -2   17.88    6.66
 -10  -8  -3   30.99    8.78
 -10  -8   3   -3.44    4.76
 -10  -8  -4   58.54   11.40
 -10  -8   4   33.43    8.03
 -10  -8   5   58.09   10.90
 -10  -8   6   32.66    8.02
 -10  -8   7   13.37    5.79
  10   8  -8   33.49    7.79
  10   8  -9   22.71    6.88
  10   8 -10    8.44    4.27
  10   8 -11   13.31    5.15
  10   8 -12    8.50    4.41
  10   8 -13   10.23    5.26
 -11  -8   0    8.60    4.95
 -11  -8  -1   27.83    7.98
 -11  -8   1   17.19    6.21
 -11  -8  -2    9.96    5.59
 -11  -8   2   -1.43    2.97
 -11  -8   3   -4.46    4.73
 -11  -8  -3   10.73    5.83
  11   8  -9    5.34    3.61
  11   8 -10    1.83    2.23
  11   8 -11    0.46    1.65
  11   8 -12    1.21    2.24
   0  -9   0    4.94    4.55
   0  -9  -1    3.33    2.18
   0  -9   1    9.41    4.69
   0  -9   2    3.33    2.86
   0  -9  -2    0.45    1.48
   0  -9   3   20.21    5.50
   0  -9  -3   18.00    5.13
   0  -9   4   -1.17    2.26
   0  -9  -4   -1.19    2.16
   0  -9  -5    1.75    2.47
   0  -9   5   -2.47    3.02
   0  -9  -6   -0.28    1.85
   0  -9   6   -3.67    3.69
   0  -9   7   -2.95    3.74
   0  -9  -7    5.19    3.47
   0  -9   8    1.45    2.19
   0  -9  -8   -1.37    2.32
   0  -9   9   14.32    5.00
   0  -9  -9   13.29    4.98
   0  -9  10    3.20    3.11
   0  -9 -10   -0.77    2.14
   0  -9  11   17.87    5.59
   0  -9 -11   20.43    6.32
   0  -9 -12    1.54    2.48
   0  -9  12   -0.57    1.80
   0  -9 -13    2.05    3.06
   0  -9  13   -0.58    2.04
   0  -9 -14    2.67    3.32
   0  -9  14    0.30    2.13
   0  -9  15    3.00    2.85
  -1  -9   0   41.22    8.48
   1  -9   0   37.23    7.73
  -1  -9  -1   17.12    6.16
  -1  -9   1   11.16    4.59
   1  -9   1   14.94    5.48
  -1  -9  -1    6.42    3.05
   1  -9   2   32.25    6.87
  -1  -9  -2   48.08    9.02
  -1  -9  -2   29.49    6.27
   1  -9  -2   26.20    6.10
  -1  -9   2   27.04    6.62
  -1  -9  -3   48.51    8.33
   1  -9   3   50.08    8.26
   1  -9  -3   48.88    8.42
  -1  -9   3   45.78    8.38
  -1  -9   4   35.33    7.31
  -1  -9  -4   41.26    7.92
   1  -9  -4   44.23    8.20
   1  -9   4   33.09    6.90
   1  -9   5   -1.30    3.13
  -1  -9  -5    0.41    1.86
   1  -9  -5    2.23    2.77
  -1  -9   5   -5.32    4.22
  -1  -9   6   58.24    9.58
   1  -9   6   60.44    9.25
  -1  -9  -6   63.70   10.16
   1  -9  -6   60.93   10.20
  -1  -9   7   27.64    6.74
  -1  -9  -7   33.89    7.73
   1  -9   7   28.10    6.34
   1  -9  -7   32.42    7.62
  -1  -9   8    5.26    3.47
   1  -9   8   -3.25    3.40
  -1  -9  -8    2.77    2.48
   1  -9  -8    3.25    3.00
  -1  -9   9   18.23    5.88
   1  -9   9   13.95    5.08
  -1  -9  -9   13.89    5.23
   1  -9  -9   12.66    5.06
   1  -9  10   47.46    8.77
  -1  -9 -10   42.44    9.16
   1  -9 -10   36.22    8.43
  -1  -9  10   48.01    9.30
  -1  -9  11   11.09    4.69
  -1  -9 -11    5.29    3.77
   1  -9 -11   10.08    4.90
  -1  -9 -12   10.26    4.96
   1  -9 -12   14.54    6.01
  -1  -9  12   13.65    5.18
  -1  -9 -13   24.35    7.45
   1  -9 -13   20.71    7.01
  -1  -9  13   24.19    6.85
  -1  -9 -14   13.73    5.65
   1  -9 -14   13.10    5.93
  -1  -9  14   14.16    5.51
  -1  -9  15   11.12    5.01
  -1  -9  16   26.58    7.52
  -1  -9  17   17.13    6.12
  -2  -9   0   10.93    5.08
  -2  -9   1    8.81    4.55
  -2  -9  -1    2.31    2.20
  -2  -9  -1   11.10    5.11
   2  -9   2   13.71    4.59
  -2  -9  -2    4.70    2.53
  -2  -9   2    8.17    3.95
  -2  -9   3   18.36    5.11
   2  -9   3   22.04    5.49
  -2  -9  -3   19.96    5.47
  -2  -9   4    6.11    2.84
  -2  -9  -4    8.22    3.80
   2  -9   4    7.39    3.37
  -2  -9  -5   11.42    4.46
  -2  -9   5    4.46    2.52
  -2  -9  -6   10.15    4.43
  -2  -9   6    4.93    2.21
  -2  -9   7   -5.05    4.06
  -2  -9  -7   -0.29    2.24
   2  -9  -7    2.44    2.79
  -2  -9   8    3.00    3.20
  -2  -9  -8    0.15    2.28
   2  -9  -8   -1.03    2.25
  -2  -9   9    0.71    2.28
  -2  -9  -9   -1.66    2.91
   2  -9  -9   -0.10    1.71
  -2  -9  10   11.33    4.72
  -2  -9 -10   10.53    4.78
   2  -9 -10    9.28    4.84
  -2  -9 -11    1.46    2.40
   2  -9 -11    3.24    2.79
  -2  -9  11    0.40    1.68
  -2  -9 -12    0.06    1.91
   2  -9 -12    0.55    1.83
  -2  -9  12    0.47    1.81
  -2  -9 -13    2.31    2.64
   2  -9 -13    4.14    3.45
  -2  -9  13    3.48    2.84
  -2  -9 -14    0.01    2.99
   2  -9 -14    5.62    3.69
  -2  -9  14    4.82    3.51
  -2  -9  15   -3.26    3.35
  -2  -9  16   -1.17    2.96
  -3  -9   0   30.76    7.51
  -3  -9  -1   57.04    8.77
  -3  -9   1   57.04    9.98
  -3  -9  -1   64.13   10.60
  -3  -9  -2   21.57    5.69
  -3  -9  -2   30.44    8.17
  -3  -9   2   11.14    4.40
  -3  -9  -3   86.34   11.31
  -3  -9   3   66.34   10.33
  -3  -9  -3  100.09   13.19
  -3  -9  -4   64.61   10.13
  -3  -9   4   45.86    8.50
  -3  -9  -5   40.47    8.24
  -3  -9   5   29.69    7.08
  -3  -9  -6   34.24    7.89
  -3  -9   6   34.06    7.71
  -3  -9  -7   46.96    9.44
  -3  -9   7   41.02    8.81
  -3  -9   8   28.02    7.69
  -3  -9  -8   23.73    6.92
  -3  -9   9   57.86   10.31
  -3  -9  -9   63.26   11.04
  -3  -9  10   16.64    5.81
  -3  -9 -10   14.75    5.78
  -3  -9  11    6.52    4.19
  -3  -9 -11    6.40    3.96
  -3  -9 -12    2.22    2.80
  -3  -9  12   -1.12    2.08
  -3  -9 -13   12.65    5.46
  -3  -9  13   10.09    4.73
  -3  -9  14    6.97    3.98
  -3  -9  15    8.51    4.28
  -4  -9   0   50.74    9.92
  -4  -9  -1   17.64    6.56
  -4  -9  -1   12.41    4.15
  -4  -9   1   11.64    4.99
  -4  -9  -2    2.04    2.27
  -4  -9   2   -3.77    3.79
  -4  -9   3    2.88    2.50
  -4  -9  -3    8.68    3.81
  -4  -9  -4    9.96    4.33
  -4  -9   4   -0.45    3.30
  -4  -9  -5    0.34    2.39
  -4  -9   5   -4.41    5.01
  -4  -9  -6    2.68    2.73
  -4  -9   6   -3.61    4.40
  -4  -9  -7   13.25    5.05
  -4  -9   7    7.25    4.36
  -4  -9   8   20.75    6.92
  -4  -9  -8   17.94    6.04
  -4  -9   9    8.70    4.50
  -4  -9  -9    9.61    4.51
  -4  -9  10   -1.48    1.64
  -4  -9 -10   -1.55    2.92
  -4  -9  11    1.05    2.40
  -4  -9 -11    1.84    2.68
  -4  -9 -12   18.99    6.59
  -4  -9  12   20.79    6.72
  -4  -9 -13    6.63    3.98
  -4  -9  13   11.27    5.07
  -4  -9  14   -0.61    2.60
  -5  -9   0   26.04    7.77
  -5  -9   1   71.78   11.50
  -5  -9  -1   79.67   12.33
  -5  -9   2    7.09    3.58
  -5  -9  -2   29.55    8.19
  -5  -9  -3   18.00    6.64
  -5  -9   3   -3.35    3.53
  -5  -9   4   14.70    4.61
  -5  -9   5   51.76    9.86
  -5  -9   6    4.03    2.38
  -5  -9   7   48.92   10.16
  -5  -9   8   22.32    7.03
  -5  -9  -9   21.98    6.78
  -5  -9   9   27.50    7.60
  -5  -9  10   34.80    8.45
  -5  -9 -10   40.53    9.49
  -5  -9  11   33.78    8.66
  -5  -9 -11   33.85    8.62
  -5  -9 -12   28.81    8.25
  -5  -9  12   25.78    7.86
  -6  -9   0   14.10    6.19
  -6  -9  -1   13.72    6.01
  -6  -9   1   11.39    4.89
  -6  -9   2   -0.20    2.46
  -6  -9  -2   10.89    5.97
  -6  -9   3    2.80    2.19
  -6  -9  -3   31.43    8.74
  -6  -9  -4   19.67    7.67
  -6  -9   4    0.54    2.40
  -6  -9   5    0.19    3.24
  -6  -9   6    4.84    2.39
  -6  -9   7   -1.54    3.05
  -6  -9   8   10.03    5.28
  -6  -9   9    4.44    3.41
  -6  -9  10    3.25    3.41
  -6  -9  11    4.09    4.04
  -7  -9   0    8.18    4.88
  -7  -9  -1    8.69    5.26
  -7  -9   1    6.19    4.47
  -7  -9   2   60.30   11.07
  -7  -9  -2   68.43   11.86
  -7  -9   3    0.00    2.16
  -7  -9  -3   17.23    7.75
  -7  -9  -4   72.56   12.41
  -7  -9   4   36.66    8.69
  -7  -9   5    0.98    3.20
  -7  -9   6   24.48    6.74
  -7  -9   7   -5.02    4.81
  -7  -9   8  132.48   16.92
  -7  -9   9   11.53    5.31
  -8  -9   0    5.17    4.36
  -8  -9  -1   13.60    6.15
  -8  -9   1    2.30    3.37
  -8  -9  -2    9.66    5.01
  -8  -9   2    5.10    3.85
  -8  -9   3   -2.95    4.00
  -8  -9  -3   17.08    7.59
  -8  -9   4   -2.48    3.83
  -8  -9  -4   31.24    9.35
  -8  -9   5    9.30    4.52
  -8  -9   6   -5.95    4.97
   9   9 -11   38.63    9.11
   0 -10   0   90.02   12.09
   0 -10   1   10.15    5.31
   0 -10   2   26.32    6.87
   0 -10   3    4.80    3.40
   0 -10   4   32.60    7.41
   0 -10   5   -1.79    2.63
   0 -10  -5    3.69    2.86
   0 -10  -6   52.82    9.83
   0 -10  -7    0.20    1.75
   0 -10  -8    0.54    1.98
   0 -10  -9   -0.95    2.28
   0 -10 -10   34.71    8.69
   0 -10 -11    0.80    2.01
  -1 -10   0   22.66    7.11
  -1 -10   1   16.28    5.97
  -1 -10   2   10.71    5.22
  -1 -10   3   12.98    5.10
  -1 -10   4   18.47    6.01
  -1 -10   5    3.35    2.92
  -1 -10  -5    4.99    3.47
  -1 -10   6   17.80    5.76
  -1 -10  -6   22.34    6.55
   1 -10  -6   25.18    6.87
  -1 -10  -7   11.87    5.12
   1 -10  -7    9.86    4.70
  -1 -10   7    7.43    3.66
  -1 -10  -8   -0.82    1.72
  -1 -10   8   -5.72    4.40
   1 -10  -8   -0.53    2.21
  -1 -10   9    8.50    3.78
  -1 -10  -9   11.38    5.00
   1 -10  -9   11.83    5.11
  -1 -10  10    5.19    2.94
  -1 -10 -10    6.22    3.78
   1 -10 -10    8.30    4.52
  -1 -10 -11    6.55    3.71
   1 -10 -11    6.56    4.37
  -2 -10   0   18.25    6.75
  -2 -10   1    6.51    4.46
  -2 -10  -1   16.51    6.63
  -2 -10   2   16.02    5.71
  -2 -10   3   32.99    7.98
  -2 -10   4   10.89    4.67
  -2 -10   5   -0.82    3.28
  -2 -10  -5    7.44    3.90
  -2 -10   6    7.82    3.62
  -2 -10  -6    9.95    4.41
  -2 -10   7   61.08   11.03
  -2 -10  -7   60.03   10.85
  -2 -10  -8    4.67    3.06
  -2 -10   8    3.93    2.77
  -2 -10   9    6.66    3.42
  -2 -10  -9    7.46    4.22
  -2 -10  10    3.45    2.79
  -2 -10 -10    4.54    3.45
  -2 -10  11   15.61    5.90
  -2 -10  12    5.12    3.59
  -3 -10   0   16.90    6.34
  -3 -10   1   14.14    5.76
  -3 -10  -1   26.01    8.04
  -3 -10   2   14.43    5.69
  -3 -10   3   83.55   12.70
  -3 -10   4   25.88    7.12
  -3 -10   5   16.83    5.94
  -3 -10  -5   26.53    7.09
  -3 -10  -6    2.30    1.85
  -3 -10   6   -2.17    3.48
  -3 -10  -7    0.58    2.03
  -3 -10   7   -8.83    5.11
  -3 -10  -8   20.46    6.65
  -3 -10   8    4.49    2.09
  -3 -10  -9    7.16    4.44
  -3 -10   9    3.52    2.25
  -3 -10  10    8.58    4.12
  -3 -10 -10    7.87    4.32
  -3 -10  11   28.80    8.20
  -4 -10   0   50.95   10.40
  -4 -10  -1   23.92    7.77
  -4 -10   1   21.15    6.90
  -4 -10  -2   17.92    6.99
  -4 -10   2    4.76    4.45
  -4 -10   3    3.80    3.16
  -4 -10   4   15.64    5.57
  -4 -10   5   21.97    6.54
  -4 -10  -6   14.56    5.38
  -4 -10   6   13.67    5.06
  -4 -10  -7    9.75    4.74
  -4 -10   7    2.52    2.39
  -4 -10  -8   10.74    4.96
  -4 -10   8   -2.82    4.13
  -4 -10  -9   43.19    9.83
  -4 -10   9   33.66    8.40
  -4 -10 -10   17.25    6.36
  -5 -10   0   12.58    5.72
  -5 -10  -1   29.97    8.83
  -5 -10   1   15.37    6.07
  -5 -10  -2   31.71    8.96
  -5 -10   2   15.35    6.33
  -5 -10   3    6.37    4.12
  -5 -10   4   -0.11    2.63
  -5 -10   5    8.80    4.42
  -5 -10  -6   -0.12    1.94
  -5 -10   6    1.28    2.81
  -5 -10  -7    5.95    3.81
  -5 -10  -8    0.85    1.89
  -5 -10  -9   -0.25    2.33
  -6 -10  -6    8.63    4.63
  -6 -10  -7    6.55    4.09
  -6 -10  -8   30.78    8.39
  -2 -11   1   12.31    5.82
  -2 -11   2    9.32    5.00
  -2 -11   3    8.29    4.80
TITL smz_f1_200 in Pnma
REM Pnma (#62, found as Pbnm in bca setting)
CELL 0.71073  14.482933  21.844136   8.193752  90.0000  90.0000  90.0000
ZERR   11.00   0.000587   0.000896   0.000342   0.0000   0.0000   0.0000
LATT  1
SYMM -x+1/2,-y, z+1/2
SYMM -x, y+1/2,-z
SYMM  x+1/2,-y+1/2,-z+1/2
SFAC C H N O
UNIT 121.00 110.00 11.00 11.00
TREF
HKLF 4
END
_computing_structure_solution     'SHELXT 2014/4 (Sheldrick, 2014)'
;
_shelx_hkl_checksum              74962
loop_
_space_group_symop_operation_xyz
'x, y, z'
'-x, -y, z+1/2'
'x+1/2, -y+1/2, z'
'-x+1/2, y+1/2, z+1/2'
loop_
_atom_site_label
_atom_site_type_symbol
_atom_site_fract_x
_atom_site_fract_y
_atom_site_fract_z
_atom_site_U_iso_or_equiv
_atom_site_adp_type
_atom_site_occupancy
_atom_site_site_symmetry_order
_atom_site_calc_flag
_atom_site_refinement_flags_posn
_atom_site_refinement_flags_adp
_atom_site_refinement_flags_occupancy
_atom_site_disorder_assembly
_atom_site_disorder_group
S1 S 0.35519(7) 0.50502(13) 0.65620(6) 0.0265(3) Uani 1 1 d . . . . .
S2 S 0.42210(8) 0.50281(14) 0.34698(6) 0.0256(3) Uani 1 1 d . . . . .
O1 O 0.3121(2) 0.6296(4) 0.69198(14) 0.0339(8) Uani 1 1 d . . . . .
O2 O 0.4527(2) 0.4774(4) 0.66281(16) 0.0340(8) Uani 1 1 d . . . . .
O3 O 0.3245(2) 0.5306(3) 0.34062(16) 0.0334(8) Uani 1 1 d . . . . .
O4 O 0.4645(2) 0.3753(3) 0.31155(15) 0.0323(8) Uani 1 1 d . . . . .
N1 N 0.1580(3) -0.1170(5) 0.6876(2) 0.0398(11) Uani 1 1 d D . . . .
N2 N 0.3460(3) 0.5522(5) 0.58241(18) 0.0296(9) Uani 1 1 d D . . . .
N3 N 0.1866(3) 0.5914(4) 0.58300(18) 0.0302(9) Uani 1 1 d . . . . .
N4 N 0.2725(3) 0.5700(5) 0.49036(18) 0.0406(11) Uani 1 1 d . . . . .
N5 N 0.6196(3) 1.1198(5) 0.3046(2) 0.0496(13) Uani 1 1 d . . . . .
H5A H 0.5922 1.2114 0.3111 0.064 Uiso 1 1 calc R U . . .
H5B H 0.6759 1.1185 0.2921 0.064 Uiso 1 1 calc R U . . .
N6 N 0.4323(3) 0.4603(5) 0.42046(18) 0.0315(10) Uani 1 1 d D . . . .
N7 N 0.5903(3) 0.4128(5) 0.41961(18) 0.0320(10) Uani 1 1 d . . . . .
N8 N 0.5047(3) 0.4351(5) 0.51278(19) 0.0414(11) Uani 1 1 d . . . . .
C1 C 0.2966(3) 0.3230(5) 0.6660(2) 0.0263(11) Uani 1 1 d . . . . .
C2 C 0.2071(3) 0.3200(5) 0.6893(2) 0.0257(11) Uani 1 1 d . . . . .
H2 H 0.1781 0.4173 0.7000 0.033 Uiso 1 1 calc R U . . .
C3 C 0.1611(3) 0.1739(5) 0.6969(2) 0.0263(11) Uani 1 1 d . . . . .
H3 H 0.1012 0.1733 0.7122 0.034 Uiso 1 1 calc R U . . .
C4 C 0.2041(3) 0.0270(5) 0.6815(2) 0.0278(10) Uani 1 1 d . . . . .
C5 C 0.2942(3) 0.0317(5) 0.6575(3) 0.0321(11) Uani 1 1 d . . . . .
H5 H 0.3234 -0.0651 0.6466 0.042 Uiso 1 1 calc R U . . .
C6 C 0.3396(3) 0.1775(5) 0.6498(2) 0.0302(11) Uani 1 1 d . . . . .
H6 H 0.3991 0.1789 0.6339 0.039 Uiso 1 1 calc R U . . .
C7 C 0.2634(3) 0.5719(6) 0.5510(2) 0.0283(11) Uani 1 1 d . . . . .
C8 C 0.1944(4) 0.5942(8) 0.4596(3) 0.0620(18) Uani 1 1 d . . . . .
H8 H 0.1968 0.5968 0.4171 0.081 Uiso 1 1 calc R U . . .
C9 C 0.1102(4) 0.6154(7) 0.4876(3) 0.0557(16) Uani 1 1 d . . . . .
H9 H 0.0566 0.6317 0.4650 0.072 Uiso 1 1 calc R U . . .
C10 C 0.1085(4) 0.6117(6) 0.5506(3) 0.0386(13) Uani 1 1 d . . . . .
C11 C 0.0213(4) 0.6316(7) 0.5860(3) 0.0512(15) Uani 1 1 d . . . . .
H11A H 0.0136 0.7442 0.5971 0.067 Uiso 1 1 calc R U . . .
H11B H 0.0241 0.5662 0.6225 0.067 Uiso 1 1 calc R U . . .
H11C H -0.0300 0.5971 0.5614 0.067 Uiso 1 1 calc R U . . .
C12 C 0.4808(3) 0.6841(5) 0.3341(2) 0.0253(10) Uani 1 1 d . . . . .
C13 C 0.4364(3) 0.8306(5) 0.3445(3) 0.0326(12) Uani 1 1 d . . . . .
H13 H 0.3756 0.8312 0.3582 0.042 Uiso 1 1 calc R U . . .
C14 C 0.4821(3) 0.9765(5) 0.3346(2) 0.0370(13) Uani 1 1 d . . . . .
H14 H 0.4518 1.0748 0.3416 0.048 Uiso 1 1 calc R U . . .
C15 C 0.5738(3) 0.9768(5) 0.3142(2) 0.0312(11) Uani 1 1 d . . . . .
C16 C 0.6180(3) 0.8269(5) 0.3034(2) 0.0286(11) Uani 1 1 d . . . . .
H16 H 0.6787 0.8252 0.2895 0.037 Uiso 1 1 calc R U . . .
C17 C 0.5715(3) 0.6819(5) 0.3132(2) 0.0265(12) Uani 1 1 d . . . . .
H17 H 0.6009 0.5829 0.3059 0.034 Uiso 1 1 calc R U . . .
C18 C 0.5142(3) 0.4336(5) 0.4516(2) 0.0291(11) Uani 1 1 d . . . . .
C19 C 0.5825(4) 0.4042(8) 0.5434(3) 0.0614(18) Uani 1 1 d . . . . .
H19 H 0.5804 0.4011 0.5860 0.080 Uiso 1 1 calc R U . . .
C20 C 0.6654(4) 0.3768(7) 0.5151(3) 0.0579(17) Uani 1 1 d . . . . .
H20 H 0.7182 0.3530 0.5375 0.075 Uiso 1 1 calc R U . . .
C21 C 0.6679(4) 0.3858(6) 0.4515(2) 0.0372(12) Uani 1 1 d . . . . .
C22 C 0.7550(4) 0.3640(7) 0.4153(3) 0.0554(16) Uani 1 1 d . . . . .
H22A H 0.8067 0.3578 0.4427 0.072 Uiso 1 1 calc R U . . .
H22B H 0.7629 0.4550 0.3881 0.072 Uiso 1 1 calc R U . . .
H22C H 0.7512 0.2651 0.3919 0.072 Uiso 1 1 calc R U . . .
H1N1 H 0.107(2) -0.117(5) 0.7098(18) 0.037(14) Uiso 1 1 d D . . . .
H2N1 H 0.195(3) -0.203(4) 0.684(2) 0.056(16) Uiso 1 1 d D . . . .
H1N2 H 0.392(2) 0.515(4) 0.5605(18) 0.020(12) Uiso 1 1 d D . . . .
H1N6 H 0.380(3) 0.497(6) 0.439(3) 0.08(2) Uiso 1 1 d D . . . .
loop_
_atom_site_aniso_label
_atom_site_aniso_U_11
_atom_site_aniso_U_22
_atom_site_aniso_U_33
_atom_site_aniso_U_23
_atom_site_aniso_U_13
_atom_site_aniso_U_12
S1 0.0245(5) 0.0293(6) 0.0258(6) 0.0024(6) -0.0007(5) -0.0019(5)
S2 0.0241(5) 0.0292(6) 0.0235(6) 0.0028(5) -0.0011(6) -0.0017(5)
O1 0.039(2) 0.0311(17) 0.0314(18) -0.0045(15) -0.0016(18) -0.0011(15)
O2 0.0225(16) 0.0460(19) 0.0334(19) 0.0102(18) -0.0050(18) -0.0017(15)
O3 0.0240(16) 0.0446(18) 0.0317(18) 0.0035(17) -0.0061(18) -0.0037(14)
O4 0.035(2) 0.0259(17) 0.0357(19) -0.0027(15) -0.0010(17) -0.0010(14)
N1 0.034(2) 0.030(2) 0.056(3) -0.006(2) 0.016(2) -0.004(2)
N2 0.023(2) 0.039(2) 0.027(2) 0.006(2) 0.002(2) 0.0010(18)
N3 0.022(2) 0.035(2) 0.034(2) 0.0016(19) 0.002(2) 0.0013(18)
N4 0.029(2) 0.069(3) 0.024(2) 0.005(2) -0.004(2) 0.015(2)
N5 0.042(3) 0.028(2) 0.078(3) -0.004(2) 0.017(3) -0.0053(19)
N6 0.023(2) 0.046(3) 0.026(2) 0.011(2) 0.001(2) 0.003(2)
N7 0.028(2) 0.037(2) 0.030(2) 0.0025(19) 0.003(2) 0.0032(19)
N8 0.031(2) 0.066(3) 0.027(2) 0.004(2) -0.003(2) 0.010(2)
C1 0.026(3) 0.029(2) 0.024(2) 0.004(2) -0.001(2) 0.0030(19)
C2 0.026(3) 0.031(3) 0.020(2) -0.002(2) -0.005(2) 0.0051(19)
C3 0.021(2) 0.037(3) 0.021(2) -0.001(2) 0.001(2) -0.001(2)
C4 0.028(2) 0.032(3) 0.023(2) -0.0017(19) 0.000(2) -0.001(2)
C5 0.031(3) 0.027(2) 0.038(3) -0.001(2) 0.010(3) 0.004(2)
C6 0.025(2) 0.034(3) 0.031(3) 0.000(2) 0.004(2) 0.002(2)
C7 0.024(3) 0.029(2) 0.031(3) 0.005(2) -0.003(2) -0.002(2)
C8 0.047(4) 0.111(5) 0.028(3) 0.002(3) -0.004(3) 0.026(4)
C9 0.030(3) 0.098(5) 0.039(3) -0.002(3) -0.010(3) 0.018(3)
C10 0.029(3) 0.041(3) 0.046(3) -0.005(3) -0.001(3) 0.004(2)
C11 0.033(3) 0.062(4) 0.059(4) -0.009(3) 0.004(3) 0.003(3)
C12 0.026(2) 0.029(2) 0.021(2) 0.002(2) 0.001(2) 0.0001(19)
C13 0.025(3) 0.031(2) 0.043(3) 0.000(3) 0.009(3) 0.003(2)
C14 0.034(3) 0.027(2) 0.050(3) -0.005(2) 0.003(3) 0.006(2)
C15 0.033(3) 0.028(2) 0.033(3) 0.000(2) 0.002(2) 0.001(2)
C16 0.026(3) 0.033(3) 0.027(2) -0.004(2) 0.005(2) -0.0034(19)
C17 0.031(3) 0.022(2) 0.027(3) -0.001(2) 0.005(2) 0.001(2)
C18 0.028(3) 0.030(2) 0.030(3) 0.005(2) -0.002(2) 0.001(2)
C19 0.040(4) 0.111(5) 0.033(3) 0.004(3) -0.006(3) 0.020(4)
C20 0.030(3) 0.096(5) 0.047(4) -0.007(3) -0.009(3) 0.024(3)
C21 0.029(3) 0.041(3) 0.042(3) -0.002(3) -0.001(3) 0.009(2)
C22 0.031(3) 0.071(4) 0.065(4) -0.007(3) 0.003(3) 0.012(3)
loop_
_atom_type_symbol
_atom_type_description
_atom_type_scat_dispersion_real
_atom_type_scat_dispersion_imag
_atom_type_scat_source
C C 0.0033 0.0016 'International Tables Vol C Tables 4.2.6.8 and 6.1.1.4'
H H 0.0000 0.0000 'International Tables Vol C Tables 4.2.6.8 and 6.1.1.4'
N N 0.0061 0.0033 'International Tables Vol C Tables 4.2.6.8 and 6.1.1.4'
O O 0.0106 0.0060 'International Tables Vol C Tables 4.2.6.8 and 6.1.1.4'
S S 0.1246 0.1234 'International Tables Vol C Tables 4.2.6.8 and 6.1.1.4'
loop_
_geom_angle_atom_site_label_1
_geom_angle_atom_site_label_2
_geom_angle_atom_site_label_3
_geom_angle
_geom_angle_site_symmetry_1
_geom_angle_site_symmetry_3
O1 S1 O2 119.1(2) . .
O1 S1 N2 109.2(2) . .
O2 S1 N2 102.3(2) . .
O1 S1 C1 109.5(2) . .
O2 S1 C1 109.5(2) . .
N2 S1 C1 106.3(2) . .
O4 S2 O3 118.9(2) . .
O4 S2 N6 109.4(2) . .
O3 S2 N6 102.4(2) . .
O4 S2 C12 109.0(2) . .
O3 S2 C12 109.3(2) . .
N6 S2 C12 107.2(2) . .
C4 N1 H1N1 118(3) . .
C4 N1 H2N1 113(3) . .
H1N1 N1 H2N1 123(4) . .
C7 N2 S1 125.1(3) . .
C7 N2 H1N2 115(3) . .
S1 N2 H1N2 113(3) . .
C7 N3 C10 116.4(4) . .
C7 N4 C8 114.6(5) . .
C15 N5 H5A 120.0 . .
C15 N5 H5B 120.0 . .
H5A N5 H5B 120.0 . .
C18 N6 S2 126.0(3) . .
C18 N6 H1N6 123(4) . .
S2 N6 H1N6 107(4) . .
C18 N7 C21 116.6(4) . .
C19 N8 C18 114.2(5) . .
C2 C1 C6 119.6(4) . .
C2 C1 S1 121.1(3) . .
C6 C1 S1 119.2(4) . .
C3 C2 C1 120.5(4) . .
C3 C2 H2 119.7 . .
C1 C2 H2 119.7 . .
C2 C3 C4 120.3(4) . .
C2 C3 H3 119.8 . .
C4 C3 H3 119.8 . .
N1 C4 C3 120.4(4) . .
N1 C4 C5 120.9(4) . .
C3 C4 C5 118.6(4) . .
C6 C5 C4 120.9(4) . .
C6 C5 H5 119.6 . .
C4 C5 H5 119.6 . .
C5 C6 C1 120.0(4) . .
C5 C6 H6 120.0 . .
C1 C6 H6 120.0 . .
N3 C7 N4 127.6(5) . .
N3 C7 N2 118.5(4) . .
N4 C7 N2 113.9(4) . .
N4 C8 C9 123.2(5) . .
N4 C8 H8 118.4 . .
C9 C8 H8 118.4 . .
C8 C9 C10 117.2(5) . .
C8 C9 H9 121.4 . .
C10 C9 H9 121.4 . .
N3 C10 C9 121.0(5) . .
N3 C10 C11 116.9(5) . .
C9 C10 C11 122.1(5) . .
C10 C11 H11A 109.5 . .
C10 C11 H11B 109.5 . .
H11A C11 H11B 109.5 . .
C10 C11 H11C 109.5 . .
H11A C11 H11C 109.5 . .
H11B C11 H11C 109.5 . .
C13 C12 C17 120.3(4) . .
C13 C12 S2 119.3(3) . .
C17 C12 S2 120.4(3) . .
C12 C13 C14 120.1(4) . .
C12 C13 H13 119.9 . .
C14 C13 H13 119.9 . .
C13 C14 C15 120.3(4) . .
C13 C14 H14 119.8 . .
C15 C14 H14 119.8 . .
N5 C15 C14 120.8(4) . .
N5 C15 C16 120.2(4) . .
C14 C15 C16 118.9(4) . .
C17 C16 C15 120.2(4) . .
C17 C16 H16 119.9 . .
C15 C16 H16 119.9 . .
C16 C17 C12 120.0(4) . .
C16 C17 H17 120.0 . .
C12 C17 H17 120.0 . .
N7 C18 N8 128.0(5) . .
N7 C18 N6 118.5(4) . .
N8 C18 N6 113.5(4) . .
N8 C19 C20 122.9(5) . .
N8 C19 H19 118.5 . .
C20 C19 H19 118.5 . .
C19 C20 C21 117.8(5) . .
C19 C20 H20 121.1 . .
C21 C20 H20 121.1 . .
N7 C21 C20 120.4(5) . .
N7 C21 C22 116.8(5) . .
C20 C21 C22 122.8(5) . .
C21 C22 H22A 109.5 . .
C21 C22 H22B 109.5 . .
H22A C22 H22B 109.5 . .
C21 C22 H22C 109.5 . .
H22A C22 H22C 109.5 . .
H22B C22 H22C 109.5 . .
loop_
_geom_bond_atom_site_label_1
_geom_bond_atom_site_label_2
_geom_bond_distance
_geom_bond_site_symmetry_2
S1 O1 1.429(3) .
S1 O2 1.437(3) .
S1 N2 1.663(4) .
S1 C1 1.729(5) .
S2 O4 1.438(3) .
S2 O3 1.439(3) .
S2 N6 1.649(4) .
S2 C12 1.734(4) .
N1 C4 1.362(6) .
N1 H1N1 0.88(2) .
N1 H2N1 0.88(2) .
N2 C7 1.388(6) .
N2 H1N2 0.88(2) .
N3 C7 1.324(5) .
N3 C10 1.344(6) .
N4 C7 1.331(6) .
N4 C8 1.331(6) .
N5 C15 1.363(5) .
N5 H5A 0.8600 .
N5 H5B 0.8600 .
N6 C18 1.385(6) .
N6 H1N6 0.91(2) .
N7 C18 1.317(5) .
N7 C21 1.340(6) .
N8 C19 1.336(6) .
N8 C18 1.343(6) .
C1 C2 1.393(6) .
C1 C6 1.391(6) .
C2 C3 1.380(6) .
C2 H2 0.9300 .
C3 C4 1.396(6) .
C3 H3 0.9300 .
C4 C5 1.407(6) .
C5 C6 1.374(6) .
C5 H5 0.9300 .
C6 H6 0.9300 .
C8 C9 1.376(7) .
C8 H8 0.9300 .
C9 C10 1.376(8) .
C9 H9 0.9300 .
C10 C11 1.491(7) .
C11 H11A 0.9600 .
C11 H11B 0.9600 .
C11 H11C 0.9600 .
C12 C13 1.381(6) .
C12 C17 1.390(6) .
C13 C14 1.383(6) .
C13 H13 0.9300 .
C14 C15 1.401(6) .
C14 H14 0.9300 .
C15 C16 1.406(6) .
C16 C17 1.382(6) .
C16 H16 0.9300 .
C17 H17 0.9300 .
C19 C20 1.369(8) .
C19 H19 0.9300 .
C20 C21 1.390(8) .
C20 H20 0.9300 .
C21 C22 1.501(7) .
C22 H22A 0.9600 .
C22 H22B 0.9600 .
C22 H22C 0.9600 .
loop_
_geom_torsion_atom_site_label_1
_geom_torsion_atom_site_label_2
_geom_torsion_atom_site_label_3
_geom_torsion_atom_site_label_4
_geom_torsion
_geom_torsion_site_symmetry_1
_geom_torsion_site_symmetry_2
_geom_torsion_site_symmetry_3
_geom_torsion_site_symmetry_4
O1 S1 N2 C7 -60.7(4) . . . .
O2 S1 N2 C7 172.3(4) . . . .
C1 S1 N2 C7 57.4(4) . . . .
O4 S2 N6 C18 57.3(5) . . . .
O3 S2 N6 C18 -175.6(4) . . . .
C12 S2 N6 C18 -60.7(5) . . . .
O1 S1 C1 C2 18.1(5) . . . .
O2 S1 C1 C2 150.4(4) . . . .
N2 S1 C1 C2 -99.8(4) . . . .
O1 S1 C1 C6 -162.2(4) . . . .
O2 S1 C1 C6 -29.9(5) . . . .
N2 S1 C1 C6 79.9(4) . . . .
C6 C1 C2 C3 0.3(7) . . . .
S1 C1 C2 C3 180.0(4) . . . .
C1 C2 C3 C4 0.5(7) . . . .
C2 C3 C4 N1 -178.4(4) . . . .
C2 C3 C4 C5 -1.0(7) . . . .
N1 C4 C5 C6 178.2(5) . . . .
C3 C4 C5 C6 0.8(7) . . . .
C4 C5 C6 C1 0.0(8) . . . .
C2 C1 C6 C5 -0.5(7) . . . .
S1 C1 C6 C5 179.8(4) . . . .
C10 N3 C7 N4 -0.1(7) . . . .
C10 N3 C7 N2 179.3(4) . . . .
C8 N4 C7 N3 1.5(8) . . . .
C8 N4 C7 N2 -177.9(5) . . . .
S1 N2 C7 N3 16.0(6) . . . .
S1 N2 C7 N4 -164.5(4) . . . .
C7 N4 C8 C9 -1.6(9) . . . .
N4 C8 C9 C10 0.3(10) . . . .
C7 N3 C10 C9 -1.4(7) . . . .
C7 N3 C10 C11 179.2(4) . . . .
C8 C9 C10 N3 1.3(9) . . . .
C8 C9 C10 C11 -179.4(6) . . . .
O4 S2 C12 C13 157.2(4) . . . .
O3 S2 C12 C13 25.8(4) . . . .
N6 S2 C12 C13 -84.5(4) . . . .
O4 S2 C12 C17 -22.6(5) . . . .
O3 S2 C12 C17 -154.0(4) . . . .
N6 S2 C12 C17 95.7(4) . . . .
C17 C12 C13 C14 -0.4(7) . . . .
S2 C12 C13 C14 179.8(4) . . . .
C12 C13 C14 C15 -0.3(8) . . . .
C13 C14 C15 N5 -179.7(5) . . . .
C13 C14 C15 C16 0.7(7) . . . .
N5 C15 C16 C17 179.9(4) . . . .
C14 C15 C16 C17 -0.5(7) . . . .
C15 C16 C17 C12 -0.1(7) . . . .
C13 C12 C17 C16 0.6(7) . . . .
S2 C12 C17 C16 -179.6(4) . . . .
C21 N7 C18 N8 1.8(8) . . . .
C21 N7 C18 N6 -179.4(4) . . . .
C19 N8 C18 N7 -3.2(8) . . . .
C19 N8 C18 N6 177.9(5) . . . .
S2 N6 C18 N7 -12.1(6) . . . .
S2 N6 C18 N8 166.9(4) . . . .
C18 N8 C19 C20 1.4(9) . . . .
N8 C19 C20 C21 1.5(10) . . . .
C18 N7 C21 C20 1.6(7) . . . .
C18 N7 C21 C22 -179.3(5) . . . .
C19 C20 C21 N7 -3.1(9) . . . .
C19 C20 C21 C22 177.9(6) . . . .
