#------------------------------------------------------------------------------
#$Date: 2017-11-07 03:18:58 +0200 (Tue, 07 Nov 2017) $
#$Revision: 202814 $
#$URL: file:///home/coder/svn-repositories/cod/cif/1/54/73/1547360.cif $
#------------------------------------------------------------------------------
#
# This file is available in the Crystallography Open Database (COD),
# http://www.crystallography.net/
#
# All data on this site have been placed in the public domain by the
# contributors.
#
data_1547360
loop_
_publ_author_name
'Atmuri, N. D. Prasad'
'Reilley, David J.'
'Lubell, William D.'
_publ_section_title
;
 Peptidomimetic Synthesis by Way of Diastereoselective Iodoacetoxylation
 and Transannular Amidation of 7-9-Membered Lactams.
;
_journal_issue                   19
_journal_name_full               'Organic letters'
_journal_page_first              5066
_journal_page_last               5069
_journal_paper_doi               10.1021/acs.orglett.7b02275
_journal_volume                  19
_journal_year                    2017
_chemical_absolute_configuration ad
_chemical_formula_moiety         'C15 H16 I N3 O7 S'
_chemical_formula_sum            'C15 H16 I N3 O7 S'
_chemical_formula_weight         509.27
_space_group_crystal_system      monoclinic
_space_group_IT_number           4
_space_group_name_Hall           'P 2yb'
_space_group_name_H-M_alt        'P 1 21 1'
_symmetry_space_group_name_Hall  'P 2yb'
_symmetry_space_group_name_H-M   'P 1 21 1'
_atom_sites_solution_hydrogens   mixed
_atom_sites_solution_primary     dual
_audit_creation_date             2017-09-20
_audit_creation_method
;
Olex2 1.2
(compiled 2017.08.10 svn.r3458 for OlexSys, GUI svn.r5381)
;
_cell_angle_alpha                90
_cell_angle_beta                 106.438(4)
_cell_angle_gamma                90
_cell_formula_units_Z            2
_cell_length_a                   5.3844(4)
_cell_length_b                   21.4986(16)
_cell_length_c                   8.2956(6)
_cell_measurement_reflns_used    4641
_cell_measurement_temperature    100
_cell_measurement_theta_max      71.213
_cell_measurement_theta_min      4.112
_cell_volume                     921.02(12)
_computing_cell_refinement
'SAINT (2013) V8.38A; Integration Software for Single Crystal Data. Bruker AXS Inc., Madison, WI 53719-1173.'
_computing_data_collection
;
APEX 2 (2013) Bruker AXS Inc., Madison, WI 53719-1173.
;
_computing_data_reduction
'SAINT (2013) V8.38A; Integration Software for Single Crystal Data. Bruker AXS Inc., Madison, WI 53719-1173.'
_computing_molecular_graphics    'Olex2 (Dolomanov et al., 2009)'
_computing_publication_material  'Olex2 (Dolomanov et al., 2009)'
_computing_structure_refinement  'XL (Sheldrick, 2008)'
_computing_structure_solution    'XT (Sheldrick, 2015)'
_diffrn_ambient_temperature      100
_diffrn_detector                 'CCD area detector'
_diffrn_detector_area_resol_mean 8.3
_diffrn_detector_type            'Bruker APEX2 CCD'
_diffrn_measured_fraction_theta_full 0.999
_diffrn_measured_fraction_theta_max 0.999
_diffrn_measurement_device       'three-circle diffractometer'
_diffrn_measurement_device_type  'Bruker Smart APEX'
_diffrn_measurement_method       '\w scans'
_diffrn_radiation_collimation    'Focusing mirrors'
_diffrn_radiation_monochromator  'Quazar MX Mirror Optics'
_diffrn_radiation_probe          x-ray
_diffrn_radiation_type           CuK\a
_diffrn_radiation_wavelength     1.54178
_diffrn_reflns_av_R_equivalents  0.0653
_diffrn_reflns_av_unetI/netI     0.0490
_diffrn_reflns_Laue_measured_fraction_full 0.999
_diffrn_reflns_Laue_measured_fraction_max 0.999
_diffrn_reflns_limit_h_max       6
_diffrn_reflns_limit_h_min       -6
_diffrn_reflns_limit_k_max       26
_diffrn_reflns_limit_k_min       -26
_diffrn_reflns_limit_l_max       10
_diffrn_reflns_limit_l_min       -10
_diffrn_reflns_number            17148
_diffrn_reflns_point_group_measured_fraction_full 1.000
_diffrn_reflns_point_group_measured_fraction_max 0.999
_diffrn_reflns_theta_full        67.679
_diffrn_reflns_theta_max         72.176
_diffrn_reflns_theta_min         4.113
_diffrn_source                   'Microfocus Source'
_diffrn_source_target            Cu
_diffrn_source_type              'Incoatec I\mS High Brilliance Microsource'
_exptl_absorpt_coefficient_mu    15.130
_exptl_absorpt_correction_T_max  0.2262
_exptl_absorpt_correction_T_min  0.0749
_exptl_absorpt_correction_type   multi-scan
_exptl_absorpt_process_details
'SADABS-2016/2 (Bruker,2016/2) was used for absorption correction. wR2(int) was 0.1335 before and 0.0798 after correction. The Ratio of minimum to maximum transmission is 0.3311. The \l/2 correction factor is Not present.'
_exptl_crystal_colour            'clear light colourless'
_exptl_crystal_colour_lustre     clear
_exptl_crystal_colour_modifier   light
_exptl_crystal_colour_primary    colourless
_exptl_crystal_density_diffrn    1.836
_exptl_crystal_description       Needle
_exptl_crystal_F_000             504
_exptl_crystal_size_max          0.2
_exptl_crystal_size_mid          0.02
_exptl_crystal_size_min          0.02
_refine_diff_density_max         2.050
_refine_diff_density_min         -0.708
_refine_diff_density_rms         0.167
_refine_ls_abs_structure_details
;
 Refined as an inversion twin.
;
_refine_ls_abs_structure_Flack   -0.006(18)
_refine_ls_extinction_method     none
_refine_ls_goodness_of_fit_ref   1.077
_refine_ls_hydrogen_treatment    constr
_refine_ls_matrix_type           full
_refine_ls_number_parameters     246
_refine_ls_number_reflns         3588
_refine_ls_number_restraints     1
_refine_ls_restrained_S_all      1.076
_refine_ls_R_factor_all          0.0732
_refine_ls_R_factor_gt           0.0712
_refine_ls_shift/su_max          0.000
_refine_ls_shift/su_mean         0.000
_refine_ls_structure_factor_coef Fsqd
_refine_ls_weighting_details
'w=1/[\s^2^(Fo^2^)+(0.1292P)^2^+1.6652P] where P=(Fo^2^+2Fc^2^)/3'
_refine_ls_weighting_scheme      calc
_refine_ls_wR_factor_gt          0.1855
_refine_ls_wR_factor_ref         0.1874
_reflns_Friedel_coverage         0.946
_reflns_Friedel_fraction_full    1.000
_reflns_Friedel_fraction_max     0.999
_reflns_number_gt                3388
_reflns_number_total             3588
_reflns_threshold_expression     'I > 2\s(I)'
_cod_data_source_file            ol7b02275_si_008.cif
_cod_data_source_block           lub116
_cod_depositor_comments
;
The following automatic conversions were performed:

'_diffrn_radiation_probe' value 'X-ray' changed to 'x-ray' according
to
/home/data/users/saulius/crontab/automatic-downloads/rss-feeds/ACS/lib/dictionaries/cif_core.dic
dictionary named 'cif_core.dic' version 2.4.2 from 2011-04-26.

Automatic conversion script
Id: cif_fix_values 4973 2017-02-22 13:04:09Z antanas 

 Adding full bibliography for 1547358--1547364.cif.
;
_cod_database_code               1547360
_shelx_shelxl_version_number     2017/1
_shelx_space_group_comment
;
The symmetry employed for this shelxl refinement is uniquely defined
by the following loop, which should always be used as a source of
symmetry information in preference to the above space-group names.
They are only intended as comments.
;
_shelx_estimated_absorpt_t_max   0.752
_shelx_estimated_absorpt_t_min   0.152
_olex2_refinement_description
;
1. Twinned data refinement
 Scales: 1.006(18)
 -0.006(18)
2. Fixed Uiso
 At 1.2 times of:
  All C(H) groups, All C(H,H) groups, All N(H) groups
 At 1.5 times of:
  All C(H,H,H) groups
3.a Riding coordinates:
 N2(H2)
3.b Ternary CH refined with riding coordinates:
 C2(H2A), C3(H3), C4(H4), C7(H7)
3.c Secondary CH2 refined with riding coordinates:
 C5(H5A,H5B), C6(H6A,H6B)
3.d Aromatic/amide H refined with riding coordinates:
 C12(H12), C13(H13), C14(H14), C15(H15)
3.e Idealised Me refined as rotating group:
 C9(H9A,H9B,H9C)
;
_shelx_res_file
;
TITL lub116_a.res in P2/m
    lub116.res
    created by SHELXL-2017/1 at 12:26:43 on 20-Sep-2017
REM Old TITL lub116 in P2(1)
REM SHELXT solution in P2/m
REM R1 0.210, Rweak 0.125, Alpha 0.091, Orientation as input
REM Formula found by SHELXT: C65 N34 S2 I
CELL 1.54178 5.3844 21.4986 8.2956 90 106.438 90
ZERR 2 0.0004 0.0016 0.0006 0 0.004 0
LATT -1
SYMM -X,0.5+Y,-Z
SFAC C H I N O S
UNIT 30 32 2 6 14 2
EQIV $1 -1+X,+Y,+Z

L.S. 20
PLAN  8
SIZE 0.02 0.02 0.2
TEMP -173
HTAB N2 O4_$1
HTAB N2 O6
HTAB
fmap 2
acta
WPDB
CONF
TWIN -1 0 0 0 -1 0 0 0 -1 2
REM <olex2.extras>
REM <HklSrc "%.\\lub116.hkl">
REM </olex2.extras>

WGHT    0.129200    1.665200
BASF  -0.00571
FVAR       0.56157
I1    3    0.348449    0.111370    0.100607    11.00000    0.05422    0.05292 =
         0.04929    0.00511    0.01775    0.00159
O1    5    0.409498    0.070327    0.755286    11.00000    0.05209    0.04807 =
         0.04313    0.00529    0.01873    0.00784
C1    1    0.326986    0.090831    0.616674    11.00000    0.03319    0.03999 =
         0.05444   -0.00065    0.01459   -0.00296
S1    6    0.643672   -0.043393    0.491620    11.00000    0.03602    0.03889 =
         0.04941    0.00035    0.01591    0.00256
N1    4    0.174018    0.141892    0.568506    11.00000    0.03349    0.03791 =
         0.04713   -0.00014    0.01131    0.00394
N2    4    0.384754   -0.000907    0.440962    11.00000    0.03311    0.04066 =
         0.05366    0.00470    0.01398    0.00339
AFIX   3
H2    2    0.269574   -0.015197    0.484702    11.00000   -1.20000
AFIX   0
C2    1    0.393173    0.066562    0.458849    11.00000    0.03255    0.04264 =
         0.04297   -0.00095    0.01040    0.00449
AFIX  13
H2A   2    0.571413    0.081032    0.463079    11.00000   -1.20000
AFIX   0
O2    5   -0.222556    0.179406    0.705219    11.00000    0.03198    0.06092 =
         0.07320   -0.01413    0.01318    0.00139
O3    5    0.039715    0.250948    0.862807    11.00000    0.03496    0.05185 =
         0.06522   -0.00938    0.01743    0.00005
C3    1    0.200514    0.098815    0.311725    11.00000    0.03658    0.04165 =
         0.04717   -0.00021    0.00948    0.00295
AFIX  13
H3    2    0.042733    0.072005    0.275279    11.00000   -1.20000
AFIX   0
N3    4    0.363661   -0.137354    0.691378    11.00000    0.04033    0.04910 =
         0.05607    0.00399    0.02070   -0.00160
C4    1    0.125875    0.158463    0.389036    11.00000    0.04000    0.04227 =
         0.05087    0.00411    0.01321    0.00396
AFIX  13
H4    2   -0.062487    0.167281    0.338355    11.00000   -1.20000
AFIX   0
O4    5    0.847491   -0.005127    0.468150    11.00000    0.03754    0.04343 =
         0.06176    0.00529    0.01799    0.00469
O5    5    0.583358   -0.100591    0.402704    11.00000    0.03995    0.04308 =
         0.06906    0.00124    0.01308    0.00352
C5    1    0.280824    0.218847    0.401868    11.00000    0.05262    0.04055 =
         0.04276    0.00479    0.00825   -0.00346
AFIX  23
H5A   2    0.218764    0.244347    0.298915    11.00000   -1.20000
H5B   2    0.468045    0.210442    0.422717    11.00000   -1.20000
AFIX   0
O6    5    0.213355   -0.111339    0.573658    11.00000    0.04156    0.04739 =
         0.07121    0.00624    0.00789    0.00099
C6    1    0.224329    0.250575    0.554057    11.00000    0.05629    0.04083 =
         0.04488    0.00196    0.00951    0.00244
AFIX  23
H6A   2    0.059757    0.274113    0.518862    11.00000   -1.20000
H6B   2    0.365768    0.279558    0.609144    11.00000   -1.20000
AFIX   0
C7    1    0.205112    0.196956    0.674951    11.00000    0.03777    0.03816 =
         0.05301   -0.00105    0.01428    0.00588
AFIX  13
H7    2    0.370004    0.193961    0.767956    11.00000   -1.20000
AFIX   0
O7    5    0.332197   -0.190102    0.737771    11.00000    0.05599    0.04730 =
         0.07359    0.01260    0.01845   -0.00880
C8    1   -0.020955    0.206321    0.747445    11.00000    0.03782    0.04451 =
         0.04579   -0.00148    0.01164    0.00305
C9    1   -0.155048    0.262898    0.948715    11.00000    0.04283    0.06679 =
         0.06322   -0.01847    0.01872    0.00480
AFIX 137
H9A   2   -0.314917    0.277050    0.867334    11.00000   -1.50000
H9B   2   -0.092617    0.295127    1.034137    11.00000   -1.50000
H9C   2   -0.189429    0.224607    1.002818    11.00000   -1.50000
AFIX   0
C10   1    0.724773   -0.060718    0.713174    11.00000    0.03930    0.03998 =
         0.05523    0.00087    0.01399    0.00146
C11   1    0.598232   -0.103502    0.788891    11.00000    0.03702    0.04478 =
         0.05117    0.00267    0.01241    0.00280
C12   1    0.675508   -0.115518    0.956414    11.00000    0.05989    0.05762 =
         0.05893    0.00902    0.02144   -0.00346
AFIX  43
H12   2    0.580936   -0.143891    1.004169    11.00000   -1.20000
AFIX   0
C13   1    0.893411   -0.086073    1.057219    11.00000    0.06454    0.06334 =
         0.05591    0.00551    0.01380   -0.00316
AFIX  43
H13   2    0.950982   -0.094839    1.174160    11.00000   -1.20000
AFIX   0
C14   1    1.024858   -0.044507    0.988107    11.00000    0.04941    0.05333 =
         0.06794   -0.00367    0.01108   -0.00365
AFIX  43
H14   2    1.173962   -0.024334    1.057508    11.00000   -1.20000
AFIX   0
C15   1    0.942901   -0.031303    0.816871    11.00000    0.03356    0.03953 =
         0.07547    0.00738    0.02010   -0.00009
AFIX  43
H15   2    1.035933   -0.002123    0.770386    11.00000   -1.20000
AFIX   0
HKLF 4




REM  lub116_a.res in P2/m
REM R1 =  0.0712 for    3388 Fo > 4sig(Fo)  and  0.0732 for all    3588 data
REM    246 parameters refined using      1 restraints

END

WGHT      0.1292      1.6651

REM Instructions for potential hydrogen bonds
HTAB N2 O4_$1
HTAB N2 O6
HTAB C2 O4
EQIV $2 x+1, y, z
HTAB C5 O2_$2
EQIV $3 -x, y+1/2, -z+1
HTAB C6 O7_$3
EQIV $4 -x+1, y+1/2, -z+1
HTAB C6 O5_$4
EQIV $5 x, y, z+1
HTAB C7 I1_$5
HTAB C7 O2_$2
EQIV $6 -x, y+1/2, -z+2
HTAB C9 O7_$6
HTAB C15 O1_$2

REM Highest difference peak  2.050,  deepest hole -0.708,  1-sigma level  0.167
Q1    1   0.3522  0.0735  0.0982  11.00000  0.05    2.05
Q2    1   0.3561  0.1485  0.1062  11.00000  0.05    1.97
Q3    1   0.3023  0.1110 -0.0118  11.00000  0.05    1.86
Q4    1   0.3761  0.1040  0.2066  11.00000  0.05    1.84
Q5    1   0.5437  0.1108  0.1354  11.00000  0.05    1.19
Q6    1   0.1624  0.1113  0.0736  11.00000  0.05    1.01
Q7    1   0.6147 -0.0591  0.3801  11.00000  0.05    0.88
Q8    1   0.6772 -0.0485  0.5985  11.00000  0.05    0.88
;
_shelx_res_checksum              83875
_shelx_hkl_file
;
   1   0   0 1375.36   91.19
   1   0   0 1478.65   93.79
   1   0   0 1393.86   97.89
  -1   0   0 1417.56   92.69
   1   0   0 1226.98   94.09
  -1   0   0 1227.98   92.49
   2   0   0 1347.37  103.69
  -2   0   0 1338.67   99.39
   2   0   0 1439.96   97.39
   2   0   0 1528.75  102.79
   2   0   0 1323.17  108.49
  -2   0   0 1445.66   99.19
   3   0   0 2086.59  155.18
   3   0   0 2156.28  151.88
  -3   0   0 1931.21  146.49
   3   0   0 2074.49  144.79
  -3   0   0 2147.79  162.28
  -3   0   0 2148.69  146.49
   4   0   0  603.84   52.49
   4   0   0  610.64   46.70
   4   0   0  610.74   50.99
   4   0   0  664.53   46.70
   4   0   0  714.13   56.69
   5   0   0   87.29   13.00
   5   0   0   86.99   11.20
   5   0   0   89.89   17.40
   5   0   0   62.19   13.10
   5   0   0   70.29   10.00
   6   0   0   55.99    8.80
   6   0   0   71.09   11.60
   6   0   0   53.39    9.40
   6   0   0   61.29    7.00
   6   0   0   65.09    7.60
   0  -1   0   -0.20    0.80
   0  -1   0    0.50    0.70
   0  -1   0    0.30    0.90
   0  -1   0    0.70    1.60
   0   1   0    1.50    0.80
   0   1   0    1.80    1.20
  -1  -1   0 4466.15  304.27
   1  -1   0 4706.53  304.87
   1  -1   0 5046.10  307.67
   1  -1   0 4490.45  307.77
  -1  -1   0 4709.73  306.17
  -1  -1   0 4621.64  306.77
   1  -1   0 4190.48  307.17
   1  -1   0 4732.83  311.27
  -1   1   0 4905.91  338.87
   1   1   0 5092.89  341.37
   1   1   0 5253.77  337.87
  -1   1   0 4924.51  338.97
   1   1   0 5534.65  340.47
   1   1   0 5008.00  344.27
  -2  -1   0 2221.68  149.59
   2  -1   0 2192.38  154.88
   2  -1   0 2199.08  151.88
  -2  -1   0 2027.40  150.08
   2  -1   0 2201.08  147.79
   2  -1   0 2134.09  159.08
   2  -1   0 2251.27  152.48
  -2   1   0 2078.29  150.38
   2   1   0 2199.58  161.38
  -2   1   0 2143.19  150.28
   2   1   0 2174.88  155.38
   2   1   0 2216.68  148.69
   2   1   0 2330.37  153.88
  -3  -1   0  228.28   22.70
  -3  -1   0  188.88   22.70
  -3  -1   0  208.88   32.30
   3  -1   0  162.08   21.00
   3  -1   0  134.49   26.80
   3  -1   0  203.08   27.10
   3   1   0  207.98   30.90
   3   1   0  213.78   22.60
  -3   1   0  250.17   25.20
  -3   1   0  202.08   24.60
  -3   1   0  275.17   38.50
   3   1   0  267.97   30.10
   4  -1   0   55.99    9.60
   4  -1   0   80.59   20.00
   4  -1   0   55.29   12.40
   4  -1   0   46.70   13.60
   4   1   0   73.89   14.30
   4   1   0   86.49   16.80
   4   1   0   88.69   12.20
   4   1   0   84.89   11.60
   4   1   0  141.59   25.80
   4   1   0   96.69   15.70
   5  -1   0  112.29   19.00
   5  -1   0  182.98   25.40
   5  -1   0  121.79   13.70
   5  -1   0   91.49   15.90
   5  -1   0  113.39   13.20
   5  -1   0   99.29   12.80
   5   1   0  135.29   14.20
   5   1   0  120.89   16.20
   5   1   0  128.89   20.60
   5   1   0  167.28   25.60
   5   1   0  117.99   16.50
   5   1   0  110.89   13.30
   6  -1   0   16.90    5.10
  -6  -1   0   41.30    9.60
   6  -1   0   12.40    5.50
   6  -1   0   25.80    5.10
   6  -1   0   16.90    4.20
   6  -1   0   18.80    7.80
   6   1   0   10.60    7.00
   6   1   0   15.10    6.20
   6   1   0   16.30    4.20
   6   1   0   19.10    4.40
   6   1   0   12.30    4.90
   0  -2   0 2056.39  147.69
   0  -2   0 2284.27  149.49
   0  -2   0 2251.07  146.99
   0  -2   0 2356.16  147.59
   0   2   0 3400.76  222.48
   0   2   0 3341.47  221.58
  -1  -2   0 1467.95  100.19
   1  -2   0 1360.56   97.19
   1  -2   0 1547.35  104.89
   1  -2   0 1489.75  102.79
  -1  -2   0 1479.95   98.69
   1  -2   0 1584.34   99.19
  -1  -2   0 1455.65  101.29
   1  -2   0 1536.45  102.09
   1  -2   0 1339.87  102.79
   1   2   0  974.60   73.59
   1   2   0 1100.39   70.29
  -1   2   0 1001.70   71.09
   1   2   0 1029.80   77.09
   2  -2   0  341.87   34.70
   2  -2   0  319.37   31.80
   2  -2   0  318.77   32.10
  -2  -2   0  328.67   30.20
  -2  -2   0  358.66   29.60
   2  -2   0  343.57   28.20
   2   2   0  485.35   41.70
   2   2   0  479.45   40.40
  -2   2   0  424.76   36.60
   2   2   0  445.56   35.10
  -2   2   0  449.66   36.90
   2   2   0  417.76   46.00
   3  -2   0  510.25   42.50
  -3  -2   0  514.45   44.80
   3  -2   0  522.35   52.19
  -3  -2   0  525.25   43.40
   3   2   0  299.37   35.20
   3   2   0  325.27   29.40
  -3   2   0  320.77   31.10
  -3   2   0  375.76   45.70
   3   2   0  349.17   37.80
   4  -2   0  392.46   36.20
   4  -2   0  376.76   30.00
   4  -2   0  321.67   32.90
   4  -2   0  403.06   29.90
   4   2   0  247.48   27.60
   4   2   0  293.97   25.70
   4   2   0  297.47   22.80
  -4   2   0  256.67   43.00
   4   2   0  249.68   26.30
   4   2   0  253.47   22.20
   5  -2   0   -7.60   10.70
   5  -2   0    1.70    6.40
   5  -2   0    0.00    4.90
   5  -2   0    1.70    7.90
   5  -2   0   -0.40    4.50
   5   2   0    0.50   10.90
   5   2   0   -1.20    4.60
   5   2   0    4.50    4.40
   5   2   0    5.10    6.90
   5   2   0   -1.30    7.80
   5   2   0    5.70    6.50
  -6  -2   0   31.30    5.90
   6  -2   0   23.00    5.70
   6  -2   0   20.70    8.40
   6  -2   0   19.70    6.30
   6  -2   0   29.90    5.50
   6  -2   0   32.40    5.00
   6   2   0   42.80    5.60
   6   2   0   30.20    9.10
   6   2   0   41.20    5.90
   6   2   0   42.30    7.60
   6   2   0   37.20    8.20
   0  -3   0    0.10    4.30
   0  -3   0   -0.20    2.60
   0  -3   0    0.90    2.90
   0  -3   0    1.10    2.10
   0   3   0    2.00    2.40
   0   3   0    5.80    3.50
   0   3   0   -0.50    4.20
   1  -3   0 7603.24  539.65
  -1  -3   0 7958.80  535.35
   1  -3   0 7939.31  538.05
  -1  -3   0 8058.29  534.45
   1  -3   0 8004.70  533.05
  -1  -3   0 8196.98  536.95
   1  -3   0 8866.11  534.75
   1  -3   0 8366.46  538.35
  -1   3   0 8736.23  601.24
  -1   3   0 8077.09  596.54
   1   3   0 9737.23  600.04
   1   3   0 9999.00  596.44
   1   3   0 8705.43  602.74
   1   3   0 9152.38  600.34
  -2  -3   0 3832.12  263.67
   2  -3   0 4130.29  266.37
  -2  -3   0 3819.12  258.87
   2  -3   0 3949.10  260.97
   2  -3   0 3836.12  268.37
   2  -3   0 3737.03  266.77
  -2  -3   0 3994.20  262.27
  -2   3   0 3275.27  242.28
   2   3   0 3710.33  241.68
   2   3   0 3657.83  248.18
  -2   3   0 3661.23  243.08
  -2   3   0 3818.72  254.77
   2   3   0 3441.66  253.37
   2   3   0 3710.93  247.28
   3  -3   0  548.25   47.00
  -3  -3   0  564.94   49.20
   3  -3   0  540.25   56.19
  -3  -3   0  596.34   48.10
   3  -3   0  737.13   56.79
  -3   3   0  586.34   48.20
   3   3   0  549.95   45.70
   3   3   0  579.64   54.19
  -3   3   0  602.84   63.49
   3   3   0  608.04   54.19
   4  -3   0  147.59   17.40
   4  -3   0  186.78   27.90
   4  -3   0  156.78   17.00
   4  -3   0  159.98   23.40
   4  -3   0  163.08   17.40
   4  -3   0  111.19   18.50
   4   3   0  183.78   21.00
   4   3   0  203.88   17.90
   4   3   0  140.29   22.30
   4   3   0  193.18   17.00
   4   3   0  184.18   16.30
   4   3   0  229.48   31.50
   4   3   0  148.49   18.60
   5  -3   0  460.65   38.90
   5  -3   0  405.46   36.60
   5  -3   0  382.56   30.10
   5  -3   0  397.06   31.30
   5  -3   0  336.47   33.50
   5   3   0  607.14   43.60
   5   3   0  474.35   46.10
   5   3   0  698.03   52.69
   5   3   0  486.15   40.40
   5   3   0  610.04   40.90
   5   3   0  541.55   45.80
   6  -3   0   12.70    4.80
  -6  -3   0   19.20    5.00
   6  -3   0   12.10    4.10
   6  -3   0   17.00    4.70
   6  -3   0    8.20    6.70
   6  -3   0    7.90    5.00
   6   3   0   16.40    6.10
   6   3   0   14.00    3.90
   6   3   0   16.70    3.90
   6   3   0    2.90    6.60
   6   3   0   14.50    5.10
   0  -4   0 1801.42  122.19
   0  -4   0 1947.11  122.59
   0  -4   0 1557.64  120.99
   0  -4   0 2007.70  125.99
   0   4   0 5564.44  316.47
   0   4   0 4766.62  318.07
   0   4   0 4075.29  319.17
  -1  -4   0 3746.73  243.08
   1  -4   0 3693.63  247.18
   1  -4   0 4006.30  243.18
   1  -4   0 3425.76  241.38
  -1  -4   0 3494.25  243.38
  -1  -4   0 3702.63  245.48
   1  -4   0 3592.54  249.48
  -1   4   0 3820.32  259.37
  -1   4   0 4278.77  265.97
  -1   4   0 3671.03  262.67
   1   4   0 3364.06  263.57
   1   4   0 3806.62  262.37
   1   4   0 4174.98  258.27
  -1   4   0 3837.82  262.77
   1   4   0 4230.68  263.17
   2  -4   0  351.36   38.20
   2  -4   0  393.66   32.20
   2  -4   0  421.86   39.30
  -2  -4   0  373.36   30.30
  -2  -4   0  457.85   36.00
  -2  -4   0  413.26   33.20
   2  -4   0  390.46   37.70
  -2   4   0  507.95   49.30
   2   4   0  513.95   38.00
   2   4   0  470.35   43.40
  -2   4   0  492.05   39.30
   2   4   0  543.35   44.80
   2   4   0  419.26   47.20
   3  -4   0  483.45   52.19
  -3  -4   0  586.44   47.00
   3  -4   0  461.95   43.10
  -3  -4   0  555.94   44.70
   3  -4   0  575.34   52.09
  -3   4   0  438.36   53.69
  -3   4   0  478.65   40.90
   3   4   0  571.84   48.60
   3   4   0  435.76   45.50
   3   4   0  437.36   38.40
   4  -4   0  279.97   24.50
   4  -4   0  309.07   31.40
   4  -4   0  307.27   25.50
   4  -4   0  293.07   24.50
   4  -4   0  226.88   26.80
   4  -4   0  355.26   34.90
   4   4   0  363.46   35.80
   4   4   0  271.17   26.40
   4   4   0  298.77   23.40
   4   4   0  309.17   23.80
   4   4   0  268.77   29.10
   4   4   0  308.97   28.60
   4   4   0  263.07   22.70
   5  -4   0    9.20    5.50
   5  -4   0    2.90    5.10
   5  -4   0    9.80    9.10
   5  -4   0    3.20    6.40
   5  -4   0   -6.60    9.60
   5   4   0    4.20    4.80
   5   4   0    5.70    8.60
   5   4   0   11.70    7.30
   5   4   0    1.30    6.70
   5   4   0   -0.20   11.20
   5   4   0    2.10    4.10
   6  -4   0   13.60    7.30
   6  -4   0   10.40    5.40
  -6  -4   0   18.40    5.00
   6  -4   0   16.40    4.90
   6  -4   0   24.30    4.50
   6   4   0   18.80    6.30
   6   4   0   22.20    4.20
   6   4   0   26.10    6.40
   6   4   0   26.60    4.20
   6   4   0   12.60    7.10
   0  -5   0    0.10    4.50
   0  -5   0   -1.60    6.60
   0  -5   0   -5.30    4.00
   0  -5   0   -1.60    3.30
   0   5   0   -0.90    5.00
   0   5   0   -1.70    7.20
   0   5   0   -1.70    3.90
   1  -5   0 1853.21  138.39
   1  -5   0 1872.01  129.59
  -1  -5   0 1963.90  131.29
   1  -5   0 1986.00  135.69
   1  -5   0 2301.67  131.89
  -1  -5   0 2007.40  133.79
  -1  -5   0 1873.31  131.19
  -1  -5   0 1786.82  128.89
   1   5   0 1647.54  107.19
   1   5   0 1329.27  106.69
  -1   5   0 1639.74  109.89
   1   5   0 1581.14  101.29
  -1   5   0 1478.65  105.79
   1   5   0 1445.06  105.89
  -1   5   0 1408.06  105.89
  -1   5   0 1414.16  102.39
   2  -5   0  556.54   51.09
   2  -5   0  580.94   43.70
  -2  -5   0  552.14   42.10
  -2  -5   0  584.24   44.30
   2  -5   0  525.65   39.60
   2  -5   0  582.54   50.29
  -2  -5   0  627.24   47.10
  -2   5   0  248.78   23.30
  -2   5   0  234.18   31.60
   2   5   0  235.38   27.90
   2   5   0  252.57   22.30
   2   5   0  295.57   29.40
   2   5   0  208.18   30.80
  -3  -5   0    8.00    6.30
   3  -5   0   10.80    7.50
   3  -5   0   10.90   11.20
  -3  -5   0    5.00    7.70
   3   5   0   -1.00    8.40
   3   5   0   -2.30    7.60
  -3   5   0   -3.70    7.30
   3   5   0   -0.40    5.30
  -3   5   0    7.40   14.20
   4  -5   0   88.49   13.30
   4  -5   0   96.79   13.60
   4  -5   0   76.59   11.60
   4  -5   0   97.19   18.70
   4  -5   0  108.39   21.90
   4   5   0   75.79   19.50
   4   5   0   57.19    8.40
   4   5   0   55.39    8.10
   4   5   0   53.69    8.80
   4   5   0   56.79   13.00
   4   5   0   64.39   13.40
   4   5   0   65.09   14.80
   5  -5   0  136.19   21.40
   5  -5   0  107.49   14.00
   5  -5   0  122.89   13.40
   5  -5   0   82.19   15.70
   5  -5   0  113.89   19.30
  -5  -5   0  143.49   11.50
   5   5   0  152.28   20.50
   5   5   0  176.88   28.10
   5   5   0  179.08   15.60
   5   5   0  180.58   18.10
   5   5   0  188.68   15.90
   5   5   0  161.78   19.90
  -6  -5   0   48.00    7.00
   6  -5   0   43.90    6.80
   6  -5   0   61.09   10.70
   6  -5   0   22.20    7.00
   6  -5   0   45.90    6.00
   6   5   0   38.30    5.10
   6   5   0   36.50    4.90
   6   5   0   30.90    9.30
   6   5   0   29.60    7.20
   6   5   0   40.10    7.50
   0  -6   0 4533.05  283.37
   0  -6   0 4377.96  283.87
   0  -6   0 3960.30  287.87
   0  -6   0 4233.28  281.87
   0   6   0 4487.45  308.77
   0   6   0 4836.12  306.27
   0   6   0 4571.84  311.27
  -1  -6   0  680.43   50.99
  -1  -6   0  686.43   48.40
  -1  -6   0  636.14   45.60
   1  -6   0  643.24   55.79
   1  -6   0  727.73   53.39
  -1  -6   0  618.64   47.70
   1  -6   0  718.33   47.70
   1  -6   0  670.73   46.60
  -1   6   0  471.85   37.30
  -1   6   0  475.85   41.30
   1   6   0  423.66   40.90
   1   6   0  447.26   40.50
  -1   6   0  468.95   35.00
  -1   6   0  513.75   41.50
  -1   6   0  528.65   44.50
   1   6   0  529.95   42.50
   1   6   0  491.95   36.20
  -2  -6   0  105.19   16.30
   2  -6   0   82.69   12.30
   2  -6   0   72.79   16.60
  -2  -6   0   90.59   12.60
  -2  -6   0   69.59   10.60
   2  -6   0   94.59   19.80
   2  -6   0   80.09    8.90
  -2   6   0  129.09   18.70
  -2   6   0  134.99   26.70
   2   6   0  104.59   23.40
  -2   6   0  134.19   24.00
   2   6   0  145.39   20.30
   2   6   0  146.69   16.60
  -2   6   0  123.89   23.80
  -2   6   0  130.69   15.10
   2   6   0  119.19   21.70
   3  -6   0  973.20   80.89
  -3  -6   0 1125.29   82.59
   3  -6   0 1092.39   91.49
   3  -6   0 1102.59   89.69
  -3  -6   0 1257.77   86.89
  -3   6   0  980.90   90.79
  -3   6   0  964.90   88.39
  -3   6   0  945.61   84.99
   3   6   0  986.10   71.39
  -3   6   0  937.01   76.29
   4  -6   0  287.67   31.20
   4  -6   0  303.37   32.10
   4  -6   0  257.37   24.80
   4  -6   0  281.67   24.80
   4  -6   0  270.87   23.80
   4   6   0  359.26   27.50
   4   6   0  332.27   30.60
   4   6   0  347.97   31.90
   4   6   0  351.96   27.00
   4   6   0  316.57   32.60
   4   6   0  366.26   27.00
   4   6   0  401.36   39.00
   5  -6   0   14.50    8.80
  -5  -6   0   17.70    4.60
   5  -6   0   15.00    6.80
   5  -6   0   10.30    5.90
   5  -6   0   17.90    6.30
   5  -6   0   12.00   10.60
   5   6   0   19.30    9.40
   5   6   0   33.70   14.30
   5   6   0   18.30    5.00
   5   6   0   24.20    9.20
   5   6   0   21.00    5.80
   5   6   0   26.10    8.80
   6  -6   0   59.89    7.70
   6  -6   0   48.80    6.40
   6  -6   0   55.99   10.50
  -6  -6   0   49.99    7.30
   6   6   0   64.19   12.70
   6   6   0  115.79    8.60
   6   6   0   94.09   10.50
   6   6   0   68.09   10.10
   6   6   0  103.99    8.40
   0  -7   0   -1.70    4.50
   0  -7   0    1.50    5.10
   0  -7   0    0.10    6.50
   0  -7   0    5.20    3.70
   0   7   0    4.00    4.40
   0   7   0   -3.10    7.70
   0   7   0    3.90    6.40
   1  -7   0 1613.94  116.19
  -1  -7   0 1600.74  108.09
  -1  -7   0 1601.74  110.09
   1  -7   0 1631.44  110.29
   1  -7   0 1618.04  108.99
  -1  -7   0 1607.34  110.89
  -1  -7   0 1736.13  113.79
   1  -7   0 1555.74  119.69
  -1   7   0 1750.02  121.69
  -1   7   0 1750.02  129.29
  -1   7   0 1769.92  125.89
  -1   7   0 1805.22  120.19
   1   7   0 1736.93  126.89
   1   7   0 1800.52  120.89
   1   7   0 1795.52  126.09
  -2  -7   0 1084.29   78.39
   2  -7   0 1095.69   79.49
   2  -7   0 1032.90   75.79
  -2  -7   0 1146.59   80.09
   2  -7   0 1118.99   89.59
   2  -7   0 1136.69   87.09
  -2  -7   0 1190.68   83.89
  -2   7   0 1129.49   89.19
   2   7   0 1047.10   87.59
   2   7   0 1061.89   86.49
   2   7   0 1079.29   78.29
  -2   7   0 1054.39   87.79
  -2   7   0 1029.50   81.19
   2   7   0 1229.48   85.59
  -2   7   0 1185.08   93.99
  -3  -7   0   30.30   13.80
   3  -7   0   58.49   12.30
  -3  -7   0   65.39   14.80
   3  -7   0   43.90   18.40
  -3  -7   0   52.29   11.30
   3   7   0   72.49   18.10
   3   7   0   62.79   12.40
  -3   7   0   65.19   21.70
  -3   7   0   62.49   16.30
  -3   7   0   56.09   22.30
  -3   7   0   83.49   27.30
   4  -7   0  110.69   15.00
   4  -7   0  103.69   15.00
   4  -7   0  119.29   21.60
   4  -7   0  105.79   14.00
   4  -7   0  136.39   23.40
   4   7   0  153.68   20.50
   4   7   0  171.38   28.00
   4   7   0  145.49   13.90
   4   7   0  145.69   18.30
   4   7   0  147.49   13.70
   4   7   0  140.99   15.20
   4   7   0  145.89   21.90
   5  -7   0   13.60    6.40
   5  -7   0   18.20    6.20
   5  -7   0   21.70    7.80
  -5  -7   0   29.90    5.50
   5  -7   0   20.40   10.80
   5  -7   0   17.00    9.20
   5   7   0   51.39    7.90
   5   7   0   48.80   12.20
   5   7   0   56.39   11.90
   5   7   0   41.20   16.50
   5   7   0   57.09    7.70
   5   7   0   52.09   10.90
   6  -7   0    6.50    3.40
   6  -7   0    8.80    3.90
  -6  -7   0   10.40    3.80
   6   7   0   19.60    3.50
   6   7   0    5.40    7.10
   6   7   0   11.60    3.20
   6   7   0   20.90    5.50
   0  -8   0 2526.75  171.58
   0  -8   0 2411.36  179.88
   0  -8   0 2645.44  174.78
   0  -8   0 2747.12  173.78
   0   8   0 3052.29  211.58
   0   8   0 3183.48  204.58
   0   8   0 2952.00  208.08
  -1  -8   0  405.66   31.70
   1  -8   0  386.96   40.00
  -1  -8   0  401.56   33.90
  -1  -8   0  393.76   28.80
   1  -8   0  389.26   29.70
   1  -8   0  409.96   37.40
   1  -8   0  415.16   31.40
  -1   8   0  331.57   26.40
  -1   8   0  318.77   30.40
   1   8   0  338.77   34.40
   1   8   0  341.77   27.70
   1   8   0  343.97   32.70
   1   8   0  323.67   33.10
   2  -8   0  106.29   11.10
   2  -8   0  105.09   21.90
  -2  -8   0  118.89   17.90
  -2  -8   0   87.09   12.40
   2  -8   0  100.29   20.00
  -2  -8   0   84.69   13.00
   2   8   0   80.09   20.10
   2   8   0  128.29   20.90
  -2   8   0  119.39   26.30
   2   8   0  104.19   14.40
   2   8   0  101.19   22.90
  -2   8   0  104.89   23.40
  -2   8   0  106.49   16.70
  -2   8   0  115.09   22.60
  -3  -8   0  824.32   64.69
   3  -8   0  776.12   64.69
  -3  -8   0  704.13   71.99
   3  -8   0  927.01   77.79
  -3  -8   0  995.50   69.99
   3  -8   0  860.31   73.49
  -3   8   0  633.14   69.99
  -3   8   0  623.84   65.79
   3   8   0  792.82   61.89
  -3   8   0  752.02   75.89
   3   8   0  637.94   52.39
  -3   8   0  603.94   56.99
   4  -8   0  124.49   23.10
   4  -8   0  111.79   14.50
   4  -8   0  127.39   16.00
   4  -8   0  123.79   16.30
   4   8   0  182.08   16.00
   4   8   0  171.08   19.30
   4   8   0  187.58   20.70
   4   8   0  170.18   24.20
   4   8   0  200.38   31.20
   4   8   0  184.28   16.70
   4   8   0  176.38   15.70
   5  -8   0   -0.70    4.70
   5  -8   0    0.50    4.40
  -5  -8   0    1.00    3.20
   5  -8   0    7.40    9.70
   5  -8   0    2.90    6.20
   5  -8   0   -0.20    6.30
   5   8   0    3.30    4.00
   5   8   0   -2.50    5.80
   5   8   0   -0.90    6.90
   5   8   0    4.40    6.30
   5   8   0   -4.10   10.00
   5   8   0    0.30    3.20
  -6  -8   0   48.10    6.70
   6  -8   0   55.59    7.80
   6   8   0   66.59    6.00
   6   8   0   49.10    8.10
   0  -9   0   -1.50    4.20
   0  -9   0   -1.20    7.20
   0  -9   0   -2.20    5.10
   0  -9   0    2.60    3.80
   0   9   0   -0.80    4.60
   0   9   0    1.90    8.10
   0   9   0    0.10    6.50
   1  -9   0 1569.74  108.29
   1  -9   0 1656.53  117.99
  -1  -9   0 1598.54  107.59
   1  -9   0 1568.84  110.09
   1  -9   0 1626.64  121.09
  -1  -9   0 1560.34  112.99
  -1  -9   0 1637.84  110.49
  -1   9   0 1642.74  124.19
   1   9   0 1756.42  129.59
   1   9   0 1815.82  127.79
   1   9   0 1850.91  130.29
   1   9   0 1808.52  121.89
  -1   9   0 1751.72  120.69
   2  -9   0 1000.60   82.19
  -2  -9   0 1024.80   69.99
   2  -9   0 1045.40   79.99
  -2  -9   0  800.42   69.09
   2  -9   0  966.40   67.09
  -2  -9   0 1012.60   74.09
   2   9   0  839.22   61.39
  -2   9   0  760.62   69.79
   2   9   0  837.42   73.39
  -2   9   0  790.62   60.79
   2   9   0  940.51   68.99
  -2   9   0  888.61   76.29
  -2   9   0  751.12   63.39
   3  -9   0   13.60   13.10
  -3  -9   0   43.30   12.50
   3  -9   0   42.10   17.90
  -3  -9   0   27.20    9.30
  -3   9   0   29.90   20.20
  -3   9   0   38.60   19.60
  -3   9   0   31.60   13.80
  -3   9   0   12.10    7.90
   3   9   0   43.30   14.50
   3   9   0   24.30    8.30
   4  -9   0  138.39   21.10
   4  -9   0  114.29   15.10
   4  -9   0  112.59   22.10
   4  -9   0   96.09   14.00
   4  -9   0  104.29   16.20
   4   9   0  203.68   30.90
   4   9   0  182.18   19.60
   4   9   0  175.38   16.50
   4   9   0  177.88   15.70
   4   9   0  185.18   21.10
   5  -9   0  116.29   19.50
   5  -9   0   93.49   14.20
   5  -9   0   96.49   12.80
   5  -9   0  106.09   12.90
  -5  -9   0  110.49   10.10
   5   9   0  129.29   24.30
   5   9   0  140.89   16.80
   5   9   0  131.99   13.00
   5   9   0  151.38   12.80
   5   9   0  140.69   14.90
  -6  -9   0   25.10    5.30
   6   9   0   30.90    5.00
   0 -10   0 1164.68   89.39
   0 -10   0 1194.08   96.09
   0 -10   0 1408.96   89.69
   0 -10   0 1385.16   87.29
   0  10   0  951.70   73.99
   0  10   0  937.11   77.09
   0  10   0 1016.90   69.09
   1 -10   0  533.25   37.60
   1 -10   0  517.45   39.60
  -1 -10   0  513.05   36.70
  -1 -10   0  477.35   41.30
   1 -10   0  522.75   50.39
  -1 -10   0  512.55   39.40
  -1  10   0  555.84   48.90
   1  10   0  518.35   48.00
   1  10   0  484.45   44.80
  -1  10   0  480.45   41.80
   1  10   0  473.05   47.00
  -1  10   0  467.05   37.80
   1  10   0  505.25   39.50
  -2 -10   0  139.79   16.30
   2 -10   0  161.28   29.30
  -2 -10   0  102.69   16.50
   2 -10   0  161.18   26.60
  -2 -10   0  134.99   18.10
   2 -10   0  163.78   15.10
   2  10   0  128.79   28.80
  -2  10   0  114.29   17.70
  -2  10   0  152.48   29.20
  -2  10   0  111.19   15.00
   2  10   0  126.99   17.20
   2  10   0  156.68   24.30
  -2  10   0  136.39   23.90
   3 -10   0  139.89   28.00
  -3 -10   0  161.88   22.70
  -3 -10   0  205.48   24.50
  -3  10   0  207.48   25.40
  -3  10   0  193.58   28.70
  -3  10   0  241.98   44.30
  -3  10   0  207.48   36.80
   3  10   0  224.18   25.70
   3  10   0  282.37   32.30
   4 -10   0   52.49   16.50
  -4 -10   0   44.30    7.60
   4 -10   0   48.90   11.60
   4 -10   0   50.59   14.10
   4 -10   0   50.69    9.90
   4 -10   0   57.19   10.40
   4  10   0   61.09   13.40
   4  10   0   44.10    6.80
   4  10   0   38.90   15.40
   4  10   0   28.00    6.60
   4  10   0   47.80   11.50
  -5 -10   0   11.60    3.80
   5 -10   0    8.40    6.80
   5 -10   0    8.50    4.90
   5 -10   0   13.20   10.30
   5 -10   0    8.90    5.70
   5  10   0   20.10    4.80
   5  10   0   28.20    7.90
   5  10   0   30.90    8.50
   5  10   0   23.20   11.50
   5  10   0   21.40    5.50
   0 -11   0   -1.40    5.20
   0 -11   0    2.30    4.40
   0 -11   0   -2.40    7.10
   0 -11   0    0.00    4.70
   0  11   0    0.10    8.30
   0  11   0   -1.20    7.90
   0  11   0    8.30    5.90
   1 -11   0  385.06   31.60
  -1 -11   0  386.26   31.60
  -1 -11   0  371.26   33.50
   1 -11   0  382.06   42.20
   1 -11   0  405.06   29.40
  -1 -11   0  351.26   28.20
   1  11   0  386.36   44.00
  -1  11   0  442.26   35.50
  -1  11   0  442.96   39.40
   1  11   0  435.86   36.80
  -1  11   0  459.85   45.80
   1  11   0  460.35   46.30
   1  11   0  509.05   44.20
   2 -11   0 1000.70   84.39
  -2 -11   0  993.90   77.59
  -2 -11   0  955.20   72.49
   2 -11   0 1117.59   88.29
   2 -11   0  986.30   70.59
  -2  11   0  721.93   53.79
   2  11   0  765.52   69.99
  -2  11   0  624.94   58.59
   2  11   0  777.92   55.29
  -3 -11   0   15.60    5.70
   3 -11   0   13.50    7.30
   3 -11   0   20.40   10.70
   3 -11   0   16.40   22.80
   3 -11   0   11.70   15.10
   3 -11   0   29.30   14.40
   3 -11   0   13.50    7.00
   3  11   0   25.90   13.60
  -3  11   0   30.40   20.30
  -3  11   0   24.70   17.00
  -3  11   0   17.30   10.30
   3  11   0   28.10    7.00
  -3  11   0   32.40   13.70
   3  11   0   36.40   16.30
   3  11   0   32.00   11.50
   4 -11   0  150.58   21.80
   4 -11   0  121.29   15.90
   4 -11   0  127.59   16.40
  -4 -11   0  125.09   12.80
   4 -11   0  123.29   18.40
   4 -11   0  131.19   24.80
   4  11   0  125.69   24.50
   4  11   0   93.69   11.90
   4  11   0  133.89   18.00
   4  11   0  106.19   10.90
   5 -11   0  110.59   14.40
   5 -11   0  114.69   20.00
   5 -11   0  107.39   13.30
   5 -11   0  126.29   13.00
  -5 -11   0  127.99   10.60
   5  11   0  150.68   12.50
   5  11   0  155.78   15.80
   5  11   0  119.09   22.50
   5  11   0  133.99   12.80
   0 -12   0  302.57   25.90
   0 -12   0  252.67   26.90
   0 -12   0  310.37   23.50
   0 -12   0  302.57   33.50
   0  12   0  474.25   37.00
   0  12   0  389.16   43.40
   0  12   0  494.25   44.50
   1 -12   0  203.68   30.20
  -1 -12   0  191.78   19.70
  -1 -12   0  162.98   20.40
   1 -12   0  201.68   20.00
  -1 -12   0  177.58   16.10
   1 -12   0  185.28   16.70
   1  12   0  322.37   34.60
   1  12   0  290.97   36.10
   1  12   0  302.17   27.90
  -1  12   0  274.67   25.60
  -1  12   0  293.47   30.40
  -1  12   0  294.47   35.70
  -2 -12   0  129.69   16.90
  -2 -12   0  131.89   19.80
   2 -12   0  146.09   29.50
   2 -12   0  148.59   15.40
   2  12   0  120.69   30.70
   2  12   0  135.89   18.70
  -2  12   0  110.69   20.40
   2  12   0  166.78   26.00
  -2  12   0  141.09   17.60
   3 -12   0  401.26   37.90
   3 -12   0  454.85   37.30
   3 -12   0  482.45   41.80
   3 -12   0  462.05   45.40
  -3 -12   0  447.66   34.40
  -3 -12   0  473.85   34.40
   3 -12   0  451.35   36.20
   3  12   0  679.13   49.90
   3  12   0  698.03   52.89
   3  12   0  698.73   62.19
  -4 -12   0   41.40    7.50
   4 -12   0   40.00   11.70
   4 -12   0   44.30   12.80
  -4 -12   0   56.69    7.50
   4 -12   0   41.20    9.60
   4 -12   0   37.80   16.40
   4 -12   0   50.39   10.30
   4  12   0   50.89    8.20
   4  12   0   73.49   12.90
   4  12   0   54.19    7.60
   4  12   0   60.29   17.90
   5 -12   0   -0.10    5.00
   5 -12   0   -0.50    8.50
  -5 -12   0    2.90    2.70
  -5 -12   0    2.20    4.30
   5 -12   0   -0.70    3.70
   5 -12   0    3.60    5.00
   5  12   0    1.30    3.20
   5  12   0    1.50    3.30
   5  12   0    5.10    8.40
   0 -13   0   -1.60    7.70
   0 -13   0    5.40    4.50
   0 -13   0   -3.30    4.50
   0  13   0    5.00    9.90
   0  13   0   -0.80    8.40
   0  13   0    1.70    6.00
  -1 -13   0  155.88   15.00
   1 -13   0  181.38   28.90
   1 -13   0  152.78   19.00
   1 -13   0  164.88   16.00
  -1 -13   0  137.49   20.00
  -1 -13   0  145.69   18.40
   1  13   0  183.38   22.10
  -1  13   0  142.99   28.10
  -1  13   0  176.08   23.60
   1  13   0  147.59   29.80
  -1  13   0  179.08   20.00
  -2 -13   0   56.59   11.20
   2 -13   0   71.09   21.30
   2 -13   0   60.19    9.80
  -2 -13   0   66.69   13.80
  -2  13   0   46.60   19.40
  -2  13   0   49.80   10.80
   2  13   0   53.79   12.20
   3 -13   0   96.09   23.70
  -3 -13   0   88.59   10.70
  -3 -13   0   70.39   10.00
   3 -13   0   73.09   12.70
   3 -13   0   92.89   17.60
   3 -13   0   64.49   12.60
   3 -13   0   67.39    9.50
   3  13   0   84.79   22.80
   3  13   0   89.19   15.10
   3  13   0   70.39   10.60
   4 -13   0   46.70   17.10
   4 -13   0   25.90    9.90
  -4 -13   0   54.29    7.30
  -4 -13   0   47.70    7.40
   4 -13   0   53.79   13.20
   4 -13   0   35.70    9.60
   4 -13   0   46.90    9.90
   4  13   0   36.80   14.50
   4  13   0   32.80    6.80
   4  13   0   52.09   10.80
   5 -13   0   24.30    6.10
   5 -13   0   13.00    9.40
   5 -13   0   19.40    4.90
  -5 -13   0   24.40    3.90
   5 -13   0    9.20    5.00
  -5 -13   0   14.70    4.90
   5  13   0   21.80    9.70
   5  13   0   26.90    4.90
   0 -14   0  852.31   64.69
   0 -14   0  921.11   61.79
   0 -14   0  846.12   74.99
   0  14   0  941.21   65.99
   0  14   0  788.52   75.39
  -1 -14   0  125.29   12.70
   1 -14   0  135.69   13.80
  -1 -14   0   69.99   15.90
   1 -14   0  128.29   17.40
   1 -14   0  132.09   27.10
  -1 -14   0  112.69   15.50
  -1  14   0  114.19   16.00
   1  14   0   90.69   26.00
  -1  14   0   91.39   23.30
   1  14   0  111.69   17.50
  -2 -14   0   70.29   13.20
   2 -14   0   98.49   12.30
  -2 -14   0  102.59   15.70
  -2 -14   0   83.69   16.20
   2 -14   0  116.39   26.80
  -2  14   0   75.19   24.20
   2  14   0   83.89   15.10
  -2  14   0   60.09   12.60
   3 -14   0  305.37   28.00
   3 -14   0  364.46   33.20
   3 -14   0  290.27   24.80
   3 -14   0  310.97   37.20
  -3 -14   0  328.47   25.40
  -3 -14   0  318.77   25.30
   3 -14   0  305.17   28.20
   3  14   0  296.67   40.90
   3  14   0  289.37   24.10
   4 -14   0   28.50   14.90
   4 -14   0   31.50   11.50
   4 -14   0   31.00    8.20
   4 -14   0   23.80    8.10
   4 -14   0   37.10    9.80
  -4 -14   0   36.00    6.40
  -4 -14   0   41.60    6.10
   4  14   0   37.90    6.80
   4  14   0   34.10   14.50
   5 -14   0    4.60    3.40
   5 -14   0   11.00    4.70
   5 -14   0    6.20    7.80
  -5 -14   0    1.50    2.90
  -5 -14   0    7.40    2.50
   5  14   0    8.60    7.50
   5  14   0    5.10    3.10
   0 -15   0   -2.00    9.20
   0 -15   0    1.30    5.50
   0 -15   0    2.10    4.80
   0  15   0    0.00    9.60
   0  15   0    5.30    7.40
  -1 -15   0  106.29   15.80
  -1 -15   0  132.19   14.30
   1 -15   0  145.19   28.90
   1 -15   0  118.59   13.60
   1 -15   0   90.19   15.90
  -1 -15   0   99.89   21.20
   1  15   0  203.58   24.50
  -1  15   0  178.08   33.50
   1  15   0  136.39   32.10
  -1  15   0  203.58   22.70
   2 -15   0  345.47   30.30
   2 -15   0  428.36   43.20
   2 -15   0  402.46   33.00
   2 -15   0  402.96   29.90
  -2 -15   0  398.76   35.60
  -2 -15   0  393.56   29.90
  -2 -15   0  419.26   30.60
   2 -15   0  409.56   37.40
   2 -15   0  360.16   31.90
   2  15   0  703.03   49.60
   2  15   0  661.53   52.39
   2  15   0  704.63   59.79
  -3 -15   0   59.69    8.80
  -3 -15   0   69.89    9.30
   3 -15   0   53.89   11.40
   3 -15   0   77.39   16.00
   3 -15   0   66.39    8.90
   3 -15   0   85.09   21.90
   3 -15   0   71.69   12.50
   3  15   0  127.69   14.50
   3  15   0  129.09   26.50
   4 -15   0   86.59   15.50
   4 -15   0   68.99   11.20
  -4 -15   0   80.89    9.20
   4 -15   0   70.89   18.90
  -4 -15   0   71.49   11.80
   4 -15   0   82.69   12.10
  -4 -15   0   96.79    8.90
   4  15   0   78.69   17.80
   4  15   0   81.69    9.70
   5 -15   0   42.30    6.10
  -5 -15   0   47.20    4.40
   5 -15   0   26.10    9.00
  -5 -15   0   35.50    5.10
   5 -15   0   34.00    5.20
   5  15   0   49.99   11.10
   5  15   0   60.89    6.20
   0 -16   0   41.90    8.50
   0 -16   0   29.20    9.00
   0  16   0  114.19   27.90
   0  16   0  168.98   21.50
   1 -16   0   52.59   18.20
   1 -16   0   43.40   12.60
  -1 -16   0   42.40   15.30
   1 -16   0   37.90   12.00
  -1 -16   0   51.49    8.10
   1 -16   0   51.19    7.40
   1 -16   0   46.20    8.50
   1 -16   0   64.19   21.00
  -1 -16   0   52.19   19.00
   1 -16   0   50.59   12.00
  -1 -16   0   44.30   12.10
   1 -16   0   58.99   10.30
  -1  16   0   74.69   14.20
   1  16   0   54.79   25.80
  -1  16   0   53.59   24.50
  -2 -16   0   48.10   12.00
   2 -16   0   38.50    9.60
  -2 -16   0   38.20    7.30
   2 -16   0   39.10    8.30
   2 -16   0   48.70   10.20
   2 -16   0   42.90   13.20
  -2 -16   0   37.90    6.90
   2 -16   0   52.69   18.90
   2 -16   0   43.00    7.20
   2  16   0   52.19   12.00
   2  16   0   63.89    9.60
   2  16   0   66.29   18.50
   3 -16   0   68.39   21.30
   3 -16   0   58.69    8.70
   3 -16   0   62.89   14.80
  -3 -16   0   69.79    9.00
   3 -16   0   77.49   12.60
  -3 -16   0   79.79    9.90
   3 -16   0   71.49   12.50
   3  16   0   81.39   21.10
   3  16   0  103.49   12.50
   4 -16   0   19.30   12.20
  -4 -16   0   31.40    5.00
   4 -16   0   30.10    9.00
  -4 -16   0   27.80    4.90
   4 -16   0   21.50    7.00
   4 -16   0   24.60    6.70
   4  16   0   38.60    6.20
   4  16   0   17.60    9.90
  -5 -16   0   14.30    2.50
   5  16   0   14.70    2.80
   5  16   0   13.10    9.20
   0 -17   0   -1.90    3.40
   0 -17   0   -9.20   14.00
   0 -17   0    8.50    7.80
   0 -17   0   -0.70    4.40
   0 -17   0    3.80    4.80
   0 -17   0    0.10    7.10
   0 -17   0    2.10    7.90
   1 -17   0  281.27   27.70
   1 -17   0  241.88   22.50
   1 -17   0  247.28   26.20
  -1 -17   0  225.38   23.70
  -1 -17   0  241.68   21.20
   1 -17   0  268.27   31.10
   1 -17   0  286.67   21.90
  -1 -17   0  244.08   20.60
   1 -17   0  239.18   20.20
   1 -17   0  238.68   22.70
  -1 -17   0  255.17   26.50
   1  17   0  250.87   21.30
   2 -17   0  439.96   38.00
   2 -17   0  456.85   36.30
  -2 -17   0  488.35   36.00
   2 -17   0  479.65   37.90
   2 -17   0  500.65   48.00
  -2 -17   0  471.55   34.90
   2 -17   0  496.25   35.40
   2 -17   0  488.05   42.40
  -2 -17   0  473.85   40.50
   2  17   0  519.85   47.90
   2  17   0  513.65   37.40
   2  17   0  465.75   39.50
  -3 -17   0   62.59    8.50
   3 -17   0   68.39   11.90
   3 -17   0   66.09   11.40
   3 -17   0   64.89   13.90
   3 -17   0   71.99   20.10
  -3 -17   0   65.49    8.40
   3 -17   0   59.89    8.20
   3  17   0   96.99   21.40
   3  17   0   84.59   11.20
   4 -17   0   48.20   14.20
   4 -17   0   53.09    9.00
   4 -17   0   47.20    8.30
  -4 -17   0   64.99    6.40
   4 -17   0   57.79   10.90
  -4 -17   0   58.99    6.50
   4  17   0   73.39    8.30
   4  17   0   50.29   13.20
   0 -18   0  269.07   27.00
   0 -18   0  230.68   20.90
   0 -18   0  205.08   24.50
   0 -18   0  239.38   19.60
   0 -18   0  236.68   22.80
   0 -18   0  286.67   37.70
   0 -18   0  260.57   20.60
   0  18   0  367.16   29.20
  -1 -18   0  169.08   15.80
   1 -18   0  178.68   22.90
   1 -18   0  210.68   25.80
  -1 -18   0  194.58   20.90
  -1 -18   0  186.38   23.50
   1 -18   0  184.68   19.90
   1 -18   0  181.68   16.70
   1 -18   0  159.28   17.60
   1 -18   0  204.78   31.20
  -1 -18   0  161.18   16.40
   1 -18   0  157.58   15.30
   1  18   0  265.27   21.90
   2 -18   0   50.49   10.50
   2 -18   0   51.39    8.90
  -2 -18   0   56.19   12.40
  -2 -18   0   55.39    7.80
  -2 -18   0   52.19    8.50
   2 -18   0   63.39    8.70
   2 -18   0   79.49   20.90
   2 -18   0   59.99   11.00
   2 -18   0   52.69   13.90
   2  18   0   56.49    9.10
   2  18   0   51.09   16.60
   2  18   0   53.29   10.50
   3 -18   0   94.59   22.00
  -3 -18   0  103.39    9.90
   3 -18   0  102.09   13.80
  -3 -18   0   98.09   10.50
   3 -18   0   93.19   13.20
   3 -18   0   89.89   15.80
   3 -18   0   97.89   10.80
   3  18   0  169.98   15.10
   3  18   0  145.79   25.30
   4 -18   0   52.19    8.20
   4 -18   0   53.19    9.80
   4 -18   0   49.20    7.60
   4 -18   0   42.30   12.70
  -4 -18   0   60.29    6.30
  -4 -18   0   56.49    6.10
   4  18   0   68.89   14.30
   4  18   0   85.99    8.60
   0 -19   0  -10.90    6.70
   0 -19   0   -1.00    7.20
   0 -19   0   -1.90    7.70
   0 -19   0   -0.50    4.40
   0 -19   0    2.50   14.30
   0 -19   0    0.80    3.30
   0 -19   0    2.60    4.40
   0  19   0   -0.60    4.30
   1 -19   0   56.79   13.80
  -1 -19   0   51.09   10.40
   1 -19   0   52.89   12.60
   1 -19   0   50.69    7.60
   1 -19   0   54.09    8.60
   1 -19   0   63.39   20.50
  -1 -19   0   36.60    7.90
   1 -19   0   52.59   10.10
  -1 -19   0   42.10   11.60
  -1 -19   0   47.50    7.50
   1 -19   0   49.80    8.60
   1  19   0   33.70    6.70
   1  19   0   37.00   17.10
   2 -19   0   88.39   12.70
  -2 -19   0   74.19    9.70
   2 -19   0   65.79   10.00
   2 -19   0   81.69    9.40
  -2 -19   0   54.39   12.50
   2 -19   0   75.49   15.20
   2 -19   0   61.89   18.20
   2 -19   0   55.19   11.30
  -2 -19   0   68.79    8.80
   2  19   0  154.88   26.00
   2  19   0  133.49   15.10
   2  19   0  158.58   15.80
   3 -19   0    3.60    5.70
  -3 -19   0    6.20    3.30
   3 -19   0    4.80    6.50
  -3 -19   0    3.40    3.30
   3 -19   0    6.60    3.50
   3 -19   0    8.00    5.00
   3 -19   0    6.40   10.80
   3  19   0   10.40    4.60
   3  19   0   11.90    9.40
  -4 -19   0   23.20    3.50
   4 -19   0   17.30    4.50
  -4 -19   0   25.50    3.90
   4 -19   0   19.10    5.90
   4 -19   0   12.40    7.30
   4  19   0   30.80    8.70
   4  19   0   30.10    4.50
   0 -20   0  492.65   39.10
   0 -20   0  438.96   43.80
   0 -20   0  438.86   31.10
   0 -20   0  373.76   37.10
   0 -20   0  404.26   34.30
   0 -20   0  457.95   32.40
   0 -20   0  392.16   32.80
   0  20   0  545.45   40.60
  -1 -20   0   66.29    8.80
   1 -20   0   57.29   20.50
  -1 -20   0   74.59   11.10
  -1 -20   0   58.39   13.30
  -1 -20   0   53.19    8.90
   1 -20   0   63.59   11.50
   1 -20   0   64.09   14.50
   1 -20   0   57.59    8.00
   1 -20   0   69.09   11.20
   1 -20   0   53.39   12.60
   1 -20   0   65.39    9.60
   1  20   0   85.69   21.70
   1  20   0   87.59   11.20
   2 -20   0    6.90    6.70
   2 -20   0    7.40    7.90
   2 -20   0    7.50    5.80
   2 -20   0    8.00    4.70
  -2 -20   0    3.70    5.90
   2 -20   0    3.60    3.40
   2 -20   0   16.80   13.10
  -2 -20   0    1.90    3.60
   2  20   0    0.50    3.70
   2  20   0   -3.60    8.50
   2  20   0    2.10    3.90
   3 -20   0  185.28   14.60
   3 -20   0  168.68   17.30
  -3 -20   0  183.08   14.20
   3 -20   0  171.08   24.30
   3 -20   0  174.18   16.60
   3 -20   0  163.48   18.90
  -3 -20   0  182.88   15.00
   3  20   0  204.88   16.70
   3  20   0  217.78   24.70
   4 -20   0   56.69    8.70
   4 -20   0   51.69    6.90
  -4 -20   0   69.69    5.80
  -4 -20   0   84.29    6.40
   4 -20   0   53.49   11.20
   4  20   0   62.99   10.50
   4  20   0   74.49    6.30
   0 -21   0  -13.20    8.10
   0 -21   0   -1.30    3.20
   0 -21   0   15.80   13.30
   0 -21   0   -1.10    3.90
   0 -21   0   -0.50    6.70
   0 -21   0   -0.90    3.90
   0 -21   0  -10.80    6.20
   0  21   0    0.10    4.20
   1 -21   0  132.79   25.80
   1 -21   0  142.49   13.90
  -1 -21   0  122.49   13.50
  -1 -21   0  161.98   14.60
   1 -21   0  159.18   20.50
  -1 -21   0  128.69   12.80
   1 -21   0  132.99   16.40
   1 -21   0  133.69   19.30
   1 -21   0  142.89   12.60
  -1 -21   0  116.69   18.00
   1  21   0  166.88   26.50
   1  21   0  167.28   15.60
  -1  21   0  178.88   16.00
   2 -21   0  107.89   13.50
   2 -21   0   95.49   21.80
   2 -21   0   94.89   15.40
   2 -21   0   73.59   11.20
  -2 -21   0   78.99   13.40
  -2 -21   0   93.49   10.10
   2 -21   0   92.09   10.10
   2 -21   0  102.59   11.10
   2  21   0  149.99   23.60
   2  21   0  138.39   12.90
   2  21   0  134.69   13.40
   3 -21   0   11.80    3.20
  -3 -21   0   12.20    3.80
   3 -21   0   14.10    6.30
  -3 -21   0   13.10    3.20
   3 -21   0   12.90    5.20
   3 -21   0   15.00   11.50
   3  21   0   21.00    4.30
   3  21   0   19.70    8.90
   0 -22   0   40.20    6.90
   0 -22   0   38.00    9.50
   0 -22   0   45.90    6.10
   0 -22   0   17.40   16.70
   0 -22   0   39.60   10.90
   0  22   0   70.79    9.10
   1 -22   0   10.30   14.40
  -1 -22   0    6.00    4.10
   1 -22   0    2.10    6.40
   1 -22   0    2.50    7.50
  -1 -22   0    3.60    5.80
  -1 -22   0    1.10    3.60
   1 -22   0    2.60    4.20
   1 -22   0    4.80    3.40
   1 -22   0    3.30    7.60
  -1  22   0   13.80    5.40
   1  22   0   14.10    4.70
   1  22   0   11.50   10.20
  -2 -22   0    6.90    6.00
   2 -22   0    2.20    3.00
  -2 -22   0    0.50    3.10
   2 -22   0    9.90    6.70
   2 -22   0   27.90   14.60
   2 -22   0    2.20    6.80
   2 -22   0    4.40    3.40
   2  22   0    2.30    3.60
   2  22   0   -3.20    7.00
  -3 -22   0   19.90    3.80
   3 -22   0   18.70   10.80
   3 -22   0   17.70    3.30
   3 -22   0   14.40    6.10
   3 -22   0   16.20    5.40
   3  22   0   14.30    6.90
   3  22   0   23.50    3.90
   0 -23   0   -4.70    5.90
   0 -23   0   -0.70    2.80
   0 -23   0    0.00    3.40
   0 -23   0    3.40    5.80
   0  23   0    2.40    3.40
   0  23   0    3.60   11.80
   1 -23   0  121.29   10.90
  -1 -23   0   99.89   10.90
   1 -23   0  127.29   14.40
  -1 -23   0  113.99   15.50
   1 -23   0  105.39   20.70
   1 -23   0   99.29   15.50
   1 -23   0  106.49   15.10
   1 -23   0  117.89   10.20
  -1 -23   0   95.49    9.70
   1  23   0  153.28   22.30
   1  23   0  152.98   15.00
  -1  23   0  146.39   13.60
   1  23   0  146.09   13.10
   2 -23   0   55.49    9.40
   2 -23   0   51.39    5.90
  -2 -23   0   31.10    7.80
   2 -23   0   39.20    9.70
   2 -23   0   40.70    6.10
   2 -23   0   48.90   15.50
  -2 -23   0   42.30    6.40
   2  23   0   69.59   14.60
   2  23   0   71.69    7.90
   3 -23   0    4.60    1.70
   3 -23   0    7.80    5.80
   3 -23   0    2.40    8.20
  -3 -23   0    6.80    2.60
   3 -23   0   11.90    5.20
   3  23   0    3.70    4.40
   0 -24   0   49.99    9.80
   0 -24   0   59.89    7.10
   0 -24   0   48.70    8.10
   0  24   0   83.79   10.60
   0  24   0  106.19   18.70
   1 -24   0   72.49   11.00
   1 -24   0   56.29    6.60
  -1 -24   0   39.90    6.00
   1 -24   0   38.70    8.80
  -1 -24   0   33.80    8.20
   1 -24   0   51.19    5.80
   1 -24   0   35.50   10.70
   1 -24   0   24.60   12.30
   1  24   0   42.70   11.60
   1  24   0   48.20    6.40
   1  24   0   50.89    7.20
   2 -24   0   18.80    7.90
  -2 -24   0    9.20    3.20
   2 -24   0   12.60    2.90
   2 -24   0    3.70    9.60
   2 -24   0   13.70    7.00
   2 -24   0   11.50    3.30
  -2 -24   0    9.40    4.60
   2  24   0    5.70    3.40
   2  24   0    5.00    6.10
   0 -25   0    3.90    3.90
   0 -25   0   -0.60    3.80
   0 -25   0   -1.00    2.60
   0  25   0   -2.00    6.70
   1 -25   0    4.40    8.80
   1 -25   0   16.40    3.80
   1 -25   0   17.70    3.10
  -1 -25   0   14.80    5.50
  -1 -25   0   10.50    3.40
   1 -25   0   12.50    5.00
   1 -25   0   24.00    7.10
   1  25   0    8.80    7.00
  -1  25   0   19.90   10.10
   1  25   0   16.50    3.30
   2 -25   0   40.70    7.30
  -2 -25   0   35.40    5.60
   2 -25   0   32.60    3.80
   2  25   0   24.80    6.60
   0 -26   0   75.89    6.50
   0 -26   0   52.69    8.20
   0  26   0   98.19   13.80
   0  26   0  101.49    9.70
  -1 -26   0   15.40    4.60
   1 -26   0   19.60    3.30
   1 -26   0   17.50    4.90
  -1  26   0   23.00    7.20
   1  26   0   23.00    7.00
   6   0  -1   38.80    9.30
   6   0  -1   74.49    8.80
   6   0  -1   41.00    6.50
   6   0  -1   49.80    8.80
   6   0  -1   49.10    6.70
   5   0  -1  122.79   15.80
   5   0  -1  162.68   21.10
   5   0  -1  190.88   18.80
   5   0  -1  152.78   16.90
   5   0  -1  153.28   19.10
   5   0  -1  224.68   26.00
   4   0  -1   58.09   19.30
  -4   0   1   67.69   15.20
  -4   0   1   62.99   24.30
   3   0  -1  627.34   57.79
  -3   0   1  632.04   53.79
   3   0  -1  656.33   65.39
   3   0  -1  636.34   49.00
  -3   0   1  622.14   51.59
   3   0  -1  668.53   55.49
   2   0  -1   94.79   14.90
   2   0  -1   99.49   12.20
  -2   0   1   67.89   15.20
   2   0  -1  121.59   25.10
  -2   0   1   91.89   12.00
   2   0  -1   86.69   12.70
   2   0  -1   63.99   15.60
  -1   0   1 1120.19   74.39
   1   0  -1 1026.00   74.09
  -1   0   1 1230.68   77.29
   1   0  -1 1136.29   83.29
   1   0  -1 1185.98   78.89
   1   0  -1 1039.50   76.69
   1   0  -1 1034.10   78.59
   0   0  -1  262.37   19.20
   0   0   1  264.17   21.20
   0   0  -1  270.87   19.00
   0   0   1  224.28   24.30
   0   0   1  244.38   18.60
   1   0   1  302.37   27.40
   1   0   1  266.27   29.10
  -1   0  -1  356.06   30.80
   1   0   1  257.87   23.40
  -1   0  -1  323.67   24.10
   1   0   1  259.57   28.60
  -2   0  -1  715.33   54.59
  -2   0  -1  702.03   54.29
   2   0   1  714.83   53.79
  -2   0  -1  711.73   64.99
   2   0   1  796.92   62.79
   2   0   1  675.43   59.69
   2   0   1  721.33   59.39
   3   0   1  732.83   54.39
  -3   0  -1  666.53   54.69
   3   0   1  720.43   63.79
  -3   0  -1  583.74   66.19
   4   0   1   87.59   22.30
   4   0   1  106.99   15.40
   4   0   1   79.69   14.90
   4   0   1   84.09   11.70
   4   0   1   97.39   18.50
   4   0   1   85.49   14.30
   4   0   1   84.89   11.60
   5   0   1   -3.30    5.10
   5   0   1    1.30    4.80
   5   0   1   14.80    8.70
   5   0   1    8.00    5.60
   5   0   1    0.50    9.30
   5   0   1    5.70    6.70
   5   0   1   -5.10    5.20
   6   0   1   -3.40    3.10
   6   0   1   -4.10    2.70
   6   0   1    1.10    4.60
   6   0   1    2.70    3.20
   6   0   1   -0.20    4.90
   6  -1  -1    0.30    3.30
   6  -1  -1    1.60    4.00
   6  -1  -1   -1.10    3.40
   6  -1  -1   -2.00    5.10
   6   1  -1    0.70    5.80
   6   1  -1   -3.20    3.50
   6   1  -1    0.90    3.70
   6   1  -1   -0.10    3.10
   6   1  -1    2.60    4.30
   5  -1  -1  159.38   19.40
   5  -1  -1  206.78   19.30
   5  -1  -1  157.48   21.30
   5  -1  -1  148.49   17.00
   5  -1  -1  136.79   16.70
   5  -1  -1  261.27   27.10
   5   1  -1  159.18   24.90
   5   1  -1  109.59   19.00
   5   1  -1  135.99   17.90
   5   1  -1   78.99   11.80
   5   1  -1  105.49   16.80
   5   1  -1  105.39   12.90
   4  -1  -1  983.60   71.89
  -4  -1   1  944.71   72.79
   4  -1  -1  828.42   81.59
  -4  -1   1  925.81   88.49
  -4  -1   1 1000.20   75.89
  -4   1   1 1234.68  106.79
   4   1  -1 1102.89   96.19
  -4   1   1 1120.89   87.19
   4   1  -1 1181.78   85.89
   3  -1  -1   92.19   17.40
   3  -1  -1   91.99   14.30
   3  -1  -1   94.99   21.10
  -3  -1   1  102.19   16.90
  -3  -1   1  117.39   19.90
   3  -1  -1   94.69   25.80
   3   1  -1  198.38   22.10
   3   1  -1  211.38   39.60
  -3   1   1  189.98   24.10
  -3   1   1  192.88   22.50
   3   1  -1  187.18   27.30
   2  -1  -1 1150.18   76.69
   2  -1  -1 1091.99   80.39
   2  -1  -1 1164.78   90.79
  -2  -1   1 1129.79   77.79
  -2  -1   1 1029.00   81.59
   2  -1  -1 1059.49   83.49
   2   1  -1 1037.70   82.79
   2   1  -1  985.50   67.89
   2   1  -1  973.80   71.59
  -2   1   1  906.01   72.49
  -2   1   1  981.10   68.69
   2   1  -1  927.21   74.79
   1  -1  -1 1642.84  122.09
   1  -1  -1 1834.22  127.29
   1  -1  -1 1746.83  118.39
   1  -1  -1 1614.74  122.09
   1  -1  -1 1771.52  121.29
   1  -1  -1 1924.61  123.09
   1  -1  -1 1835.02  120.19
  -1  -1   1 1884.61  121.29
  -1  -1   1 1844.72  118.59
   1   1  -1 2359.36  153.18
   1   1  -1 2217.68  148.69
   1   1  -1 2040.80  143.49
   1   1  -1 2047.90  145.89
   0  -1  -1  116.89   10.60
   0  -1   1  113.49   10.40
   0  -1   1  115.89   12.70
   0  -1  -1  155.78   12.10
   0  -1   1  113.29   15.10
   0  -1   1  121.79   11.80
   0  -1   1  161.88   10.40
   0   1   1  356.66   34.50
   0   1  -1  450.75   30.30
   0   1   1  395.86   31.70
   0   1   1  388.46   28.30
   1  -1   1  769.92   67.09
   1  -1   1  856.31   67.59
   1  -1   1  931.31   66.79
   1  -1   1  875.31   62.29
  -1  -1  -1 1042.70   69.49
  -1  -1  -1  996.60   63.29
  -1  -1  -1  822.12   62.69
   1   1   1  528.95   45.80
  -1   1  -1  620.14   43.40
   1   1   1  604.44   49.50
   1   1   1  596.14   43.60
  -1   1  -1  693.73   50.89
   1   1   1  577.44   49.20
   2  -1   1 1857.61  137.19
  -2  -1  -1 1983.60  131.29
   2  -1   1 1942.61  138.39
  -2  -1  -1 1817.82  130.89
   2  -1   1 1914.91  130.19
   2  -1   1 1796.12  136.89
  -2  -1  -1 1910.41  142.29
   2   1   1 2239.08  152.08
   2   1   1 2234.68  150.08
   2   1   1 2022.50  149.49
   2   1   1 2155.88  143.79
  -2   1  -1 2081.29  156.08
  -2   1  -1 2094.19  144.49
  -2   1  -1 1883.61  143.19
  -3  -1  -1  470.65   41.30
  -3  -1  -1  518.85   42.20
   3  -1   1  489.65   50.19
   3  -1   1  413.16   39.70
  -3  -1  -1  438.46   52.89
   3   1   1  632.74   58.39
  -3   1  -1  577.94   49.99
   3   1   1  592.04   57.89
  -3   1  -1  590.34   64.29
   3   1   1  631.14   49.30
   4  -1   1    1.20    9.30
   4  -1   1   -5.40    6.60
   4  -1   1    1.60    4.90
   4  -1   1  -16.50   10.40
   4  -1   1    0.60    5.80
   4  -1   1    2.10    6.90
   4   1   1   -2.60    6.50
   4   1   1   -5.70    5.10
   4   1   1    5.70    5.00
   4   1   1   -8.10   12.50
   4   1   1   -2.70    7.40
   4   1   1    4.60    9.30
   4   1   1    4.00    6.90
   5  -1   1  110.69   20.70
   5  -1   1  144.89   14.70
   5  -1   1   94.69   15.80
   5  -1   1  106.79   12.90
   5  -1   1  118.59   12.70
   5  -1   1  124.59   18.40
   5   1   1  124.69   19.10
   5   1   1  109.19   15.80
   5   1   1  101.79   14.50
   5   1   1  137.29   13.20
   5   1   1  127.99   21.90
   5   1   1  128.19   13.40
   5   1   1  130.99   13.30
   6  -1   1   26.00    6.80
   6  -1   1   28.30    4.20
   6  -1   1   35.30    5.30
   6  -1   1   11.60    5.50
   6   1   1   20.70    5.10
   6   1   1   25.60    6.90
   6   1   1   26.80    6.70
   6   1   1   42.80    5.50
   6   1   1   35.50    4.40
   6  -2  -1   76.19    9.20
   6  -2  -1   82.49   10.20
   6  -2  -1   71.29   11.70
   6  -2  -1   78.69    8.60
   6   2  -1  136.59   14.40
   6   2  -1  116.79   15.30
   6   2  -1  127.39   11.90
   6   2  -1  149.88   12.10
   6   2  -1  137.19   12.50
   5  -2  -1   68.99   15.60
   5  -2  -1  109.19   20.20
   5  -2  -1  116.19   15.90
   5  -2  -1   61.29   12.60
   5  -2  -1   59.49   10.10
   5  -2  -1   65.99   10.20
   5   2  -1   81.69   14.70
   5   2  -1   71.89   10.80
   5   2  -1   74.29   10.70
   5   2  -1   85.39   14.80
   5   2  -1   77.19   16.50
   5   2  -1  107.29   21.20
  -4  -2   1  243.28   26.20
  -4  -2   1  225.28   27.90
   4  -2  -1  201.78   36.40
   4  -2  -1  190.98   24.80
  -4  -2   1  248.38   37.50
   4   2  -1  309.27   40.70
  -4   2   1  378.56   36.00
   4   2  -1  362.96   33.70
  -4   2   1  428.56   52.99
  -3  -2   1 1111.29   79.49
  -3  -2   1 1029.80   76.19
   3  -2  -1 1005.80   83.39
  -3  -2   1  988.00   77.99
   3  -2  -1  935.81   72.89
   3  -2  -1  968.60   88.99
  -3   2   1 1169.88   84.79
   3   2  -1 1116.29   81.29
  -3   2   1 1155.68   86.29
   3   2  -1 1169.78   91.09
   3   2  -1 1056.79   97.59
   2  -2  -1 1055.79   90.19
   2  -2  -1 1197.48   84.89
   2  -2  -1 1119.09   82.09
  -2  -2   1 1227.68   83.99
   2  -2  -1 1138.39   77.59
   2  -2  -1 1069.79   80.89
  -2  -2   1  996.00   78.19
   2   2  -1  935.01   85.29
  -2   2   1 1091.39   78.29
   2   2  -1 1041.60   73.09
   2   2  -1 1132.99   80.59
  -2   2   1 1005.80   74.09
  -1  -2   1  524.65   38.30
   1  -2  -1  531.75   40.00
   1  -2  -1  472.85   38.70
   1  -2  -1  528.95   37.30
  -1  -2   1  516.55   35.10
   1  -2  -1  514.55   38.30
  -1  -2   1  528.45   40.90
   1  -2  -1  554.44   37.90
   1  -2  -1  451.35   35.00
   1  -2  -1  573.54   35.40
   1  -2  -1  478.25   43.90
   1  -2  -1  445.06   40.00
   1   2  -1  579.34   46.70
   1   2  -1  555.04   43.80
   1   2  -1  670.63   51.79
   1   2  -1  587.14   41.50
   0  -2  -1  727.73   43.70
   0  -2   1  607.54   42.90
   0  -2  -1  614.54   42.40
   0  -2   1  584.34   41.90
   0  -2   1  592.14   43.90
   0  -2   1  561.84   46.20
   0  -2  -1  625.74   41.70
   0   2   1 1406.66   94.39
   0   2  -1 1589.34   90.49
   0   2  -1 1285.87   93.19
   0   2  -1 1525.55   97.89
   0   2   1 1141.99   96.59
   0   2   1 1215.88   90.19
  -1  -2  -1 6230.98  371.16
   1  -2   1 5429.86  369.76
   1  -2   1 4944.31  369.76
  -1  -2  -1 5172.38  365.16
  -1  -2  -1 6059.69  365.36
   1  -2   1 5177.58  362.16
   1  -2   1 5563.34  368.56
   1  -2   1 5538.15  364.36
   1   2   1 5591.44  389.36
   1   2   1 6589.34  396.06
  -1   2  -1 6556.24  397.36
   1   2   1 5122.89  391.56
   1   2   1 5849.02  395.86
  -1   2  -1 5716.93  389.36
  -2  -2  -1   87.39   13.20
   2  -2   1   74.99   17.40
  -2  -2  -1   64.59   12.80
   2  -2   1   80.79   13.20
  -2  -2  -1   82.29   20.70
   2  -2   1   70.09   17.70
   2  -2   1   68.19   17.40
  -2   2  -1   60.89   11.30
   2   2   1   93.39   19.40
   2   2   1   51.39   14.30
  -2   2  -1   80.39   20.90
   2   2   1   65.89   11.20
  -3  -2  -1  478.35   40.50
  -3  -2  -1  436.56   51.59
  -3  -2  -1  479.95   40.80
   3  -2   1  446.96   48.30
   3  -2   1  384.16   38.30
  -3   2  -1  511.45   59.39
   3   2   1  544.15   54.09
  -3   2  -1  489.45   45.30
   3   2   1  542.15   44.00
   3   2   1  582.44   53.79
   4  -2   1  207.18   24.70
   4  -2   1  258.07   23.30
   4  -2   1  230.18   21.50
   4  -2   1  227.18   21.30
   4  -2   1  266.87   28.70
   4  -2   1  276.67   32.70
   4   2   1  328.37   27.30
   4   2   1  342.37   29.50
   4   2   1  364.76   34.60
   4   2   1  329.47   31.80
   4   2   1  317.27   27.50
   4   2   1  418.06   41.60
   5  -2   1   42.40   15.30
   5  -2   1   58.19    8.60
   5  -2   1   47.00    8.60
   5  -2   1   38.80    9.10
   5  -2   1   47.50   12.10
   5  -2   1   41.80   10.70
   5   2   1   57.99   16.80
   5   2   1   59.09    9.40
   5   2   1   69.99   13.10
   5   2   1   70.59   11.00
   5   2   1   64.49   11.40
   5   2   1   63.69   14.00
   5   2   1   71.69    9.40
   6  -2   1    4.90    3.70
   6  -2   1    6.40    2.70
   6  -2   1   -2.20    4.10
   6  -2   1   -1.50    4.80
   6   2   1   10.50    3.50
   6   2   1    5.90    3.80
   6   2   1    1.30    5.20
   6   2   1    5.10    2.70
   6   2   1    9.90    5.70
   6  -3  -1    8.00    5.60
   6  -3  -1   11.50    4.40
   6  -3  -1   12.20    4.50
   6  -3  -1    7.80    4.80
   6   3  -1   16.00    4.50
   6   3  -1   13.80    7.20
   6   3  -1   14.90    5.90
   6   3  -1   18.00    5.50
   6   3  -1   11.70    4.20
   5  -3  -1  114.19   13.80
   5  -3  -1  161.88   20.30
   5  -3  -1   94.49   16.10
   5  -3  -1  123.89   14.60
   5  -3  -1  208.48   25.10
   5   3  -1  106.89   19.10
   5   3  -1  106.79   12.70
   5   3  -1  110.49   13.10
   5   3  -1  114.39   17.10
   5   3  -1   97.79   11.50
   5   3  -1  119.29   16.40
   5   3  -1  121.19   22.60
  -4  -3   1  165.18   24.50
   4  -3  -1  126.29   19.40
   4  -3  -1  124.49   28.20
  -4  -3   1  133.09   20.30
   4   3  -1  249.97   24.90
   4   3  -1  204.48   27.10
   4   3  -1  226.18   32.30
   4   3  -1  228.28   26.70
   4   3  -1  223.68   25.00
  -4   3   1  250.97   27.30
  -4   3   1  281.87   43.70
   4   3  -1  230.18   24.00
   4   3  -1  192.38   18.40
   3  -3  -1  466.65   48.60
  -3  -3   1  452.15   38.00
   3  -3  -1  505.15   54.39
   3  -3  -1  533.25   44.60
  -3  -3   1  529.25   45.00
  -3  -3   1  472.55   40.90
   3  -3  -1  451.95   38.90
   3   3  -1  415.86   35.30
  -3   3   1  454.65   39.10
   3   3  -1  426.66   50.19
  -3   3   1  428.46   39.90
   3   3  -1  434.86   43.70
  -2  -3   1  886.11   67.09
   2  -3  -1  845.22   67.89
   2  -3  -1  838.62   64.49
  -2  -3   1  886.91   62.59
   2  -3  -1  754.22   66.49
   2  -3  -1  916.91   65.19
  -2  -3   1  865.11   64.09
   2  -3  -1  813.32   58.59
   2  -3  -1  911.41   61.39
   2  -3  -1  945.01   75.29
   2   3  -1 1325.67   98.69
   2   3  -1 1324.17   91.79
   2   3  -1 1334.97  105.79
   1  -3  -1 1273.67   87.49
   1  -3  -1 1356.76   86.09
   1  -3  -1 1314.87   89.19
   1  -3  -1 1359.26   89.39
   1  -3  -1 1411.36   94.79
  -1  -3   1 1366.86   91.29
   1  -3  -1 1149.78   85.59
   1  -3  -1 1343.87   90.49
  -1  -3   1 1223.28   88.49
   1  -3  -1 1213.78   92.29
   1  -3  -1 1225.78   88.29
  -1  -3   1 1163.98   85.49
   1   3  -1  798.32   55.49
   1   3  -1  578.74   50.59
   1   3  -1  743.03   49.40
   1   3  -1  732.73   58.89
   0  -3   1 2509.75  170.88
   0  -3   1 2591.84  173.58
   0  -3  -1 2796.42  172.78
   0  -3   1 2282.47  175.18
   0  -3  -1 2644.74  170.78
   0  -3  -1 2725.73  171.58
   0  -3   1 2558.94  171.98
   0   3  -1 2661.43  170.78
   0   3   1 2318.87  164.58
   0   3  -1 2439.66  168.48
   0   3   1 2556.84  169.18
  -1  -3  -1 1614.94  100.79
   1  -3   1 1456.05  104.99
   1  -3   1 1289.07  105.79
   1  -3   1 1513.65   99.69
  -1  -3  -1 1419.26  100.89
  -1  -3  -1 1451.55   97.89
   1  -3   1 1385.36   97.39
  -1  -3  -1 1579.04  105.49
   1   3   1 1530.55  100.19
  -1   3  -1 1267.27   92.19
  -1   3  -1 1527.75  101.79
  -1   3  -1 1288.27   97.99
  -1   3  -1 1435.66  101.39
   1   3   1 1252.47   99.29
   1   3   1 1309.87   92.79
  -1   3  -1 1290.17   94.09
  -2  -3  -1  546.35   43.50
  -2  -3  -1  585.44   44.80
   2  -3   1  566.24   43.60
  -2  -3  -1  501.55   51.99
   2  -3   1  555.54   52.29
   2  -3   1  540.75   49.60
  -2   3  -1  562.44   44.60
  -2   3  -1  538.15   55.09
   2   3   1  528.55   50.89
   2   3   1  606.74   44.60
   2   3   1  629.14   50.19
   3  -3   1  128.09   18.80
  -3  -3  -1  178.88   21.10
   3  -3   1  120.89   25.50
  -3  -3  -1  140.89   20.40
  -3  -3  -1  139.39   30.90
   3   3   1  168.08   30.80
  -3   3  -1  204.28   25.00
   3   3   1  240.88   30.80
  -3   3  -1  197.78   37.90
   3   3   1  242.28   23.50
   4  -3   1    6.80    6.60
   4  -3   1    4.80    7.00
   4  -3   1    5.90    6.00
   4  -3   1    8.20   10.20
   4  -3   1    7.40    7.90
   4  -3   1    1.30   12.70
   4   3   1    5.30    7.20
   4   3   1    7.60    5.80
   4   3   1    4.60    7.30
   4   3   1    1.00    6.30
   4   3   1    0.00    4.20
   4   3   1    2.30   12.90
   4   3   1    6.50    9.00
   5  -3   1    6.40    5.20
   5  -3   1   12.30   10.70
   5  -3   1    8.80    5.70
   5  -3   1   10.90    6.10
   5  -3   1    4.50    7.50
   5  -3   1    6.60    6.00
   5   3   1   23.70    8.20
   5   3   1   25.30    9.00
   5   3   1   24.50    6.40
   5   3   1   23.80    5.70
   5   3   1   29.80    7.80
   5   3   1   18.80   12.50
   5   3   1   29.00    9.90
   6  -3   1    3.60    4.40
   6  -3   1   10.10    2.90
   6  -3   1   -1.60    4.80
   6  -3   1   16.90    4.40
   6   3   1    5.90    3.80
   6   3   1    6.40    5.30
   6   3   1    3.30    4.80
   6   3   1    4.10    2.30
   6   3   1   10.60    3.40
   6  -4  -1   57.89   10.00
   6  -4  -1   62.69    8.70
   6  -4  -1   66.49    8.80
   6  -4  -1   99.29    9.20
   6   4  -1   89.59   14.40
   6   4  -1  127.39   11.00
   6   4  -1  102.59   11.00
   6   4  -1  124.69   13.50
   6   4  -1  123.59   10.60
   5  -4  -1   91.79   17.80
   5  -4  -1   87.99   11.80
   5  -4  -1   74.29   16.30
   5  -4  -1   65.39   12.80
   5  -4  -1   66.69   10.10
   5   4  -1  159.58   18.40
   5   4  -1  107.29   19.40
   5   4  -1  114.49   12.20
   5   4  -1  126.49   12.90
   5   4  -1  125.99   14.30
   5   4  -1  133.89   24.70
   5   4  -1  120.39   18.00
   4  -4  -1  191.88   19.90
   4  -4  -1  160.08   18.30
   4  -4  -1  195.98   23.60
   4  -4  -1  164.08   22.10
   4  -4  -1  141.09   33.40
  -4  -4   1  181.98   24.60
  -4   4   1  206.48   25.60
   4   4  -1  221.18   24.90
   4   4  -1  219.38   22.40
   4   4  -1  226.08   26.20
   4   4  -1  203.88   22.40
   4   4  -1  225.18   18.60
  -4   4   1  204.28   41.40
   4   4  -1  169.28   17.20
   4   4  -1  212.08   18.40
   3  -4  -1  855.01   68.59
  -3  -4   1  937.41   71.09
  -3  -4   1  994.30   74.89
   3  -4  -1 1052.79   75.49
   3  -4  -1  898.51   79.39
  -3  -4   1  915.81   68.39
  -3   4   1 1241.88   90.59
  -3   4   1 1252.77   91.99
   3   4  -1 1203.98  104.49
   3   4  -1 1180.78   87.49
   3   4  -1 1233.38   96.09
   2  -4  -1 1011.70   70.39
  -2  -4   1 1087.79   76.89
   2  -4  -1  936.91   67.89
   2  -4  -1 1014.60   78.59
   2  -4  -1  862.51   70.69
   2  -4  -1 1102.59   78.49
   2  -4  -1 1008.70   74.79
   2  -4  -1  948.61   74.89
  -2  -4   1 1056.39   73.69
   2  -4  -1 1104.29   84.99
   2  -4  -1  977.30   73.59
  -2  -4   1  951.90   71.59
   2   4  -1 1202.08   85.19
   2   4  -1 1090.79   77.19
   2   4  -1 1001.40   89.19
   1  -4  -1 1299.77   82.59
  -1  -4   1  987.00   81.99
   1  -4  -1 1068.69   85.59
   1  -4  -1 1172.58   82.59
  -1  -4   1 1065.79   77.49
   1  -4  -1 1330.57   86.09
   1  -4  -1 1240.68   79.69
  -1  -4   1 1201.78   80.79
   1  -4  -1 1150.48   80.29
   1  -4  -1 1086.49   77.79
   1   4  -1 1435.26  101.09
   1   4  -1 1453.85   91.49
   1   4  -1 1139.59   92.19
   1   4  -1 1363.46   97.29
   0  -4   1 2381.16  156.48
   0  -4  -1 2409.86  155.18
   0  -4  -1 2431.86  157.48
   0  -4  -1 2396.36  155.98
   0  -4   1 2381.16  158.48
   0  -4   1 2193.58  161.08
   0  -4   1 2219.58  155.28
   0   4  -1 2428.06  172.68
   0   4   1 2315.97  174.88
   0   4  -1 2782.52  167.18
   0   4  -1 2400.36  170.88
   0   4   1 2648.83  171.88
   1  -4   1 2348.76  169.88
  -1  -4  -1 2355.46  163.18
   1  -4   1 2373.06  172.48
  -1  -4  -1 2512.65  166.28
   1  -4   1 2571.24  164.78
   1  -4   1 2357.16  162.58
  -1  -4  -1 2277.77  168.58
  -1  -4  -1 2839.62  166.18
  -1   4  -1 3127.29  209.68
  -1   4  -1 2967.10  199.48
   1   4   1 3017.00  206.18
  -1   4  -1 3345.87  209.78
   1   4   1 2921.91  206.98
   1   4   1 2925.81  199.78
  -1   4  -1 3053.59  201.88
   1   4   1 2609.04  202.18
  -1   4  -1 3007.50  206.08
   2  -4   1  265.37   33.30
  -2  -4  -1  288.37   27.20
   2  -4   1  281.47   33.30
  -2  -4  -1  282.17   34.20
  -2  -4  -1  277.07   25.60
   2  -4   1  288.07   26.30
  -2   4  -1  391.76   43.90
  -2   4  -1  424.86   43.10
   2   4   1  417.36   38.50
  -2   4  -1  384.26   35.80
  -2   4  -1  370.76   32.50
   2   4   1  422.06   33.40
   2   4   1  397.06   40.00
  -2   4  -1  384.16   45.50
   3  -4   1  432.36   40.20
  -3  -4  -1  493.55   42.00
   3  -4   1  492.15   50.39
  -3  -4  -1  492.05   41.50
  -3  -4  -1  417.36   50.69
  -3   4  -1  441.56   55.69
   3   4   1  545.45   41.70
  -3   4  -1  488.75   53.29
   3   4   1  574.54   50.49
  -3   4  -1  504.65   59.39
  -3   4  -1  482.35   45.30
   3   4   1  438.66   49.40
  -3   4  -1  450.75   43.10
   4  -4   1  322.17   28.00
   4  -4   1  272.97   30.30
   4  -4   1  318.67   36.00
   4  -4   1  308.57   26.40
   4  -4   1  366.46   34.30
   4  -4   1  344.57   28.60
   4   4   1  393.26   37.70
   4   4   1  397.16   33.90
   4   4   1  453.45   42.70
   4   4   1  397.06   31.90
   4   4   1  454.35   34.80
   4   4   1  400.66   31.80
   4   4   1  417.86   36.90
   5  -4   1   29.30   12.50
   5  -4   1   23.40    7.00
   5  -4   1   25.90    8.20
   5  -4   1   27.10    9.80
   5  -4   1   34.20    7.00
   5  -4   1   26.10    7.50
   5   4   1   12.50   10.40
   5   4   1   15.20    6.30
   5   4   1   11.90    4.60
   5   4   1   19.80    5.60
   5   4   1   16.70    8.50
   5   4   1   19.00    8.10
   6  -4   1   18.60    4.40
   6  -4   1    7.80    2.90
   6  -4   1    5.60    5.20
   6  -4   1    4.20    4.40
   6   4   1    4.80    2.10
   6   4   1    2.00    4.40
   6   4   1    3.30    4.90
   6  -5  -1    4.60    4.00
   6  -5  -1    1.00    3.50
   6  -5  -1    2.60    4.40
   6   5  -1   10.40    4.60
   6   5  -1    9.90    5.80
   6   5  -1   10.50    3.60
   6   5  -1    4.30    3.70
   6   5  -1    6.50    6.20
   5  -5  -1   71.19   14.10
   5  -5  -1  119.49   19.60
   5  -5  -1   97.29   12.00
   5  -5  -1  112.49   19.50
   5  -5  -1  110.09   13.60
   5   5  -1  199.48   17.20
   5   5  -1  208.08   18.40
   5   5  -1  180.98   23.10
   5   5  -1  211.68   31.90
   5   5  -1  230.48   18.10
   5   5  -1  203.18   22.20
   5   5  -1  191.98   21.30
   4  -5  -1  245.08   21.50
   4  -5  -1  242.88   31.00
   4  -5  -1  269.67   28.50
   4  -5  -1  257.47   22.40
   4  -5  -1  226.48   32.30
   4  -5  -1  258.97   28.30
   4   5  -1  472.65   45.70
   4   5  -1  480.05   35.10
   4   5  -1  444.66   34.40
   4   5  -1  524.65   40.60
   4   5  -1  403.66   38.40
   4   5  -1  454.55   41.50
   4   5  -1  484.05   35.50
  -3  -5   1   92.19   15.20
   3  -5  -1  101.49   21.90
   3  -5  -1   91.39   18.80
   3  -5  -1   89.79   13.80
  -3  -5   1  115.89   19.70
  -3  -5   1   77.49   12.60
  -3   5   1  142.69   20.70
   3   5  -1  142.49   31.70
   3   5  -1  155.28   19.00
  -3   5   1  141.09   30.40
   3   5  -1  183.38   25.30
   2  -5  -1 2080.19  156.58
   2  -5  -1 2265.37  160.18
   2  -5  -1 1994.90  147.79
   2  -5  -1 2226.68  153.48
   2  -5  -1 2377.06  156.28
  -2  -5   1 2276.37  151.88
   2  -5  -1 2208.18  150.18
   2  -5  -1 2522.75  164.78
  -2  -5   1 2390.16  157.18
   2  -5  -1 1925.91  153.98
  -2  -5   1 2266.37  153.18
   2   5  -1 2787.92  192.68
   2   5  -1 2632.84  184.38
   2   5  -1 2790.52  198.88
   1  -5  -1 1593.04  105.49
  -1  -5   1 1393.26  107.89
   1  -5  -1 1594.44  105.99
   1  -5  -1 1674.83  109.09
   1  -5  -1 1675.93  113.69
  -1  -5   1 1587.34  106.49
   1  -5  -1 1464.15  103.59
  -1  -5   1 1441.66  103.29
  -1   5   1 2992.10  199.98
  -1   5   1 3080.59  198.88
   1   5  -1 3196.48  200.28
   1   5  -1 2648.33  200.68
  -1   5   1 3006.30  204.78
   1   5  -1 2985.80  209.08
   1   5  -1 3055.99  202.88
  -1   5   1 2985.40  202.88
   1   5  -1 3054.69  206.78
   0  -5   1 1571.54  109.69
   0  -5  -1 1486.65  103.39
   0  -5   1 1465.15  102.49
   0  -5   1 1521.65  106.49
   0  -5  -1 1586.64  102.49
   0  -5  -1 1638.64  105.19
   0  -5   1 1460.65  103.89
   0   5  -1 2188.58  151.38
   0   5  -1 2342.87  147.19
   0   5  -1 2308.87  153.18
   0   5   1 2176.78  152.48
   0   5   1 2121.29  146.49
   0   5   1 2060.89  156.28
   1  -5   1  592.64   47.80
  -1  -5  -1  659.83   42.90
   1  -5   1  542.15   38.90
  -1  -5  -1  463.65   43.90
  -1  -5  -1  542.55   39.60
   1  -5   1  523.25   49.60
   1  -5   1  582.84   41.50
  -1  -5  -1  570.04   43.50
   1   5   1  614.84   53.39
   1   5   1  663.13   50.79
  -1   5  -1  724.23   53.49
   1   5   1  746.13   59.99
  -1   5  -1  792.22   61.99
  -1   5  -1  725.53   58.29
   1   5   1  695.33   58.69
  -1   5  -1  800.82   61.19
   2  -5   1 2189.38  147.79
  -2  -5  -1 2030.40  147.49
   2  -5   1 2109.29  156.08
  -2  -5  -1 2122.49  157.08
   2  -5   1 2239.58  159.58
  -2  -5  -1 2168.48  144.29
  -2  -5  -1 2156.78  149.39
   2   5   1 2134.09  159.98
   2   5   1 2235.88  156.58
  -2   5  -1 2217.78  161.78
   2   5   1 2342.57  151.08
  -2   5  -1 2037.50  150.48
  -2   5  -1 2236.98  165.38
  -2   5  -1 2159.68  154.08
  -2   5  -1 2296.77  167.38
  -3  -5  -1  440.36   41.20
  -3  -5  -1  535.85   43.30
   3  -5   1  472.75   51.19
   3  -5   1  578.24   65.29
  -3  -5  -1  416.76   50.59
   3  -5   1  446.96   41.20
  -3   5  -1  495.65   58.79
  -3   5  -1  442.96   52.39
  -3   5  -1  482.65   45.30
  -3   5  -1  536.45   61.69
   3   5   1  400.76   48.30
   3   5   1  507.85   40.80
   3   5   1  544.45   49.60
   4  -5   1   28.00   15.50
   4  -5   1   31.00   13.30
   4  -5   1   17.00    7.60
  -4  -5  -1   25.50    6.10
   4  -5   1   26.40    7.70
   4  -5   1   30.60    8.90
   4   5   1   20.00    8.90
   4   5   1   32.30   14.00
   4   5   1   22.00    6.20
   4   5   1   12.80    7.00
   4   5   1   14.00    5.60
   4   5   1   27.90    9.30
   4   5   1   27.50   11.00
   5  -5   1   21.80    6.40
   5  -5   1   19.60    9.30
   5  -5   1   31.00    8.10
   5  -5   1   25.80   10.90
   5  -5   1   16.40    6.00
   5   5   1   68.99   12.60
   5   5   1   44.80    7.50
   5   5   1   53.29   11.80
   5   5   1   58.49   15.60
   5   5   1   59.99    7.80
   5   5   1   61.49   10.30
   6  -5   1   42.30   12.20
   6  -5   1   39.90    5.50
   6   5   1   65.89    5.60
   6   5   1   39.90    8.00
   6  -6  -1   27.70    5.30
   6  -6  -1   36.00    6.60
   6  -6  -1   22.80    6.60
   6   6  -1   46.90    7.50
   6   6  -1   20.90    7.40
   6   6  -1   48.10    5.70
   6   6  -1   42.80    6.00
   6   6  -1   47.30    8.80
   5  -6  -1   81.09   10.90
   5  -6  -1   69.59   11.20
   5  -6  -1   74.39   16.40
   5  -6  -1   87.89   17.20
   5   6  -1   74.09   13.90
   5   6  -1   62.39   14.70
   5   6  -1   71.29    9.10
   5   6  -1   85.29   20.60
   5   6  -1   67.99   13.60
   5   6  -1   69.39   10.10
   5   6  -1   68.79    9.30
   4  -6  -1   49.10    9.90
   4  -6  -1   87.99   17.90
   4  -6  -1   51.79    9.60
   4  -6  -1   61.69   16.70
   4   6  -1   53.79    8.80
   4   6  -1   45.70   13.80
   4   6  -1   44.80    7.60
   4   6  -1   55.09   13.00
   4   6  -1   83.69   20.60
   4   6  -1   55.39   13.50
   4   6  -1   59.99    9.30
  -3  -6   1  190.48   21.70
  -3  -6   1  265.57   28.90
   3  -6  -1  260.87   32.70
   3  -6  -1  220.38   23.10
   3  -6  -1  230.68   28.80
  -3  -6   1  249.97   24.60
   3   6  -1  358.36   33.60
   3   6  -1  383.06   47.80
  -3   6   1  408.46   36.40
   3   6  -1  463.45   43.30
  -3   6   1  374.06   46.70
   2  -6  -1  526.55   45.00
   2  -6  -1  474.75   43.00
  -2  -6   1  544.25   44.80
   2  -6  -1  491.55   37.00
   2  -6  -1  522.95   39.40
   2  -6  -1  541.75   49.40
  -2  -6   1  524.25   40.90
   2  -6  -1  533.85   41.90
  -2  -6   1  523.85   41.40
  -2   6   1  489.35   46.90
   2   6  -1  429.46   40.60
   2   6  -1  575.94   46.90
   2   6  -1  489.45   50.69
   2   6  -1  483.95   38.10
   1  -6  -1  435.96   35.00
   1  -6  -1  543.75   41.40
  -1  -6   1  503.75   40.20
  -1  -6   1  514.35   38.40
   1  -6  -1  515.45   45.40
   1  -6  -1  515.05   37.40
  -1  -6   1  466.15   34.70
  -1  -6   1  492.85   37.10
  -1   6   1  552.44   46.30
  -1   6   1  606.34   47.60
   1   6  -1  595.34   49.30
   1   6  -1  567.84   51.19
   1   6  -1  608.64   42.40
   1   6  -1  588.44   46.10
  -1   6   1  556.74   40.20
  -1   6   1  562.14   41.50
  -1   6   1  531.35   44.30
   0  -6   1 2155.58  139.79
   0  -6  -1 2098.29  137.89
   0  -6  -1 2030.40  140.49
   0  -6   1 2124.79  142.89
   0  -6   1 2013.50  137.99
   0  -6   1 2001.90  146.09
   0  -6  -1 2081.59  139.09
   0   6   1 2479.15  167.78
   0   6  -1 2542.85  167.38
   0   6   1 2349.96  160.58
   0   6  -1 2312.97  165.78
   0   6  -1 2519.15  161.28
   0   6   1 2246.38  171.08
  -1  -6  -1  676.43   53.19
   1  -6   1  739.13   64.39
  -1  -6  -1  820.82   56.29
  -1  -6  -1  826.12   57.19
   1  -6   1  740.23   52.49
   1  -6   1  743.43   61.39
   1   6   1 1131.09   87.19
  -1   6  -1 1133.59   81.69
   1   6   1 1126.59   79.29
  -1   6  -1 1149.98   87.09
   1   6   1 1122.19   87.39
  -1   6  -1 1140.69   89.69
  -1   6  -1 1272.57   91.59
   1   6   1 1074.79   81.99
  -2  -6  -1  229.98   22.70
   2  -6   1  196.78   30.60
   2  -6   1  211.98   31.30
  -2  -6  -1  188.78   20.60
  -2  -6  -1  165.18   26.50
   2  -6   1  191.38   21.60
  -2  -6  -1  219.68   18.10
   2  -6   1  186.88   16.40
  -2   6  -1  185.78   33.50
  -2   6  -1  194.88   29.60
   2   6   1  204.78   24.60
   2   6   1  163.38   27.40
  -2   6  -1  206.08   23.20
   2   6   1  188.88   19.00
  -2   6  -1  176.38   32.00
  -2   6  -1  148.39   18.90
   3  -6   1   85.39   24.50
   3  -6   1   84.99   15.50
   3  -6   1   94.89   24.60
  -3  -6  -1  117.29   18.70
  -3  -6  -1   81.19   22.70
  -3  -6  -1   83.39   15.90
  -3   6  -1   89.39   24.00
  -3   6  -1   87.59   28.50
  -3   6  -1   70.09   25.30
   3   6   1   61.29   13.00
  -3   6  -1   82.49   17.70
   3   6   1   90.49   19.90
   3   6   1   67.79   20.20
   4  -6   1  205.38   20.30
   4  -6   1  184.88   19.70
   4  -6   1  178.58   24.20
  -4  -6  -1  190.78   16.60
   4  -6   1  181.78   19.60
   4  -6   1  229.08   27.10
   4   6   1  132.39   17.40
   4   6   1  116.79   23.10
   4   6   1  123.19   12.80
   4   6   1   89.59   12.50
   4   6   1  126.79   17.30
   4   6   1  112.19   15.70
   4   6   1  134.19   20.00
   5  -6   1   45.00    8.20
   5  -6   1   32.10   10.20
   5  -6   1   49.50   13.80
   5  -6   1   43.70    9.20
   5  -6   1   32.00    7.20
   5   6   1   54.19   11.10
   5   6   1   51.69    7.10
   5   6   1   36.50    6.60
   5   6   1   42.90    8.90
   5   6   1   42.00   10.10
   6  -7  -1    7.60    3.80
   6  -7  -1    0.90    4.00
  -6  -7   1   12.90    3.00
   6   7  -1   12.90    5.70
   6   7  -1   16.10    4.10
   6   7  -1   16.40    3.60
   6   7  -1   13.40    5.50
   6   7  -1   20.00    5.10
   5  -7  -1  261.37   22.60
   5  -7  -1  326.87   29.60
   5  -7  -1  267.77   28.40
   5  -7  -1  244.08   23.30
   5   7  -1  375.66   28.10
   5   7  -1  332.97   27.00
   5   7  -1  331.47   32.90
   5   7  -1  359.46   38.90
   5   7  -1  361.26   30.90
   5   7  -1  372.56   27.50
   5   7  -1  375.66   32.40
   4  -7  -1  337.87   27.90
   4  -7  -1  341.97   29.00
   4  -7  -1  362.86   35.00
   4   7  -1  431.36   37.00
   4   7  -1  436.26   32.20
   4   7  -1  380.26   37.80
   4   7  -1  433.26   32.20
   4   7  -1  373.66   35.50
   4   7  -1  429.96   43.80
   4   7  -1  441.96   31.70
  -3  -7   1   38.40   10.40
  -3  -7   1   38.50   12.60
   3  -7  -1   76.19   18.40
   3  -7  -1   61.79   11.30
  -3  -7   1   50.59   10.80
   3  -7  -1   32.50   14.90
   3   7  -1   95.59   26.60
  -3   7   1   88.39   24.30
   3   7  -1  115.49   22.60
  -3   7   1  122.39   27.90
  -3   7   1   74.69   18.20
   3   7  -1  104.59   16.40
  -3   7   1  125.29   29.20
   2  -7  -1  154.68   24.90
   2  -7  -1  206.18   23.70
  -2  -7   1  179.98   21.60
   2  -7  -1  165.08   14.90
  -2  -7   1  197.78   19.00
   2  -7  -1  139.39   19.90
  -2  -7   1  170.98   18.40
   2  -7  -1  189.38   19.60
   2   7  -1  155.18   23.40
   2   7  -1  159.38   18.40
  -2   7   1  156.88   24.20
  -2   7   1  172.18   28.20
   2   7  -1  165.38   30.20
  -2   7   1  135.09   18.40
  -2   7   1  119.29   22.40
   2   7  -1  139.09   24.10
   1  -7  -1 2889.51  196.68
  -1  -7   1 2847.32  196.38
   1  -7  -1 3116.19  208.58
   1  -7  -1 3060.79  203.38
  -1  -7   1 2717.33  200.78
   1  -7  -1 3021.90  198.98
  -1  -7   1 3126.29  199.78
  -1   7   1 3447.46  230.98
   1   7  -1 3441.66  241.58
   1   7  -1 3549.74  232.98
  -1   7   1 3712.03  239.28
   1   7  -1 3481.15  237.58
   1   7  -1 3447.66  240.28
  -1   7   1 3530.45  237.08
  -1   7   1 3303.67  234.18
  -1   7   1 3424.56  231.68
   0  -7  -1  641.44   45.40
   0  -7   1  603.24   52.49
   0  -7   1  595.44   49.80
   0  -7  -1  690.43   44.20
   0  -7   1  552.44   43.90
   0  -7   1  650.83   46.20
   0  -7  -1  665.93   47.20
   0   7  -1 1002.40   69.09
   0   7  -1  956.20   74.29
   0   7  -1 1017.90   75.19
   0   7   1  960.50   75.79
   0   7   1 1015.20   68.69
   1  -7   1  320.07   36.60
  -1  -7  -1  314.27   27.80
   1  -7   1  299.97   32.00
  -1  -7  -1  304.47   25.20
   1  -7   1  303.47   24.10
  -1  -7  -1  343.47   28.50
  -1  -7  -1  311.17   23.10
  -1   7  -1  296.17   33.80
  -1   7  -1  278.07   29.90
   1   7   1  285.87   23.40
   1   7   1  276.17   30.40
  -1   7  -1  288.77   25.80
   1   7   1  242.08   25.90
  -1   7  -1  272.97   35.00
   1   7   1  281.57   33.10
  -1   7  -1  277.37   23.50
  -2  -7  -1 1955.80  128.99
   2  -7   1 1736.83  126.09
  -2  -7  -1 1645.64  132.49
   2  -7   1 1856.41  139.19
  -2  -7  -1 1692.93  126.39
   2  -7   1 1876.31  136.49
  -2  -7  -1 1906.81  123.59
   2   7   1 1790.22  116.39
  -2   7  -1 1581.74  130.49
   2   7   1 1747.13  121.79
  -2   7  -1 1619.64  119.69
  -2   7  -1 1568.94  126.59
   2   7   1 1635.54  125.69
  -2   7  -1 1743.53  133.89
   3  -7   1  244.28   36.00
   3  -7   1  187.68   25.20
   3  -7   1  186.58   33.00
  -3  -7  -1  262.87   27.10
  -3  -7  -1  176.18   33.60
  -3  -7  -1  201.58   24.30
  -3   7  -1  212.28   37.00
   3   7   1  273.97   31.60
   3   7   1  182.28   23.10
   3   7   1  209.88   37.20
  -3   7  -1  226.78   43.90
  -3   7  -1  217.78   42.20
  -3   7  -1  205.38   28.90
  -4  -7  -1   37.50    6.80
   4  -7   1   29.20   13.60
   4  -7   1   26.50    8.00
   4  -7   1   42.20   10.10
   4  -7   1   30.60    9.10
   4  -7   1   28.70   14.30
   4  -7   1   28.00   11.60
   4   7   1   50.09   11.90
   4   7   1   36.60   14.40
   4   7   1   53.79   11.50
   4   7   1   40.40   11.80
   4   7   1   45.40    9.90
   4   7   1   38.80    7.50
   4   7   1   46.50    8.10
   5  -7   1   45.10    9.70
   5  -7   1   44.60    8.40
   5  -7   1   52.49   12.90
   5  -7   1   29.60   10.50
   5  -7   1   58.19    8.50
   5   7   1   46.10   10.40
   5   7   1   56.59    7.30
   5   7   1   44.20    6.90
   5   7   1   65.49   11.50
   5   7   1   46.90   13.80
  -6  -8   1   38.00    4.20
   6  -8  -1   29.10    5.70
   6  -8  -1   31.00    5.40
   6   8  -1   61.49    8.40
   6   8  -1   58.09    7.10
   6   8  -1   71.59    6.70
   5  -8  -1   60.89   11.00
   5  -8  -1   59.59    9.20
   5  -8  -1   64.99   15.70
   5   8  -1  143.69   16.30
   5   8  -1  119.59   19.70
   5   8  -1  139.89   26.80
   5   8  -1  151.38   17.90
   5   8  -1  150.28   13.20
   5   8  -1  129.39   14.50
   4  -8  -1   29.60    7.60
   4  -8  -1   15.90    7.40
  -4  -8   1   42.80    7.60
   4  -8  -1   41.50   14.20
   4   8  -1  120.49   25.20
   4   8  -1   71.19   10.20
   4   8  -1   58.89    9.00
   4   8  -1   66.89   14.30
   4   8  -1   79.29   10.30
   4   8  -1   74.99   14.80
   4   8  -1   59.09   15.20
  -3  -8   1  759.12   62.79
  -3  -8   1  847.52   65.09
  -3  -8   1  939.31   70.39
   3  -8  -1  830.42   71.49
   3  -8  -1  889.71   75.29
   3   8  -1 1171.68   95.89
   3   8  -1 1258.07   88.99
  -3   8   1  882.61   88.89
   3   8  -1 1013.90   78.59
  -3   8   1  899.11   81.39
  -3   8   1 1198.48  100.69
   2  -8  -1  515.55   46.70
  -2  -8   1  561.54   44.70
   2  -8  -1  655.23   55.69
   2  -8  -1  510.15   45.30
  -2  -8   1  639.04   45.70
   2  -8  -1  557.94   50.19
   2  -8  -1  542.75   41.40
  -2  -8   1  661.63   49.70
   2   8  -1 1059.59   75.19
   2   8  -1  873.41   64.99
   2   8  -1  744.13   73.79
  -2   8   1  849.41   62.99
   2   8  -1  874.91   76.79
  -2   8   1  927.91   81.29
  -2   8   1  857.11   65.89
  -2   8   1  887.11   71.79
  -2   8   1  901.51   76.69
   1  -8  -1  179.58   16.70
  -1  -8   1  137.79   18.00
  -1  -8   1  147.99   13.80
  -1  -8   1  178.48   17.80
   1  -8  -1  177.08   21.90
   1  -8  -1  158.48   14.10
   1  -8  -1  154.98   24.10
   1   8  -1  193.08   26.10
   1   8  -1  197.68   26.90
  -1   8   1  212.78   25.30
   1   8  -1  197.98   24.10
  -1   8   1  185.78   16.20
  -1   8   1  157.18   17.60
   1   8  -1  190.58   19.00
   0  -8  -1  605.64   45.90
   0  -8   1  594.04   42.70
   0  -8  -1  589.04   42.50
   0  -8  -1  636.24   44.30
   0  -8   1  584.94   44.50
   0  -8   1  599.74   52.09
   0   8  -1  855.01   61.89
   0   8  -1  910.31   68.49
   0   8   1  850.21   69.69
   0   8   1  888.51   61.59
   0   8  -1  859.81   67.99
  -1  -8  -1 1052.69   77.49
  -1  -8  -1 1129.19   77.69
  -1  -8  -1 1048.60   72.09
   1  -8   1 1077.89   73.19
   1  -8   1 1105.09   87.39
   1  -8   1 1003.60   81.69
  -1  -8  -1 1034.70   74.49
  -1   8  -1 1331.47   91.59
  -1   8  -1 1300.27   97.09
   1   8   1 1336.37   91.39
   1   8   1 1279.77   99.99
   1   8   1 1352.46   95.59
   1   8   1 1316.77  100.99
  -2  -8  -1  297.87   24.70
   2  -8   1  281.37   22.80
   2  -8   1  292.67   37.60
  -2  -8  -1  287.97   28.70
  -2  -8  -1  261.17   27.20
   2  -8   1  308.87   35.70
   2   8   1  339.37   33.80
   2   8   1  362.56   29.30
  -2   8  -1  357.26   44.10
   2   8   1  290.97   36.50
  -2   8  -1  316.47   32.10
  -2   8  -1  338.07   39.30
  -2   8  -1  313.47   43.00
  -3  -8  -1  169.38   24.00
  -3  -8  -1  190.68   22.90
   3  -8   1  145.69   22.00
   3  -8   1  196.98   36.50
   3  -8   1  130.69   29.00
   3   8   1  205.78   37.20
  -3   8  -1  219.78   38.60
  -3   8  -1  224.18   30.90
  -3   8  -1  225.08   44.90
   3   8   1  265.97   31.90
  -3   8  -1  264.47   45.90
   3   8   1  239.78   24.40
   4  -8   1  119.29   20.80
  -4  -8  -1  151.18   13.60
   4  -8   1  145.09   17.00
   4  -8   1  169.48   24.70
   4  -8   1  130.19   24.10
   4  -8   1  154.28   18.50
   4  -8   1  121.69   17.90
   4   8   1  195.88   21.20
   4   8   1  183.78   19.10
   4   8   1  197.48   19.40
   4   8   1  190.48   16.90
   4   8   1  159.98   26.70
   4   8   1  176.88   16.20
   5  -8   1   34.70    8.70
  -5  -8  -1   27.20    7.60
   5  -8   1   24.40    6.40
   5  -8   1   18.20    9.40
   5  -8   1   23.40   10.50
  -5  -8  -1   26.00    4.30
   5  -8   1   16.80    6.30
   5   8   1   43.30    6.30
   5   8   1   41.80   13.20
   5   8   1   47.20   10.00
   5   8   1   35.40    9.80
  -6  -9   1   11.10    2.90
  -6  -9   1    5.40    3.40
   6   9  -1   12.70    3.00
   6   9  -1   12.70    4.80
   6   9  -1    6.20    3.20
   5  -9  -1   79.59   16.90
   5  -9  -1   70.49   12.10
   5  -9  -1   62.19   10.20
   5   9  -1   93.99   15.60
   5   9  -1   62.09   14.20
   5   9  -1   94.59   14.30
   5   9  -1   82.29    9.30
   5   9  -1   69.39   10.00
   5   9  -1   57.89   18.40
   4  -9  -1   81.59   18.20
   4  -9  -1   70.29   11.60
   4  -9  -1   75.29   12.10
  -4  -9   1   92.69   11.20
   4  -9  -1   76.39   12.80
   4   9  -1  129.69   26.60
   4   9  -1  138.39   13.50
   4   9  -1  153.68   21.20
   4   9  -1  130.19   15.10
   4   9  -1  141.59   14.00
   4   9  -1  133.69   18.60
  -3  -9   1   12.60    7.50
   3  -9  -1   10.70   11.90
  -3  -9   1    5.80    7.10
   3  -9  -1    8.20   10.80
  -3  -9   1    8.20    8.60
   3   9  -1    2.40    9.50
  -3   9   1    2.70   12.10
  -3   9   1    3.80    5.90
   3   9  -1    8.10    6.80
   3   9  -1   12.50   21.70
  -3   9   1    7.90   16.10
  -3   9   1    6.70    9.30
  -2  -9   1   32.10    8.10
   2  -9  -1   34.50    6.70
   2  -9  -1   46.00   11.50
  -2  -9   1   40.50   11.20
  -2  -9   1   32.00    9.00
   2  -9  -1   39.30   15.00
  -2   9   1  116.69   17.10
  -2   9   1  125.99   22.00
   2   9  -1  155.08   29.10
   2   9  -1  138.69   18.10
   2   9  -1  161.58   26.00
  -2   9   1  127.59   14.50
  -2   9   1  142.89   26.00
   1  -9  -1  882.61   60.89
  -1  -9   1  826.72   66.09
  -1  -9   1  840.92   65.49
   1  -9  -1  903.61   69.09
  -1  -9   1  854.81   60.39
  -1  -9   1  940.81   64.29
   1  -9  -1  897.51   73.69
   1  -9  -1  897.31   63.39
   1   9  -1  966.60   76.59
  -1   9   1  927.21   65.39
  -1   9   1  888.01   67.19
  -1   9   1  979.20   75.19
   1   9  -1  908.71   73.99
   1   9  -1  961.20   68.09
   0  -9   1 1092.89   73.29
   0  -9   1 1116.29   75.49
   0  -9   1 1025.30   82.99
   0  -9  -1 1108.69   75.19
   0  -9  -1 1061.59   73.09
   0  -9  -1 1009.50   76.69
   0   9   1 1538.85  101.09
   0   9   1 1452.15  110.09
   0   9  -1 1469.35  101.39
   0   9  -1 1447.76  108.39
   0   9  -1 1426.16  108.59
   1  -9   1  117.89   24.50
   1  -9   1  140.19   22.80
  -1  -9  -1  117.99   16.10
   1  -9   1  128.29   13.40
  -1  -9  -1  130.69   14.90
  -1  -9  -1  130.29   18.10
  -1  -9  -1  129.79   12.10
   1  -9   1  142.09   14.60
   1   9   1   84.99   21.30
   1   9   1   88.39   12.20
   1   9   1   70.29   16.80
  -1   9  -1   74.59   11.20
   1   9   1   76.09   14.80
  -1   9  -1  107.99   21.70
  -1   9  -1   73.29   15.10
   2  -9   1  402.26   44.20
   2  -9   1  326.77   39.10
  -2  -9  -1  313.47   27.80
  -2  -9  -1  285.37   31.20
  -2  -9  -1  372.16   32.60
   2  -9   1  356.26   26.90
  -2   9  -1  450.45   40.30
  -2   9  -1  504.65   53.49
   2   9   1  388.26   45.80
  -2   9  -1  441.26   37.30
   2   9   1  483.25   42.20
  -2   9  -1  456.15   46.90
   2   9   1  472.45   37.00
  -2   9  -1  383.36   52.59
  -3  -9  -1  342.57   32.50
   3  -9   1  288.57   39.50
   3  -9   1  313.87   43.50
  -3  -9  -1  288.97   32.70
   3   9   1  296.77   27.40
   3   9   1  210.78   41.20
  -3   9  -1  250.37   28.80
  -3   9  -1  233.58   48.50
  -3   9  -1  337.57   48.20
  -3   9  -1  316.07   42.50
  -3   9  -1  305.77   34.20
   4  -9   1    7.70    6.50
   4  -9   1    1.30   11.50
   4  -9   1    4.00    7.30
  -4  -9  -1    5.90    3.90
   4  -9   1   10.30    6.80
   4  -9   1    3.80   10.00
   4   9   1    5.10    7.30
   4   9   1    9.30    7.30
   4   9   1    1.60    9.70
   4   9   1    1.30    4.10
   4   9   1   10.10    7.70
   4   9   1    6.40    5.80
   5  -9   1   71.09   11.40
   5  -9   1   56.99   14.40
   5  -9   1   55.29    9.30
   5  -9   1   66.69    9.80
  -5  -9  -1   65.39    6.50
  -5  -9  -1   68.19   11.10
   5   9   1   43.50    6.50
   5   9   1   37.10   12.60
   5   9   1   71.39   11.50
  -6 -10   1   75.69    7.80
   6  10  -1  105.19    9.10
   5 -10  -1   33.90    7.30
  -5 -10   1   38.60    6.30
   5 -10  -1   36.00    9.20
   5 -10  -1   29.60   12.20
   5  10  -1   20.40   13.00
   5  10  -1   46.60    6.70
   5  10  -1   48.20   11.40
   5  10  -1   44.60   10.10
   5  10  -1   46.90    7.90
  -4 -10   1   99.59   11.10
   4 -10  -1   97.69   13.50
   4 -10  -1   89.99   14.80
   4 -10  -1   95.89   13.60
   4 -10  -1  121.39   21.70
   4  10  -1  137.89   13.60
   4  10  -1  125.69   14.80
   4  10  -1  115.29   12.70
   4  10  -1  136.99   20.00
   4  10  -1  153.08   20.60
   4  10  -1  133.89   27.40
  -3 -10   1  664.03   51.99
  -3 -10   1  656.83   57.59
   3 -10  -1  714.73   65.39
  -3 -10   1  633.74   54.09
   3  10  -1  740.13   59.79
   3  10  -1  602.24   49.90
  -3  10   1  505.15   46.00
  -2 -10   1 1005.70   72.09
   2 -10  -1 1025.50   83.89
   2 -10  -1  999.30   68.39
   2 -10  -1  914.51   72.79
  -2 -10   1  939.11   75.59
  -2  10   1 1076.69   87.09
  -2  10   1  973.10   74.79
  -2  10   1  926.01   81.29
   2  10  -1 1233.28   88.49
   2  10  -1 1109.29   78.89
  -2  10   1  958.10   76.99
  -2  10   1 1302.87   90.59
   1 -10  -1   61.59   10.70
  -1 -10   1   68.89    8.40
   1 -10  -1   72.29    9.10
  -1 -10   1   49.80   11.10
  -1 -10   1   57.99   13.00
   1 -10  -1   72.79   15.80
   1 -10  -1   65.09   18.10
  -1 -10   1   71.09   11.80
   1  10  -1  100.59   20.60
  -1  10   1   79.69   12.30
  -1  10   1  104.49   21.10
   1  10  -1   67.79   18.50
   1  10  -1   95.59   14.40
  -1  10   1   83.39   10.80
   0 -10  -1  858.61   58.99
   0 -10   1  872.41   59.09
   0 -10   1  868.91   57.09
   0 -10   1  728.63   66.39
   0 -10  -1  831.82   56.69
   0 -10  -1  731.53   60.89
   0  10  -1 1255.97   96.59
   0  10  -1 1231.18   88.59
   0  10   1 1287.57   98.39
   0  10  -1 1181.58   95.69
   0  10   1 1367.56   88.69
   0  10   1 1259.97  103.09
   1 -10   1 1133.99   92.09
   1 -10   1 1096.89   78.29
   1 -10   1 1086.79   86.69
  -1 -10  -1 1142.39   78.49
  -1 -10  -1 1086.69   83.59
  -1 -10  -1 1113.19   75.49
  -1 -10  -1 1049.20   81.09
   1 -10   1 1167.88   76.79
  -1  10  -1 1191.78   89.49
   1  10   1 1197.28   94.69
   1  10   1 1148.89   93.89
  -1  10  -1 1160.28   83.69
   1  10   1 1217.18   83.59
  -2 -10  -1   94.99   13.00
   2 -10   1   96.79   23.90
  -2 -10  -1  105.69   16.70
  -2 -10  -1   67.19   15.30
   2 -10   1   82.29   11.20
   2 -10   1  103.79   24.20
  -2  10  -1  100.89   15.40
   2  10   1  103.29   24.90
   2  10   1  135.99   16.70
  -2  10  -1  121.99   23.20
  -3 -10  -1  159.58   26.00
   3 -10   1  167.88   27.20
   3 -10   1  156.38   52.89
  -3 -10  -1  139.59   14.10
   3 -10   1  136.09   19.20
   3 -10   1  166.28   18.20
   3 -10   1  154.88   23.40
   3 -10   1  147.09   18.30
   3  10   1  155.98   16.50
   3  10   1  152.38   26.00
   3  10   1  165.48   17.80
   3  10   1  153.18   14.50
   4 -10   1  244.98   28.40
   4 -10   1  309.47   31.90
   4 -10   1  287.07   32.40
   4 -10   1  275.57   25.30
   4 -10   1  273.27   25.00
  -4 -10  -1  274.77   21.90
   4  10   1  294.17   28.10
   4  10   1  312.67   25.40
   4  10   1  309.77   34.70
   4  10   1  387.16   31.30
   4  10   1  321.47   27.90
   5 -10   1   19.10    6.70
   5 -10   1   14.00    5.70
  -5 -10  -1   13.60    3.20
   5 -10   1   13.50    9.30
   5 -10   1   10.80    4.80
  -5 -10  -1   13.30    5.60
   5  10   1   29.00   11.60
   5  10   1   26.90    4.90
   5  10   1   34.90    8.60
   5 -11  -1   73.79   13.10
   5 -11  -1   68.19   15.80
  -5 -11   1   71.09    8.40
   5 -11  -1   63.29    9.70
   5  11  -1  126.79   10.90
   5  11  -1  113.09   13.10
   5  11  -1   48.70   17.50
   5  11  -1  121.99   15.00
   5  11  -1  108.79   11.90
   4 -11  -1  155.08   16.40
   4 -11  -1  137.99   17.20
   4 -11  -1  152.78   25.70
  -4 -11   1  154.48   14.30
   4  11  -1  235.88   19.50
   4  11  -1  157.48   31.30
   4  11  -1  217.78   22.40
   4  11  -1  250.27   19.20
   4  11  -1  200.58   19.30
   3 -11  -1  117.99   26.10
  -3 -11   1  102.59   15.80
  -3 -11   1   84.89   18.00
   3  11  -1  168.48   28.60
  -3  11   1  157.88   31.70
  -3  11   1   97.09   15.80
   3  11  -1  101.89   18.30
   3  11  -1  149.79   18.40
  -2 -11   1  155.98   21.80
   2 -11  -1  208.88   25.40
  -2 -11   1  193.58   20.70
   2 -11  -1  197.08   17.20
   2 -11  -1  188.28   28.60
   2  11  -1  257.47   25.70
  -2  11   1  210.38   21.60
   2  11  -1  237.08   31.80
  -2  11   1  300.47   36.00
  -1 -11   1 1164.88   96.39
   1 -11  -1 1333.57   95.09
   1 -11  -1 1435.36   92.39
  -1 -11   1 1387.96   95.39
   1 -11  -1 1357.06  100.59
  -1 -11   1 1361.66   91.79
   1 -11  -1 1418.96  106.49
   1  11  -1 1685.53  131.69
  -1  11   1 1857.21  133.19
  -1  11   1 1733.03  120.99
   1  11  -1 1776.52  133.39
   1  11  -1 1791.12  123.69
   0 -11  -1  624.24   51.39
   0 -11   1  600.54   56.89
   0 -11  -1  665.13   46.10
   0 -11  -1  635.64   48.10
   0 -11   1  669.53   46.50
   0 -11   1  668.33   48.90
   0  11   1  901.51   59.89
   0  11  -1  817.92   67.79
   0  11  -1  746.73   67.19
   0  11   1  772.82   68.69
   0  11  -1  773.52   59.29
   0  11   1  835.42   74.69
   1 -11   1  163.28   15.80
  -1 -11  -1  160.88   16.80
   1 -11   1  179.18   28.30
   1 -11   1  152.68   17.60
  -1 -11  -1  143.39   13.60
  -1 -11  -1  142.59   18.60
   1 -11   1  135.89   27.70
   1  11   1  185.58   31.10
   1  11   1  171.78   18.90
  -1  11  -1  145.19   17.60
  -1  11  -1  147.99   21.50
   2 -11   1  348.17   44.00
  -2 -11  -1  366.56   32.00
   2 -11   1  383.56   30.40
  -2 -11  -1  406.16   36.20
   2 -11   1  426.86   48.00
  -2  11  -1  501.95   42.10
   2  11   1  489.35   53.89
   2  11   1  585.14   42.50
  -2  11  -1  503.45   48.40
   3 -11   1  135.69   19.40
   3 -11   1  141.39   23.50
  -3 -11  -1  145.69   13.50
  -3 -11  -1  131.89   13.70
   3 -11   1  154.78   18.70
   3 -11   1  156.28   27.20
   3 -11   1  155.28   18.30
   3  11   1  194.78   19.40
   3  11   1  175.98   28.10
   3  11   1  181.48   18.50
   3  11   1  185.08   16.40
   4 -11   1   15.30   11.50
  -4 -11  -1   30.70    5.90
   4 -11   1   27.50    8.80
   4 -11   1   19.00    9.50
   4 -11   1   25.50    8.20
   4 -11   1   33.40   15.50
   4  11   1   25.80    6.10
   4  11   1   27.40    8.40
   4  11   1   33.70   13.70
   4  11   1   49.20   11.30
  -5 -11  -1   25.20    6.20
  -5 -11  -1   37.80    4.50
   5 -11   1   25.10    6.70
   5 -11   1   27.80   11.10
   5 -11   1   22.20    6.90
   5 -11   1   23.60    6.20
   5  11   1   51.89    6.50
   5  11   1   63.39   10.20
   5  11   1   49.40   13.10
   5 -12  -1    7.60    9.20
   5 -12  -1   11.30    5.60
  -5 -12   1   15.10    4.10
   5  12  -1   11.10    6.40
   5  12  -1    7.70    4.40
   5  12  -1   16.20    4.20
   5  12  -1    4.30    9.10
   4 -12  -1   55.29   10.20
   4 -12  -1   69.29   14.70
   4 -12  -1   69.89   18.80
   4 -12  -1   55.49   10.70
  -4 -12   1   59.19    8.50
   4  12  -1   61.29    9.90
   4  12  -1   52.69   19.00
   4  12  -1   73.99   14.10
   4  12  -1   60.59    8.70
  -3 -12   1   86.59   11.10
   3 -12  -1   82.99   16.10
   3 -12  -1   57.09   18.10
   3 -12  -1   79.59   10.00
   3 -12  -1   93.39   13.40
   3  12  -1  182.78   16.10
   3  12  -1  134.69   29.80
   3  12  -1  162.18   17.50
   3  12  -1  176.38   16.50
  -2 -12   1  326.07   33.30
   2 -12  -1  311.47   32.70
   2 -12  -1  356.96   41.50
  -2 -12   1  368.66   31.50
   2 -12  -1  348.27   27.60
   2  12  -1  406.46   36.60
   2  12  -1  470.95   46.00
  -2  12   1  420.86   46.30
  -2  12   1  329.47   31.80
   1 -12  -1   57.19    8.80
  -1 -12   1   49.40   10.30
  -1 -12   1   61.39    8.30
   1 -12  -1   55.49   11.30
   1 -12  -1   82.69   20.80
  -1 -12   1   38.80   10.30
   1  12  -1   81.29   20.60
   1  12  -1   64.79   12.70
  -1  12   1   51.99   17.80
  -1  12   1   64.59   10.50
   1  12  -1   50.79   17.60
   0 -12   1  836.32   72.29
   0 -12  -1  744.03   65.39
   0 -12  -1  873.41   62.99
   0 -12   1  909.91   60.59
   0 -12   1  904.51   63.59
   0 -12  -1  897.51   60.39
   0  12   1  940.51   82.89
   0  12  -1 1007.90   82.19
   0  12  -1  910.31   81.49
   0  12   1 1056.49   90.49
   0  12   1 1121.49   73.59
   0  12  -1  999.50   73.29
  -1 -12  -1  801.62   58.29
  -1 -12  -1  729.33   61.49
   1 -12   1  846.12   72.49
   1 -12   1  886.11   56.69
   1 -12   1  736.43   58.39
  -1 -12  -1  743.63   54.79
  -1  12  -1  744.63   56.69
   1  12   1  638.14   66.79
  -1  12  -1  841.22   64.59
   1  12   1  764.92   56.49
   2 -12   1   41.60   17.30
  -2 -12  -1   27.80    8.50
   2 -12   1   31.90    8.10
  -2 -12  -1   38.90   10.70
   2 -12   1   16.80   17.40
  -2  12  -1   44.40   14.10
   2  12   1   41.40    9.90
   2  12   1   29.70   17.50
  -2  12  -1   37.80   10.10
   3 -12   1   82.79   18.40
  -3 -12  -1   84.19   10.40
   3 -12   1   84.99   22.30
   3 -12   1   76.99   13.40
   3 -12   1   74.79   14.70
   3 -12   1   79.49   14.00
  -3 -12  -1   84.59   10.30
   3  12   1   44.40    9.50
   3  12   1   58.49   16.80
   3  12   1   65.49   12.90
   3  12   1   63.39    8.80
   4 -12   1  140.69   18.10
   4 -12   1  101.79   15.00
   4 -12   1  126.79   24.60
   4 -12   1  113.19   19.60
   4 -12   1  101.99   15.40
  -4 -12  -1  111.09   15.90
  -4 -12  -1  112.99   10.90
   4  12   1  135.19   23.60
   4  12   1  147.49   13.20
   4  12   1  127.19   17.80
   5 -12   1   16.90    5.50
   5 -12   1   19.30    9.50
   5 -12   1   14.00    4.80
  -5 -12  -1   17.80    3.10
   5 -12   1   14.10    5.30
  -5 -12  -1   17.30    4.70
   5  12   1    9.20    7.90
   5  12   1   10.50    3.10
   5 -13  -1   58.09   20.60
  -5 -13   1   87.29    8.40
   5  13  -1  107.59   11.40
   5  13  -1  110.39   10.10
   4 -13  -1  253.87   34.10
   4 -13  -1  223.58   23.50
  -4 -13   1  262.37   20.40
  -4 -13   1  236.18   20.40
   4 -13  -1  239.28   21.90
   4 -13  -1  241.98   25.50
   4  13  -1  177.68   34.50
   4  13  -1  310.47   23.10
   4  13  -1  277.47   23.80
   4  13  -1  322.87   26.40
  -3 -13   1    1.10    4.20
   3 -13  -1    0.10    8.00
   3 -13  -1    5.60   12.80
   3 -13  -1    1.80    3.80
   3 -13  -1    1.30    5.60
   3  13  -1    7.30    5.00
   3  13  -1   11.40   15.60
   3  13  -1   13.60    5.90
   2 -13  -1  601.04   41.00
   2 -13  -1  474.65   45.90
  -2 -13   1  598.14   44.40
  -2 -13   1  439.86   46.00
   2 -13  -1  594.94   56.79
  -2  13   1  563.74   50.19
  -2  13   1  813.22   68.69
   2  13  -1  663.63   54.99
   2  13  -1  715.43   64.29
   1 -13  -1 1167.58   91.29
  -1 -13   1 1059.19   72.69
  -1 -13   1  925.01   78.39
   1 -13  -1 1104.19   73.29
   1 -13  -1 1053.19   77.09
  -1 -13   1 1004.10   75.69
   1  13  -1 1113.09   98.89
  -1  13   1 1237.58  100.19
  -1  13   1 1274.07   87.69
   1  13  -1 1302.97  101.79
   1  13  -1 1246.78   90.19
   0 -13  -1   23.60    9.60
   0 -13   1   15.40    7.00
   0 -13   1   28.00   14.10
   0 -13  -1   23.40    5.80
   0 -13  -1   17.40    7.20
   0 -13   1   20.40    6.50
   0  13  -1   32.60   14.50
   0  13  -1   24.50   13.00
   0  13   1   45.70   17.90
   0  13   1   22.10   13.60
   0  13  -1   13.50    7.20
   0  13   1   41.00    9.50
  -1 -13  -1  125.59   15.70
   1 -13   1  124.99   17.20
   1 -13   1  141.29   14.80
   1 -13   1  108.49   26.50
  -1 -13  -1  117.79   17.90
   1  13   1  117.39   15.90
  -1  13  -1   91.59   20.00
   1  13   1  111.99   26.50
  -1  13  -1   99.89   24.00
  -1  13  -1   95.79   14.70
  -2 -13  -1  517.95   42.20
   2 -13   1  521.65   40.40
   2 -13   1  500.25   56.69
   2 -13   1  555.84   59.49
  -2 -13  -1  549.05   46.90
   2  13   1  560.54   61.69
   2  13   1  659.93   48.10
  -2  13  -1  597.44   48.10
  -2  13  -1  551.14   54.39
   3 -13   1  208.18   25.60
  -3 -13  -1  255.97   20.70
   3 -13   1  268.67   29.80
  -3 -13  -1  262.27   20.70
   3 -13   1  241.18   21.00
   3 -13   1  282.87   39.40
   3 -13   1  270.47   24.70
   3 -13   1  222.08   23.80
   3  13   1  293.67   22.80
   3  13   1  291.57   32.50
   3  13   1  266.97   24.60
  -4 -13  -1    6.20    3.60
   4 -13   1    8.80    7.50
   4 -13   1    7.60    6.50
   4 -13   1   10.80    9.40
   4 -13   1   12.30    8.00
   4 -13   1    5.30   12.70
  -4 -13  -1   12.30    6.30
   4  13   1   12.70   10.00
   4  13   1   10.70    4.30
  -5 -13  -1   49.10    6.80
   5 -13   1   41.00    7.00
   5 -13   1   50.59    7.40
   5 -13   1   43.80   11.50
   5 -13   1   43.10    6.60
  -5 -13  -1   54.79    5.00
   5  13   1   84.99    7.60
   5  13   1   76.59   13.80
  -5 -14   1   45.70    5.40
  -5 -14   1   31.80    6.50
   5  14  -1   62.19    7.90
   5  14  -1   81.09    7.30
   5  14  -1   41.50   12.20
  -4 -14   1   46.00    7.30
  -4 -14   1   44.60    7.60
   4 -14  -1   57.29   16.80
   4 -14  -1   44.90    8.80
   4 -14  -1   53.39   11.50
   4  14  -1   53.89    9.20
   4  14  -1   65.59   11.90
   4  14  -1   60.89    7.90
   4  14  -1   34.60   15.60
   3 -14  -1  249.88   21.20
   3 -14  -1  280.97   28.40
   3 -14  -1  252.67   23.90
  -3 -14   1  261.37   22.30
  -3 -14   1  278.17   22.70
   3 -14  -1  286.77   37.50
   3  14  -1  347.07   27.20
   3  14  -1  338.87   28.00
   3  14  -1  360.06   42.20
  -2 -14   1  176.98   21.80
  -2 -14   1  154.58   23.70
   2 -14  -1  229.48   32.90
   2 -14  -1  219.88   18.80
  -2  14   1  300.77   29.30
  -2  14   1  356.56   44.10
   2  14  -1  309.47   32.70
   2  14  -1  393.56   43.60
   1 -14  -1   61.49   20.60
  -1 -14   1   47.40   10.80
   1 -14  -1   50.59   11.70
   1 -14  -1   52.79    9.10
  -1 -14   1   56.29    8.90
   1  14  -1   79.89   21.90
  -1  14   1   82.29   12.80
   1  14  -1   73.29   14.30
   1  14  -1   56.09   20.60
  -1  14   1   68.39   20.30
   0 -14  -1  638.24   42.00
   0 -14  -1  489.75   47.00
   0 -14   1  544.65   54.89
   0 -14   1  601.54   42.10
   0 -14   1  571.34   45.00
   0 -14  -1  555.94   44.80
   0  14   1  683.93   65.79
   0  14  -1  600.64   62.39
   0  14   1  744.53   72.39
   0  14   1  752.12   54.09
   0  14  -1  701.03   54.59
   0  14  -1  696.43   65.79
  -1 -14  -1  254.17   25.20
   1 -14   1  317.47   40.50
  -1 -14  -1  245.58   27.50
   1 -14   1  317.97   24.30
   1  14   1  243.88   42.10
  -1  14  -1  307.17   28.30
  -1  14  -1  275.37   38.10
   1  14   1  305.27   27.90
  -1  14  -1  322.87   36.70
   2 -14   1   61.59   12.10
  -2 -14  -1   78.59    9.70
   2 -14   1   76.19    9.60
   2 -14   1   72.09   16.60
   2 -14   1   60.09   10.10
   2 -14   1   77.19   21.10
  -2 -14  -1   76.89    9.50
  -2 -14  -1   63.09   15.60
   2 -14   1   68.89   12.50
   2 -14   1   82.79   13.60
   2  14   1   88.49   19.50
   2  14   1   55.99   30.00
   2  14   1   82.59   10.70
  -2  14  -1   58.79   26.40
   2  14   1   83.69   12.30
  -3 -14  -1   48.20    7.40
   3 -14   1   49.30   11.60
   3 -14   1   33.50    7.20
   3 -14   1   41.20   10.80
   3 -14   1   56.49   20.60
   3 -14   1   48.80   14.20
  -3 -14  -1   51.99   11.30
  -3 -14  -1   43.70    7.10
   3 -14   1   64.89   12.50
   3  14   1   58.09    8.40
   3  14   1   55.89   10.00
   3  14   1   44.90   15.30
   4 -14   1   96.89   13.90
   4 -14   1   91.69   13.60
   4 -14   1   85.39   16.40
   4 -14   1  113.09   14.80
  -4 -14  -1  101.79    9.50
  -4 -14  -1   95.09   13.30
   4 -14   1   99.89   22.20
   4  14   1  144.29   23.00
   4  14   1  153.78   13.50
   5 -14   1   10.40    4.30
   5 -14   1    8.70    7.20
   5 -14   1    9.00    3.50
  -5 -14  -1   11.70    3.10
  -5 -14  -1   16.30    2.60
   5 -14   1   14.40    4.10
   5  14   1   16.70    7.10
   5  14   1   15.50    2.90
  -5 -15   1   32.80    5.60
  -5 -15   1   46.10    5.00
   5  15  -1   33.50    9.60
   5  15  -1   40.80    5.80
   4 -15  -1   86.89   19.20
  -4 -15   1   85.39   10.10
  -4 -15   1   94.09    9.60
   4 -15  -1   84.39   11.70
   4 -15  -1   87.19   14.30
   4  15  -1   81.19   20.90
   4  15  -1  137.39   11.60
   4  15  -1  122.19   13.90
   3 -15  -1   67.79   11.40
  -3 -15   1   82.89   10.60
  -3 -15   1   63.09    9.60
  -3 -15   1   65.49   13.50
   3 -15  -1   66.99   19.00
   3 -15  -1   71.99   14.70
   3 -15  -1   73.69    9.40
   3  15  -1  113.79   26.40
   3  15  -1  113.19   13.60
   3  15  -1   94.09   11.40
  -2 -15   1  176.08   22.40
   2 -15  -1  163.78   15.50
   2 -15  -1  166.08   22.10
  -2 -15   1  169.28   15.50
  -2 -15   1  146.79   15.20
   2 -15  -1  144.29   14.20
   2 -15  -1  148.39   16.60
   2 -15  -1  186.68   24.50
   2 -15  -1  180.08   28.80
   2  15  -1  134.89   15.80
   2  15  -1  147.79   28.00
   1 -15  -1  638.54   53.29
  -1 -15   1  681.33   48.60
  -1 -15   1  615.14   51.89
   1 -15  -1  726.43   49.30
  -1  15   1  732.53   54.39
   1  15  -1  755.42   67.69
   1  15  -1  718.73   56.79
  -1  15   1  597.34   63.69
   0 -15  -1  330.57   31.40
   0 -15  -1  373.36   28.70
   0 -15   1  416.46   29.80
   0 -15   1  326.47   31.40
   0 -15   1  353.96   42.30
   0  15  -1  268.67   38.90
   0  15  -1  384.26   45.00
   0  15   1  376.56   48.80
   0  15   1  313.87   41.40
   0  15  -1  378.26   33.20
   0  15   1  379.06   31.90
  -1 -15  -1   43.60   12.60
   1 -15   1   52.69   22.50
  -1 -15  -1   50.79   11.10
   1 -15   1   53.39    9.10
  -1  15  -1   59.29   19.50
  -1  15  -1   47.30   18.80
   1  15   1   38.60   23.30
   1  15   1   55.99   12.30
  -1  15  -1   46.90   11.60
   2 -15   1  376.26   33.60
   2 -15   1  403.86   43.60
   2 -15   1  408.46   33.80
  -2 -15  -1  394.76   30.20
   2 -15   1  410.36   34.50
  -2 -15  -1  433.26   31.10
   2 -15   1  419.86   30.80
   2 -15   1  409.96   39.30
   2 -15   1  383.46   31.70
   2  15   1  372.36   37.00
   2  15   1  359.56   27.20
   2  15   1  324.07   28.60
   3 -15   1  147.59   18.80
   3 -15   1  135.49   28.30
   3 -15   1  142.69   19.10
  -3 -15  -1  150.08   13.50
   3 -15   1  142.19   22.70
   3 -15   1  159.18   19.20
  -3 -15  -1  129.69   17.90
  -3 -15  -1  134.79   12.90
   3 -15   1  127.19   13.80
   3  15   1  127.09   23.50
   3  15   1  135.19   16.20
   3  15   1  132.49   13.70
  -4 -15  -1    3.60    4.10
   4 -15   1   -0.50    5.20
   4 -15   1    5.00   11.10
  -4 -15  -1    2.50    2.80
   4 -15   1   -1.00    5.60
   4 -15   1    1.40    5.60
   4 -15   1    0.40    7.10
   4  15   1   -0.30    3.30
   4  15   1    1.70    7.90
   5 -15   1   15.30    7.80
  -5 -15  -1   20.80    3.30
   5  15   1   17.70    6.30
  -5 -16   1    5.80    2.00
   5  16  -1   18.10    3.60
  -4 -16   1   62.19    7.80
   4 -16  -1   48.70    8.30
  -4 -16   1   57.59    7.60
   4 -16  -1   67.59   15.80
   4 -16  -1   53.79   10.70
   4  16  -1   71.89    9.70
   4  16  -1   72.39    9.50
   4  16  -1   65.49   17.40
   3 -16  -1  125.99   12.90
  -3 -16   1  111.69   17.90
   3 -16  -1  129.79   14.90
   3 -16  -1  137.79   26.20
  -3 -16   1  141.09   13.90
   3 -16  -1  152.38   20.80
  -3 -16   1  144.79   13.60
   3 -16  -1  146.89   15.70
   3  16  -1  187.98   33.10
   3  16  -1  179.78   17.20
   2 -16  -1  183.18   18.30
   2 -16  -1  204.78   25.70
  -2 -16   1  182.68   17.00
   2 -16  -1  174.88   17.00
   2 -16  -1  174.48   15.70
  -2 -16   1  177.98   23.20
   2 -16  -1  186.38   21.90
   2 -16  -1  185.78   30.20
   2  16  -1  255.57   22.80
   2  16  -1  283.97   38.30
  -1 -16   1   16.60   17.50
   1 -16  -1   17.30    5.00
  -1 -16   1   19.20    7.40
  -1 -16   1   28.30   10.60
  -1 -16   1   20.80    6.80
   1 -16  -1   24.40    6.40
   1 -16  -1   24.40    7.40
   1 -16  -1   26.20   10.80
   1 -16  -1   21.30    9.90
   1 -16  -1   24.70    9.10
   1 -16  -1   31.90   14.40
   1  16  -1   31.70    8.20
  -1  16   1   25.30   22.40
  -1  16   1   29.70   10.00
   0 -16   1  529.25   35.80
   0 -16   1  388.16   47.30
   0 -16   1  439.66   38.00
   0 -16  -1  393.66   37.50
   0 -16  -1  517.75   35.40
   0  16   1  484.05   53.79
   0  16  -1  524.15   43.50
   0  16   1  514.45   41.50
   0  16  -1  444.16   53.29
   0  16   1  480.05   58.89
  -1 -16  -1  540.25   38.80
   1 -16   1  519.85   44.90
   1 -16   1  513.15   40.90
   1 -16   1  513.55   40.50
   1 -16   1  496.55   37.60
   1 -16   1  541.85   45.60
  -1 -16  -1  495.45   37.30
   1 -16   1  537.25   50.59
  -1 -16  -1  542.55   43.40
   1 -16   1  538.05   39.20
  -1 -16  -1  476.75   39.50
   1  16   1  607.24   54.89
   2 -16   1    6.10   14.70
  -2 -16  -1    4.70    3.60
   2 -16   1   10.20    7.60
   2 -16   1    9.00    7.40
   2 -16   1   12.70   10.80
   2 -16   1    1.30    5.50
   2 -16   1    6.00    7.00
  -2 -16  -1    5.00    4.50
  -2 -16  -1    6.70    8.60
   2 -16   1    4.90    3.90
   2  16   1   16.20    6.60
   2  16   1   23.30   13.10
   2  16   1   27.30    6.40
   3 -16   1  152.48   29.70
  -3 -16  -1  145.59   13.40
   3 -16   1  137.89   22.40
  -3 -16  -1  138.89   12.80
   3 -16   1  153.48   18.80
   3 -16   1  145.79   18.30
   3 -16   1  126.79   13.20
   3 -16   1  135.09   18.30
   3  16   1  170.78   17.40
   3  16   1  184.98   15.70
   3  16   1  174.38   27.60
   4 -16   1   79.99   10.70
   4 -16   1   67.29   10.40
  -4 -16  -1   68.69    9.10
   4 -16   1   60.59   16.90
  -4 -16  -1   73.09    7.20
   4 -16   1   60.79   12.40
   4 -16   1   64.99   10.00
   4  16   1   68.09   14.30
   4  16   1   69.09    7.70
  -5 -17   1   27.90    3.20
   5  17  -1   47.90    5.30
  -4 -17   1   43.30    6.00
   4 -17  -1   30.10   11.80
   4 -17  -1   30.70    8.40
  -4 -17   1   59.39    6.70
   4 -17  -1   37.40    6.90
   4  17  -1   62.39   15.70
   4  17  -1   97.99   10.40
   3 -17  -1   37.50    6.60
   3 -17  -1   25.10    9.60
   3 -17  -1   29.40   14.50
   3 -17  -1   31.70    7.80
   3 -17  -1   38.70    7.80
  -3 -17   1   29.70    6.10
  -3 -17   1   31.30    9.50
  -3 -17   1   29.80    6.10
   3  17  -1   53.09   19.10
   3  17  -1   51.29    9.10
   2 -17  -1   21.60    7.00
   2 -17  -1   14.70    5.90
  -2 -17   1   14.00    8.80
   2 -17  -1    8.50    8.20
   2 -17  -1    8.20    4.20
   2 -17  -1   10.00    9.70
  -2 -17   1    7.60    4.70
   2 -17  -1   19.50   13.90
   2  17  -1   36.80    8.50
   2  17  -1   38.30   16.20
   1 -17  -1  157.38   15.20
  -1 -17   1  146.29   15.90
  -1 -17   1  172.78   32.30
  -1 -17   1  163.48   22.80
   1 -17  -1  181.78   24.00
   1 -17  -1  150.68   13.90
  -1 -17   1  137.09   14.80
   1 -17  -1  162.48   16.40
   1 -17  -1  156.68   21.40
   1 -17  -1  173.78   29.20
   1  17  -1  315.77   26.70
   0 -17  -1  202.18   22.60
   0 -17  -1  165.28   19.00
   0 -17  -1  182.28   17.40
   0 -17   1  206.88   34.90
   0 -17  -1  189.78   16.70
   0 -17   1  179.98   16.00
   0 -17   1  222.88   26.80
   0 -17   1  195.68   17.60
   0 -17  -1  191.28   23.70
   0 -17  -1  249.08   34.00
   0 -17  -1  162.68   15.60
   0 -17   1  187.98   19.10
   0 -17   1  218.98   22.60
  -1 -17  -1   54.99    8.90
   1 -17   1   66.09   12.30
   1 -17   1   71.99   21.50
  -1 -17  -1   57.09   13.10
   1 -17   1   65.39    8.80
   1 -17   1   77.89   15.50
   1 -17   1   63.09   11.20
   1 -17   1   76.79   16.20
  -1 -17  -1   61.69    8.60
   1 -17   1   74.59   10.70
  -1 -17  -1   66.59   11.30
   1  17   1  117.09   24.10
   2 -17   1   20.80    6.40
   2 -17   1    7.60   14.80
   2 -17   1   25.90    8.60
  -2 -17  -1   28.20    6.30
  -2 -17  -1   25.70    9.00
   2 -17   1   26.80    9.00
   2 -17   1   27.80    5.90
   2 -17   1   25.40   11.60
  -2 -17  -1   21.70    5.00
   2  17   1   11.20    4.70
   2  17   1    4.40   10.30
   2  17   1   14.00    5.60
   3 -17   1   62.09   20.30
   3 -17   1   57.79    7.70
  -3 -17  -1   51.89    7.30
   3 -17   1   59.49   11.40
   3 -17   1   55.49   11.20
   3 -17   1   46.50   13.60
   3 -17   1   60.49   11.00
  -3 -17  -1   53.29    7.60
   3  17   1  101.89   20.90
   3  17   1  111.19   13.80
   3  17   1  121.69   12.10
   4 -17   1    1.30    5.40
   4 -17   1    4.80    4.30
  -4 -17  -1    4.90    2.40
   4 -17   1   10.20    7.20
   4 -17   1    1.80    4.80
  -4 -17  -1    7.40    2.90
   4 -17   1    4.30    8.90
   4  17   1    5.50    7.00
   4  17   1    2.40    2.80
  -4 -18   1   15.20    3.80
   4 -18  -1   15.50    6.30
  -4 -18   1   18.30    3.70
   4 -18  -1   11.30    4.30
   4 -18  -1   15.30    8.70
   4  18  -1    8.90    7.70
   4  18  -1   14.40    4.30
  -3 -18   1  103.69   16.30
   3 -18  -1  138.99   14.40
  -3 -18   1  136.29   13.40
   3 -18  -1  130.09   23.30
   3 -18  -1  140.39   18.80
  -3 -18   1  152.48   12.70
   3 -18  -1  136.19   14.50
   3 -18  -1  129.49   12.50
   3  18  -1  113.59   24.50
   3  18  -1  119.69   13.80
  -2 -18   1  211.88   24.80
   2 -18  -1  247.88   33.20
   2 -18  -1  228.58   24.90
   2 -18  -1  223.08   19.80
   2 -18  -1  230.48   26.00
   2 -18  -1  239.68   19.00
  -2 -18   1  223.58   19.90
   2 -18  -1  231.18   21.40
   2  18  -1  292.47   24.10
   2  18  -1  278.97   33.60
   1 -18  -1   72.59   14.10
  -1 -18   1   57.49    9.80
   1 -18  -1   68.49   20.90
   1 -18  -1   75.19    8.90
   1 -18  -1   85.19   16.80
   1 -18  -1   65.39   11.60
  -1 -18   1  111.89   27.10
   1 -18  -1   78.39   10.50
  -1 -18   1   56.09   14.50
  -1 -18   1   69.89   15.10
  -1 -18   1   61.69    9.50
   1  18  -1   99.29   13.60
   0 -18  -1   83.29   15.40
   0 -18   1   83.69   14.00
   0 -18   1   82.69    9.70
   0 -18  -1   63.19   20.80
   0 -18   1   94.39   17.60
   0 -18  -1   66.79   15.90
   0 -18   1   80.39   13.80
   0 -18   1  110.29   27.20
   0 -18   1   94.09   11.60
   0 -18  -1   94.59   11.10
   0 -18  -1   77.19   13.80
   0 -18  -1   83.59   11.40
   0 -18  -1   81.09    9.70
  -1 -18  -1  401.06   32.30
   1 -18   1  414.96   43.20
   1 -18   1  429.16   38.70
   1 -18   1  419.56   35.00
   1 -18   1  400.16   37.80
  -1 -18  -1  433.76   33.70
   1 -18   1  459.95   31.80
   1 -18   1  431.86   34.40
   1 -18   1  436.36   33.10
  -1 -18  -1  412.96   36.90
   1  18   1  503.45   47.60
   2 -18   1   14.60    6.00
  -2 -18  -1   11.80    7.20
   2 -18   1   25.90    9.00
  -2 -18  -1   20.90    5.60
   2 -18   1   23.30    8.90
  -2 -18  -1   24.00    5.30
   2 -18   1   24.90   15.10
   2 -18   1   22.80   11.60
   2 -18   1   23.10    5.60
   2  18   1   22.90    5.70
   2  18   1   21.00   12.80
   2  18   1   17.30    6.10
   3 -18   1   54.69   18.60
   3 -18   1   41.50    9.70
   3 -18   1   40.00    6.30
  -3 -18  -1   47.40    6.70
   3 -18   1   38.80    9.30
  -3 -18  -1   50.09    6.60
   3 -18   1   43.80   12.40
   3  18   1   52.79    8.70
   3  18   1   52.59    7.30
   3  18   1   55.29   15.10
   4 -18   1   41.80    7.30
   4 -18   1   38.40    6.50
  -4 -18  -1   48.10    4.80
   4 -18   1   41.10    8.40
   4 -18   1   32.80   10.90
  -4 -18  -1   49.60    5.40
   4  18   1   31.90    9.20
   4  18   1   33.80    4.50
   4 -19  -1   60.49   12.80
  -4 -19   1   81.79    7.60
   4 -19  -1   78.29   11.10
  -4 -19   1   89.19    7.30
   4 -19  -1   75.39    8.50
   4  19  -1   56.99   12.10
   4  19  -1   84.19    8.30
  -3 -19   1    5.40    5.80
   3 -19  -1    7.90    7.00
   3 -19  -1    8.80    5.20
   3 -19  -1    6.00    3.40
   3 -19  -1    8.90    4.60
  -3 -19   1   12.40    4.00
  -3 -19   1    9.20    3.90
   3 -19  -1    8.40    9.80
   3  19  -1   18.20   11.30
   3  19  -1   22.10    6.20
   2 -19  -1   67.69    8.50
   2 -19  -1   69.19   14.20
   2 -19  -1   74.59   19.70
  -2 -19   1   48.90   12.60
   2 -19  -1   53.99    8.80
   2 -19  -1   67.89   15.00
   2 -19  -1   68.59   11.20
  -2 -19   1   53.99    8.50
   2  19  -1   98.49   12.10
   2  19  -1   90.39   20.90
   1 -19  -1  264.07   33.10
   1 -19  -1  305.27   28.90
  -1 -19   1  237.48   25.20
   1 -19  -1  292.77   22.90
   1 -19  -1  290.87   21.80
  -1 -19   1  237.88   22.60
  -1 -19   1  299.37   29.50
   1 -19  -1  260.97   27.50
   1 -19  -1  293.87   24.90
  -1 -19   1  277.37   22.70
   1  19  -1  411.36   32.40
   0 -19  -1  142.39   13.30
   0 -19  -1  151.88   17.90
   0 -19   1  142.69   13.70
   0 -19  -1  168.48   28.30
   0 -19   1  168.38   23.40
   0 -19  -1  164.98   14.70
   0 -19  -1  164.88   21.90
   0 -19   1  153.88   18.50
   0 -19  -1  123.49   19.90
   0 -19   1  160.18   30.00
   0 -19   1  150.88   15.10
   0 -19  -1  144.69   15.30
   1 -19   1   98.09   17.20
   1 -19   1   87.09   13.50
  -1 -19  -1   89.79   12.20
   1 -19   1   87.39   11.30
   1 -19   1   78.29   12.50
  -1 -19  -1   77.99   10.80
   1 -19   1   76.59   14.90
  -1 -19  -1   75.69   14.10
   1 -19   1   83.49   22.00
   1 -19   1   70.29    9.60
   1  19   1  150.88   26.00
   2 -19   1  231.08   34.10
  -2 -19  -1  201.28   18.30
  -2 -19  -1  217.18   17.50
  -2 -19  -1  210.58   21.60
   2 -19   1  237.28   18.50
   2 -19   1  247.78   24.00
   2 -19   1  208.08   19.10
   2 -19   1  212.78   24.80
   2 -19   1  229.08   21.20
   2  19   1  274.67   23.50
   2  19   1  291.67   22.30
   2  19   1  271.67   31.50
   3 -19   1   79.19   11.40
   3 -19   1   71.09   19.10
   3 -19   1   58.39   10.60
  -3 -19  -1   73.09    8.50
   3 -19   1   71.49    8.20
   3 -19   1   58.59   12.80
  -3 -19  -1   72.69    7.90
   3  19   1   60.99   15.00
   3  19   1   61.59    7.30
   3  19   1   61.99    8.70
   4 -19   1    3.20    4.00
   4 -19   1    0.60    2.70
   4 -19   1    3.20    3.70
  -4 -19  -1    0.30    1.50
   4 -19   1    2.30    5.80
   4  19   1    0.00    4.80
   4 -20  -1    2.70    4.30
  -4 -20   1    4.30    1.80
  -4 -20   1    5.70    2.50
   4 -20  -1    4.30    3.80
   4  20  -1    7.20    5.50
   4  20  -1   11.40    3.20
  -3 -20   1   23.90    4.80
   3 -20  -1   27.70    6.50
   3 -20  -1   24.10    5.50
   3 -20  -1   19.30   12.50
  -3 -20   1   26.90    5.60
  -3 -20   1   13.60    6.30
   3 -20  -1   35.10    5.30
   3 -20  -1   24.50    8.10
   3  20  -1   15.20    9.50
   3  20  -1   20.10    5.70
   2 -20  -1   29.40    6.40
   2 -20  -1   34.50    6.00
   2 -20  -1   32.80   17.30
   2 -20  -1   33.00    8.40
  -2 -20   1   19.20    8.60
  -2 -20   1   20.80    5.90
   2 -20  -1   25.60    9.60
   2 -20  -1   33.80   10.60
   2  20  -1   56.29    9.10
   2  20  -1   43.10   15.40
  -1 -20   1   26.50    8.10
  -1 -20   1   10.40    5.00
  -1 -20   1   19.40    5.60
   1 -20  -1   21.80    6.10
   1 -20  -1   16.40    9.00
   1 -20  -1   11.90    4.50
   1 -20  -1   14.20    8.20
   1 -20  -1   14.90    8.80
   1 -20  -1   19.90   16.10
  -1 -20   1   12.30    8.90
   1  20  -1   23.10   16.20
   1  20  -1   22.90    6.50
   0 -20   1   90.79   23.60
   0 -20  -1   80.49   21.30
   0 -20  -1  101.19   14.80
   0 -20  -1  100.09   11.60
   0 -20   1  114.09   18.80
   0 -20   1   92.99   14.60
   0 -20  -1   73.79   16.30
   0 -20  -1  103.69   17.40
   0 -20  -1   97.39   12.80
   0 -20   1  115.19   12.60
   0 -20  -1   95.39   10.30
   0 -20   1  107.69   11.00
   0  20  -1  202.18   19.00
   1 -20   1   20.30    9.70
  -1 -20  -1   20.50    8.70
   1 -20   1   16.00   16.30
   1 -20   1   24.90    6.70
   1 -20   1   24.70    5.70
   1 -20   1   31.40    8.40
   1 -20   1   19.70   10.00
  -1 -20  -1   21.70    5.80
   1 -20   1   13.70    7.50
  -1 -20  -1   34.80    7.10
   1  20   1   62.19   17.30
   2 -20   1   20.20    9.30
   2 -20   1   18.70    5.10
  -2 -20  -1   17.00    4.30
   2 -20   1   17.20    5.60
   2 -20   1   19.70    7.70
  -2 -20  -1   23.50    8.10
   2 -20   1   32.00   15.10
   2 -20   1   20.30    7.40
  -2 -20  -1   21.60    5.30
   2  20   1    8.30    4.70
   2  20   1   20.30   11.40
   3 -20   1    2.90    4.80
   3 -20   1   -1.80    5.40
   3 -20   1    3.00    5.30
  -3 -20  -1    0.50    2.30
   3 -20   1    4.10    8.60
  -3 -20  -1    3.50    3.00
   3 -20   1    1.00    2.60
   3  20   1    1.80    7.20
   3  20   1    5.30    4.90
  -4 -21   1   56.49    6.10
   3 -21  -1   11.20    3.20
  -3 -21   1    8.90    5.30
   3 -21  -1   15.90    5.70
   3 -21  -1   11.20    5.90
   3 -21  -1   12.90    4.00
  -3 -21   1    9.60    3.20
   3 -21  -1   17.00   11.80
   3  21  -1   28.40    5.50
   3  21  -1   16.70    8.60
   2 -21  -1   28.60   15.80
  -2 -21   1   23.00    5.70
   2 -21  -1   27.50    9.60
   2 -21  -1   34.60    9.70
   2 -21  -1   31.70    8.70
  -2 -21   1   23.40    8.60
   2 -21  -1   37.20    5.80
   2 -21  -1   29.90    6.30
   2  21  -1   18.80    6.00
   2  21  -1   14.90   10.20
   1 -21  -1  129.99   12.10
   1 -21  -1  157.28   17.40
  -1 -21   1  115.99   13.10
   1 -21  -1  118.39   18.70
  -1 -21   1  129.89   13.60
   1 -21  -1  134.09   25.70
   1 -21  -1  121.09   18.60
   1 -21  -1  139.09   13.00
  -1 -21   1  179.08   20.90
  -1 -21   1  129.29   19.10
   1  21  -1  154.78   27.10
   1  21  -1  164.08   16.40
   0 -21  -1   34.90   10.80
   0 -21  -1   39.90   10.30
   0 -21   1   37.80    7.60
   0 -21  -1   41.60    6.30
   0 -21   1   37.90   11.50
   0 -21   1   30.20   16.70
   0 -21  -1   47.50    7.40
   0 -21  -1   19.00   11.40
   0 -21  -1   35.70    7.20
   0 -21   1   47.80    6.70
   0 -21   1   27.10    9.80
   0  21  -1   63.69   10.20
  -1 -21  -1   16.10    7.70
   1 -21   1   19.00    7.50
   1 -21   1    9.90    8.60
   1 -21   1    9.30    7.20
  -1 -21  -1   14.70    5.20
   1 -21   1   14.20   15.20
   1 -21   1   20.90    5.00
   1 -21   1   18.50    8.60
   1 -21   1   23.60    5.90
   1  21   1   15.90   11.00
   2 -21   1  167.18   19.90
  -2 -21  -1  169.28   14.90
   2 -21   1  147.79   14.60
   2 -21   1  175.48   14.30
   2 -21   1  179.38   16.90
  -2 -21  -1  153.58   17.10
  -2 -21  -1  169.98   13.80
   2 -21   1  179.08   18.00
   2 -21   1  192.28   28.30
   2  21   1  205.78   17.70
   2  21   1  209.18   24.80
   3 -21   1   10.90    5.30
   3 -21   1   10.40    4.80
   3 -21   1    9.80   10.20
  -3 -21  -1   15.10    3.20
  -3 -21  -1   16.70    3.90
   3 -21   1   12.20    6.50
   3 -21   1   16.00    3.20
   3  21   1   18.10    7.90
   3 -22  -1  111.49   17.40
  -3 -22   1  109.49   12.30
   3 -22  -1  134.19   14.50
   3 -22  -1  141.39   10.40
  -3 -22   1  132.89   11.00
   3 -22  -1  117.79   10.60
   3  22  -1  170.98   13.70
   3  22  -1  167.58   18.60
   2 -22  -1   83.29    8.30
  -2 -22   1   67.09    8.60
   2 -22  -1   84.99   18.90
   2 -22  -1   63.89   12.00
   2 -22  -1   60.09   12.40
   2 -22  -1   72.19    8.90
   2 -22  -1   91.39   12.10
  -2 -22   1   48.70   10.80
   2  22  -1  100.29   10.70
   2  22  -1   78.29   16.60
  -1 -22   1    4.60    4.00
   1 -22  -1    4.90    3.90
   1 -22  -1   11.80   13.70
  -1 -22   1   11.20    8.00
   1 -22  -1    8.80    8.20
   1 -22  -1    2.40    3.10
   1 -22  -1    7.00    6.90
   1 -22  -1    6.00    9.30
  -1 -22   1    9.70    4.20
   1  22  -1   10.20    5.00
   1  22  -1   11.30   11.30
   0 -22  -1   82.99   16.50
   0 -22   1  137.59   11.60
   0 -22  -1  140.39   12.20
   0 -22   1  145.39   19.30
   0 -22  -1  117.29   12.50
   0 -22   1  126.89   15.40
   0 -22   1  115.29   22.90
   0 -22   1  140.49   12.90
   0 -22  -1  141.19   18.00
   0 -22  -1  137.99   15.70
   0  22   1  224.78   30.20
   0  22  -1  205.38   18.80
   1 -22   1  141.69   15.50
   1 -22   1  131.29   12.90
  -1 -22  -1  119.69   16.60
  -1 -22  -1  120.69   12.50
   1 -22   1  106.39   16.40
   1 -22   1  138.49   24.70
   1 -22   1  137.39   11.90
   1 -22   1  127.69   17.50
   1  22   1  208.58   27.90
   1  22   1  213.38   18.90
  -1  22  -1  182.48   17.60
  -2 -22  -1    1.30    4.70
   2 -22   1    4.80    5.00
   2 -22   1    6.00    3.00
  -2 -22  -1    5.00    3.60
   2 -22   1   11.40    6.50
   2 -22   1    8.50    6.70
   2 -22   1   14.60   14.20
   2 -22   1    5.30    3.30
   2  22   1    4.70    9.00
   2  22   1    6.30    3.20
   3 -22   1   31.90   11.30
  -3 -22  -1   34.70    4.50
   3 -22   1   28.30    3.80
   3 -22   1   31.70    6.20
  -3 -22  -1   31.70    3.90
   3 -22   1   29.80    7.00
   3  22   1   43.70    9.30
  -3 -23   1   12.20    2.80
   3 -23  -1   14.00    6.40
   3 -23  -1   15.60    5.70
   3 -23  -1   11.10    2.30
   3  23  -1    3.50    4.40
   3  23  -1    7.60    2.70
   2 -23  -1   18.70    3.80
   2 -23  -1   22.70    8.10
  -2 -23   1   16.20    6.40
   2 -23  -1   17.70    8.80
   2 -23  -1   17.70   12.00
   2 -23  -1    8.40    5.90
   2 -23  -1   16.30    4.30
  -2 -23   1   14.80    4.10
   2  23  -1   16.60    8.30
   2  23  -1   14.20    4.40
   1 -23  -1   18.00    7.40
  -1 -23   1   23.10    5.30
  -1 -23   1   23.20    8.10
   1 -23  -1   30.90   11.40
   1 -23  -1   34.00    5.90
  -1 -23   1   28.90    5.60
   1 -23  -1   33.60    5.10
   1 -23  -1   40.10   10.30
   1  23  -1   54.69   13.90
   1  23  -1   63.19    8.50
   0 -23   1    0.40    6.10
   0 -23  -1   10.20    4.30
   0 -23   1    8.60    3.50
   0 -23  -1    5.60    6.20
   0 -23  -1    7.10    5.90
   0 -23   1   11.70    4.60
   0 -23   1    5.90    6.50
   0 -23  -1  -10.60    8.70
   0 -23  -1    9.60    4.00
   0  23  -1   10.60    4.70
   0  23   1    9.30   10.00
  -1 -23  -1    6.00    3.30
   1 -23   1    3.30   13.80
   1 -23   1    8.10    3.90
   1 -23   1    3.30    7.50
   1 -23   1    8.60    3.50
   1 -23   1    3.50    7.10
   1 -23   1    3.30    6.00
  -1 -23  -1    5.30    5.50
  -1  23  -1   16.00    5.50
   1  23   1   16.20    9.70
   1  23   1   18.20    5.70
  -2 -23  -1   21.30    4.20
   2 -23   1   17.90    4.10
   2 -23   1   25.40    7.40
   2 -23   1   20.70    7.00
  -2 -23  -1   11.40    5.00
   2 -23   1   28.80   13.40
   2 -23   1   24.50    4.10
  -2  23  -1   28.60    5.60
   2  23   1   30.00    4.90
   2  23   1   42.10   10.80
   2 -24  -1   51.89    9.00
  -2 -24   1   37.50    5.70
   2 -24  -1   44.00    5.70
   2 -24  -1   45.00    5.00
   2 -24  -1   45.80   10.80
  -2 -24   1   40.30    7.90
   2  24  -1   58.89    6.50
   2  24  -1   41.60   10.20
   1 -24  -1    0.10    4.70
  -1 -24   1    8.50    5.50
   1 -24  -1    6.00    3.40
   1 -24  -1    3.10    2.50
   1 -24  -1    2.90    7.30
   1 -24  -1   -0.50    9.70
  -1 -24   1    3.20    3.30
   1  24  -1    7.00    3.80
   1  24  -1    5.50    7.30
  -1  24   1    5.20    9.50
   0 -24  -1   42.50    8.60
   0 -24   1   47.40    6.60
   0 -24   1   44.60    5.40
   0 -24  -1   40.50    6.00
   0 -24  -1   31.90    9.50
   0 -24  -1   42.10    7.50
   0 -24  -1   38.40    6.20
   0 -24   1   45.80    9.50
   0 -24   1   46.80    7.50
   0  24  -1   58.69   15.00
   0  24   1   53.59   12.90
   0  24  -1   55.89    7.40
   1 -24   1   69.19    6.80
   1 -24   1   46.60   10.20
   1 -24   1   56.99    7.00
  -1 -24  -1   57.39    9.30
  -1 -24  -1   57.39    7.20
   1 -24   1   40.10   13.60
   1 -24   1   45.10   11.00
   1 -24   1   61.09    9.80
   1  24   1   73.29   13.70
   1  24   1   51.49    7.10
  -1  24  -1   54.39    7.50
  -2 -24  -1   -0.10    2.00
   2 -24   1    1.00    6.30
   2 -24   1    9.90    9.00
   2 -24   1   -0.30    2.10
   2 -24   1   -0.70    1.80
   2 -24   1    9.30    6.40
  -2  24  -1    6.30    3.30
   2  24   1    5.50    6.00
   2 -25  -1   22.40    3.00
   2 -25  -1   18.60    3.20
   2 -25  -1   25.10    6.10
   2 -25  -1   30.30    9.10
  -2 -25   1   20.60    5.00
   2  25  -1   23.90    6.60
  -1 -25   1   62.19    6.20
   1 -25  -1   59.29    8.70
   1 -25  -1   73.29    6.90
  -1 -25   1   57.89    9.20
   1 -25  -1   68.09    6.00
   1 -25  -1   48.40   11.40
   1 -25  -1   57.89    9.10
   1  25  -1   98.09    9.20
  -1  25   1  118.89   15.70
   1  25  -1   90.29   14.40
   0 -25  -1   29.20    6.90
   0 -25   1   38.60    5.60
   0 -25  -1   42.30    5.20
   0 -25   1   39.80    5.30
   0 -25   1   30.60    7.20
   0  25  -1   45.10   11.30
   0  25   1   53.89   11.00
  -1 -25  -1   31.80    4.70
   1 -25   1   34.40    4.70
   1 -25   1   33.20    7.00
  -1 -25  -1   33.10    6.70
   1 -25   1   33.20    4.30
  -1  25  -1   48.80    5.70
   1  25   1   39.60    5.40
   1  25   1   42.50    9.80
  -1 -26   1    3.90    3.20
   1 -26  -1    4.70    2.30
   1  26  -1    3.90    4.70
   0 -26   1    5.20    2.60
   0 -26   1    4.00    3.80
   0 -26  -1    4.80    3.30
   0  26   1   17.30    3.50
   0  26  -1    9.40    5.90
   0  26   1   12.20    6.20
   6   0  -2  208.08   17.30
   6   0  -2  224.88   18.50
   6   0  -2  218.38   20.00
   6   0  -2  184.98   17.40
   6   0  -2  229.98   21.70
   5   0  -2  387.86   30.50
   5   0  -2  384.96   35.10
   5   0  -2  399.86   36.80
   5   0  -2  426.86   35.00
   5   0  -2  388.06   31.10
   5   0  -2  386.26   30.80
   4   0  -2  108.79   29.60
  -4   0   2   81.39   18.70
   4   0  -2   51.89   18.70
  -4   0   2   89.79   17.60
  -3   0   2  214.38   29.90
  -3   0   2  184.68   22.70
   3   0  -2  188.88   27.10
   3   0  -2  207.78   33.90
   3   0  -2  198.28   19.30
   2   0  -2 3228.18  229.38
   2   0  -2 3350.46  237.28
  -2   0   2 3526.25  234.18
   2   0  -2 3631.44  236.08
  -2   0   2 3711.83  230.08
   2   0  -2 3335.97  246.08
   1   0  -2 2239.38  157.58
  -1   0   2 2271.57  161.98
  -1   0   2 2095.79  156.88
   1   0  -2 2386.96  156.88
   1   0  -2 2241.68  163.48
  -1   0   2 2320.47  154.18
   1   0  -2 2525.35  159.78
   0   0  -2 1297.57   87.59
   0   0  -2 1110.29   79.99
   0   0  -2 1239.08   80.79
   0   0   2 1132.59   84.49
   0   0  -2 1153.98   80.99
   0   0   2 1079.39   79.29
   0   0   2 1079.59   90.49
  -1   0  -2 2902.51  203.48
  -1   0  -2 2976.40  193.98
  -1   0  -2 3211.58  196.98
   1   0   2 2717.63  192.58
  -1   0  -2 2909.01  197.78
  -1   0  -2 2728.33  192.48
   1   0   2 2988.20  202.18
   1   0   2 2720.83  202.88
  -1   0  -2 2817.62  200.08
   2   0   2  869.41   72.49
  -2   0  -2  722.73   72.59
   2   0   2  758.62   70.49
   2   0   2  832.32   66.89
  -2   0  -2  822.52   64.09
   2   0   2  863.31   61.49
   3   0   2    4.20   11.80
  -3   0  -2    6.00   13.00
  -3   0  -2    5.20   11.50
   3   0   2   -4.20    9.20
   4   0   2  279.97   23.60
   4   0   2  281.17   29.50
   4   0   2  301.17   27.40
   4   0   2  239.18   27.40
   4   0   2  296.17   35.00
   5   0   2   87.89   10.90
   5   0   2   86.49   12.00
   5   0   2  131.89   11.00
   5   0   2  112.09   16.90
   5   0   2   67.99   12.70
   5   0   2   92.59   17.00
   6  -1  -2   56.09    8.60
   6  -1  -2   67.39    8.50
   6  -1  -2   83.09   13.20
   6  -1  -2   78.39    8.90
   6  -1  -2   65.09   10.70
   6   1  -2   82.19   11.90
   6   1  -2   69.49    8.70
   6   1  -2   74.59   13.00
   6   1  -2   60.69    8.40
   6   1  -2   55.49    9.30
   5  -1  -2   78.59   12.00
   5  -1  -2  108.79   18.40
   5  -1  -2  107.09   13.00
   5  -1  -2  134.39   17.90
   5   1  -2  169.18   15.20
   5   1  -2  169.78   21.30
   5   1  -2  157.48   16.50
   5   1  -2  178.48   22.30
   5   1  -2  143.99   18.80
   5   1  -2  143.19   15.40
  -4  -1   2  374.86   36.30
  -4  -1   2  446.76   42.20
   4  -1  -2  353.26   43.20
   4  -1  -2  303.37   45.40
   4   1  -2  414.86   55.59
   4   1  -2  535.85   52.29
  -4   1   2  530.25   48.90
  -4   1   2  505.95   45.20
   3  -1  -2  949.71   68.29
   3  -1  -2  894.81   85.89
  -3  -1   2  873.41   70.59
   3  -1  -2  984.20   75.19
   3  -1  -2 1028.20   79.39
  -3  -1   2  992.00   77.89
   3   1  -2  754.12   78.69
  -3   1   2  887.51   72.29
   3   1  -2  940.81   62.79
  -3   1   2  832.62   65.49
   3   1  -2  895.91   72.59
  -2  -1   2  727.63   58.49
   2  -1  -2  735.13   57.29
   2  -1  -2  668.83   54.79
  -2  -1   2  681.23   53.49
   2  -1  -2  661.53   48.90
   2  -1  -2  646.24   63.99
  -2  -1   2  746.03   49.30
   2  -1  -2  700.83   57.89
  -2   1   2  700.73   48.00
  -2   1   2  643.14   52.09
   2   1  -2  652.63   47.10
   2   1  -2  692.23   53.49
   2   1  -2  631.14   62.59
   2   1  -2  673.63   55.09
   1  -1  -2 3189.98  208.28
  -1  -1   2 2893.81  202.48
   1  -1  -2 3278.27  205.78
   1  -1  -2 3297.97  212.68
   1  -1  -2 2731.23  204.78
  -1  -1   2 2823.12  205.38
   1  -1  -2 3090.19  204.28
  -1   1   2 3904.31  248.98
   1   1  -2 3885.11  259.77
   1   1  -2 3854.61  251.57
  -1   1   2 3636.74  257.37
   1   1  -2 3725.23  253.87
   1   1  -2 3496.25  252.97
   0  -1   2 1238.98   93.89
   0  -1   2 1316.67   91.09
   0  -1   2 1215.18   88.99
   0  -1  -2 1219.08   89.79
   0  -1   2 1288.67   99.09
   0  -1  -2 1404.96   91.19
   0  -1  -2 1493.75   96.79
   0   1  -2 1534.45  105.79
   0   1   2 1382.06  103.29
   0   1  -2 1519.95  100.09
   0   1   2 1384.06   97.99
   0   1  -2 1427.96   99.19
   0   1   2 1380.66  109.99
   1  -1   2  219.38   30.50
  -1  -1  -2  295.27   26.50
  -1  -1  -2  265.47   22.30
  -1  -1  -2  293.77   31.50
   1  -1   2  255.07   32.30
   1  -1   2  216.58   22.00
  -1   1  -2  244.98   26.40
   1   1   2  233.68   31.70
   1   1   2  261.37   24.70
  -1   1  -2  205.38   27.00
   1   1   2  234.48   21.30
   1   1   2  209.08   28.90
  -1   1  -2  247.68   31.10
  -1   1  -2  283.17   25.10
  -1   1  -2  254.17   22.50
   2  -1   2  816.82   68.79
   2  -1   2  778.72   56.29
   2  -1   2  682.53   65.59
  -2  -1  -2  651.83   66.29
  -2  -1  -2  718.13   58.39
   2   1   2  733.53   66.89
  -2   1  -2  784.72   61.19
   2   1   2  823.42   68.39
   2   1   2  803.12   58.29
   2   1   2  782.32   63.59
  -2   1  -2  672.53   69.99
   3  -1   2  235.38   27.60
  -3  -1  -2  305.87   32.50
  -3  -1  -2  231.18   42.80
   3  -1   2  147.99   31.00
  -3   1  -2  270.07   43.70
  -3   1  -2  343.77   33.40
   3   1   2  209.18   37.40
   3   1   2  344.27   38.50
   3   1   2  274.07   31.10
  -3   1  -2  295.67   35.00
  -3   1  -2  216.58   41.30
  -3   1  -2  332.67   40.80
   4  -1   2   21.00   10.40
   4  -1   2   21.30    9.70
   4  -1   2   34.00   12.00
   4  -1   2   28.00    8.00
   4  -1   2   17.30    7.60
   4  -1   2    7.20   15.80
   4   1   2   22.60    9.90
   4   1   2   21.40    8.30
   4   1   2   -1.50   15.40
   4   1   2   19.90    9.60
   4   1   2   20.30   10.00
   4   1   2   10.10    7.30
   4   1   2   20.60    7.10
   5  -1   2   -5.20    4.60
   5  -1   2   -4.60    4.30
   5  -1   2   -4.00    4.70
   5  -1   2    6.30    7.60
   5  -1   2    1.10    4.90
   5  -1   2   -1.60    8.30
   5   1   2    7.30    6.10
   5   1   2   -8.70    8.40
   5   1   2   16.30    9.10
   5   1   2    8.00    5.00
   5   1   2    0.30    4.80
   5   1   2   -2.50    4.80
   6  -2  -2   74.29   11.90
   6  -2  -2   72.19    9.20
   6  -2  -2   48.60    7.10
   6  -2  -2   49.70    9.10
   6  -2  -2   43.10    7.50
   6   2  -2   48.00    7.30
   6   2  -2   41.60    6.70
   6   2  -2   37.30    8.00
   6   2  -2   49.80   11.10
   6   2  -2   64.39   10.70
   5  -2  -2  309.17   28.80
   5  -2  -2  255.47   22.30
   5  -2  -2  314.37   26.60
   5  -2  -2  233.88   22.60
   5  -2  -2  246.28   25.90
   5   2  -2  472.25   34.90
   5   2  -2  409.36   34.80
   5   2  -2  470.65   35.20
   5   2  -2  532.85   40.50
   5   2  -2  467.75   40.10
   5   2  -2  448.96   41.40
  -4  -2   2  127.79   22.80
  -4  -2   2  105.59   18.70
   4  -2  -2   89.69   27.70
   4   2  -2  139.09   26.50
  -4   2   2  120.09   22.50
  -4   2   2  114.09   20.30
   4   2  -2  121.79   33.30
   3  -2  -2  596.74   45.50
   3  -2  -2  641.14   64.29
   3  -2  -2  553.64   53.89
   3  -2  -2  604.14   51.59
  -3  -2   2  595.14   48.30
  -3  -2   2  651.73   55.29
  -3   2   2  449.86   39.60
  -3   2   2  457.95   45.40
   3   2  -2  485.25   36.70
   3   2  -2  490.75   55.49
   3   2  -2  429.86   44.70
   2  -2  -2 1019.50   79.59
   2  -2  -2  980.90   77.49
   2  -2  -2 1035.60   86.89
   2  -2  -2 1007.70   70.49
  -2  -2   2 1060.99   79.99
  -2  -2   2 1053.89   75.69
   2  -2  -2 1008.20   76.49
  -2  -2   2 1059.29   70.39
   2   2  -2 1179.18   82.59
  -2   2   2 1130.79   76.89
  -2   2   2 1157.38   86.59
  -2   2   2 1134.19   82.09
   2   2  -2 1031.20   84.69
   2   2  -2 1066.79   76.49
   2   2  -2 1083.09   92.49
   1  -2  -2   65.09   13.40
   1  -2  -2   40.50    9.50
  -1  -2   2   41.40   11.00
  -1  -2   2   42.20    8.00
   1  -2  -2   73.49   12.10
   1  -2  -2   37.20   14.00
  -1  -2   2   58.59   13.40
  -1   2   2   72.99   17.80
  -1   2   2   64.89   10.30
   1   2  -2   69.69   12.50
   1   2  -2   88.19   15.90
   1   2  -2   57.59   17.10
   1   2  -2   91.19   15.90
   0  -2  -2  951.40   66.79
   0  -2  -2 1008.50   68.39
   0  -2   2  891.61   75.19
   0  -2   2  950.90   66.09
   0  -2  -2 1134.79   73.29
   0  -2   2  903.01   70.59
   0  -2   2  866.11   67.89
   0   2  -2  863.71   64.39
   0   2   2  904.01   69.09
   0   2   2  874.01   75.99
   0   2   2  851.31   62.19
   0   2  -2  931.41   70.79
   1  -2   2 1222.98   97.39
  -1  -2  -2 1409.86   90.79
   1  -2   2 1250.97   95.79
   1  -2   2 1178.98   84.09
  -1  -2  -2 1254.77   95.29
  -1  -2  -2 1224.18   87.09
   1  -2   2 1228.38   86.39
   1   2   2 1141.79   81.69
   1   2   2 1191.48   91.19
   1   2   2 1120.19   92.39
  -1   2  -2 1131.29   82.89
   1   2   2 1142.89   84.29
  -1   2  -2 1371.16   86.19
  -1   2  -2 1175.48   87.59
  -1   2  -2 1249.28   94.79
  -1   2  -2 1094.89   89.69
   2  -2   2  390.76   45.10
  -2  -2  -2  390.86   46.10
  -2  -2  -2  440.06   39.90
   2  -2   2  486.65   38.20
   2  -2   2  521.95   50.59
  -2   2  -2  530.05   49.10
   2   2   2  521.45   45.70
  -2   2  -2  393.66   48.30
   2   2   2  550.04   51.49
   2   2   2  452.85   48.70
  -2   2  -2  471.05   52.69
  -2   2  -2  466.05   42.20
   2   2   2  453.85   39.70
  -2   2  -2  531.75   42.50
   3  -2   2   41.10   18.00
   3  -2   2   38.50   13.00
  -3  -2  -2   50.89   22.30
  -3  -2  -2   56.09   16.60
   3   2   2   57.69   18.00
  -3   2  -2   48.50   14.30
  -3   2  -2   43.00   18.40
   3   2   2   34.00   17.80
  -3   2  -2   34.30   18.20
  -3   2  -2   57.39   17.70
   3   2   2   51.39   13.00
  -3   2  -2   49.40   22.10
   4  -2   2  335.17   39.20
   4  -2   2  334.57   28.00
   4  -2   2  346.37   27.50
   4  -2   2  293.07   31.20
   4  -2   2  370.76   30.40
   4  -2   2  351.56   33.80
   4   2   2  361.16   33.50
   4   2   2  343.07   27.00
   4   2   2  333.87   39.70
   4   2   2  349.27   30.70
   4   2   2  332.97   27.30
   4   2   2  323.27   31.80
   4   2   2  313.17   28.00
   5  -2   2   32.10   12.00
   5  -2   2   46.40    8.50
   5  -2   2   44.30    7.20
  -5  -2  -2   57.09    9.50
   5  -2   2   41.60    8.10
   5  -2   2   43.30   11.20
   5  -2   2   24.70    8.10
   5   2   2   48.40   11.10
   5   2   2   18.00   10.70
   5   2   2   45.30    7.00
   5   2   2   41.80    8.40
   5   2   2   35.00    9.20
   5   2   2   32.20    6.10
   6  -3  -2   35.70    8.10
   6  -3  -2   39.00    6.70
   6  -3  -2   45.90    7.20
   6  -3  -2   46.30    9.70
   6   3  -2   89.49   11.90
   6   3  -2   68.19   10.80
   6   3  -2   95.29   10.20
   6   3  -2   93.99    9.80
   6   3  -2   82.99   13.80
   5  -3  -2  196.78   19.10
   5  -3  -2  129.49   17.90
   5  -3  -2  153.18   16.00
   5  -3  -2  146.79   16.60
   5  -3  -2  183.08   21.30
   5   3  -2  240.28   25.00
   5   3  -2  251.57   25.50
   5   3  -2  204.98   19.70
   5   3  -2  249.78   27.00
   5   3  -2  235.38   20.70
   5   3  -2  246.58   20.30
   4  -3  -2  529.35   57.69
  -4  -3   2  597.44   53.59
  -4  -3   2  556.64   48.50
   4   3  -2  352.96   59.29
   4   3  -2  537.85   51.59
   4   3  -2  454.35   62.39
   4   3  -2  443.36   58.19
  -4   3   2  571.64   46.10
  -3  -3   2  913.71   69.59
  -3  -3   2  751.82   61.79
   3  -3  -2  872.41   70.29
   3  -3  -2  836.72   65.49
  -3  -3   2  831.92   64.49
   3  -3  -2  718.93   58.39
   3  -3  -2  788.42   77.29
  -3   3   2  719.93   63.59
   3   3  -2  856.31   61.09
   3   3  -2  879.11   71.29
   3   3  -2  814.82   79.99
  -3   3   2  883.81   70.49
   2  -3  -2  610.14   50.59
  -2  -3   2  716.23   50.89
   2  -3  -2  755.72   63.19
   2  -3  -2  570.94   53.09
   2  -3  -2  557.44   50.99
  -2  -3   2  648.74   44.70
   2  -3  -2  612.04   45.00
  -2  -3   2  644.04   54.29
   2  -3  -2  683.03   49.30
   2   3  -2  563.74   44.50
  -2   3   2  653.03   45.40
   2   3  -2  643.04   61.29
   2   3  -2  652.23   50.49
  -2   3   2  627.24   55.59
   2   3  -2  592.44   53.09
   1  -3  -2 1992.20  129.89
   1  -3  -2 1991.60  135.89
  -1  -3   2 1758.72  131.79
   1  -3  -2 1813.62  132.19
  -1  -3   2 1932.61  130.09
  -1  -3   2 1790.02  125.99
   1  -3  -2 1876.11  128.09
  -1   3   2 2403.46  145.99
   1   3  -2 2091.89  145.29
   1   3  -2 2033.30  141.69
   1   3  -2 2169.88  155.48
  -1   3   2 1909.81  152.98
   1   3  -2 2128.19  150.58
   0  -3   2 4062.99  257.07
   0  -3   2 3790.82  264.77
   0  -3  -2 3790.22  256.07
   0  -3  -2 4020.20  258.17
   0  -3   2 3851.71  255.47
   0  -3   2 3651.03  258.67
   0   3   2 5152.88  349.17
   0   3  -2 5355.46  352.16
   0   3  -2 5463.75  342.27
   0   3  -2 5006.90  346.77
   0   3   2 5222.78  343.07
   0   3   2 4911.61  355.16
  -1  -3  -2  255.17   28.70
  -1  -3  -2  257.17   25.30
   1  -3   2  242.38   19.10
   1  -3   2  227.48   30.60
  -1  -3  -2  237.68   22.00
   1  -3   2  235.38   29.60
   1  -3   2  244.78   21.50
  -1   3  -2  188.58   26.80
  -1   3  -2  217.78   25.10
   1   3   2  196.28   19.20
   1   3   2  189.28   28.00
   1   3   2  204.08   20.80
  -1   3  -2  219.08   31.70
  -1   3  -2  197.68   20.30
   1   3   2  194.28   30.60
  -2  -3  -2  163.68   27.00
  -2  -3  -2  187.78   19.90
   2  -3   2  172.58   20.30
   2  -3   2  154.58   28.90
  -2  -3  -2  164.08   22.60
   2  -3   2  204.38   32.10
  -2   3  -2  157.58   26.40
  -2   3  -2  157.58   31.30
   2   3   2  170.38   23.30
   2   3   2  146.59   26.40
  -2   3  -2  169.18   31.60
  -2   3  -2  139.99   21.40
   2   3   2  144.09   26.10
   2   3   2  137.49   18.30
  -2   3  -2  167.48   21.20
  -3  -3  -2 1005.50   95.69
   3  -3   2  990.50   90.89
   3  -3   2 1034.20   79.59
  -3  -3  -2 1132.99   85.09
  -3   3  -2  854.71   77.19
  -3   3  -2  995.00   95.99
  -3   3  -2  966.20   75.89
  -3   3  -2  866.61   89.09
   3   3   2 1016.10   72.49
  -3   3  -2  928.91   84.69
   3   3   2  832.82   82.79
   3   3   2 1080.29   82.29
   4  -3   2   48.90   12.60
   4  -3   2   87.49   17.20
   4  -3   2   70.99   10.90
   4  -3   2   98.69   21.30
   4  -3   2   66.29   11.10
   4  -3   2   70.69   20.60
   4  -3   2   72.39   13.80
   4   3   2  126.39   12.50
   4   3   2   93.49   15.40
   4   3   2  128.59   16.20
   4   3   2  100.09   25.70
   4   3   2  112.39   18.50
   4   3   2  110.99   17.80
   4   3   2   85.69   12.30
  -5  -3  -2   88.69   11.80
   5  -3   2   82.49   11.00
   5  -3   2   88.69   16.30
   5  -3   2   56.69   12.50
   5  -3   2   75.29   10.70
   5  -3   2   80.49    9.50
   5  -3   2   45.10   10.20
   5   3   2   68.79   13.00
   5   3   2   62.69    8.10
   5   3   2   65.29   11.10
   5   3   2   77.89    9.00
   5   3   2   63.29   15.70
   5   3   2   72.49   12.20
   6  -4  -2   53.69   10.00
   6  -4  -2   45.70    7.20
   6  -4  -2   38.50    8.10
   6   4  -2  182.58   17.20
   6   4  -2  144.99   17.10
   6   4  -2  158.78   13.60
   6   4  -2  147.49   13.20
   6   4  -2  126.89   14.10
   5  -4  -2  157.78   19.20
   5  -4  -2  222.88   23.90
   5  -4  -2  175.08   16.30
   5  -4  -2  163.78   16.60
   5   4  -2  293.17   28.70
   5   4  -2  274.97   23.60
   5   4  -2  311.27   29.20
   5   4  -2  309.47   24.70
   5   4  -2  296.47   24.00
   5   4  -2  291.47   30.20
   4  -4  -2  452.85   53.99
  -4  -4   2  544.15   48.80
  -4  -4   2  602.64   52.39
   4   4  -2  538.25   47.50
   4   4  -2  526.15   49.40
   4   4  -2  611.04   41.90
   4   4  -2  553.54   46.90
   4   4  -2  503.45   63.59
   4   4  -2  493.45   40.30
   4   4  -2  614.34   48.30
  -4   4   2  597.34   49.90
   4   4  -2  550.44   58.39
  -3  -4   2  345.77   31.60
   3  -4  -2  344.87   34.10
  -3  -4   2  388.66   37.80
  -3  -4   2  324.27   32.80
   3  -4  -2  308.67   37.40
   3  -4  -2  316.77   28.20
   3  -4  -2  401.56   48.00
   3   4  -2  498.85   56.99
  -3   4   2  504.25   42.60
   3   4  -2  454.55   46.00
  -3   4   2  437.26   45.40
   3   4  -2  505.65   38.60
   2  -4  -2 2465.05  174.48
  -2  -4   2 2648.94  170.28
   2  -4  -2 2511.75  170.78
   2  -4  -2 2584.24  177.68
  -2  -4   2 2731.93  180.78
   2  -4  -2 2288.27  179.08
   2  -4  -2 2424.36  175.98
  -2  -4   2 2639.84  176.08
   2  -4  -2 2736.93  188.78
   2   4  -2 2658.33  193.78
   2   4  -2 2728.03  185.08
   2   4  -2 2777.92  202.48
   2   4  -2 2804.02  189.98
  -2   4   2 2807.22  197.28
   1  -4  -2 2582.54  175.28
   1  -4  -2 2502.35  172.68
  -1  -4   2 2653.63  179.48
  -1  -4   2 2540.95  173.08
   1  -4  -2 2675.53  182.48
  -1  -4   2 2589.34  176.88
   1  -4  -2 2754.02  176.98
   1  -4  -2 2481.85  179.58
  -1   4   2 2821.22  205.58
   1   4  -2 2822.32  192.88
   1   4  -2 2777.62  205.58
   1   4  -2 2803.32  195.58
  -1   4   2 3028.00  197.38
   1   4  -2 3134.89  203.68
   0  -4   2   64.59   12.80
   0  -4  -2  108.99   13.40
   0  -4  -2   67.99   10.10
   0  -4   2   71.69    9.30
   0  -4   2   98.39   18.50
   0  -4   2   66.59   10.90
   0  -4  -2   83.79    8.50
   0   4   2  189.28   25.50
   0   4  -2  182.48   15.50
   0   4  -2  191.58   20.90
   0   4   2  166.18   15.40
   0   4   2  179.08   28.40
   0   4  -2  192.18   25.60
   1  -4   2 1323.57  106.09
   1  -4   2 1345.37   92.69
  -1  -4  -2 1415.46   96.59
   1  -4   2 1353.46   94.79
  -1  -4  -2 1378.46  102.39
  -1  -4  -2 1445.66   99.39
  -1  -4  -2 1359.16   93.19
   1  -4   2 1360.26  103.19
  -1   4  -2 1794.22  113.99
  -1   4  -2 1536.05  118.89
   1   4   2 1466.45  109.79
   1   4   2 1660.33  118.29
   1   4   2 1507.35  108.29
  -1   4  -2 1567.94  115.59
   1   4   2 1619.74  121.19
  -1   4  -2 1579.24  110.49
  -1   4  -2 1563.94  123.99
  -2  -4  -2 1429.06  111.49
   2  -4   2 1811.32  127.19
  -2  -4  -2 1480.85  109.29
  -2  -4  -2 1409.06  118.59
   2  -4   2 1623.54  120.89
   2  -4   2 1568.34  109.29
  -2   4  -2 1778.22  122.49
  -2   4  -2 1785.72  130.29
   2   4   2 1674.63  129.69
  -2   4  -2 1630.34  133.69
   2   4   2 1746.33  119.29
  -2   4  -2 1527.75  121.29
   2   4   2 1634.54  129.09
   2   4   2 1786.72  125.09
  -2   4  -2 1796.82  137.79
  -3  -4  -2   14.40   12.30
  -3  -4  -2    7.50   14.10
  -3  -4  -2   18.80   11.00
   3  -4   2   12.80   14.90
   3  -4   2   21.10   11.30
  -3   4  -2   17.60   16.10
  -3   4  -2   18.00   20.80
  -3   4  -2   15.10   13.70
  -3   4  -2   22.20   11.20
   3   4   2   11.50    9.00
  -3   4  -2    5.10   14.50
   3   4   2   21.50   13.90
   3   4   2    4.90   11.30
   4  -4   2   62.99   19.40
   4  -4   2   38.10   12.70
   4  -4   2   59.69   17.90
   4  -4   2   50.79   10.10
   4  -4   2   55.39   11.20
   4  -4   2   65.59   10.40
   4  -4   2   40.10   11.20
   4   4   2   65.79   11.60
   4   4   2   49.60    8.80
   4   4   2   66.59   14.20
   4   4   2   64.39    9.00
   4   4   2   55.49   12.80
   4   4   2   51.49   18.50
   4   4   2   65.29   11.80
   5  -4   2   43.10    8.30
   5  -4   2   35.30   11.90
  -5  -4  -2   49.90    8.80
   5  -4   2   13.10    6.30
   5  -4   2   22.00    9.70
   5  -4   2   38.60    7.10
   5  -4   2   33.00    7.30
   5   4   2   30.30    7.60
   5   4   2   34.30    8.90
   5   4   2   25.10    5.40
   5   4   2   20.00   10.50
   5   4   2   27.00    9.00
   6  -5  -2   55.69   10.30
   6  -5  -2   46.30    7.70
  -6  -5   2   53.89    6.20
   6   5  -2  106.69   14.40
   6   5  -2  129.89   14.30
   6   5  -2  111.69   10.80
   6   5  -2   89.89   12.70
   6   5  -2  129.59   12.20
   5  -5  -2   16.60    6.10
   5  -5  -2   11.10    6.90
   5  -5  -2   12.20   10.20
   5  -5  -2   14.50    5.80
   5   5  -2   11.10    9.40
   5   5  -2   17.80    5.90
   5   5  -2   10.20    8.80
   5   5  -2   15.80    8.70
   5   5  -2   21.10    5.40
   5   5  -2   14.70    5.90
   4  -5  -2  254.97   37.00
   4  -5  -2  217.48   30.60
   4  -5  -2  371.06   29.60
  -4   5   2  394.46   52.89
   4   5  -2  340.27   38.90
  -4   5   2  346.37   48.50
   4   5  -2  326.27   27.30
   4   5  -2  317.57   33.70
   4   5  -2  389.36   34.30
   4   5  -2  385.16   28.80
   4   5  -2  334.57   34.10
   4   5  -2  363.36   29.50
   4   5  -2  364.96   28.30
  -3  -5   2  919.71   69.49
   3  -5  -2  963.00   86.79
  -3  -5   2  912.31   70.89
  -3  -5   2 1036.10   76.59
   3  -5  -2  808.62   65.69
   3  -5  -2  901.21   76.79
   3   5  -2  910.01   85.59
   3   5  -2  871.31   73.89
   3   5  -2  932.31   65.49
  -3   5   2  880.71   73.09
  -3   5   2  810.82   69.39
   2  -5  -2  115.19   18.70
  -2  -5   2  114.69   19.00
   2  -5  -2  119.29   16.50
  -2  -5   2   91.49   15.90
   2  -5  -2  100.79   15.60
   2  -5  -2  113.39   24.10
   2  -5  -2  119.39   20.60
  -2  -5   2   96.19   10.60
   2  -5  -2   92.89   10.70
   2   5  -2  118.69   27.50
   2   5  -2  122.19   21.80
   2   5  -2  117.79   14.30
  -2   5   2  120.19   17.80
   2   5  -2   95.89   16.80
   1  -5  -2  880.21   69.39
   1  -5  -2  914.01   61.79
  -1  -5   2  969.00   66.29
  -1  -5   2  841.82   61.69
   1  -5  -2  950.20   64.19
  -1  -5   2  802.62   66.99
   1  -5  -2  934.01   65.49
   1   5  -2 1211.68   89.29
   1   5  -2 1290.77  100.79
   1   5  -2 1308.87   88.19
   1   5  -2 1303.67   98.89
  -1   5   2 1363.86   92.69
  -1   5   2 1149.98  100.19
   0  -5   2 2480.45  160.68
   0  -5   2 2298.97  162.08
   0  -5  -2 2359.06  161.68
   0  -5  -2 2514.15  164.68
   0  -5   2 2382.36  170.38
   0  -5  -2 2441.46  160.08
   0  -5   2 2370.76  165.38
   0   5   2 2868.81  198.68
   0   5  -2 3034.30  191.38
   0   5   2 2664.33  190.38
   0   5   2 2894.21  204.38
   0   5  -2 2821.22  197.18
   0   5  -2 2952.80  202.28
  -1  -5  -2   29.90   10.90
   1  -5   2   43.30    9.00
   1  -5   2   47.50   16.80
  -1  -5  -2   42.50    7.20
  -1  -5  -2   46.00   10.30
   1  -5   2   37.70    6.60
   1  -5   2   38.70   14.10
  -1  -5  -2   39.70   12.50
   1   5   2    0.90   11.00
  -1   5  -2   -1.50   10.70
  -1   5  -2    4.60    6.40
  -1   5  -2    4.70    9.50
  -1   5  -2   10.20    8.90
   1   5   2    4.90    5.10
   1   5   2   11.20   13.10
  -1   5  -2   -2.30   13.80
  -2  -5  -2  343.37   31.60
  -2  -5  -2  334.37   33.50
   2  -5   2  310.87   30.80
  -2  -5  -2  337.37   39.40
   2  -5   2  397.76   43.30
   2  -5   2  369.26   45.30
   2   5   2  309.57   32.30
  -2   5  -2  280.17   29.30
   2   5   2  290.77   35.10
  -2   5  -2  270.07   34.90
  -2   5  -2  257.77   30.20
  -2   5  -2  304.97   40.40
  -2   5  -2  323.57   44.20
   2   5   2  313.27   27.40
   3  -5   2  373.76   48.10
  -3  -5  -2  332.97   47.50
   3  -5   2  363.56   37.20
  -3  -5  -2  460.05   38.30
  -3  -5  -2  402.86   40.60
  -3   5  -2  450.15   40.60
  -3   5  -2  400.26   58.99
   3   5   2  306.07   43.10
   3   5   2  432.96   36.20
  -3   5  -2  371.46   51.49
  -3   5  -2  427.06   48.10
   4  -5   2   63.79   12.20
   4  -5   2   77.89   19.00
   4  -5   2   91.49   20.80
   4  -5   2   82.39   13.60
   4  -5   2   83.49   11.90
   4  -5   2   66.09   15.60
   4   5   2   81.89   14.70
   4   5   2   75.79   19.60
   4   5   2   65.89   10.30
   4   5   2   84.49   15.30
   4   5   2   91.39   13.30
   4   5   2   70.19   12.30
   4   5   2   84.49   10.20
   5  -5   2   34.60   11.10
   5  -5   2   60.09    8.70
   5  -5   2   52.19   12.80
  -5  -5  -2   63.69    9.80
   5  -5   2   46.90    8.50
   5  -5   2   61.29   10.20
   5   5   2   49.70    6.90
   5   5   2   67.59    7.80
   5   5   2   58.69   11.20
   5   5   2   63.29   11.70
   5   5   2   51.39    9.40
   5   5   2   44.40   12.10
   6  -6  -2   46.20    7.50
  -6  -6   2   55.29    6.20
   6  -6  -2   38.10    8.40
   6   6  -2  104.39   13.80
   6   6  -2   87.59   11.20
   6   6  -2  110.19   11.50
   6   6  -2  114.79   10.70
   6   6  -2  145.79   14.40
   5  -6  -2  118.39   14.50
   5  -6  -2  127.99   21.20
   5   6  -2  134.79   13.30
   5   6  -2  142.79   18.10
   5   6  -2  121.09   20.00
   5   6  -2  140.69   15.10
   5   6  -2  103.89   18.30
   5   6  -2  134.99   12.90
   4  -6  -2   15.70   14.30
   4   6  -2   27.20    7.00
   4   6  -2   11.90    9.70
   4   6  -2   29.90   10.20
   4   6  -2   22.20    6.10
   4   6  -2    5.30   10.70
   4   6  -2   13.80    6.30
   4   6  -2   20.50    6.10
   3  -6  -2  491.65   52.39
  -3  -6   2  410.96   40.60
  -3  -6   2  471.85   36.70
  -3  -6   2  409.06   36.30
   3  -6  -2  356.46   31.80
   3  -6  -2  304.67   39.60
   3   6  -2  418.96   44.30
   3   6  -2  490.85   56.19
  -3   6   2  438.96   42.80
  -3   6   2  464.65   44.90
   3   6  -2  426.86   37.00
  -2  -6   2 1855.21  132.09
  -2  -6   2 1688.33  121.79
   2  -6  -2 1773.32  127.69
   2  -6  -2 1781.12  126.79
   2  -6  -2 2098.69  139.89
   2  -6  -2 1763.02  122.59
   2  -6  -2 1682.03  131.79
  -2  -6   2 1970.20  128.59
   2   6  -2 1471.75  114.69
  -2   6   2 1719.73  110.89
   2   6  -2 1546.15  121.99
  -2   6   2 1389.96  101.69
   2   6  -2 1494.05  107.99
   2   6  -2 1423.66  104.19
  -1  -6   2  765.42   55.19
  -1  -6   2  784.62   59.29
   1  -6  -2  823.62   58.49
  -1  -6   2  754.22   60.69
   1  -6  -2  772.22   57.49
   1  -6  -2  804.92   63.79
   1  -6  -2  831.22   55.19
  -1   6   2  953.40   71.49
   1   6  -2  896.11   67.29
   1   6  -2  836.82   77.69
   1   6  -2  984.70   78.89
  -1   6   2  964.20   81.59
   1   6  -2  987.00   67.49
   0  -6   2  862.51   58.49
   0  -6  -2  881.91   58.29
   0  -6  -2  814.72   62.19
   0  -6   2  735.53   68.29
   0  -6  -2  876.91   59.69
   0  -6   2  845.82   63.49
   0  -6   2  866.51   60.19
   0   6  -2  927.91   75.79
   0   6   2  968.10   68.99
   0   6  -2 1062.69   81.49
   0   6   2 1093.69   78.39
   0   6  -2 1077.69   70.09
   0   6   2  906.31   82.59
  -1  -6  -2 1138.89   86.89
  -1  -6  -2 1107.69   83.09
   1  -6   2 1149.98   90.39
  -1  -6  -2 1143.39   79.79
   1  -6   2 1196.98   95.39
   1  -6   2 1189.28   79.09
   1   6   2 1017.90   75.59
  -1   6  -2 1093.69   83.49
  -1   6  -2 1117.39   78.89
   1   6   2 1062.79   84.89
   1   6   2 1069.69   88.89
  -1   6  -2 1122.19   88.19
   2  -6   2  776.22   69.29
  -2  -6  -2  720.73   54.29
  -2  -6  -2  595.64   54.89
   2  -6   2  685.63   53.39
   2  -6   2  745.33   66.19
  -2  -6  -2  585.84   60.09
   2   6   2  612.84   61.39
  -2   6  -2  682.03   63.09
  -2   6  -2  655.13   66.29
   2   6   2  712.73   52.19
  -2   6  -2  693.23   72.29
   2   6   2  708.93   57.69
  -2   6  -2  677.13   55.39
  -3  -6  -2   22.20   11.80
   3  -6   2   16.50   16.40
  -3  -6  -2   26.90   10.50
   3  -6   2   27.20   18.80
   3   6   2   16.00   12.70
   3   6   2   23.70    9.60
  -3   6  -2   21.90   23.60
  -3   6  -2   18.00   11.00
  -3   6  -2   21.90   18.20
  -3   6  -2   16.70   14.50
   4  -6   2  204.88   19.10
   4  -6   2  196.88   21.90
   4  -6   2  174.58   24.00
   4  -6   2  191.98   20.10
   4  -6   2  206.78   28.60
   4  -6   2  192.68   29.40
   4   6   2  278.47   23.30
   4   6   2  263.67   26.90
   4   6   2  302.57   25.80
   4   6   2  285.47   32.30
   4   6   2  300.27   27.90
   5  -6   2  106.49   13.20
  -5  -6  -2  108.79   11.10
   5  -6   2   93.09   16.30
   5  -6   2   54.79   13.70
   5  -6   2   91.99   11.40
   5  -6   2  104.49   11.50
   5   6   2  126.59   11.50
   5   6   2  104.49   17.50
   5   6   2  125.19   15.10
   5   6   2  146.89   14.30
   5   6   2  130.69   15.80
  -6  -7   2   61.99    6.90
   6   7  -2   76.09   11.10
   6   7  -2   80.99    9.60
   6   7  -2   74.69   12.10
   6   7  -2   95.29   11.40
   6   7  -2   99.69    9.20
   5  -7  -2   17.90   11.50
   5  -7  -2   21.00    7.30
   5   7  -2   49.40   12.60
   5   7  -2   45.10    8.10
   5   7  -2   55.89    9.70
   5   7  -2   55.59    8.20
   5   7  -2   69.79   14.20
   5   7  -2   60.79   13.60
   4   7  -2  561.44   41.30
   4   7  -2  577.84   40.70
   4   7  -2  565.54   41.30
   4   7  -2  521.95   46.60
   4   7  -2  522.85   46.10
   4   7  -2  500.55   40.10
   4   7  -2  577.94   46.50
  -3  -7   2  594.64   53.49
  -3  -7   2  608.84   48.70
  -3  -7   2  587.24   49.10
   3   7  -2  686.83   66.49
  -3   7   2  407.46   62.19
  -3   7   2  413.56   78.69
  -3   7   2  513.25   45.90
   3   7  -2  583.94   53.69
   3   7  -2  573.94   45.00
   2  -7  -2   72.09    9.80
   2  -7  -2   86.89   20.40
  -2  -7   2   71.59    8.70
   2  -7  -2   74.89   13.20
   2  -7  -2   82.59   14.20
  -2  -7   2   69.89   13.80
  -2  -7   2   78.49   16.90
   2  -7  -2   89.89   18.60
   2   7  -2   93.69   21.50
  -2   7   2   91.39   19.70
  -2   7   2   80.49    9.60
  -2   7   2   84.79   16.80
   2   7  -2   84.29   12.90
   2   7  -2   72.89   23.30
  -1  -7   2 1191.48   80.59
  -1  -7   2 1248.48   84.99
   1  -7  -2 1074.99   89.39
   1  -7  -2 1180.48   83.39
   1  -7  -2 1236.28   83.09
   1  -7  -2 1222.08   80.49
  -1  -7   2 1107.59   85.69
   1   7  -2 1749.62  134.49
  -1   7   2 1736.73  118.59
  -1   7   2 1691.33  136.59
   1   7  -2 1818.62  135.19
   1   7  -2 1806.42  122.79
  -1   7   2 1808.52  127.29
   0  -7  -2 1032.20   66.19
   0  -7  -2  836.52   58.89
   0  -7   2  789.02   64.69
   0  -7  -2  795.62   60.49
   0  -7  -2  892.91   63.99
   0  -7   2  823.52   71.19
   0  -7   2  863.91   59.19
   0  -7   2  792.12   61.09
   0   7   2  930.61   67.19
   0   7  -2  974.60   79.49
   0   7   2  939.61   76.29
   0   7   2  946.01   81.89
   0   7  -2 1041.00   76.09
   0   7  -2  990.00   68.39
   1  -7   2 1470.45   99.19
  -1  -7  -2 1425.96   99.99
  -1  -7  -2 1460.95  103.99
   1  -7   2 1509.15  111.19
  -1  -7  -2 1347.07  107.49
   1  -7   2 1526.55  117.49
  -1   7  -2 1477.95  104.89
  -1   7  -2 1394.46   98.09
   1   7   2 1464.95  111.09
   1   7   2 1401.06  107.59
   1   7   2 1438.86   97.89
  -1   7  -2 1297.27  113.89
  -2  -7  -2   60.89   14.40
   2  -7   2   59.09   13.10
  -2  -7  -2   95.09   15.70
   2  -7   2   94.29   26.00
   2  -7   2   73.99   23.80
  -2   7  -2  134.09   19.90
  -2   7  -2  136.69   25.80
   2   7   2  120.89   16.30
  -2   7  -2  123.29   28.70
   2   7   2   98.59   22.70
  -2   7  -2  112.19   32.20
   3  -7   2  414.46   41.10
   3  -7   2  414.76   32.20
   3  -7   2  423.56   42.10
   3  -7   2  353.96   33.10
   3  -7   2  399.16   34.10
   3  -7   2  325.37   53.19
  -3  -7  -2  488.85   39.90
  -3  -7  -2  344.77   40.20
   3  -7   2  334.17   43.10
   3  -7   2  464.45   56.09
   3   7   2  403.66   32.70
  -3   7  -2  354.96   72.79
   3   7   2  451.55   37.00
   3   7   2  338.87   45.50
   3   7   2  413.26   32.20
  -3   7  -2  401.26   56.79
  -3   7  -2  395.86   63.89
   3   7   2  458.45   40.80
  -3   7  -2  408.66   56.19
   4  -7   2   89.89   13.60
  -4  -7  -2   85.39    9.30
   4  -7   2   88.79   13.00
   4  -7   2   53.89   15.30
   4  -7   2   61.99   18.20
   4  -7   2   82.69   18.90
   4  -7   2   74.29   13.80
   4   7   2   70.19   18.40
   4   7   2   97.29   13.60
   4   7   2  106.89   15.90
   4   7   2   66.89   10.40
   4   7   2  113.69   16.30
   5  -7   2    3.80    7.50
   5  -7   2   -1.70    4.60
   5  -7   2    0.10    7.50
  -5  -7  -2    1.90    4.20
   5  -7   2    3.60    5.90
   5  -7   2   -2.50    3.40
   5   7   2   -0.30    6.00
   5   7   2   -0.60    4.30
   5   7   2   -1.00    2.70
   5   7   2    2.70    6.10
   5   7   2   -0.40    4.70
  -6  -8   2   27.40    4.40
   6   8  -2   38.00    6.50
   6   8  -2   28.30    7.70
   6   8  -2   49.80    8.50
   6   8  -2   58.19    6.70
   6   8  -2   54.89    9.20
   5   8  -2  198.28   17.90
   5   8  -2  169.88   20.50
   5   8  -2  210.58   22.10
   5   8  -2  194.68   16.50
   5   8  -2  202.78   17.20
   5   8  -2  174.78   21.30
   4   8  -2   44.40    8.80
   4   8  -2   62.59   10.50
   4   8  -2   51.69    8.50
   4   8  -2   41.40   13.20
   4   8  -2   65.59    9.30
   4   8  -2   57.39   14.80
   4   8  -2   65.69   14.20
  -3  -8   2  407.66   40.50
  -3  -8   2  371.66   34.60
  -3  -8   2  376.06   35.00
   3   8  -2  318.67   44.60
   3   8  -2  280.97   28.30
   3   8  -2  267.97   34.90
  -3   8   2  304.67   34.70
   2  -8  -2 1338.27   91.19
   2  -8  -2 1364.26   96.29
   2  -8  -2 1323.57  101.79
  -2  -8   2 1353.66  100.09
  -2  -8   2 1431.76   96.79
  -2  -8   2 1313.97   90.09
  -2  -8   2 1314.07   95.29
   2  -8  -2 1214.58   94.99
   2   8  -2 1847.02  136.99
   2   8  -2 1700.93  125.09
  -2   8   2 1686.93  120.79
   2   8  -2 1871.71  142.59
  -2   8   2 1863.21  130.99
  -1  -8   2  732.23   58.49
   1  -8  -2  792.32   56.29
   1  -8  -2  669.43   62.79
   1  -8  -2  807.92   53.59
  -1  -8   2  791.42   53.49
  -1  -8   2  735.43   56.99
  -1  -8   2  774.52   60.89
   1  -8  -2  766.42   56.19
   1   8  -2 1511.15  111.29
   1   8  -2 1385.46   97.69
   1   8  -2 1241.98  107.69
  -1   8   2 1295.07  101.79
  -1   8   2 1451.95  113.89
  -1   8   2 1380.56   93.19
   0  -8  -2  902.61   61.99
   0  -8  -2  861.21   59.79
   0  -8  -2  979.00   66.09
   0  -8   2  857.21   60.19
   0  -8   2  864.91   62.39
   0  -8   2  846.32   66.89
   0  -8   2  822.52   72.49
   0  -8  -2  776.22   64.39
   0   8   2 1115.99   99.69
   0   8  -2 1281.87   94.89
   0   8  -2 1309.27   98.89
   0   8  -2 1234.98   86.39
   0   8   2 1195.08   85.19
   0   8   2 1299.47   96.19
   1  -8   2 1549.24  117.89
  -1  -8  -2 1499.75  101.09
  -1  -8  -2 1369.06   98.19
   1  -8   2 1513.65  100.09
   1  -8   2 1478.05  110.79
  -1  -8  -2 1393.36  109.19
  -1  -8  -2 1449.55  105.09
  -1   8  -2 1512.05  109.39
  -1   8  -2 1659.53  124.89
   1   8   2 1558.34  120.09
   1   8   2 1625.84  109.39
  -1   8  -2 1542.35  115.69
   1   8   2 1609.94  122.99
  -2  -8  -2  109.59   20.10
  -2  -8  -2  142.59   18.30
   2  -8   2  148.49   32.70
   2  -8   2  120.79   27.50
   2   8   2   46.70   16.50
  -2   8  -2   82.59   24.00
   2   8   2   90.39   13.40
  -2   8  -2   90.89   16.30
  -2   8  -2   43.40   24.70
  -2   8  -2   85.49   20.40
   3  -8   2   36.50   14.90
  -3  -8  -2   37.20    6.80
   3  -8   2   30.80    9.80
   3  -8   2   23.70    8.90
   3  -8   2   23.50   12.40
   3  -8   2   34.60   15.70
   3  -8   2   37.00    9.40
   3   8   2   42.30   14.50
   3   8   2   43.30   10.80
   3   8   2   33.00    9.30
   3   8   2   30.10    7.10
   3   8   2   41.50    8.10
   4  -8   2  207.18   20.90
   4  -8   2  214.58   29.00
   4  -8   2  192.38   29.80
  -4  -8  -2  197.58   16.30
  -4  -8  -2  193.28   20.20
   4  -8   2  195.78   20.40
   4  -8   2  198.78   22.90
   4   8   2  152.68   17.30
   4   8   2  113.39   21.50
   4   8   2  119.19   13.30
   4   8   2  127.69   16.00
   5  -8   2   60.39    8.80
   5  -8   2   38.80   11.40
   5  -8   2   69.89    9.30
   5  -8   2   74.89   10.40
   5  -8   2   56.49   12.90
  -5  -8  -2   77.09    8.40
   5   8   2   77.99   13.70
   5   8   2   87.89   11.40
   5   8   2   66.19    7.90
   5   8   2   93.19   11.30
  -6  -9   2   15.70    3.30
   6   9  -2    9.30    4.20
   6   9  -2   13.70    5.70
   6   9  -2   21.30    4.00
   6   9  -2   11.50    5.00
  -5  -9   2   23.30    5.30
   5   9  -2   33.30   10.90
   5   9  -2   35.40    7.60
   5   9  -2   36.40    6.60
   5   9  -2   41.30    7.10
   5   9  -2   46.70   11.50
   5   9  -2   37.70   11.00
   4   9  -2  300.07   24.00
   4   9  -2  296.27   24.00
   4   9  -2  305.97   29.00
   4   9  -2  263.27   28.70
   4   9  -2  323.37   24.90
   4   9  -2  290.17   24.90
   4   9  -2  267.07   29.50
  -3  -9   2  158.88   21.30
  -3  -9   2  158.28   24.70
  -3  -9   2  166.08   19.90
   3  -9  -2  142.79   15.70
   3   9  -2  140.29   33.20
  -3   9   2  133.29   25.80
   3   9  -2  171.18   30.20
   3   9  -2  165.28   22.20
  -2  -9   2  170.48   19.60
  -2  -9   2  236.48   23.10
   2  -9  -2  212.18   17.50
  -2  -9   2  188.08   16.60
   2  -9  -2  193.18   29.10
   2  -9  -2  226.68   25.00
  -2  -9   2  157.48   24.50
  -2   9   2  181.28   18.10
   2   9  -2  207.38   33.70
   2   9  -2  252.17   37.60
  -2   9   2  258.67   29.00
   2   9  -2  206.48   24.90
  -1  -9   2  225.18   27.10
   1  -9  -2  341.67   24.20
  -1  -9   2  335.67   24.20
  -1  -9   2  298.57   31.00
   1  -9  -2  341.07   27.10
   1  -9  -2  260.87   33.30
  -1  -9   2  334.67   28.10
   1   9  -2  572.44   54.89
  -1   9   2  502.95   56.29
  -1   9   2  527.55   47.30
   1   9  -2  507.35   42.50
  -1   9   2  522.15   37.90
   1   9  -2  449.86   52.39
   0  -9   2  801.22   55.89
   0  -9  -2  943.91   62.29
   0  -9  -2  748.33   60.49
   0  -9   2  800.72   70.09
   0  -9   2  737.83   63.09
   0  -9  -2  755.92   57.19
   0  -9  -2  769.92   55.19
   0  -9   2  751.32   57.69
   0   9  -2  914.91   75.29
   0   9   2  843.62   71.89
   0   9   2  882.21   78.49
   0   9  -2  834.62   62.29
   0   9   2  828.42   61.29
   0   9  -2  890.61   71.69
   1  -9   2   81.09   23.70
  -1  -9  -2   55.39   17.00
  -1  -9  -2   61.19   10.40
  -1  -9  -2   77.09   13.80
   1  -9   2   66.99   18.60
   1  -9   2   66.59    9.70
   1   9   2   21.30    7.10
  -1   9  -2   39.20   15.40
   1   9   2   29.50   16.80
  -1   9  -2   32.90    7.70
   1   9   2   34.20   16.00
  -1   9  -2   41.30   12.30
   2  -9   2  505.25   54.39
  -2  -9  -2  531.85   44.50
  -2  -9  -2  406.66   45.70
   2  -9   2  592.34   60.39
  -2   9  -2  588.24   53.99
  -2   9  -2  543.55   45.10
   2   9   2  621.64   44.50
   2   9   2  459.55   51.69
   3  -9   2  446.16   42.30
  -3  -9  -2  374.76   30.10
   3  -9   2  378.26   35.20
   3  -9   2  431.76   33.20
   3  -9   2  398.76   34.30
   3  -9   2  425.96   42.10
   3   9   2  358.76   30.00
   3   9   2  404.66   38.80
   3   9   2  444.76   35.30
   3   9   2  369.26   31.50
  -4  -9  -2   43.10    6.20
   4  -9   2   32.20    9.00
  -4  -9  -2   42.30   10.40
   4  -9   2   43.00   11.20
   4  -9   2   33.90   15.50
   4  -9   2   45.60   15.10
   4  -9   2   17.00   13.00
   4  -9   2   39.10   10.00
   4   9   2   86.89   14.70
   4   9   2   47.70    9.30
   4   9   2   51.19    8.10
   4   9   2   43.20   14.60
   5  -9   2   32.70    7.00
   5  -9   2   31.80    6.80
  -5  -9  -2   32.40    6.30
   5  -9   2   24.60    5.90
   5  -9   2   26.10   10.10
   5  -9   2   19.40   11.50
   5   9   2   39.20    7.60
   5   9   2   38.60   10.00
   5   9   2   40.80    5.30
  -6 -10   2    3.20    2.30
   6  10  -2    6.00    2.90
   6  10  -2    5.90    3.50
  -5 -10   2  122.09   11.70
   5  10  -2  146.19   17.50
   5  10  -2  140.89   12.90
   5  10  -2  135.09   16.20
   5  10  -2  142.39   13.40
   5  10  -2  148.89   15.60
  -4 -10   2   41.70    8.10
   4  10  -2   37.40   12.80
   4  10  -2   54.19    8.50
   4  10  -2   42.00    8.40
   4  10  -2   47.10    9.50
   3 -10  -2   43.70    8.30
  -3 -10   2   39.10   13.50
  -3 -10   2   51.99   12.60
   3  10  -2   39.00   12.80
  -3  10   2   49.60   21.40
  -3  10   2   53.79   18.60
  -2 -10   2  522.15   40.70
  -2 -10   2  543.15   49.10
   2 -10  -2  561.34   52.39
   2 -10  -2  543.85   46.40
  -2 -10   2  644.84   47.40
   2 -10  -2  575.24   41.30
   2  10  -2  640.64   59.99
  -2  10   2  635.04   54.49
   2  10  -2  541.25   48.20
   2  10  -2  585.04   61.19
  -2  10   2  513.45   42.10
  -1 -10   2  369.16   27.60
   1 -10  -2  377.96   30.50
  -1 -10   2  396.96   31.60
  -1 -10   2  303.27   43.90
  -1 -10   2  299.07   31.50
   1 -10  -2  386.36   27.70
   1 -10  -2  331.47   38.00
   1  10  -2  400.06   46.40
   1  10  -2  365.66   44.10
  -1  10   2  414.46   49.00
  -1  10   2  358.66   38.40
  -1  10   2  362.26   29.20
   1  10  -2  370.46   49.30
   1  10  -2  396.56   34.60
   0 -10  -2   11.00    6.50
   0 -10   2   14.00    6.90
   0 -10   2   11.90    5.90
   0 -10  -2    6.10    6.30
   0 -10  -2    8.80    4.90
   0 -10   2   10.40   12.50
   0  10   2   34.80   15.60
   0  10   2   23.90    7.40
   0  10  -2   32.00    8.10
   0  10  -2   32.10   14.20
   0  10  -2   37.10   17.00
   0  10   2   37.50   17.30
  -1 -10  -2  595.54   49.90
   1 -10   2  750.92   67.19
   1 -10   2  716.73   46.90
  -1 -10  -2  549.15   54.79
  -1 -10  -2  627.84   47.60
   1 -10   2  568.94   56.39
  -1  10  -2  503.75   42.40
   1  10   2  565.84   42.50
   1  10   2  519.05   54.79
   1  10   2  604.84   57.69
  -1  10  -2  603.34   50.49
  -1  10  -2  509.75   51.39
   2 -10   2  356.76   46.50
   2 -10   2  450.35   52.09
   2 -10   2  378.46   34.20
  -2 -10  -2  285.97   40.50
  -2 -10  -2  411.66   36.80
  -2  10  -2  297.17   50.99
   2  10   2  395.66   30.70
   2  10   2  254.27   36.80
  -2  10  -2  379.76   38.20
  -2  10  -2  351.86   30.90
   3 -10   2   53.89   11.70
   3 -10   2   47.10   17.10
  -3 -10  -2   43.70    7.30
   3 -10   2   53.49   12.80
   3 -10   2   69.69   16.50
   3 -10   2   45.90   11.20
   3  10   2   76.79   14.50
   3  10   2   38.70    8.40
   3  10   2   41.90   14.90
   3  10   2   40.70    7.60
   4 -10   2   52.59   17.50
   4 -10   2   63.69   11.80
  -4 -10  -2   57.49   11.70
   4 -10   2   49.20   10.50
   4 -10   2   47.40   15.70
   4 -10   2   52.09   12.40
  -4 -10  -2   64.19    7.60
   4  10   2   40.60   13.20
   4  10   2   43.30    7.20
   4  10   2   74.29   13.90
   4  10   2   44.30    8.90
   5 -10   2   23.00    5.90
   5 -10   2    9.90    8.00
  -5 -10  -2   22.20    4.10
   5 -10   2   13.90    4.70
  -5 -10  -2   23.10    5.10
   5 -10   2   13.50    5.20
   5  10   2   29.30    8.70
   5  10   2   32.40    4.40
  -6 -11   2   27.00    4.10
   6  11  -2   57.19    8.40
  -5 -11   2    9.30    3.80
   5  11  -2   20.40    6.30
   5  11  -2   24.10    8.50
   5  11  -2   18.90    4.80
  -4 -11   2  322.77   26.60
   4  11  -2  407.66   34.30
   4  11  -2  473.85   38.10
   4  11  -2  472.45   34.10
   4  11  -2  403.36   33.00
  -3 -11   2  234.18   27.50
  -3 -11   2  256.57   31.70
   3 -11  -2  240.38   22.60
   3  11  -2  330.07   30.60
   3  11  -2  338.97   26.80
   3  11  -2  314.77   40.30
   3  11  -2  328.77   28.10
  -3  11   2  394.76   50.69
   3  11  -2  252.27   34.20
  -3  11   2  307.97   39.90
   2 -11  -2  262.87   21.70
   2 -11  -2  288.77   27.90
  -2 -11   2  198.58   28.70
  -2 -11   2  316.47   28.00
   2  11  -2  312.07   32.80
   2  11  -2  330.47   42.20
  -2  11   2  280.87   25.90
  -2  11   2  404.36   39.80
   1 -11  -2  299.67   36.80
   1 -11  -2  336.67   29.60
  -1 -11   2  320.37   29.90
   1 -11  -2  355.26   26.70
  -1 -11   2  342.97   26.70
   1  11  -2  511.75   55.29
  -1  11   2  491.45   56.29
  -1  11   2  529.65   49.70
   1  11  -2  500.15   42.90
  -1  11   2  490.45   38.10
   0 -11  -2 1417.26   93.49
   0 -11  -2 1420.36   96.49
   0 -11  -2 1307.87   99.59
   0 -11   2 1425.16   94.09
   0 -11   2 1301.17  108.19
   0 -11   2 1322.67   95.99
   0  11   2 1726.83  131.79
   0  11   2 1714.13  118.49
   0  11  -2 1702.63  119.99
   0  11  -2 1802.02  131.89
   0  11  -2 1580.74  128.29
   0  11   2 1803.92  138.69
  -1 -11  -2   32.40    8.60
  -1 -11  -2   45.40   11.00
   1 -11   2   33.90    7.70
   1 -11   2   46.60   19.80
   1 -11   2   21.40   14.20
  -1  11  -2   62.89   15.70
   1  11   2   24.60   18.10
  -1  11  -2   41.90    9.40
   1  11   2   54.59    9.90
   1  11   2   46.30   19.20
   2 -11   2  426.36   50.99
  -2 -11  -2  425.76   40.30
   2 -11   2  444.26   36.90
   2 -11   2  455.15   54.19
  -2  11  -2  293.47   34.50
   2  11   2  264.27   36.40
   2  11   2  295.67   27.20
  -2  11  -2  317.47   28.50
   3 -11   2  378.86   40.90
   3 -11   2  370.36   32.20
   3 -11   2  388.86   34.40
  -3 -11  -2  370.76   28.10
  -3 -11  -2  331.97   31.30
   3 -11   2  374.66   31.90
   3 -11   2  423.16   39.90
   3  11   2  401.06   37.30
   3  11   2  357.86   28.00
   3  11   2  351.26   29.70
   4 -11   2   22.50   11.80
   4 -11   2   25.40   14.30
   4 -11   2   31.10    8.70
   4 -11   2   18.00    8.40
   4 -11   2   33.70   10.30
  -4 -11  -2   28.80    8.60
  -4 -11  -2   28.80    5.10
   4  11   2   48.10    7.30
   4  11   2   55.69    9.30
   4  11   2   45.10   13.90
   4  11   2   68.89   13.00
  -5 -11  -2   32.80    3.90
   5 -11   2   22.50    5.20
   5 -11   2   41.10    6.70
   5 -11   2   23.70    7.30
   5 -11   2   31.40   10.00
  -5 -11  -2   31.30    5.00
   5 -11   2   32.50    6.10
   5  11   2   27.00    3.80
   5  11   2   18.50    7.20
  -5 -12   2  142.59   12.30
  -5 -12   2  118.39   11.40
   5  12  -2  154.68   13.60
   5  12  -2  160.68   16.20
   5  12  -2  168.08   16.60
  -4 -12   2   30.40    6.80
   4  12  -2   32.80   11.20
   4  12  -2   31.10    7.40
   4  12  -2   38.20    7.10
   4  12  -2   27.50    8.20
   3 -12  -2  303.87   26.80
  -3 -12   2  309.87   30.20
  -3 -12   2  333.17   27.20
   3 -12  -2  303.57   24.80
   3 -12  -2  330.37   27.20
   3 -12  -2  362.36   31.00
   3  12  -2  489.35   38.50
   3  12  -2  450.25   37.30
   3  12  -2  524.85   37.30
  -2 -12   2  209.48   28.60
  -2 -12   2  302.07   28.00
   2 -12  -2  251.57   27.60
   2 -12  -2  287.77   22.30
   2  12  -2  308.97   37.90
  -2  12   2  430.06   51.89
  -2  12   2  373.76   42.30
   2  12  -2  396.86   47.60
  -1 -12   2   50.69   11.40
   1 -12  -2   83.99   13.80
  -1 -12   2   75.59   10.30
   1 -12  -2  110.29   12.10
   1 -12  -2   92.39   20.30
  -1  12   2  164.38   34.80
  -1  12   2  141.39   27.90
   1  12  -2  155.48   31.80
  -1  12   2  162.58   16.50
   1  12  -2  162.98   22.00
   0 -12  -2   29.10    9.00
   0 -12  -2   25.60    6.60
   0 -12   2   20.90   14.00
   0 -12   2   20.00    8.10
   0 -12   2   23.80    6.80
   0 -12  -2   16.10    8.70
   0  12   2   60.19   10.90
   0  12  -2   63.29   11.50
   0  12  -2   64.69   17.80
   0  12   2   41.70   18.60
   0  12  -2   61.89   19.10
   0  12   2   57.59   19.40
   1 -12   2  593.44   61.09
   1 -12   2  751.42   70.39
   1 -12   2  759.22   50.19
  -1 -12  -2  688.83   51.79
  -1 -12  -2  611.84   53.69
   1  12   2  933.61   84.69
   1  12   2  837.42   79.69
   1  12   2  892.51   65.59
  -1  12  -2  927.21   75.19
  -1  12  -2  868.71   66.29
  -2 -12  -2  423.76   32.60
   2 -12   2  479.75   38.30
   2 -12   2  450.55   54.99
   2 -12   2  407.66   51.69
  -2 -12  -2  468.45   40.70
   2 -12   2  431.76   44.00
   2 -12   2  478.15   53.19
   2 -12   2  383.96   38.40
   2 -12   2  479.35   47.60
   2 -12   2  456.05   36.40
  -2  12  -2  344.77   38.90
   2  12   2  306.17   39.80
   2  12   2  374.76   30.90
  -2  12  -2  300.47   30.40
   2  12   2  337.67   27.60
   3 -12   2   20.40    8.90
   3 -12   2   18.30    8.80
   3 -12   2   22.10   13.30
  -3 -12  -2   23.00    8.60
   3 -12   2   20.10   15.30
  -3 -12  -2   15.00    4.60
   3 -12   2   15.80    9.00
   3  12   2   12.30   10.70
   3  12   2   10.90    5.20
   3  12   2   12.10    5.10
  -4 -12  -2  158.08   12.70
   4 -12   2  146.99   26.70
   4 -12   2  169.68   18.70
   4 -12   2  159.88   17.10
   4 -12   2  162.28   19.10
   4 -12   2  141.39   22.30
  -4 -12  -2  136.69   15.20
   4  12   2  149.49   22.80
   4  12   2  154.98   15.20
   4  12   2  152.18   13.50
   5 -12   2   38.40    5.90
   5 -12   2   29.20    5.10
   5 -12   2   31.70    5.60
   5 -12   2   24.10    8.90
  -5 -12  -2   33.30    4.80
  -5 -13   2    9.40    3.80
  -5 -13   2    9.70    3.30
   5  13  -2   17.10    4.20
   5  13  -2   31.10    7.80
   5  13  -2   15.80    5.40
  -4 -13   2   71.09    9.80
   4  13  -2  100.89   16.00
   4  13  -2   85.09   10.90
   4  13  -2   98.79   11.60
   4  13  -2   91.59   13.30
   3 -13  -2  307.97   23.20
  -3 -13   2  301.57   25.50
   3 -13  -2  322.57   25.70
   3 -13  -2  258.07   23.90
  -3 -13   2  261.77   28.10
   3 -13  -2  315.27   29.20
   3  13  -2  243.08   21.80
   3  13  -2  148.09   33.80
   3  13  -2  297.97   21.90
   3  13  -2  237.28   22.80
  -2 -13   2  216.78   25.60
   2 -13  -2  255.37   20.30
   2 -13  -2  247.18   29.20
  -2 -13   2  182.58   27.10
   2  13  -2  304.57   35.10
   2  13  -2  305.97   46.20
  -2  13   2  271.67   36.60
  -2  13   2  316.97   45.70
  -1 -13   2  391.26   36.30
  -1 -13   2  446.86   33.20
   1 -13  -2  414.06   44.00
   1 -13  -2  424.86   32.70
   1 -13  -2  420.76   36.40
  -1  13   2  362.46   47.60
   1  13  -2  297.27   31.50
  -1  13   2  349.77   40.80
   1  13  -2  321.47   44.10
  -1  13   2  330.07   28.60
   0 -13  -2  657.13   56.79
   0 -13   2  762.92   51.39
   0 -13  -2  714.03   54.09
   0 -13   2  630.64   64.19
   0 -13  -2  717.53   50.49
   0 -13   2  711.33   53.99
   0  13  -2  827.42   72.79
   0  13   2  834.82   58.39
   0  13  -2  777.62   59.39
   0  13   2  735.83   70.69
   0  13  -2  631.84   67.29
   0  13   2  835.62   78.39
  -1 -13  -2  244.88   24.80
   1 -13   2  265.67   23.30
   1 -13   2  307.97   42.60
  -1 -13  -2  253.87   28.20
   1  13   2  217.48   39.90
  -1  13  -2  284.87   34.20
   1  13   2  278.37   24.70
  -1  13  -2  224.88   24.30
   2 -13   2   45.30   11.00
   2 -13   2   60.59   19.90
  -2 -13  -2   33.80    6.90
   2 -13   2   27.00    9.70
   2 -13   2   27.50    6.90
   2 -13   2   38.10   10.20
   2 -13   2   32.40   15.90
  -2 -13  -2   28.90    6.00
  -2 -13  -2   31.50    9.50
   2  13   2   18.00    5.70
   2  13   2   42.30   14.40
   3 -13   2  124.79   22.60
  -3 -13  -2  134.49   17.90
   3 -13   2  137.89   18.40
   3 -13   2  138.59   18.50
   3 -13   2  107.69   17.00
  -3 -13  -2  112.49   11.60
   3 -13   2  127.19   27.90
   3  13   2  113.69   21.20
   3  13   2  100.89   15.10
   3  13   2  131.99   13.70
   4 -13   2   28.50   11.00
   4 -13   2   55.49   17.10
   4 -13   2   46.30   10.00
  -4 -13  -2   48.40    6.00
   4 -13   2   42.30    9.30
  -4 -13  -2   45.30    8.60
   4 -13   2   46.00    9.80
   4  13   2   40.80   12.60
   4  13   2   43.00    6.40
   4  13   2   59.19    8.80
  -5 -13  -2    5.60    2.20
   5 -13   2    9.80    3.60
   5 -13   2   20.20    7.10
   5 -13   2    6.30    3.20
   5 -13   2    8.90    4.90
   5  13   2    9.30    4.80
  -5 -14   2   44.90    6.00
  -5 -14   2   46.10    5.80
   5  14  -2   83.49    9.70
   5  14  -2   76.09    7.80
   4 -14  -2   11.40    7.40
  -4 -14   2   21.60    5.80
   4  14  -2    7.00    6.00
   4  14  -2   14.30    4.90
   4  14  -2   13.20   19.20
  -3 -14   2  260.57   22.10
   3 -14  -2  218.48   20.90
   3 -14  -2  263.97   25.90
   3 -14  -2  253.47   22.40
  -3 -14   2  241.78   25.50
   3 -14  -2  235.88   19.80
   3  14  -2  288.27   23.20
   3  14  -2  284.87   25.10
   3  14  -2  263.47   23.80
   2 -14  -2  457.65   45.00
   2 -14  -2  511.25   37.30
  -2 -14   2  537.15   45.60
   2 -14  -2  551.34   43.80
  -2 -14   2  548.95   41.80
   2 -14  -2  490.55   39.10
  -2 -14   2  478.25   44.10
   2 -14  -2  501.65   39.90
  -2  14   2  558.84   56.69
   2  14  -2  502.95   49.60
   2  14  -2  582.84   42.80
   2  14  -2  553.84   60.89
  -2  14   2  591.14   68.09
   1 -14  -2  196.68   18.60
  -1 -14   2  150.68   20.30
   1 -14  -2  161.18   21.70
  -1 -14   2  217.38   19.00
  -1  14   2  250.97   44.80
   1  14  -2  211.28   37.60
  -1  14   2  222.68   22.20
   1  14  -2  207.78   26.20
  -1  14   2  199.58   34.70
   0 -14   2   92.59   11.90
   0 -14  -2   64.49   15.50
   0 -14   2   69.09   13.10
   0 -14  -2   79.99   10.60
   0 -14   2   69.39   21.20
   0 -14  -2   82.19   14.10
   0  14   2   94.39   14.60
   0  14  -2   74.09   21.70
   0  14   2   79.29   24.90
   0  14   2   94.49   25.10
   0  14  -2   86.69   24.20
   0  14  -2   79.49   14.70
  -1 -14  -2  524.25   49.10
   1 -14   2  595.34   62.89
  -1 -14  -2  570.44   45.50
   1 -14   2  587.14   43.40
   1  14   2  707.93   51.19
  -1  14  -2  598.94   64.09
  -1  14  -2  650.73   51.79
   1  14   2  563.14   64.89
  -1  14  -2  703.63   63.29
   2 -14   2  335.07   29.10
   2 -14   2  297.37   24.90
  -2 -14  -2  341.17   25.00
   2 -14   2  326.37   38.40
   2 -14   2  335.17   35.10
  -2 -14  -2  284.17   26.20
   2 -14   2  310.57   28.00
   2 -14   2  314.37   28.70
  -2 -14  -2  295.37   23.80
   2  14   2  283.27   30.70
   2  14   2  251.17   22.40
  -3 -14  -2   44.70    9.70
  -3 -14  -2   34.30    6.20
   3 -14   2   37.70    6.70
  -3 -14  -2   44.20    6.80
   3 -14   2   38.30   10.70
   3 -14   2   42.60   19.00
   3 -14   2   33.80   10.90
   3 -14   2   37.60   10.50
   3 -14   2   39.90   14.50
   3  14   2   30.60    7.60
   3  14   2   43.80   14.00
   4 -14   2   43.30    9.40
   4 -14   2   58.99   10.20
   4 -14   2   44.00   11.70
  -4 -14  -2   48.10    8.00
   4 -14   2   63.69   17.60
  -4 -14  -2   56.29    6.40
   4 -14   2   56.89   10.10
   4  14   2   45.80    7.50
   4  14   2   47.10   12.50
   4  14   2   47.00    6.40
  -5 -15   2    7.30    2.60
  -5 -15   2    7.00    2.60
   5  15  -2   10.10    3.20
   5  15  -2   13.30    4.20
  -4 -15   2  127.79   12.30
   4 -15  -2  114.29   16.10
  -4 -15   2  111.99   11.80
   4 -15  -2  118.29   12.30
   4  15  -2  193.78   19.20
   4  15  -2  140.39   25.70
   4  15  -2  195.18   16.20
   3 -15  -2  124.69   17.70
  -3 -15   2  141.59   13.90
   3 -15  -2  100.79   13.20
   3 -15  -2  129.99   13.50
   3 -15  -2  126.59   12.60
  -3 -15   2   80.39   16.30
  -3 -15   2  100.09   12.80
   3  15  -2   93.39   26.00
   3  15  -2  184.58   16.70
   3  15  -2  187.28   19.60
   2 -15  -2   63.59   13.00
   2 -15  -2   50.19    8.60
  -2 -15   2   56.59   13.50
   2 -15  -2   52.39    7.90
   2 -15  -2   42.30    9.00
  -2 -15   2   45.40    8.80
   2 -15  -2   61.59   14.30
   2 -15  -2   74.29   24.00
   2  15  -2   79.69   23.20
   2  15  -2   65.79   11.10
   2  15  -2   58.69   10.00
  -1 -15   2  335.57   34.20
   1 -15  -2  432.16   31.70
  -1 -15   2  425.96   31.90
   1 -15  -2  395.16   35.90
   1  15  -2  483.65   43.60
  -1  15   2  538.05   61.49
  -1  15   2  499.95   54.19
   1  15  -2  447.76   56.09
   0 -15  -2  249.68   26.40
   0 -15  -2  252.67   30.10
   0 -15   2  269.97   23.80
   0 -15   2  245.98   25.90
   0 -15  -2  273.07   22.60
   0 -15   2  270.67   38.90
   0  15  -2  325.17   50.89
   0  15   2  320.07   49.30
   0  15  -2  394.16   49.99
   0  15   2  436.56   52.79
   0  15   2  405.76   34.00
   0  15  -2  381.86   35.30
   1 -15   2   18.70   15.90
   1 -15   2   11.60    7.60
  -1 -15  -2   22.50    6.20
  -1 -15  -2   11.60    7.60
  -1 -15  -2   21.70    5.10
   1 -15   2   17.70   11.00
  -1 -15  -2   24.70    5.80
   1 -15   2   12.20    5.30
   1 -15   2   23.30    9.40
  -1 -15  -2   -5.20    9.60
   1 -15   2   19.10    7.80
   1 -15   2   21.20    6.80
   1  15   2   32.60   13.60
   2 -15   2  237.18   29.00
   2 -15   2  206.48   22.70
   2 -15   2  256.67   25.40
   2 -15   2  210.68   24.10
   2 -15   2  219.98   19.00
   2 -15   2  257.27   37.40
  -2 -15  -2  202.48   18.00
  -2 -15  -2  240.18   19.20
   2  15   2  332.27   33.50
   2  15   2  278.17   24.60
  -3 -15  -2  143.09   12.90
   3 -15   2  133.79   13.60
   3 -15   2  179.38   20.60
   3 -15   2  145.49   23.40
  -3 -15  -2  161.08   13.40
   3 -15   2  155.98   19.30
   3 -15   2  153.78   29.60
   3 -15   2  163.68   19.50
  -3 -15  -2  125.69   14.40
   3  15   2  154.78   24.30
   3  15   2  149.29   15.10
  -4 -15  -2   21.60    4.90
   4 -15   2   16.80    8.00
  -4 -15  -2   23.20    3.90
   4 -15   2   22.70    6.50
   4 -15   2   19.50   12.20
   4 -15   2   27.60    7.30
   4  15   2   17.80    9.20
   4  15   2   23.00    5.20
  -5 -16   2   57.79    5.60
  -5 -16   2   47.40    5.20
   5  16  -2   72.29    6.90
   5  16  -2   74.19    8.10
   4 -16  -2   87.29   12.80
   4 -16  -2   72.79    9.80
  -4 -16   2   82.59    9.40
   4  16  -2   74.89   18.00
   4  16  -2   97.99   10.00
   4  16  -2  115.09   12.90
  -3 -16   2   57.79    9.40
   3 -16  -2   81.19   14.40
   3 -16  -2   77.69   10.30
  -3 -16   2   68.59    9.90
   3 -16  -2   64.09    8.70
  -3 -16   2   62.19   13.20
   3 -16  -2   60.39   10.00
   3  16  -2   41.70    9.40
   3  16  -2   43.80    8.20
   3  16  -2   51.09   18.40
  -2 -16   2  214.98   19.60
   2 -16  -2  219.58   18.90
   2 -16  -2  209.48   19.90
   2 -16  -2  200.88   17.90
   2 -16  -2  247.78   31.10
   2 -16  -2  217.68   23.60
   2 -16  -2  208.68   24.60
  -2 -16   2  212.68   26.40
   2  16  -2  194.38   32.20
   2  16  -2  218.58   21.00
   2  16  -2  175.08   17.80
   1 -16  -2   80.69   21.10
   1 -16  -2   86.29   15.70
  -1 -16   2   85.09   17.10
   1 -16  -2   82.69   12.50
   1 -16  -2   77.99   15.10
   1 -16  -2   76.09   11.30
  -1 -16   2   68.39   10.60
   1 -16  -2   89.39   11.00
   1 -16  -2   78.29   10.00
  -1 -16   2   72.19   24.00
  -1 -16   2   84.29   11.20
   1  16  -2  161.58   16.60
   1  16  -2  159.88   18.70
   0 -16   2    1.00   13.90
   0 -16   2   20.70    9.90
   0 -16   2    8.80    9.00
   0 -16   2    9.80    5.90
   0 -16  -2   12.80    4.20
   0 -16  -2   -7.40    8.50
   0 -16   2   11.40   10.90
   0 -16   2   10.90    4.80
   0 -16  -2   12.40    5.20
   0 -16  -2    7.50    8.40
   0 -16  -2    8.50    7.90
   0 -16  -2    8.90   11.90
   0 -16  -2   12.90    5.40
   0 -16  -2    6.10    6.30
   0 -16  -2   16.90   14.20
   0  16  -2   12.00    6.00
   0  16   2    3.30    7.60
   1 -16   2   60.39   15.00
  -1 -16  -2   60.29   12.60
  -1 -16  -2   62.49    9.20
  -1 -16  -2   59.99    8.20
  -1 -16  -2   31.70   12.50
   1 -16   2   73.09   12.00
   1 -16   2   61.29   10.00
  -1 -16  -2   78.89   10.80
   1 -16   2   49.30   11.70
   1 -16   2   64.29    9.10
   1 -16   2   70.49   12.70
   1 -16   2   56.09   19.60
   1  16   2   69.79   17.50
   2 -16   2  268.77   25.30
   2 -16   2  213.68   27.80
  -2 -16  -2  261.57   20.80
   2 -16   2  262.87   25.30
   2 -16   2  253.17   38.30
   2 -16   2  239.58   29.80
   2 -16   2  261.67   21.70
  -2 -16  -2  288.37   21.90
   2 -16   2  282.37   25.60
   2  16   2  252.07   22.00
   2  16   2  262.77   30.10
   3 -16   2   11.00    7.40
  -3 -16  -2   15.00    4.30
   3 -16   2    8.70    4.40
  -3 -16  -2   13.00    4.00
   3 -16   2    8.40   10.20
   3 -16   2    9.10   14.70
  -3 -16  -2   13.30    5.20
   3 -16   2   14.30    8.50
   3 -16   2   13.90    7.60
   3  16   2    3.20    8.60
   3  16   2   12.00    4.70
  -4 -16  -2   32.50    5.40
   4 -16   2   26.40   11.70
   4 -16   2   35.40    7.00
   4 -16   2   40.90    7.20
   4 -16   2   24.50    8.10
   4 -16   2   28.40    6.70
  -4 -16  -2   31.20    4.20
   4  16   2   22.90    8.90
   4  16   2   37.40    5.70
  -5 -17   2    9.40    2.00
   5  17  -2   11.60    3.00
  -4 -17   2   97.59    9.50
   4 -17  -2   70.69    9.60
   4 -17  -2  104.09   13.70
  -4 -17   2   97.49    9.20
   4  17  -2   96.99   11.20
   4  17  -2   76.79   17.40
   4  17  -2   82.59    8.80
  -3 -17   2  112.79   18.30
  -3 -17   2  162.48   14.50
  -3 -17   2  160.48   15.30
   3 -17  -2  143.69   15.50
   3 -17  -2  152.78   13.80
   3 -17  -2  166.88   15.70
   3 -17  -2  152.38   18.60
   3  17  -2  173.88   16.30
   3  17  -2  193.68   19.40
   3  17  -2  156.38   29.40
   2 -17  -2  100.59   13.70
  -2 -17   2  117.49   18.90
   2 -17  -2  123.19   23.60
  -2 -17   2   83.89   12.20
   2 -17  -2  103.49   11.50
   2 -17  -2  127.49   19.70
   2 -17  -2  110.89   17.40
   2 -17  -2  110.49   12.80
   2  17  -2  146.69   26.80
   2  17  -2  124.59   14.90
   2  17  -2  146.99   16.90
   1 -17  -2  222.68   18.40
  -1 -17   2  267.87   26.90
   1 -17  -2  235.88   19.30
   1 -17  -2  226.68   21.30
   1 -17  -2  224.78   24.60
   1 -17  -2  269.27   33.40
  -1 -17   2  275.97   40.10
   1 -17  -2  187.08   19.50
  -1 -17   2  207.88   20.20
  -1 -17   2  215.88   19.70
   1 -17  -2  216.58   23.60
   1  17  -2  278.97   25.20
   1  17  -2  320.87   26.30
   0 -17  -2  181.28   16.40
   0 -17  -2  175.08   19.80
   0 -17   2  209.88   18.60
   0 -17   2  234.28   26.30
   0 -17   2  248.08   24.50
   0 -17  -2  202.18   30.10
   0 -17  -2  212.58   22.90
   0 -17   2  213.98   35.50
   0 -17   2  210.68   20.50
   0 -17  -2  185.98   24.60
   0 -17   2  208.28   17.30
   0 -17  -2  191.48   17.40
   0 -17  -2  195.78   18.50
   0  17  -2  240.98   21.80
   1 -17   2   38.00    9.70
   1 -17   2   43.10   10.70
   1 -17   2   31.90   17.60
  -1 -17  -2   30.60    6.90
  -1 -17  -2   39.00    8.10
   1 -17   2   40.50   12.80
  -1 -17  -2   24.90    9.70
   1 -17   2   34.00    9.40
   1 -17   2   37.40    8.50
  -1 -17  -2   34.10   10.90
  -1 -17  -2   37.00    6.40
   1 -17   2   28.50    6.30
   1  17   2   22.30   12.50
  -2 -17  -2   59.19    8.00
  -2 -17  -2   57.39    8.50
   2 -17   2   58.59   10.10
   2 -17   2   53.69   12.20
   2 -17   2   68.59   20.90
   2 -17   2   51.79    8.30
   2 -17   2   58.09   11.50
   2 -17   2   66.59   12.10
   2 -17   2   72.79   17.00
   2  17   2  104.69   20.90
   2  17   2   91.59   12.40
   3 -17   2  184.68   30.30
   3 -17   2  183.58   19.80
  -3 -17  -2  179.68   14.80
   3 -17   2  182.38   18.90
   3 -17   2  174.08   19.50
   3 -17   2  194.38   23.70
  -3 -17  -2  170.78   14.50
   3 -17   2  171.88   15.20
   3  17   2  144.89   14.20
   3  17   2  156.78   22.60
   4 -17   2    4.50    5.00
   4 -17   2    5.70    4.50
   4 -17   2   10.40    4.70
   4 -17   2    8.50    3.90
   4 -17   2    1.60    7.70
  -4 -17  -2   12.40    2.70
  -4 -17  -2    9.10    3.00
   4  17   2    7.70    6.30
   4 -18  -2    0.20    4.50
   4 -18  -2    1.10    3.90
   4 -18  -2    3.90    3.20
  -4 -18   2    2.00    2.70
  -4 -18   2    5.00    2.70
   4  18  -2    1.20    2.70
   4  18  -2    4.10    4.00
   3 -18  -2  129.29   13.60
  -3 -18   2  129.39   12.80
  -3 -18   2  112.39   17.30
   3 -18  -2  118.49   13.20
   3 -18  -2  118.79   11.80
   3 -18  -2  133.29   16.50
   3  18  -2  226.88   32.60
   3  18  -2  209.88   18.40
   3  18  -2  230.08   20.20
   2 -18  -2  149.09   15.20
   2 -18  -2  136.59   19.60
  -2 -18   2  110.59   19.10
   2 -18  -2  117.79   11.80
  -2 -18   2  113.39   13.20
   2 -18  -2  121.59   19.20
   2 -18  -2  134.79   14.30
   2 -18  -2  120.69   24.50
   2  18  -2  141.79   26.10
   2  18  -2  148.49   15.30
   2  18  -2  184.18   18.80
  -1 -18   2   14.30    7.50
   1 -18  -2   20.50    9.80
  -1 -18   2   17.90    6.50
  -1 -18   2   20.60   10.80
   1 -18  -2   27.10   10.50
   1 -18  -2   29.30    6.40
   1 -18  -2   22.30    7.20
  -1 -18   2   30.50   18.80
   1 -18  -2   25.80    5.30
   1 -18  -2   17.50   15.70
   1 -18  -2   24.20    9.00
   1  18  -2   25.50    7.20
   1  18  -2   15.50    7.50
   0 -18  -2   78.49   17.00
   0 -18  -2   97.29   14.80
   0 -18   2  116.99   19.50
   0 -18   2   99.99   15.90
   0 -18  -2   82.19   10.40
   0 -18  -2  109.99   17.30
   0 -18   2   99.89   11.40
   0 -18  -2  112.89   13.60
   0 -18  -2  110.69   12.00
   0 -18   2  123.49   27.80
   0 -18   2  122.39   15.80
   0 -18   2  118.59   13.50
   0  18  -2  139.79   16.00
  -1 -18  -2  116.79   12.30
   1 -18   2  128.99   15.90
  -1 -18  -2  108.89   11.30
   1 -18   2  116.49   14.10
  -1 -18  -2  121.89   17.40
   1 -18   2  102.59   23.40
   1 -18   2  110.09   19.60
   1 -18   2  114.99   16.60
  -1 -18  -2  111.99   16.90
   1 -18   2  120.59   12.80
   1  18   2  191.18   28.10
   2 -18   2   74.69   12.40
  -2 -18  -2   71.69    8.30
   2 -18   2   57.09    9.40
   2 -18   2   64.49   20.30
   2 -18   2   74.59   12.50
   2 -18   2   79.89   13.40
   2 -18   2   58.19    8.40
   2 -18   2   56.79   14.90
  -2 -18  -2   69.09    9.10
   2  18   2  110.09   13.30
   2  18   2  104.39   21.20
   3 -18   2   15.90    7.30
  -3 -18  -2   10.80    3.40
   3 -18   2   20.00    7.30
  -3 -18  -2    7.30    3.70
   3 -18   2   12.10    6.40
   3 -18   2    9.40    3.50
   3 -18   2    7.50   12.80
   3 -18   2    1.10    8.20
   3  18   2   11.10    8.90
   3  18   2   16.40    4.70
   4 -18   2   31.40    5.20
   4 -18   2   32.60    9.50
   4 -18   2   30.50    6.50
  -4 -18  -2   40.50    4.00
   4 -18   2   36.40    5.90
   4  18   2   41.00    8.10
   4 -19  -2   19.10    5.30
  -4 -19   2   20.50    3.50
  -4 -19   2   16.50    3.50
   4 -19  -2   20.30    3.80
   4 -19  -2   18.70    6.60
   4  19  -2   31.20    5.70
  -3 -19   2   53.79   12.00
   3 -19  -2   88.29   13.70
   3 -19  -2   86.89    9.00
  -3 -19   2   71.19    9.20
   3 -19  -2   76.09   10.40
   3 -19  -2   80.39    9.70
   3  19  -2  122.99   11.50
   3  19  -2  133.89   14.50
   3  19  -2  103.59   20.50
  -2 -19   2    7.40    8.50
  -2 -19   2   13.20    5.70
   2 -19  -2   17.30    8.80
   2 -19  -2    9.40    5.00
   2 -19  -2   12.80    8.10
   2 -19  -2    5.80    6.70
   2 -19  -2   12.70    4.20
   2 -19  -2   17.80   16.00
   2  19  -2   22.80    7.30
   2  19  -2   15.20   11.50
   2  19  -2   19.50    5.70
  -1 -19   2   57.19   15.20
  -1 -19   2   57.09    9.50
  -1 -19   2   68.29   21.60
   1 -19  -2   57.69   14.70
   1 -19  -2   73.79   14.20
   1 -19  -2   58.79   12.00
   1 -19  -2   55.79    8.60
   1 -19  -2   52.79    9.40
   1 -19  -2   63.99   19.80
   1 -19  -2   61.09    8.10
   1  19  -2   46.80   10.00
   1  19  -2   45.00    8.70
   0 -19  -2   31.70   10.40
   0 -19   2   33.50   10.60
   0 -19   2   22.80   11.50
   0 -19  -2   35.80    7.50
   0 -19   2   44.70   10.70
   0 -19   2   27.70    7.50
   0 -19  -2   35.50    5.90
   0 -19   2   30.00   17.80
   0 -19  -2   38.20    6.90
   0 -19  -2   38.50    9.80
   0 -19   2   35.70    6.60
   0 -19  -2   16.70   11.90
   0  19   2   47.20   17.60
   0  19  -2   69.29   10.20
  -1 -19  -2   21.90    5.40
   1 -19   2   24.50    7.80
   1 -19   2   21.30    7.00
  -1 -19  -2   17.60    5.80
  -1 -19  -2   27.10    9.10
   1 -19   2   22.40   10.40
   1 -19   2   22.20   14.60
   1 -19   2   19.80    8.90
  -1 -19  -2   45.20    8.60
   1 -19   2   24.80    5.70
  -1  19  -2   39.20    8.00
   1  19   2   44.70   14.80
   2 -19   2   80.29   12.70
   2 -19   2   61.69    9.30
   2 -19   2   69.99   14.80
   2 -19   2   70.09    8.80
  -2 -19  -2   60.79    8.30
   2 -19   2   69.39   11.70
   2 -19   2   58.59   19.20
  -2 -19  -2   70.09    8.20
   2  19   2   64.89   16.70
   2  19   2   52.19    8.80
  -3 -19  -2   68.99    7.10
   3 -19   2   68.29   17.50
   3 -19   2   69.79    7.50
   3 -19   2   77.39   10.70
   3 -19   2   70.19   11.00
   3 -19   2   74.29   10.60
   3 -19   2   66.49   12.30
  -3 -19  -2   77.99    7.80
   3  19   2   75.99    8.10
   3  19   2   64.19   13.40
   4 -20  -2    5.00    5.50
  -4 -20   2    9.90    2.60
   4 -20  -2   10.60    5.90
   4  20  -2   27.50    4.70
   3 -20  -2   27.50    5.50
   3 -20  -2   29.60    7.10
   3 -20  -2   28.60    8.60
   3 -20  -2   30.20    4.80
  -3 -20   2   22.60    4.90
  -3 -20   2   23.60    7.30
   3  20  -2   52.39    8.40
   3  20  -2   44.40   12.40
   2 -20  -2  168.58   20.40
   2 -20  -2  175.08   17.90
   2 -20  -2  174.68   26.70
  -2 -20   2  176.38   23.00
  -2 -20   2  160.08   15.70
   2 -20  -2  176.28   15.70
   2 -20  -2  167.98   14.60
   2 -20  -2  170.68   21.90
   2  20  -2  160.28   25.70
   2  20  -2  205.58   17.80
   1 -20  -2   17.50    5.60
   1 -20  -2   20.90    6.60
  -1 -20   2   21.50    6.30
   1 -20  -2   19.10    4.80
  -1 -20   2   15.10   10.10
   1 -20  -2   15.20    8.50
   1 -20  -2   18.20   11.10
   1 -20  -2   28.20    9.90
   1 -20  -2   11.00   14.90
   1  20  -2    5.80    5.90
   0 -20  -2   64.59   12.70
   0 -20   2   44.90   19.10
   0 -20   2   27.30   10.20
   0 -20   2   53.79    9.10
   0 -20   2   51.89    7.40
   0 -20  -2   50.99    8.40
   0 -20  -2   24.40   12.60
   0 -20   2   46.90   13.40
   0 -20  -2   51.89    7.60
   0 -20  -2   44.40   10.20
   0  20  -2   53.69   12.90
   0  20  -2   40.90    9.30
   0  20   2   84.29   18.80
   1 -20   2  130.19   15.40
   1 -20   2  123.79   12.70
   1 -20   2  151.58   14.90
  -1 -20  -2  140.59   17.60
   1 -20   2  104.09   15.70
   1 -20   2  104.79   17.10
   1 -20   2  105.89   24.00
  -1 -20  -2  125.89   12.90
  -1 -20  -2  123.29   12.00
   1  20   2  140.49   22.60
  -1  20  -2  125.89   14.60
   1  20   2  151.28   15.90
  -2 -20  -2   70.49    8.90
   2 -20   2   56.49   13.20
   2 -20   2   66.79    8.30
   2 -20   2   60.99   17.00
  -2 -20  -2   66.09    7.80
   2 -20   2   68.49   11.40
   2 -20   2   60.89    8.80
   2 -20   2   73.49   11.20
  -2  20  -2   75.49    9.90
   2  20   2   69.99    9.50
   2  20   2   78.49   17.00
   3 -20   2    3.40    5.60
   3 -20   2    1.70    2.40
  -3 -20  -2    5.90    2.60
   3 -20   2    5.90    4.50
   3 -20   2   15.40    9.70
   3 -20   2    3.90    4.60
  -3 -20  -2    7.80    2.60
   3  20   2    5.10    2.80
   3  20   2    8.90    6.70
  -4 -21   2   35.50    4.20
   4  21  -2   48.40    5.40
  -3 -21   2   19.20    4.30
   3 -21  -2   34.80    7.70
   3 -21  -2   18.10    4.40
   3 -21  -2   26.00    4.20
   3 -21  -2   28.30    9.00
  -3 -21   2   10.60    5.50
   3  21  -2   46.40    7.10
   3  21  -2   23.10    9.00
   2 -21  -2   16.30    8.30
   2 -21  -2   13.90    5.00
  -2 -21   2   10.50    4.70
   2 -21  -2   20.20    4.40
   2 -21  -2   28.20   11.20
   2 -21  -2   20.90   14.20
   2 -21  -2   24.90    8.90
  -2 -21   2   15.50    8.50
   2  21  -2   17.70   10.00
   2  21  -2   27.40    6.80
  -1 -21   2  101.39   11.90
   1 -21  -2  112.69   15.00
   1 -21  -2   87.49   16.90
   1 -21  -2  104.29   16.60
   1 -21  -2  101.99    9.90
   1 -21  -2  108.39   11.60
  -1 -21   2   96.29   17.10
   1 -21  -2  108.79   12.90
   1 -21  -2  103.39   21.40
   1  21  -2  177.58   17.70
   1  21  -2  166.88   27.40
   0 -21   2   85.59    9.00
   0 -21   2   61.69   14.00
   0 -21   2   71.39   14.50
   0 -21  -2   80.09   10.30
   0 -21  -2   82.09    9.10
   0 -21   2   57.49   18.60
   0 -21  -2   59.29   12.20
   0 -21   2   79.29   10.30
   0 -21  -2   71.69   11.40
   0 -21  -2   40.50   13.50
   0  21  -2   91.09   12.50
   0  21   2   90.59   18.30
  -1 -21  -2   49.00   10.40
   1 -21   2   39.30   16.70
  -1 -21  -2   50.19    7.30
   1 -21   2   50.19    8.40
   1 -21   2   42.80   11.00
  -1 -21  -2   55.09    8.10
   1 -21   2   62.99    7.90
   1 -21   2   55.99   10.30
   1 -21   2   59.99   10.30
   1  21   2   60.39   10.30
   1  21   2   68.69   15.60
   2 -21   2   14.30    6.90
   2 -21   2   22.70    6.50
   2 -21   2   17.30    7.90
   2 -21   2   12.20    4.30
  -2 -21  -2   14.40    4.30
   2 -21   2   15.60    4.10
  -2 -21  -2   14.70    4.00
   2 -21   2   10.10   12.50
   2  21   2   20.50    9.80
   2  21   2   25.50    5.10
   3 -21   2   37.30    4.40
  -3 -21  -2   45.10    4.70
   3 -21   2   44.90    6.60
   3 -21   2   38.60   12.30
   3 -21   2   31.80    6.20
   3 -21   2   36.80    7.80
   3  21   2   45.30    9.30
   3  21   2   53.79    5.60
   3 -22  -2   16.90    6.30
  -3 -22   2   11.50    5.00
   3 -22  -2   11.00    3.20
  -3 -22   2   10.00    3.10
   3 -22  -2   12.90    2.70
   3 -22  -2   18.10    7.70
   3  22  -2    5.70    5.50
   3  22  -2    6.90    3.90
   2 -22  -2   94.79    8.40
  -2 -22   2   77.19    9.50
  -2 -22   2   59.39   12.60
   2 -22  -2   90.79    9.80
   2 -22  -2   82.89   13.30
   2 -22  -2   90.89   14.80
   2 -22  -2   96.39   17.70
   2 -22  -2   96.99   12.40
   2  22  -2  155.78   14.00
   2  22  -2   85.99   16.40
   1 -22  -2   22.10   10.00
   1 -22  -2   25.10    8.50
   1 -22  -2   32.30   12.70
  -1 -22   2   22.60    9.20
   1 -22  -2   36.40    6.20
   1 -22  -2   32.80    5.00
   1 -22  -2   29.70    6.30
  -1  22   2   37.00   14.30
   1  22  -2   35.40   13.20
   1  22  -2   54.39    8.50
   0 -22  -2   15.30    7.30
   0 -22   2   15.80    5.60
   0 -22  -2    8.30    6.40
   0 -22   2   11.00   12.30
   0 -22   2   14.30    7.90
   0 -22  -2   15.80    4.60
   0 -22  -2   14.10    4.90
   0 -22  -2    2.20    9.80
   0 -22   2   13.30    4.40
   0  22  -2   13.20    5.90
   0  22   2   14.20   10.00
   1 -22   2   71.09   17.90
  -1 -22  -2   71.29    8.60
   1 -22   2   59.79   11.60
   1 -22   2   77.19    9.50
  -1 -22  -2   59.79   10.70
   1 -22   2   65.49   10.70
   1 -22   2   95.89    9.30
   1  22   2   96.59   11.30
   1  22   2   91.69   16.70
   2 -22   2   16.10    3.40
   2 -22   2    9.20    3.10
   2 -22   2   13.20    6.80
  -2 -22  -2   14.30    3.50
   2 -22   2   14.30    6.20
   2 -22   2   18.60   12.90
   2 -22   2   16.60    5.90
  -2 -22  -2   18.70    4.10
   2  22   2   20.40    8.80
   2  22   2   20.30    4.40
   3 -23  -2   14.10    2.50
   3 -23  -2   32.30    8.30
   3 -23  -2   27.20    6.40
  -3 -23   2   15.20    3.20
   3 -23  -2   13.10    2.80
   3  23  -2   41.70    5.50
  -2 -23   2    1.40    2.90
   2 -23  -2   11.90    7.90
  -2 -23   2    1.00    5.50
   2 -23  -2    3.60    2.90
   2 -23  -2    2.00    4.80
   2 -23  -2   16.90   10.40
   2 -23  -2    2.10    2.30
   2  23  -2   -0.60    5.60
   2  23  -2   -1.10    3.50
   1 -23  -2   88.49    9.00
   1 -23  -2   78.99   12.10
   1 -23  -2   63.89   11.30
   1 -23  -2   70.49   10.00
  -1 -23   2   71.69    8.70
  -1 -23   2   74.69   13.00
   1 -23  -2   75.99    7.80
   1 -23  -2   74.39   15.30
   1  23  -2  112.89   11.50
  -1  23   2  106.19   17.20
   1  23  -2   63.39   14.00
   0 -23  -2   59.59   12.00
   0 -23  -2   68.49    8.80
   0 -23   2   78.49    8.90
   0 -23   2   60.39   11.80
   0 -23  -2   64.19    7.40
   0 -23   2   70.89    7.40
   0 -23  -2   63.49   11.20
   0  23  -2   95.79   11.20
   0  23   2   83.79   15.40
  -1 -23  -2    4.20    3.00
  -1 -23  -2    3.00    4.70
   1 -23   2   -5.80   10.60
   1 -23   2   -1.40    6.60
   1 -23   2   -4.10    2.90
   1 -23   2    4.20    3.10
  -1  23  -2   12.40    4.90
   1  23   2    6.60    3.50
   1  23   2    7.30    7.50
  -2 -23  -2   57.89    6.70
   2 -23   2   33.00    4.70
  -2 -23  -2   43.30    5.40
   2 -23   2   44.90   13.20
   2 -23   2   38.10    8.10
   2 -23   2   40.40    7.50
   2 -23   2   42.30    5.10
  -2  23  -2   68.49    7.70
   2  23   2   54.49    6.10
   2  23   2   61.39   10.80
   2 -24  -2   37.20   11.00
   2 -24  -2   19.60    5.60
   2 -24  -2   29.20    4.40
  -2 -24   2   22.30    4.20
   2 -24  -2   32.80    7.30
  -2 -24   2   21.40    6.10
   2 -24  -2   31.70    3.80
   2  24  -2   56.69    6.40
   2  24  -2   36.60    8.70
  -1 -24   2   35.80    8.30
   1 -24  -2   44.50    8.30
   1 -24  -2   39.80    8.10
   1 -24  -2   45.00    5.10
  -1 -24   2   46.00    6.20
   1 -24  -2   40.60    5.60
   1 -24  -2   42.00   12.50
   1  24  -2   33.80    9.60
  -1  24   2   52.89   10.80
   1  24  -2   55.59    7.00
   0 -24  -2   10.70    3.00
   0 -24  -2   17.20    6.60
   0 -24  -2   10.50    3.60
   0 -24   2   17.20    4.50
   0 -24   2   17.40    3.50
   0 -24   2   12.40    6.00
   0 -24  -2   13.60    5.70
   0  24   2   47.70    7.50
   0  24  -2   36.40   11.60
   0  24   2   43.60   10.80
   0  24  -2   33.10    6.00
  -1 -24  -2   25.40    5.90
   1 -24   2   17.90    6.90
   1 -24   2   21.40    4.00
   1 -24   2   18.30    4.00
   1 -24   2   17.30   10.20
  -1 -24  -2   24.70    4.20
   1  24   2   51.69    6.30
   1  24   2   39.30   10.00
  -1  24  -2   38.80    6.50
   2 -24   2   31.30    9.70
  -2 -24  -2   42.00    4.60
   2 -24   2   44.60    4.30
   2 -25  -2    4.70    8.20
   2 -25  -2    5.00    1.70
   2 -25  -2    2.50    3.90
  -2 -25   2    2.70    3.40
   2 -25  -2    5.60    1.90
   2  25  -2    2.70    3.80
  -1 -25   2    9.90    4.70
   1 -25  -2   11.40    4.40
   1 -25  -2   14.30    8.50
   1 -25  -2   10.70    2.80
   1 -25  -2   10.70    2.30
  -1 -25   2   12.10    3.30
  -1  25   2    4.70    5.60
   1  25  -2    2.90    4.50
   1  25  -2    2.20    2.90
   0 -25  -2   23.20    3.60
   0 -25   2   20.40    5.70
   0 -25   2   33.80    5.00
   0 -25  -2   26.10    5.90
   0 -25  -2   39.70    6.20
   0 -25  -2   39.50    5.10
   0  25  -2   49.80    6.30
   0  25   2   44.40    9.50
   0  25  -2   28.00    8.60
   0  25   2   53.89    6.40
   1 -25   2   11.80    2.80
  -1 -25  -2   18.70    6.30
  -1 -25  -2   15.40    3.10
   1 -25   2   19.00    2.90
   1  25   2   30.90    4.20
  -1  25  -2   35.80    4.90
   1  25   2   32.30    7.60
  -1  25  -2   31.90    9.60
   6   0  -3   -2.10    3.40
   6   0  -3   -2.40    5.20
   6   0  -3    4.50    4.90
   6   0  -3    0.40    4.20
   5   0  -3  355.76   34.60
   5   0  -3  357.86   29.90
   5   0  -3  429.76   36.90
   5   0  -3  389.06   30.30
   5   0  -3  401.66   36.70
   4   0  -3  935.61   75.39
  -4   0   3  834.02   73.69
   4   0  -3  799.02   79.09
  -4   0   3  895.11   69.09
   4   0  -3  733.33   67.29
   4   0  -3  765.12   81.39
   4   0  -3  758.62   67.09
  -3   0   3    2.30   10.10
   3   0  -3   30.90   13.20
   3   0  -3    9.60   12.60
  -3   0   3   28.60   15.00
   3   0  -3   19.90   10.10
   2   0  -3 3860.41  289.87
  -2   0   3 4150.78  272.47
  -2   0   3 4331.67  278.27
   2   0  -3 4383.76  284.17
   2   0  -3 4163.68  279.47
   2   0  -3 3692.03  277.87
  -1   0   3 1520.05  112.29
   1   0  -3 1548.35  124.99
   1   0  -3 1520.35  111.79
  -1   0   3 1574.74  121.69
   1   0  -3 1636.24  114.89
  -1   0   3 1554.14  108.09
   1   0  -3 1630.14  114.49
   0   0   3  180.18   22.70
   0   0  -3  211.88   27.80
   0   0   3  282.07   37.40
   0   0   3  176.28   19.80
   0   0  -3  293.27   26.30
   0   0   3  165.08   26.40
  -1   0  -3   63.79   18.50
   1   0   3   59.59   19.60
   1   0   3   52.09    8.70
  -1   0  -3   75.79   11.00
  -1   0  -3   75.99   16.70
   1   0   3   79.29   21.10
  -1   0  -3   47.60   19.30
   1   0   3   53.29   10.50
  -1   0  -3   73.09   10.90
  -1   0  -3   75.99   14.50
   2   0   3 1050.59   88.69
  -2   0  -3  794.82   80.99
   2   0   3  968.20   72.19
  -2   0  -3 1088.49   81.49
  -2   0  -3 1100.09   74.19
   2   0   3 1007.80   86.89
  -2   0  -3  824.62   87.89
  -2   0  -3  911.01   80.19
   3   0   3  270.77   43.80
  -3   0  -3  233.38   45.50
   3   0   3  312.97   30.40
   3   0   3  412.66   34.20
   3   0   3  229.88   39.40
   3   0   3  328.77   31.80
  -3   0  -3  411.86   46.20
   3   0   3  347.47   37.00
  -3   0  -3  419.46   37.70
   3   0   3  311.77   30.20
   3   0   3  362.86   31.20
   4   0   3  -15.40   10.60
   4   0   3  -11.60    4.90
   4   0   3   15.00   10.20
   4   0   3    3.40   12.10
   4   0   3  -10.20    6.10
   4   0   3    4.60    7.70
   4   0   3  -11.80    6.00
   5   0   3   51.89    6.80
   5   0   3   66.59    8.60
   5   0   3   53.39    8.20
   5   0   3   37.70   10.40
   5   0   3   59.89   12.30
  -5   0  -3   70.19    8.00
   6  -1  -3   51.99   10.60
   6  -1  -3   28.70    7.10
   6  -1  -3   30.00    6.50
   6  -1  -3   31.20    7.80
   6   1  -3   98.59   10.00
   6   1  -3   98.59   12.40
   6   1  -3  112.09   14.10
   6   1  -3   75.09    8.60
   6   1  -3   96.49   12.90
   5  -1  -3   32.70   10.50
   5  -1  -3   31.70    7.60
   5  -1  -3   58.29    9.30
   5  -1  -3   45.40   13.10
   5  -1  -3   64.19   14.40
   5   1  -3   47.90   12.80
   5   1  -3   46.50    8.50
   5   1  -3   59.79   14.30
   5   1  -3   46.40    8.60
   5   1  -3   66.29   15.20
   4  -1  -3  432.96   48.30
   4  -1  -3  391.36   41.50
  -4  -1   3  436.56   42.00
   4  -1  -3  361.26   44.70
  -4  -1   3  469.05   47.70
   4  -1  -3  394.26   53.49
   4   1  -3  350.26   40.50
  -4   1   3  345.07   36.50
   4   1  -3  272.87   44.60
  -4   1   3  313.87   40.10
   4   1  -3  398.16   37.70
   4   1  -3  310.57   33.50
   4   1  -3  314.57   33.20
   3  -1  -3 1047.60   79.79
   3  -1  -3  999.20   91.99
  -3  -1   3 1002.20   77.39
   3  -1  -3 1040.70   81.69
  -3  -1   3  906.71   82.89
  -3   1   3 1163.28   83.19
   3   1  -3  905.31   93.79
   3   1  -3 1052.49   86.29
   3   1  -3 1118.09   85.19
  -3   1   3 1149.29   90.69
   2  -1  -3  330.57   30.90
  -2  -1   3  264.27   24.70
  -2  -1   3  243.18   30.00
   2  -1  -3  270.97   37.80
   2   1  -3  560.54   46.40
  -2   1   3  347.37   33.50
  -2   1   3  480.55   47.00
   2   1  -3  444.46   41.30
   2   1  -3  320.57   45.90
   2   1  -3  419.06   39.20
   1  -1  -3 1232.48  107.09
   1  -1  -3 1703.53  110.79
  -1  -1   3 1499.45  102.29
  -1  -1   3 1585.04  107.09
  -1  -1   3 1303.67  112.89
   1  -1  -3 1680.43  119.39
   1   1  -3 1171.38   95.29
   1   1  -3 1296.47   96.29
   1   1  -3 1413.56   96.09
  -1   1   3 1324.67   90.69
  -1   1   3 1146.09  103.69
   1   1  -3 1488.25  112.09
   0  -1   3 4355.46  304.57
   0  -1   3 4351.66  298.47
   0  -1   3 4715.83  301.27
   0  -1   3 4479.55  313.57
   0  -1  -3 4377.96  299.57
   0  -1  -3 4794.62  309.37
   0  -1  -3 4790.72  304.47
   0  -1  -3 4154.98  301.37
   0   1  -3 3979.40  278.67
   0   1   3 3999.10  268.17
   0   1  -3 3881.31  270.17
   0   1   3 3901.71  284.17
   0   1   3 4077.59  275.67
   0   1  -3 4379.16  273.37
   0   1  -3 3993.30  270.77
   1  -1   3  997.60   79.79
  -1  -1  -3  875.31   73.59
  -1  -1  -3  837.12   75.89
   1  -1   3  988.10   83.29
   1  -1   3  923.71   64.99
  -1  -1  -3  949.21   67.19
  -1  -1  -3  968.30   71.39
  -1  -1  -3  973.00   68.09
   1   1   3  983.80   83.49
  -1   1  -3  852.31   75.19
  -1   1  -3 1020.00   68.99
  -1   1  -3  996.70   73.69
  -1   1  -3  831.52   75.89
   1   1   3 1007.90   79.99
   2  -1   3    5.90   15.90
  -2  -1  -3   28.10   14.00
  -2  -1  -3   17.90   15.40
  -2  -1  -3   32.20   15.30
   2  -1   3   30.70   17.70
  -2  -1  -3   33.40   10.40
   2  -1   3   -3.80   10.20
  -2  -1  -3   16.10   12.60
  -2   1  -3   13.40   14.70
  -2   1  -3   27.80   13.70
  -2   1  -3    9.10   12.00
   2   1   3   -6.20    9.80
   2   1   3   10.80   15.80
  -2   1  -3   25.80    9.40
   2   1   3   19.00   16.00
  -2   1  -3   18.20   14.80
   3  -1   3  414.36   40.10
  -3  -1  -3  306.97   48.50
   3  -1   3  396.46   36.00
   3  -1   3  339.57   30.10
   3  -1   3  383.56   34.20
   3  -1   3  354.16   43.30
   3  -1   3  362.56   34.30
  -3  -1  -3  437.16   41.30
  -3  -1  -3  464.45   51.39
  -3   1  -3  259.17   47.40
   3   1   3  238.48   39.90
   3   1   3  315.57   45.00
   3   1   3  301.77   28.50
   3   1   3  294.27   33.90
   3   1   3  251.27   26.70
  -3   1  -3  344.27   36.40
   3   1   3  361.76   35.00
  -3   1  -3  319.27   44.60
   3   1   3  326.57   30.00
  -3   1  -3  277.87   48.70
   4  -1   3  168.48   24.10
   4  -1   3  149.29   18.70
   4  -1   3  151.18   15.40
   4  -1   3  208.28   28.50
   4  -1   3  110.59   18.90
   4  -1   3  151.88   16.90
   4  -1   3  142.09   25.60
   4   1   3  102.39   17.70
   4   1   3  157.68   14.90
   4   1   3  130.19   18.00
   4   1   3  130.89   24.40
   4   1   3  125.89   13.50
   4   1   3  143.09   21.80
   4   1   3  146.09   24.80
   5  -1   3   -0.60    3.50
   5  -1   3   -0.70    4.50
   5  -1   3    7.70    8.10
  -5  -1  -3    5.30    3.60
   5  -1   3   -4.50    3.60
   5  -1   3   -6.30    6.30
  -5   1  -3    2.60    3.50
   5   1   3   12.30    7.90
   5   1   3   -3.90    3.40
   5   1   3   -4.90    5.90
   5   1   3   -0.60    4.80
   5   1   3   -0.20    3.40
   6  -2  -3    9.70    5.10
   6  -2  -3    9.10    4.50
   6  -2  -3   12.80    7.30
   6  -2  -3    9.20    5.40
   6   2  -3    6.90    4.20
   6   2  -3    9.00    5.50
   6   2  -3    8.90    5.50
   6   2  -3   11.30    7.20
   6   2  -3    5.10    3.10
   5  -2  -3   61.99   14.10
   5  -2  -3   63.29    9.90
   5  -2  -3   74.29   16.10
   5  -2  -3   54.69   12.60
   5  -2  -3   50.79    9.10
   5   2  -3   76.49   14.40
   5   2  -3   68.89   16.40
   5   2  -3   94.29   18.50
   5   2  -3   91.89   17.20
   5   2  -3   84.89   11.80
   5   2  -3   88.59   11.30
   4  -2  -3  298.17   38.80
   4  -2  -3  290.07   44.90
  -4  -2   3  325.07   37.60
   4  -2  -3  265.37   30.20
  -4  -2   3  294.77   34.30
   4  -2  -3  246.78   33.20
   4  -2  -3  259.17   37.80
   4   2  -3  270.67   30.00
   4   2  -3  260.07   34.40
   4   2  -3  212.88   26.60
  -4   2   3  233.28   36.10
  -4   2   3  240.68   32.20
   4   2  -3  249.18   21.80
   4   2  -3  192.38   44.10
   4   2  -3  242.18   27.90
  -3  -2   3   54.19   13.60
   3  -2  -3   58.09   21.30
   3  -2  -3   48.80   13.70
  -3  -2   3   19.00   12.20
   3  -2  -3   23.80   12.60
  -3   2   3   31.30    8.60
   3   2  -3   50.59   14.90
   3   2  -3   54.29   21.60
  -3   2   3   48.60   14.10
  -3   2   3   28.10   15.90
   3   2  -3   14.10   11.80
  -2  -2   3 1665.73  110.39
  -2  -2   3 1526.15  114.29
  -2  -2   3 1498.75  103.39
   2  -2  -3 1418.66  107.99
   2  -2  -3 1382.86  113.99
   2  -2  -3 1502.55  109.79
   2  -2  -3 1600.14  121.59
  -2   2   3 1901.41  125.99
  -2   2   3 1788.02  118.89
   2   2  -3 1532.15  125.89
   2   2  -3 1840.62  125.19
   2   2  -3 1657.23  137.19
  -2   2   3 1713.93  130.79
  -1  -2   3 2491.85  181.78
   1  -2  -3 2570.74  178.78
  -1  -2   3 2611.44  171.78
   1  -2  -3 2459.15  173.28
   1  -2  -3 2681.43  180.38
  -1  -2   3 2478.35  175.88
   1  -2  -3 2557.84  185.48
  -1   2   3 2819.12  207.98
   1   2  -3 3042.50  200.08
  -1   2   3 2810.82  193.28
   1   2  -3 2921.71  201.78
   1   2  -3 2910.41  214.88
   1   2  -3 2723.03  196.98
   0  -2   3  470.75   42.80
   0  -2   3  407.76   45.90
   0  -2   3  587.44   55.09
   0  -2   3  555.34   40.50
   0  -2  -3  547.15   46.30
   0  -2  -3  655.53   50.69
   0  -2  -3  482.65   41.60
   0  -2  -3  628.64   44.20
   0   2  -3  584.24   42.50
   0   2  -3  542.05   41.90
   0   2  -3  609.24   45.20
   0   2  -3  444.66   47.40
   0   2   3  584.74   59.29
   0   2   3  440.86   39.20
   0   2   3  405.96   45.90
  -1  -2  -3  378.06   33.10
  -1  -2  -3  386.16   29.40
   1  -2   3  400.86   43.70
  -1  -2  -3  340.67   39.20
   1  -2   3  361.26   44.60
  -1  -2  -3  381.06   31.10
  -1  -2  -3  334.77   34.90
   1  -2   3  379.46   29.90
  -1  -2  -3  266.87   40.40
   1  -2   3  362.66   27.70
  -1   2  -3  540.85   47.70
  -1   2  -3  574.54   43.50
   1   2   3  541.55   42.20
  -1   2  -3  530.75   50.69
  -1   2  -3  561.84   50.89
   1   2   3  539.05   56.29
   1   2   3  618.74   54.69
   2  -2   3  727.43   58.79
  -2  -2  -3  633.44   67.19
   2  -2   3  908.91   78.59
  -2  -2  -3  862.31   67.19
  -2  -2  -3  849.52   60.19
   2  -2   3  786.42   73.39
  -2  -2  -3  694.43   66.59
  -2  -2  -3  695.83   73.59
  -2   2  -3  604.64   69.39
  -2   2  -3  681.13   52.19
   2   2   3  688.23   66.59
  -2   2  -3  534.05   57.49
  -2   2  -3  576.24   61.59
   2   2   3  615.64   61.59
   2   2   3  661.03   50.79
  -2   2  -3  679.43   59.29
   3  -2   3  254.47   28.00
   3  -2   3  311.87   30.80
  -3  -2  -3  305.37   27.80
   3  -2   3  324.97   35.20
   3  -2   3  275.27   39.80
   3  -2   3  301.17   24.40
   3  -2   3  286.87   29.30
   3  -2   3  298.47   25.30
   3   2   3  315.37   28.60
  -3   2  -3  216.58   56.99
   3   2   3  288.97   34.20
   3   2   3  344.17   41.10
   3   2   3  266.77   26.40
   3   2   3  331.27   29.70
   3   2   3  292.57   25.70
  -3   2  -3  312.67   49.70
  -4  -2  -3   52.89   11.50
   4  -2   3   21.70   12.00
   4  -2   3    2.20   13.20
   4  -2   3   26.70   14.40
   4  -2   3   19.00    9.40
   4  -2   3   15.10    8.80
   4  -2   3   22.40    7.00
   4  -2   3   23.30    8.90
   4   2   3   32.00    8.40
   4   2   3   53.09   12.50
   4   2   3   47.10   11.50
   4   2   3   70.09   15.10
   4   2   3   58.19    9.10
   4   2   3   33.20   16.50
   5  -2   3   16.10    8.30
   5  -2   3   29.40    9.30
  -5  -2  -3   34.00    6.20
   5  -2   3   24.20    4.90
   5  -2   3   24.50    5.60
   5  -2   3   27.10    6.50
  -5   2  -3   49.50    6.60
   5   2   3   54.79   11.50
   5   2   3   42.70    5.70
   5   2   3   33.70   10.00
   5   2   3   47.60    7.50
   6  -3  -3  141.19   15.30
   6  -3  -3  109.19   12.70
   6  -3  -3  105.09   11.50
   6  -3  -3  103.49   11.10
   6   3  -3  159.48   14.00
   6   3  -3  188.68   15.40
   6   3  -3  181.98   18.10
   6   3  -3  158.78   16.80
   6   3  -3  179.88   19.20
   5  -3  -3   71.39   10.60
   5  -3  -3   64.19   13.10
   5  -3  -3   64.79   15.50
   5  -3  -3   47.80   12.70
   5   3  -3  109.29   19.20
   5   3  -3  109.99   18.60
   5   3  -3  113.69   12.90
   5   3  -3  102.79   19.20
   5   3  -3   96.29   11.90
   5   3  -3  107.79   13.60
   4  -3  -3   97.49   29.60
   4  -3  -3   70.49   17.30
   4  -3  -3   97.59   18.60
   4  -3  -3   68.29   15.90
   4   3  -3   84.09   18.20
   4   3  -3   76.79   17.30
   4   3  -3   51.69   11.20
   4   3  -3  108.89   20.80
   4   3  -3   50.09   18.80
   4   3  -3   75.39   11.60
  -4   3   3   47.70   16.10
   4   3  -3   60.49    9.30
  -4   3   3   50.59   18.50
   3  -3  -3 1075.79   91.29
  -3  -3   3 1258.37   91.19
   3  -3  -3 1227.58   94.79
   3  -3  -3 1220.88  106.59
  -3  -3   3 1269.87   97.19
  -3   3   3 1155.28   96.19
   3   3  -3 1248.78  100.59
   3   3  -3 1265.17  112.99
  -3   3   3 1229.58   89.69
   3   3  -3 1486.45  100.39
  -2  -3   3 1367.46   97.59
  -2  -3   3 1215.48   86.29
   2  -3  -3 1233.48  103.19
   2  -3  -3 1137.79   91.89
   2  -3  -3 1297.27   91.29
   2  -3  -3 1239.78   97.89
  -2  -3   3 1223.28   92.39
  -2   3   3 1172.98   92.19
   2   3  -3 1154.78   89.49
   2   3  -3 1164.58   85.39
  -2   3   3 1105.29   79.09
   2   3  -3  989.50   96.59
   1  -3  -3  229.38   22.90
   1  -3  -3  235.98   31.30
  -1  -3   3  250.77   27.10
  -1  -3   3  178.68   20.00
   1  -3  -3  244.88   30.90
   1   3  -3  119.49   20.50
  -1   3   3  104.99   26.10
   1   3  -3  173.28   21.40
   1   3  -3  226.98   38.40
  -1   3   3  191.18   22.20
  -1   3   3  149.59   16.30
   1   3  -3  103.09   22.50
   0  -3  -3 1325.77   90.19
   0  -3   3 1346.37  103.79
   0  -3   3 1183.18   94.19
   0  -3   3 1274.47   88.79
   0  -3  -3 1211.18   91.79
   0  -3  -3 1377.96   95.39
   0  -3  -3 1383.86   98.09
   0  -3   3 1246.08   90.89
   0   3  -3 1898.31  118.69
   0   3   3 1530.85  120.59
   0   3   3 1617.74  130.09
   0   3   3 1622.44  112.79
   0   3  -3 1614.34  123.89
   0   3  -3 1603.84  116.19
   1  -3   3  716.53   68.19
   1  -3   3  769.22   56.79
  -1  -3  -3  835.62   59.19
  -1  -3  -3  701.03   65.99
   1  -3   3  843.42   73.39
   1  -3   3  774.02   54.99
   1   3   3  925.51   79.99
   1   3   3  982.40   83.79
  -1   3  -3  853.91   76.99
  -1   3  -3 1032.00   76.89
  -1   3  -3 1005.00   74.89
   1   3   3  906.61   67.89
  -1   3  -3  999.20   69.69
  -2  -3  -3   80.49   13.30
  -2  -3  -3   71.59   22.90
   2  -3   3   85.69   25.60
   2  -3   3   67.89   14.10
   2  -3   3   56.99   23.20
  -2  -3  -3   72.99   19.90
  -2   3  -3   47.50   19.60
   2   3   3   43.70   17.40
   2   3   3   41.30   11.30
  -2   3  -3   68.59   18.40
  -2   3  -3   57.89   12.90
  -2   3  -3   39.00   21.60
   2   3   3   53.49   19.00
  -2   3  -3   61.99   19.60
   3  -3   3   95.59   22.00
   3  -3   3   83.69   23.10
   3  -3   3   73.09   14.60
   3  -3   3   83.79   11.70
   3  -3   3   93.69   16.20
  -3  -3  -3  100.09   16.70
   3  -3   3   99.29   19.10
   3  -3   3   94.69   13.30
   3   3   3  120.49   22.20
   3   3   3  105.29   25.70
   3   3   3  135.49   17.50
   3   3   3  123.99   14.60
   3   3   3  137.09   16.80
   3   3   3  114.29   15.30
   4  -3   3   92.99   21.30
   4  -3   3  118.39   15.00
   4  -3   3   94.29   19.30
   4  -3   3   68.39   14.80
   4  -3   3  121.09   22.40
   4  -3   3  125.79   16.50
  -4  -3  -3  164.98   19.30
   4  -3   3  108.09   12.60
   4   3   3  129.49   19.40
   4   3   3   71.79   20.60
   4   3   3  131.89   17.60
   4   3   3  140.89   17.20
   4   3   3  112.09   12.60
   5  -3   3   24.20    5.20
  -5  -3  -3   32.60    5.90
   5  -3   3   31.10    6.40
   5  -3   3   15.80    8.50
   5  -3   3   22.00    8.50
   5  -3   3   20.70    5.50
   5   3   3   35.10    9.40
  -5   3  -3   25.90    5.30
   5   3   3   13.90    4.80
   5   3   3    8.60    7.80
   5   3   3   12.40    3.90
   6  -4  -3   46.80    8.80
   6  -4  -3   46.20    9.70
   6  -4  -3   75.39   12.40
   6   4  -3   61.49   11.00
   6   4  -3   65.49    8.20
   6   4  -3   80.39    9.30
   6   4  -3   77.09   12.10
   6   4  -3   58.99    7.60
   6   4  -3   83.29   13.80
   5  -4  -3  112.59   13.40
   5  -4  -3   93.89   16.30
   5  -4  -3  134.09   20.90
   5  -4  -3  102.49   16.20
   5   4  -3  155.78   15.60
   5   4  -3  155.38   21.60
   5   4  -3  180.78   16.30
   5   4  -3  168.78   15.50
   5   4  -3  165.38   20.90
   5   4  -3  165.98   23.50
   5   4  -3  186.48   17.10
   4  -4  -3  197.68   23.70
   4  -4  -3  219.88   48.50
   4  -4  -3  167.48   24.80
   4  -4  -3  167.18   17.50
   4  -4  -3  180.98   22.40
   4   4  -3  421.96   31.60
   4   4  -3  432.56   40.20
  -4   4   3  368.06   44.90
   4   4  -3  370.96   37.80
   4   4  -3  370.96   38.40
   4   4  -3  431.96   32.90
   4   4  -3  425.56   32.50
  -3  -4   3  249.97   28.30
   3  -4  -3  247.48   37.50
  -3  -4   3  166.08   28.00
   3  -4  -3  208.68   27.80
   3   4  -3  202.38   29.10
   3   4  -3  269.67   47.00
  -3   4   3  195.38   22.00
   3   4  -3  250.77   29.80
  -3   4   3  253.97   31.60
   2  -4  -3 1001.60   80.29
   2  -4  -3  847.32   64.49
  -2  -4   3  788.62   60.29
  -2  -4   3  834.62   70.69
   2  -4  -3  843.22   66.89
  -2  -4   3  939.51   68.29
   2  -4  -3  764.22   71.19
   2   4  -3  770.82   76.29
  -2   4   3  782.42   71.49
  -2   4   3  784.52   56.99
   2   4  -3  695.33   66.79
   2   4  -3  831.82   63.09
   1  -4  -3 1277.37   92.49
   1  -4  -3 1322.87   98.39
  -1  -4   3 1284.17   99.89
  -1  -4   3 1323.97   95.29
   1  -4  -3 1326.07   99.69
  -1  -4   3 1307.97   90.39
   1  -4  -3 1323.67  101.89
   1   4  -3 1268.97  106.49
  -1   4   3 1210.28   87.89
   1   4  -3 1212.98   86.49
   1   4  -3 1087.49   95.09
  -1   4   3 1085.09   97.19
  -1   4   3 1216.18   83.09
   0  -4   3  145.69   16.10
   0  -4   3  170.48   19.30
   0  -4   3  165.78   23.50
   0  -4  -3  178.58   23.60
   0  -4   3  157.28   29.50
   0  -4  -3  158.98   18.90
   0  -4  -3  194.68   18.60
   0  -4  -3  202.18   24.50
   0   4   3  169.78   25.60
   0   4   3  113.39   28.60
   0   4  -3  209.58   23.30
   0   4  -3  159.08   14.00
   0   4  -3  174.68   26.50
   0   4   3  126.19   16.10
   0   4  -3  136.19   19.30
   1  -4   3 1018.60   76.79
   1  -4   3  917.01   80.49
   1  -4   3  894.81   61.29
  -1  -4  -3  817.52   64.79
   1  -4   3  838.42   63.09
  -1  -4  -3  785.62   72.19
  -1   4  -3  619.24   49.10
  -1   4  -3  593.34   52.79
  -1   4  -3  676.13   57.59
   1   4   3  639.94   47.40
  -1   4  -3  521.25   62.89
   1   4   3  717.73   59.59
  -1   4  -3  752.32   55.49
   1   4   3  590.34   62.39
  -2  -4  -3  622.94   66.89
   2  -4   3  837.82   75.59
   2  -4   3  676.73   53.09
  -2  -4  -3  626.44   51.99
   2  -4   3  728.03   68.49
  -2  -4  -3  593.14   59.99
   2   4   3  584.14   59.29
   2   4   3  623.74   45.50
   2   4   3  557.94   55.89
  -2   4  -3  571.44   58.39
  -2   4  -3  602.34   47.40
  -2   4  -3  436.06   62.89
  -2   4  -3  587.74   54.39
  -2   4  -3  413.16   52.29
   3  -4   3   50.99   18.50
   3  -4   3   47.10   16.80
   3  -4   3   31.40   10.40
   3  -4   3   49.20   10.70
   3  -4   3   49.60   14.20
  -3  -4  -3   62.59   13.20
   3  -4   3   34.90   11.30
   3  -4   3   43.30    8.90
   3   4   3   38.30   10.40
   3   4   3   28.30    7.90
   3   4   3   50.19   16.50
   3   4   3   26.50   14.80
   3   4   3   45.70   11.90
   4  -4   3   92.29   13.50
  -4  -4  -3  124.99   16.20
   4  -4   3  100.49   14.40
   4  -4   3   73.89   17.70
   4  -4   3   76.39   18.70
   4  -4   3   49.99   12.60
   4  -4   3  114.89   21.70
   4  -4   3   81.89   11.20
   4   4   3   93.79   14.60
   4   4   3  104.49   11.80
   4   4   3  121.49   18.60
   4   4   3  109.79   17.30
   4   4   3  111.99   24.00
  -5  -4  -3   36.30    5.50
   5  -4   3   27.60    5.70
  -5  -4  -3   39.40    6.20
   5  -4   3   26.90    5.40
   5  -4   3   13.90    8.10
   5  -4   3   17.00    8.00
   5  -4   3   29.00    6.50
   5   4   3   31.80    4.60
   5   4   3   40.50    9.30
   5   4   3   34.10    6.30
   5   4   3   23.90    8.60
   6  -5  -3    8.90    5.00
   6  -5  -3   17.60    7.30
   6   5  -3    3.00    3.10
   6   5  -3   14.00    4.40
   6   5  -3   13.20    6.70
   6   5  -3   12.10    6.20
   6   5  -3    5.60    6.60
   6   5  -3   13.70    4.50
   5  -5  -3   26.00   10.40
   5  -5  -3   23.70    8.50
   5  -5  -3   20.30    9.20
   5   5  -3   50.69   14.10
   5   5  -3   43.30    8.60
   5   5  -3   58.09   13.60
   5   5  -3   35.30   11.80
   5   5  -3   57.29    8.50
   5   5  -3   49.80    8.50
   5   5  -3   44.70    7.60
   4  -5  -3  119.69   19.30
   4  -5  -3   91.99   18.50
   4  -5  -3  121.99   21.20
   4   5  -3  185.98   18.10
   4   5  -3  189.18   17.40
   4   5  -3  165.18   24.90
   4   5  -3  168.98   19.10
   4   5  -3  151.48   25.60
   4   5  -3  180.78   23.70
   4   5  -3  146.49   15.80
  -3  -5   3  762.72   64.39
   3  -5  -3  683.33   64.99
   3  -5  -3  689.43   59.19
   3  -5  -3  730.93   73.19
  -3  -5   3  708.43   58.49
   3   5  -3  654.33   51.59
   3   5  -3  521.75   52.19
   3   5  -3  524.85   62.79
  -3   5   3  492.45   49.60
  -3   5   3  450.15   41.30
  -2  -5   3   68.79   15.70
   2  -5  -3   64.19   21.00
   2  -5  -3   65.89   13.00
  -2  -5   3   56.49    9.40
  -2  -5   3   74.69   17.10
   2  -5  -3   60.79   17.80
   2  -5  -3   66.79   14.30
   2   5  -3  240.78   43.10
  -2   5   3  244.58   36.20
   2   5  -3  270.87   28.60
  -2   5   3  265.77   25.00
   2   5  -3  277.27   35.40
  -2   5   3  273.87   27.60
   2   5  -3  242.88   21.70
  -1  -5   3  181.38   27.60
  -1  -5   3  255.77   21.70
   1  -5  -3  211.48   26.90
  -1  -5   3  301.17   27.70
   1  -5  -3  293.37   32.50
   1  -5  -3  258.17   30.00
  -1  -5   3  202.98   26.20
   1  -5  -3  284.77   24.40
   1   5  -3  220.18   19.70
  -1   5   3  158.78   32.30
   1   5  -3  243.68   24.60
   1   5  -3  127.79   29.10
   1   5  -3  273.27   41.80
  -1   5   3  221.48   21.30
  -1   5   3  252.17   26.60
   0  -5   3  451.85   33.00
   0  -5  -3  454.35   34.30
   0  -5   3  397.06   34.90
   0  -5  -3  457.35   39.00
   0  -5   3  427.06   39.50
   0  -5  -3  397.46   35.90
   0  -5   3  423.16   47.10
   0   5  -3  917.51   76.49
   0   5  -3  872.71   61.69
   0   5  -3  880.11   68.79
   0   5   3  921.21   73.59
   0   5   3  797.12   79.49
   0   5   3  908.51   63.49
   1  -5   3 1539.55  119.09
   1  -5   3 1422.16  100.59
  -1  -5  -3 1147.79  108.29
   1  -5   3 1473.45   98.39
  -1  -5  -3 1471.45  102.89
   1  -5   3 1565.44  113.89
   1   5   3 1236.78  103.99
  -1   5  -3 1353.86   93.39
   1   5   3 1246.68   87.79
  -1   5  -3 1225.48  105.89
  -1   5  -3 1177.58   92.99
   1   5   3 1307.57  100.29
   2  -5   3   41.60   12.20
   2  -5   3   67.99   24.30
   2  -5   3   50.69   23.10
  -2  -5  -3   44.80   16.00
  -2  -5  -3   60.19   12.20
  -2  -5  -3   47.60   19.50
   2   5   3   59.59   11.90
  -2   5  -3   43.30   25.00
  -2   5  -3   57.19   19.70
  -2   5  -3   53.89   17.10
   2   5   3   47.10   16.20
  -2   5  -3   58.09   13.20
   3  -5   3  165.88   16.60
   3  -5   3  146.89   18.10
   3  -5   3  154.58   20.30
   3  -5   3  163.58   28.10
   3  -5   3  128.79   22.10
   3  -5   3  130.89   25.20
  -3  -5  -3  155.88   18.20
   3   5   3  220.78   29.80
   3   5   3  194.98   19.70
   3   5   3  222.18   23.10
   3   5   3  214.58   22.30
   3   5   3  183.58   30.00
   4  -5   3  157.48   18.40
   4  -5   3  153.38   24.80
   4  -5   3  147.79   15.80
   4  -5   3  122.89   22.80
   4  -5   3  164.38   18.50
   4  -5   3   91.49   20.10
  -4  -5  -3  154.18   16.20
   4   5   3  153.38   19.00
   4   5   3  130.79   16.30
   4   5   3  102.09   22.10
   4   5   3  130.19   17.30
   4   5   3  107.79   12.60
   5  -5   3    6.60    6.80
  -5  -5  -3   11.50    3.70
  -5  -5  -3   13.60    3.70
   5  -5   3    9.10    4.50
   5  -5   3    7.40    3.70
   5  -5   3    2.90    6.10
   5  -5   3    7.60    4.00
   5   5   3    7.70    6.30
   5   5   3    1.80    2.50
   5   5   3    0.30    5.50
   5   5   3    0.70    3.10
   6   6  -3    6.00    4.00
   6   6  -3    4.00    5.10
   6   6  -3    2.40    3.40
   6   6  -3    7.00    6.60
   6   6  -3    1.70    5.40
   6   6  -3    3.00    3.00
   5  -6  -3  157.68   19.80
   5  -6  -3  121.49   15.90
   5   6  -3  170.48   21.80
   5   6  -3  172.88   23.70
   5   6  -3  170.08   20.70
   5   6  -3  191.88   16.40
   5   6  -3  171.58   15.70
   5   6  -3  172.58   16.30
   5   6  -3  165.38   16.50
   4   6  -3  316.47   34.20
   4   6  -3  334.87   35.70
   4   6  -3  360.36   28.40
   4   6  -3  387.56   29.30
   4   6  -3  366.86   36.20
   4   6  -3  363.56   28.70
   4   6  -3  360.26   29.60
   3  -6  -3   69.99   32.10
   3  -6  -3   87.29   17.00
  -3  -6   3   88.29   17.70
   3  -6  -3  110.69   23.40
  -3  -6   3  101.19   20.40
  -3   6   3   49.90   17.60
   3   6  -3   89.89   29.40
   3   6  -3   92.39   21.30
  -3   6   3   79.09   12.90
   2  -6  -3  313.97   39.00
  -2  -6   3  402.26   35.50
   2  -6  -3  345.97   31.60
   2  -6  -3  428.06   44.40
   2  -6  -3  319.87   32.60
  -2  -6   3  329.07   36.50
  -2  -6   3  309.97   27.30
   2   6  -3  331.47   32.90
  -2   6   3  351.76   33.10
   2   6  -3  321.97   40.90
  -2   6   3  320.67   42.60
   2   6  -3  298.77   45.20
  -2   6   3  330.27   28.70
   2   6  -3  296.87   26.60
  -1  -6   3 1122.89   80.39
  -1  -6   3 1062.59   73.49
  -1  -6   3 1045.80   83.39
  -1  -6   3  956.90   77.39
   1  -6  -3 1028.00   81.99
   1  -6  -3 1022.50   75.99
   1  -6  -3 1083.09   81.89
   1   6  -3 1295.97  100.59
   1   6  -3 1541.45  103.99
  -1   6   3 1416.66  107.39
  -1   6   3 1581.04  120.49
   1   6  -3 1423.96  122.49
   0  -6   3  562.24   56.99
   0  -6   3  531.85   49.10
   0  -6  -3  616.64   48.90
   0  -6   3  532.55   44.30
   0  -6  -3  601.14   46.60
   0  -6  -3  579.84   44.10
   0  -6   3  597.34   42.60
   0   6  -3  746.03   55.39
   0   6   3  768.62   67.29
   0   6  -3  772.72   62.99
   0   6   3  804.32   74.99
   0   6  -3  750.92   69.89
   0   6   3  701.93   56.49
   0   6  -3  906.31   60.69
   1  -6   3   40.70   20.00
  -1  -6  -3   25.70   13.50
  -1  -6  -3   38.30    8.80
   1  -6   3   36.40   16.60
   1  -6   3   35.30    7.40
  -1  -6  -3   36.40   10.30
  -1   6  -3   81.99   11.10
   1   6   3   74.79   11.70
  -1   6  -3   97.79   16.80
  -1   6  -3   81.29   22.90
   1   6   3   84.19   21.40
   1   6   3   90.89   24.60
   2  -6   3  556.54   60.59
   2  -6   3  398.16   52.09
  -2  -6  -3  454.15   38.10
  -2  -6  -3  349.87   43.80
   2  -6   3  395.06   37.80
  -2   6  -3  606.74   54.49
   2   6   3  598.34   44.50
  -2   6  -3  496.15   56.79
  -2   6  -3  609.84   47.40
   2   6   3  426.36   51.29
   3  -6   3  179.28   17.90
   3  -6   3  150.38   26.00
   3  -6   3  152.38   19.10
  -3  -6  -3  167.38   18.70
   3  -6   3  107.29   21.90
   3  -6   3  165.08   28.70
   3  -6   3  180.88   20.70
   3   6   3  182.38   27.50
   3   6   3  216.88   22.30
   3   6   3  288.77   41.80
   3   6   3  206.28   30.30
   3   6   3  176.78   18.80
   4  -6   3   12.30   11.80
   4  -6   3   12.00    8.40
   4  -6   3    1.40    6.50
   4  -6   3    7.30   11.20
  -4  -6  -3    5.20    6.10
   4  -6   3    6.70    6.30
   4  -6   3    2.40   10.20
   4   6   3    5.70    8.20
   4   6   3    1.10    4.70
   4   6   3    3.90    6.50
   4   6   3    0.60    4.00
   4   6   3   -2.10    9.80
  -5  -6  -3   21.90    4.40
   5  -6   3   16.20    4.30
   5  -6   3   11.00    6.90
   5  -6   3   19.60    5.50
  -5  -6  -3   23.50    4.20
   5  -6   3   15.00    4.50
   5  -6   3   10.70    7.30
   5   6   3   16.30    7.00
   5   6   3   18.80    6.80
   5   6   3   20.90    4.70
   5   6   3   18.90    3.60
   6   7  -3   95.99   13.00
   6   7  -3   76.69   13.00
   6   7  -3  105.79   12.40
   6   7  -3   98.79   10.10
   6   7  -3  110.59   10.10
   5   7  -3   24.60   10.70
   5   7  -3   35.60   10.40
   5   7  -3   22.20    6.70
   5   7  -3   27.80    5.90
   5   7  -3   20.10   10.30
   5   7  -3   22.70    6.60
   5   7  -3   34.80    6.70
   4   7  -3  178.48   26.20
   4   7  -3  162.38   26.10
   4   7  -3  176.78   16.70
   4   7  -3  185.28   18.70
   4   7  -3  165.38   18.30
   4   7  -3  149.29   21.00
   4   7  -3  151.28   15.60
  -3  -7   3  646.04   58.69
  -3  -7   3  625.74   53.39
   3  -7  -3  611.04   60.39
  -3  -7   3  622.44   53.29
   3  -7  -3  651.73   54.19
  -3   7   3  563.24   45.30
   3   7  -3  536.55   56.39
   3   7  -3  576.24   66.89
  -2  -7   3  247.48   30.30
  -2  -7   3  314.57   33.30
   2  -7  -3  241.88   26.10
   2  -7  -3  268.27   27.80
  -2  -7   3  247.88   22.40
   2  -7  -3  278.57   36.40
   2   7  -3  291.97   27.20
  -2   7   3  390.86   45.90
   2   7  -3  319.07   32.50
   2   7  -3  351.76   43.30
  -2   7   3  311.77   33.10
   2   7  -3  283.57   45.30
  -1  -7   3  587.14   47.30
  -1  -7   3  510.75   47.40
   1  -7  -3  529.25   50.29
   1  -7  -3  675.43   46.00
   1  -7  -3  621.44   50.19
  -1  -7   3  509.65   51.79
  -1  -7   3  618.54   42.90
   1  -7  -3  568.64   41.60
   1   7  -3  692.53   49.20
  -1   7   3  647.54   65.19
   1   7  -3  621.74   66.49
   1   7  -3  501.35   46.40
  -1   7   3  702.23   55.09
   1   7  -3  463.65   59.69
   0  -7  -3  643.94   48.00
   0  -7   3  617.94   52.99
   0  -7  -3  638.84   50.89
   0  -7   3  644.64   62.89
   0  -7   3  651.73   46.50
   0  -7   3  600.94   48.00
   0  -7  -3  645.34   52.59
   0   7   3  490.15   37.40
   0   7  -3  500.35   36.50
   0   7  -3  431.26   43.30
   0   7   3  447.56   53.09
   0   7  -3  487.55   51.39
   0   7   3  506.35   48.50
   1  -7   3  259.17   35.60
  -1  -7  -3  266.27   35.70
   1  -7   3  291.67   23.70
   1  -7   3  302.57   43.40
  -1  -7  -3  278.97   27.70
  -1  -7  -3  256.07   24.30
   1   7   3  277.57   24.10
  -1   7  -3  280.47   29.30
  -1   7  -3  238.98   34.60
  -1   7  -3  252.77   23.70
   1   7   3  318.07   41.40
   1   7   3  271.07   35.40
  -2  -7  -3   81.89   22.00
   2  -7   3  108.79   30.00
  -2  -7  -3   98.99   16.50
   2  -7   3  130.79   32.70
  -2   7  -3  100.79   21.80
   2   7   3  122.59   25.30
   2   7   3  118.79   16.40
  -2   7  -3  101.89   33.10
   3  -7   3  247.48   34.00
   3  -7   3  210.68   24.50
  -3  -7  -3  226.38   22.80
  -3  -7  -3  236.98   18.70
   3  -7   3  217.48   31.70
   3  -7   3  231.18   21.60
   3  -7   3  221.88   22.90
   3   7   3  233.28   30.90
   3   7   3  268.27   30.70
   3   7   3  248.98   24.90
   3   7   3  223.88   21.40
   4  -7   3   49.70   15.80
   4  -7   3   56.49   10.10
   4  -7   3   47.50   10.20
   4  -7   3   42.60   15.20
   4  -7   3   26.60   13.00
  -4  -7  -3   56.19   11.00
   4  -7   3   46.60   11.20
   4   7   3   65.29   16.60
   4   7   3   77.69   13.50
   4   7   3   64.89    8.60
   4   7   3   57.89   10.20
   5  -7   3    1.40    3.50
   5  -7   3    1.40    3.00
  -5  -7  -3    2.80    2.00
  -5  -7  -3    3.20    2.70
   5  -7   3   -1.00    6.20
   5  -7   3    1.70    4.10
   5   7   3    1.90    5.00
   5   7   3    3.10    3.10
  -6  -8   3    6.70    3.40
   6   8  -3    8.30    4.00
   6   8  -3    6.00    3.30
   6   8  -3    5.60    5.10
   6   8  -3    8.50    5.70
   6   8  -3    8.20    6.20
   5   8  -3  134.29   13.80
   5   8  -3  148.19   21.80
   5   8  -3  137.09   20.50
   5   8  -3  135.69   17.60
   5   8  -3  135.19   14.10
   5   8  -3  144.99   15.40
   4   8  -3  177.98   17.50
   4   8  -3  173.98   22.10
   4   8  -3  174.38   23.10
   4   8  -3  188.88   17.10
   4   8  -3  127.69   24.30
   4   8  -3  180.48   18.10
   4   8  -3  198.58   19.50
  -3  -8   3   13.20   10.50
  -3  -8   3   22.90   11.60
  -3  -8   3   28.50   11.00
   3  -8  -3    8.50   11.90
   3   8  -3   12.10   12.70
   3   8  -3   23.90   19.90
  -3   8   3   15.80    9.50
   2  -8  -3  674.83   53.99
  -2  -8   3  631.34   57.89
  -2  -8   3  631.14   48.10
   2  -8  -3  674.63   52.99
   2  -8  -3  605.94   63.29
  -2  -8   3  794.12   56.19
  -2   8   3  697.63   58.49
   2   8  -3  721.03   56.39
  -2   8   3  676.73   69.29
   2   8  -3  658.33   52.19
   2   8  -3  658.93   71.79
   2   8  -3  631.74   67.39
  -1  -8   3  913.11   78.09
  -1  -8   3  943.81   73.19
  -1  -8   3  889.11   73.19
   1  -8  -3  998.00   71.69
  -1  -8   3 1016.70   68.79
   1  -8  -3 1016.90   67.99
   1  -8  -3 1024.00   79.19
   1  -8  -3 1010.50   75.49
   1   8  -3  672.63   69.89
  -1   8   3  793.12   72.89
   1   8  -3  585.04   52.19
   1   8  -3  667.63   70.79
  -1   8   3  701.93   59.99
   0  -8  -3  329.27   30.70
   0  -8   3  274.77   32.60
   0  -8   3  281.47   27.20
   0  -8  -3  307.57   27.30
   0  -8  -3  326.07   32.60
   0  -8   3  337.17   43.20
   0  -8   3  333.47   25.80
   0   8   3  405.16   45.60
   0   8  -3  444.26   42.60
   0   8   3  396.96   32.30
   0   8   3  444.86   51.19
   0   8  -3  447.06   33.90
   0   8  -3  423.86   48.90
   1  -8   3  429.36   49.60
  -1  -8  -3  529.15   43.70
  -1  -8  -3  505.65   39.80
  -1  -8  -3  452.65   47.90
   1  -8   3  530.55   38.60
   1  -8   3  543.35   60.49
   1   8   3  573.24   57.39
  -1   8  -3  513.25   44.90
   1   8   3  555.04   52.09
  -1   8  -3  440.86   37.50
  -1   8  -3  402.56   47.30
   1   8   3  516.15   38.50
   2  -8   3  533.75   62.79
   2  -8   3  670.03   70.19
  -2  -8  -3  519.35   46.70
  -2   8  -3  504.25   63.89
   2   8   3  457.15   50.89
   2   8   3  605.94   42.60
  -2   8  -3  512.85   48.20
  -2   8  -3  459.45   41.00
   3  -8   3   40.50   16.10
   3  -8   3   67.29   19.20
  -3  -8  -3   78.19   14.30
  -3  -8  -3   82.79    9.60
   3  -8   3   64.09   19.80
   3  -8   3   90.89   13.20
   3  -8   3   91.79   14.70
   3  -8   3   80.99   14.90
   3   8   3   36.40    7.80
   3   8   3   32.40   14.40
   3   8   3   52.79   12.40
   4  -8   3   64.39   12.70
   4  -8   3   80.39   18.10
   4  -8   3   95.09   12.70
  -4  -8  -3  114.29   14.40
   4  -8   3   49.20   15.30
   4  -8   3   86.09   12.80
   4  -8   3   81.39   17.80
   4   8   3  104.29   20.10
   4   8   3  113.09   13.70
   5  -8   3   23.40    5.20
  -5  -8  -3   29.60    4.00
   5  -8   3   14.40    7.70
   5  -8   3   30.00    5.70
  -5  -8  -3   31.10    4.80
   5  -8   3   22.80    4.80
  -5   8  -3   31.70    5.40
   5   8   3   31.50    5.10
   5   8   3   18.90    6.60
  -6  -9   3   61.99    7.10
   6   9  -3  126.59   14.00
   6   9  -3  133.09   11.60
   6   9  -3  151.08   12.00
   6   9  -3  125.59   12.60
   6   9  -3  138.99   13.60
  -5  -9   3   53.99    8.50
   5   9  -3  117.19   18.40
   5   9  -3   80.69   16.00
   5   9  -3  119.19   15.70
   5   9  -3  103.79   12.50
   5   9  -3  105.49   13.10
   5   9  -3  115.59   12.70
   4   9  -3   32.60    7.40
   4   9  -3   32.50    7.50
   4   9  -3   44.80   13.40
   4   9  -3   49.99    9.10
   4   9  -3   36.70   13.40
   4   9  -3   34.10    8.70
   4   9  -3   34.40   11.80
  -3  -9   3  556.54   53.79
  -3  -9   3  632.54   49.60
   3  -9  -3  495.45   48.40
  -3   9   3  843.32   79.19
   3   9  -3  699.53   74.29
  -3   9   3  774.02   60.89
   3   9  -3  814.42   83.59
  -2  -9   3  259.87   28.40
   2  -9  -3  276.57   22.00
   2  -9  -3  276.07   41.20
   2  -9  -3  223.08   25.80
  -2  -9   3  266.67   22.40
  -2  -9   3  273.87   32.60
  -2   9   3  373.26   46.50
   2   9  -3  358.46   46.50
  -2   9   3  301.07   34.50
   2   9  -3  302.87   30.20
   2   9  -3  275.27   45.20
  -1  -9   3  195.18   22.20
   1  -9  -3  214.88   19.00
   1  -9  -3  226.58   21.50
  -1  -9   3  132.59   27.00
   1  -9  -3  182.88   22.30
  -1  -9   3  187.98   18.00
   1  -9  -3  171.18   27.20
   1   9  -3  170.58   22.00
   1   9  -3  152.18   33.50
  -1   9   3  225.88   28.90
   1   9  -3  234.98   41.80
  -1   9   3  168.58   37.00
   0  -9  -3  817.12   64.69
   0  -9   3  857.61   77.79
   0  -9  -3  815.62   61.49
   0  -9  -3  863.11   67.49
   0  -9   3  925.51   59.99
   0  -9   3  729.63   67.19
   0   9   3  816.22   71.99
   0   9  -3  827.52   70.19
   0   9   3  802.72   77.49
   0   9  -3  819.12   59.59
   0   9  -3  803.62   76.69
   1  -9   3  432.36   48.00
   1  -9   3  517.45   36.70
  -1  -9  -3  430.86   37.60
   1  -9   3  547.45   59.49
  -1  -9  -3  467.85   41.60
  -1  -9  -3  414.86   45.30
   1   9   3  756.72   71.79
  -1   9  -3  705.33   53.09
  -1   9  -3  804.22   61.49
  -1   9  -3  616.94   64.29
   1   9   3  704.43   65.39
   1   9   3  686.13   52.49
  -2  -9  -3  132.89   19.70
   2  -9   3   95.49   28.30
   2  -9   3  118.79   33.40
  -2  -9  -3   64.39   20.90
   2   9   3   99.89   23.80
  -2   9  -3  104.59   21.20
  -2   9  -3   79.89   26.50
   2   9   3   99.09   15.00
  -2   9  -3   73.79   13.60
   3  -9   3   78.39   20.00
   3  -9   3   97.29   15.30
   3  -9   3   55.89   17.70
   3  -9   3   90.19   21.30
  -3  -9  -3   98.19   10.40
  -3  -9  -3   84.59   14.60
   3  -9   3   76.69   14.70
   3  -9   3   80.59   13.20
   3   9   3  111.39   17.40
   3   9   3   86.29   19.30
   3   9   3   78.79   11.50
   4  -9   3  165.28   18.40
  -4  -9  -3  149.29   14.80
   4  -9   3  169.68   16.80
   4  -9   3  116.59   21.20
   4  -9   3  104.29   20.90
   4  -9   3  139.89   16.30
   4   9   3  125.29   22.40
   4   9   3  220.68   17.70
   5  -9   3   16.60    7.50
   5  -9   3   14.70    4.50
  -5  -9  -3   21.80    3.40
   5  -9   3   11.10    3.70
   5  -9   3   11.30    4.00
  -5  -9  -3   12.50    3.20
   5   9   3    9.20    5.10
  -6 -10   3   11.40    3.40
   6  10  -3   20.10    5.30
   6  10  -3   14.60    3.70
   6  10  -3   17.90    5.20
  -5 -10   3   47.60    7.70
   5  10  -3   80.09   15.10
   5  10  -3   77.89   14.30
   5  10  -3   73.79    9.90
   5  10  -3   87.19   14.80
   5  10  -3   82.59   10.20
   5  10  -3   56.49   10.30
   4  10  -3  228.08   21.80
   4  10  -3  245.28   21.10
   4  10  -3  234.78   20.90
   4  10  -3  252.27   20.80
   4  10  -3  203.48   28.00
   4  10  -3  201.28   25.20
  -3 -10   3    6.50   10.40
  -3 -10   3   13.60   11.80
   3 -10  -3   22.00   11.10
  -3  10   3   18.90   11.90
   3  10  -3   26.30   18.70
   3  10  -3   16.30   19.70
  -3  10   3   25.40   18.00
   2 -10  -3  566.74   45.50
  -2 -10   3  486.95   48.80
   2 -10  -3  436.66   54.69
   2 -10  -3  565.84   40.00
  -2 -10   3  564.54   40.10
  -2 -10   3  576.34   46.50
  -2  10   3  628.04   55.09
   2  10  -3  573.94   66.09
   2  10  -3  536.25   63.59
   2  10  -3  543.35   48.10
  -2  10   3  598.24   64.69
  -1 -10   3  538.55   46.70
   1 -10  -3  545.15   46.20
   1 -10  -3  598.14   54.09
  -1 -10   3  592.74   43.20
   1 -10  -3  598.94   43.10
   1  10  -3  680.93   55.49
  -1  10   3  781.82   75.59
  -1  10   3  720.63   63.39
   1  10  -3  622.44   71.09
   1  10  -3  704.03   73.99
   0 -10  -3    8.40    6.40
   0 -10   3   10.60   13.80
   0 -10   3   24.60   13.30
   0 -10  -3   10.40    9.60
   0 -10  -3   16.60    5.50
   0 -10  -3   16.20    7.70
   0 -10   3   11.00    7.10
   0 -10   3    9.00    5.80
   0  10   3   39.70   18.70
   0  10  -3   34.30    8.70
   0  10  -3   37.10   19.90
   0  10   3   43.80   20.50
   0  10  -3   30.90   14.90
  -1 -10  -3  249.68   24.10
   1 -10   3  256.67   21.80
   1 -10   3  234.28   36.00
  -1 -10  -3  194.98   29.70
  -1 -10  -3  207.78   25.50
   1 -10   3  275.57   43.70
  -1  10  -3  240.98   35.00
   1  10   3  251.77   40.70
  -1  10  -3  242.68   29.60
  -1  10  -3  255.07   23.50
   1  10   3  252.37   37.80
   1  10   3  245.58   23.20
  -2 -10  -3  318.67   31.40
   2 -10   3  289.37   27.20
   2 -10   3  263.87   44.50
   2 -10   3  290.17   26.80
  -2 -10  -3  281.07   22.20
   2 -10   3  289.67   43.80
  -2 -10  -3  268.77   25.30
   2 -10   3  308.37   35.90
   2 -10   3  317.07   26.20
  -2 -10  -3  224.38   36.60
  -2  10  -3  273.67   27.70
   2  10   3  379.16   29.50
   2  10   3  275.87   46.70
   2  10   3  301.47   24.40
  -2  10  -3  264.07   40.80
   3 -10   3    5.80   11.60
  -3 -10  -3   -4.20    5.30
   3 -10   3    9.60   12.60
  -3 -10  -3    2.50    3.30
   3 -10   3    3.90    7.20
   3 -10   3    6.00    7.10
   3 -10   3    3.60    8.20
   3  10   3   -0.80    8.70
   3  10   3    7.10    4.60
  -4 -10  -3   42.80    5.50
   4 -10   3   28.40    9.30
   4 -10   3   41.50    9.00
   4 -10   3   31.70   12.40
  -4 -10  -3   39.80    8.40
  -4 -10  -3   36.30    6.80
   4 -10   3   47.80    9.90
   4  10   3   37.90    7.30
   4  10   3   40.80   12.80
   5 -10   3   28.00    4.80
   5 -10   3   25.60    4.40
  -5 -10  -3   32.60    4.50
   5 -10   3   19.30    7.40
   5  10   3   22.50    5.90
  -6 -11   3   43.00    5.10
   6  11  -3   66.59    6.80
  -5 -11   3   18.70    4.80
   5  11  -3   47.20    7.40
   5  11  -3   40.50    7.10
   5  11  -3   26.50    7.60
   5  11  -3   38.70   10.40
   4  11  -3    8.50    5.20
   4  11  -3   10.20    9.30
   4  11  -3    2.70    5.10
   4  11  -3    5.40    7.10
   3 -11  -3  355.66   44.00
   3 -11  -3  368.96   28.90
   3 -11  -3  364.86   34.80
   3 -11  -3  359.26   27.70
  -3 -11   3  399.86   34.50
   3  11  -3  428.06   38.20
  -3  11   3  511.35   65.09
   3  11  -3  457.05   37.20
   3  11  -3  459.45   36.50
   3  11  -3  509.45   36.90
  -2 -11   3  374.16   40.90
   2 -11  -3  405.46   30.50
   2 -11  -3  360.96   35.20
  -2 -11   3  389.66   36.60
   2 -11  -3  332.47   46.20
  -2 -11   3  431.56   31.30
  -2  11   3  475.55   48.50
   2  11  -3  376.06   40.70
  -2  11   3  524.35   58.89
   2  11  -3  520.95   60.49
   1 -11  -3    7.00    7.90
  -1 -11   3    1.00    6.20
  -1 -11   3   -0.10    7.10
   1 -11  -3    4.70    9.00
   1 -11  -3    2.30    5.40
  -1  11   3   11.00   14.20
   1  11  -3   26.80   19.00
   1  11  -3   17.00   18.40
   1  11  -3    5.20    9.00
  -1  11   3   21.20   14.00
   0 -11   3  865.61   56.79
   0 -11  -3  799.52   55.29
   0 -11  -3  774.62   62.49
   0 -11   3  774.92   75.59
   0 -11  -3  738.63   58.19
   0 -11   3  680.83   57.69
   0  11  -3  848.82   73.49
   0  11  -3  751.62   78.39
   0  11  -3  793.12   60.39
   0  11   3  817.52   74.29
   0  11   3  824.92   79.49
  -1 -11  -3  146.39   22.60
   1 -11   3  188.28   38.90
  -1 -11  -3  141.09   19.10
   1 -11   3  110.39   26.90
   1 -11   3  161.58   16.90
  -1  11  -3   88.69   19.70
  -1  11  -3   59.69   11.40
   1  11   3  108.69   29.40
   1  11   3   59.49   13.60
   1  11   3   72.89   21.10
  -1  11  -3   72.49   22.80
   2 -11   3   50.79   11.50
   2 -11   3   58.99   18.50
  -2 -11  -3   60.19   11.60
   2 -11   3   44.90   11.10
  -2 -11  -3   47.90    7.50
   2 -11   3   65.99   18.70
   2 -11   3   75.49   13.00
   2 -11   3   50.69    8.70
   2  11   3   58.39   15.00
   2  11   3   74.59   17.80
   2  11   3   47.70    8.60
   3 -11   3   70.69   13.90
   3 -11   3   68.39   18.40
   3 -11   3   80.59   13.60
  -3 -11  -3   89.09   13.80
  -3 -11  -3   81.89    9.30
   3 -11   3   99.09   14.70
  -3 -11  -3   66.89    9.70
   3 -11   3   73.29   20.30
   3  11   3  112.09   20.80
   3  11   3  114.49   12.40
   4 -11   3   78.09   12.20
   4 -11   3   58.39   14.90
  -4 -11  -3   80.39    9.10
   4 -11   3   74.49   11.70
  -4 -11  -3   77.59    8.20
  -4 -11  -3   73.09    7.10
   4 -11   3   67.59   11.40
   4 -11   3   60.79   16.90
   4  11   3   40.40   12.20
   4  11   3   39.30    6.90
  -5 -12   3   29.10    5.70
   5  12  -3   47.00   10.50
   5  12  -3   57.49    7.70
   5  12  -3   20.10    6.80
  -4 -12   3  107.49   13.20
  -4 -12   3   95.29   18.20
   4  12  -3  219.78   20.00
   4  12  -3  167.98   21.90
   4  12  -3  259.37   20.60
   3 -12  -3   44.50   11.50
  -3 -12   3   30.70   10.80
   3 -12  -3   36.90   12.90
   3 -12  -3   40.70    6.70
   3 -12  -3   41.10    8.00
   3  12  -3   40.20   11.00
   3  12  -3   45.00    9.60
   3  12  -3   44.50    8.70
   3  12  -3   50.79    9.30
  -2 -12   3  192.68   24.20
   2 -12  -3  148.19   32.90
   2 -12  -3  155.88   23.70
  -2 -12   3  186.48   18.00
   2 -12  -3  189.68   18.30
   2  12  -3  190.08   39.60
   2  12  -3  146.99   23.50
  -2  12   3  211.28   40.30
  -2  12   3  173.18   30.10
  -1 -12   3  574.04   50.59
   1 -12  -3  687.53   59.79
  -1 -12   3  630.04   46.90
   1 -12  -3  694.53   47.30
   1 -12  -3  551.94   49.80
  -1  12   3  928.11   87.89
   1  12  -3  829.32   85.89
   1  12  -3  890.01   68.79
  -1  12   3  883.71   77.69
   0 -12  -3   16.50    8.00
   0 -12  -3   18.10    6.10
   0 -12   3   20.80   16.30
   0 -12  -3   14.40    8.20
   0 -12   3   16.50    6.80
   0  12   3   67.19   24.60
   0  12  -3   59.69   20.50
   0  12   3   71.09   24.00
   0  12  -3   65.49   11.90
   1 -12   3   70.19   22.40
  -1 -12  -3   76.09   14.10
   1 -12   3   92.59   29.60
   1 -12   3   78.09   12.10
  -1 -12  -3   67.29   15.30
  -1  12  -3  103.89   22.30
   1  12   3   75.39   21.60
  -2 -12  -3  144.29   16.40
   2 -12   3  151.78   18.00
   2 -12   3  131.79   17.80
  -2 -12  -3  105.29   11.40
   2 -12   3  109.49   23.60
  -2 -12  -3  138.49   17.30
   2 -12   3  137.49   17.90
   2 -12   3  115.89   25.10
   2 -12   3  116.29   13.50
   2  12   3  179.58   25.80
   2  12   3  228.48   29.80
   2  12   3  199.88   18.20
  -3 -12  -3   97.79   14.20
   3 -12   3   90.49   15.00
   3 -12   3   80.59   21.50
   3 -12   3   99.39   15.40
   3 -12   3  114.29   16.00
  -3 -12  -3   92.79    9.60
   3 -12   3   80.09   19.60
   3  12   3   76.09   10.50
   3  12   3   68.79   16.60
   4 -12   3    2.10    5.70
   4 -12   3    3.20    7.70
   4 -12   3    7.00    6.50
  -4 -12  -3    2.80    3.40
  -4 -12  -3    3.70    2.60
   4 -12   3   -0.20    5.50
   4 -12   3    5.10   10.50
   4  12   3   -5.90    6.50
   4  12   3   -1.60    2.90
  -5 -13   3    5.30    3.40
  -5 -13   3    4.90    3.40
   5  13  -3    7.30    5.40
   5  13  -3   13.30    6.50
   5  13  -3   18.80    4.80
  -4 -13   3   24.50    8.90
  -4 -13   3   34.10    7.70
   4  13  -3   50.79    8.80
   4  13  -3   53.49    8.80
   4  13  -3   45.90   10.80
   3 -13  -3  144.19   15.20
   3 -13  -3  170.08   19.80
   3 -13  -3  162.48   23.50
   3 -13  -3  157.28   14.30
  -3 -13   3  148.79   21.30
  -3 -13   3  172.38   17.20
   3  13  -3  347.47   26.30
   3  13  -3  321.07   26.90
   3  13  -3  231.78   28.70
   2 -13  -3    8.40    5.30
  -2 -13   3    5.20    9.20
  -2 -13   3   19.50   13.70
   2 -13  -3   11.50    7.50
   2 -13  -3   25.20    7.50
   2 -13  -3    8.20    9.30
   2  13  -3   37.10   22.60
  -2  13   3   14.70   14.20
   2  13  -3   23.50   12.60
  -2  13   3   35.10   20.30
  -1 -13   3   87.09   15.80
   1 -13  -3  124.09   14.60
   1 -13  -3  126.09   18.50
  -1 -13   3  120.19   14.30
   1 -13  -3   95.79   22.40
  -1  13   3  145.49   28.90
  -1  13   3  122.19   30.80
   1  13  -3  133.69   33.80
   1  13  -3  140.09   20.40
   0 -13   3  160.48   33.10
   0 -13  -3  141.19   19.70
   0 -13  -3  173.88   16.90
   0 -13   3  146.29   17.00
   0 -13  -3  158.08   24.70
   0  13   3  269.37   44.10
   0  13  -3  293.17   28.30
   0  13  -3  294.47   41.10
   0  13   3  323.67   45.30
   1 -13   3  118.39   29.50
  -1 -13  -3  138.69   16.60
   1 -13   3  140.19   14.70
  -1 -13  -3  166.18   25.10
  -1 -13  -3  120.09   12.20
   1 -13   3  133.99   17.50
  -1 -13  -3  169.08   29.30
   1 -13   3  154.68   18.80
   1 -13   3  156.88   35.50
   1 -13   3  125.79   16.30
  -1 -13  -3  123.99   18.80
   1  13   3  152.18   16.20
  -1  13  -3  120.89   17.20
   1  13   3  130.39   30.00
  -1  13  -3  175.88   31.10
  -2 -13  -3   98.19   13.40
   2 -13   3   76.19   10.80
   2 -13   3  101.39   21.60
  -2 -13  -3   82.79    9.90
   2 -13   3   73.49   14.00
   2 -13   3   88.79   14.90
   2 -13   3   81.59   22.60
   2 -13   3   86.49   14.10
  -2 -13  -3   82.99   10.70
   2  13   3   81.59   17.60
   2  13   3   68.09   10.50
   2  13   3  111.99   20.80
   3 -13   3  169.98   19.80
   3 -13   3  152.98   19.40
   3 -13   3  173.68   20.50
  -3 -13  -3  155.68   13.40
   3 -13   3  166.78   29.00
  -3 -13  -3  140.29   14.90
   3 -13   3  162.58   26.60
   3  13   3  219.38   24.50
   3  13   3  169.78   16.60
   4 -13   3   18.30   11.40
   4 -13   3   23.50    6.80
   4 -13   3   17.20    8.60
  -4 -13  -3   21.20    5.00
   4 -13   3   34.80    7.80
   4 -13   3   26.20    7.30
  -4 -13  -3   29.80    4.10
   4  13   3   28.40    5.40
   4  13   3   22.70    9.10
  -5 -14   3   72.09    7.40
  -5 -14   3   58.79    7.60
   5  14  -3   86.89    8.60
   5  14  -3   69.79    9.70
  -4 -14   3  117.69   17.50
  -4 -14   3  166.58   15.00
   4  14  -3  209.38   16.80
   4  14  -3  180.18   16.60
   4  14  -3  122.29   18.40
   3 -14  -3  129.19   20.60
   3 -14  -3  105.19   11.80
   3 -14  -3  121.89   17.50
  -3 -14   3   94.19   17.00
   3 -14  -3  110.49   13.20
  -3 -14   3  109.59   14.40
   3  14  -3  135.89   19.60
   3  14  -3  172.68   18.70
   3  14  -3  186.78   16.90
   2 -14  -3   99.89   16.80
   2 -14  -3   87.49   10.50
  -2 -14   3   85.59   17.30
  -2 -14   3   74.59   12.20
   2 -14  -3   83.29   12.20
   2 -14  -3  110.89   14.50
   2 -14  -3  100.89   12.00
  -2 -14   3   77.79   11.60
   2  14  -3  161.68   19.60
   2  14  -3  182.88   19.80
  -1 -14   3  172.28   22.80
  -1 -14   3  191.18   19.60
   1 -14  -3  185.58   19.70
   1 -14  -3  210.78   32.30
   1 -14  -3  161.88   23.20
  -1  14   3  212.28   41.80
   1  14  -3  222.88   26.90
  -1  14   3  200.48   35.90
   1  14  -3  199.28   41.30
   0 -14  -3   83.59   18.30
   0 -14  -3   74.79   14.70
   0 -14   3   85.59   12.70
   0 -14   3   80.59   25.30
   0 -14  -3   96.59   12.10
   0  14  -3  125.79   29.90
   0  14  -3  112.79   17.20
   0  14   3  124.19   32.20
   0  14   3  103.69   30.50
   1 -14   3   21.20    9.30
   1 -14   3   13.30   16.00
  -1 -14  -3   22.60    5.10
   1 -14   3   18.80    5.90
  -1 -14  -3   46.50    9.10
   1 -14   3   20.50    7.10
   1 -14   3   15.40    9.50
  -1 -14  -3   20.50    5.60
   1 -14   3   35.30   14.00
   1 -14   3   18.10    8.70
   1  14   3   59.89   11.70
   1  14   3  105.19   20.20
   2 -14   3   62.79   12.90
   2 -14   3   62.19    9.90
  -2 -14  -3   63.99    8.70
  -2 -14  -3   87.89   10.20
   2 -14   3   70.39   13.30
   2 -14   3   66.39   13.40
  -2 -14  -3   75.79   11.50
   2 -14   3   76.79   20.00
   2 -14   3   63.09   20.60
   2  14   3   97.79   18.60
   2  14   3  106.89   21.40
   2  14   3  107.59   13.20
   3 -14   3   54.29   19.90
  -3 -14  -3   72.29   10.80
   3 -14   3   70.49   17.60
   3 -14   3   87.49   13.80
   3 -14   3   73.79   13.10
   3 -14   3   85.39   13.90
  -3 -14  -3   74.09    8.50
   3  14   3   58.39    8.70
   3  14   3   54.29   14.20
   4 -14   3    6.90    6.70
   4 -14   3    8.10    9.70
  -4 -14  -3   11.60    2.80
   4 -14   3    3.90    5.50
   4 -14   3   10.50    5.50
  -4 -14  -3    9.70    3.60
   4 -14   3    5.50    5.00
   4  14   3    7.50    3.40
   4  14   3   13.00    7.30
  -5 -15   3    9.50    2.80
  -5 -15   3    7.90    2.80
   5  15  -3   14.50    3.70
   5  15  -3   15.90    4.50
  -4 -15   3   35.40    6.90
  -4 -15   3   33.60    6.50
  -4 -15   3   30.40    8.60
   4  15  -3   40.50    9.30
   4  15  -3   38.90    7.10
   3 -15  -3   94.59   10.40
   3 -15  -3   93.59   15.50
  -3 -15   3   87.49   12.10
  -3 -15   3   67.29   14.80
   3 -15  -3  103.19   12.20
   3 -15  -3   78.89   16.90
   3  15  -3  192.98   22.50
   3  15  -3  210.28   19.90
  -2 -15   3  170.78   16.90
   2 -15  -3  188.98   15.80
   2 -15  -3  191.28   24.30
   2 -15  -3  167.68   17.80
   2 -15  -3  187.68   21.40
   2 -15  -3  165.98   18.10
  -2 -15   3  178.88   17.70
   2 -15  -3  173.98   16.60
  -2 -15   3  195.78   25.60
   2  15  -3  267.27   24.80
   2  15  -3  291.07   25.20
   1 -15  -3   24.10    6.10
   1 -15  -3   28.60   11.80
  -1 -15   3   51.59   14.10
  -1 -15   3   39.20    8.20
   1 -15  -3   29.90    6.70
   1 -15  -3   27.00    7.40
   1 -15  -3   16.10    9.10
   1 -15  -3   39.80   11.50
   1 -15  -3   29.20    8.10
   1  15  -3    7.50    6.80
   0 -15  -3  188.18   17.20
   0 -15   3  200.68   32.20
   0 -15   3  191.78   18.30
   0 -15  -3  185.78   17.40
   0 -15   3  187.88   17.00
   0 -15  -3  174.68   23.90
   0 -15   3  240.98   24.40
   0 -15   3  194.08   25.60
   0 -15  -3  166.38   15.60
   0 -15  -3  200.38   21.40
   0 -15  -3  194.18   19.00
   0 -15  -3  182.28   16.60
   1 -15   3  186.28   21.40
   1 -15   3  169.48   16.20
   1 -15   3  181.18   20.40
  -1 -15  -3  160.88   14.80
   1 -15   3  174.98   18.40
   1 -15   3  195.58   21.70
  -1 -15  -3  177.78   18.60
   1 -15   3  165.88   26.00
   1 -15   3  175.08   30.80
  -1 -15  -3  167.18   15.90
   1  15   3  295.27   25.70
   1  15   3  282.87   31.50
  -2 -15  -3    8.20    3.70
   2 -15   3    7.80   11.90
  -2 -15  -3   11.60    5.60
   2 -15   3   13.60    8.90
   2 -15   3    9.60    5.00
  -2 -15  -3   12.60    4.70
   2 -15   3   12.70    8.00
   2 -15   3    4.40    7.80
   2  15   3   13.00   10.10
   2  15   3    9.90    5.10
   2  15   3   17.00   12.40
   3 -15   3   10.30   13.40
   3 -15   3   23.80    8.40
  -3 -15  -3   28.90    6.50
   3 -15   3   37.00    9.80
   3 -15   3   19.30   11.40
   3 -15   3   20.80    5.20
   3 -15   3   32.20    9.30
  -3 -15  -3   29.50    5.10
   3  15   3   19.90   10.00
   3  15   3   25.00    5.70
  -4 -15  -3   53.19    5.10
   4 -15   3   38.90    9.00
   4 -15   3   53.49    7.90
  -4 -15  -3   48.30    5.80
   4 -15   3   64.39    8.30
   4 -15   3   43.30   12.10
   4 -15   3   45.10    7.70
   4  15   3   90.19    8.10
   4  15   3   52.79   10.80
  -5 -16   3   21.00    3.40
  -5 -16   3   22.40    3.60
   5  16  -3   72.49    7.70
   5  16  -3   64.79    6.50
   4 -16  -3   15.90    3.90
  -4 -16   3    3.50    6.00
  -4 -16   3   15.80    4.80
  -4 -16   3   17.10    5.00
   4  16  -3   35.90    6.50
   4  16  -3   34.00    7.90
   3 -16  -3   57.49    9.00
  -3 -16   3   45.40    8.80
   3 -16  -3   57.19   11.90
  -3 -16   3   42.20   11.80
   3 -16  -3   41.80    8.60
   3 -16  -3   47.10    6.90
   3 -16  -3   63.29   14.90
   3  16  -3   66.89   11.10
   3  16  -3   85.39   13.40
   2 -16  -3  285.57   27.50
   2 -16  -3  261.67   20.60
  -2 -16   3  234.38   22.50
   2 -16  -3  229.18   23.00
  -2 -16   3  240.38   22.00
   2 -16  -3  247.28   22.90
  -2 -16   3  295.57   29.60
   2 -16  -3  271.67   26.70
   2 -16  -3  262.47   21.80
   2  16  -3  432.46   34.50
   2  16  -3  424.36   34.50
  -1 -16   3  191.68   25.30
   1 -16  -3  173.78   19.00
   1 -16  -3  162.78   14.60
  -1 -16   3  132.59   28.20
   1 -16  -3  163.48   22.20
   1 -16  -3  155.98   15.50
   1 -16  -3  155.98   16.20
   1 -16  -3  185.08   23.20
  -1 -16   3  174.88   17.10
   1  16  -3  234.08   21.10
   1  16  -3  198.28   20.40
   0 -16   3   15.40    6.20
   0 -16  -3    8.20    4.40
   0 -16  -3   17.50    5.90
   0 -16   3   10.10    9.40
   0 -16   3   13.00   11.10
   0 -16  -3   17.20    8.40
   0 -16  -3    6.80    4.50
   0 -16   3   11.70    5.30
   0 -16  -3    7.80    3.80
   0 -16   3   16.20   16.60
   0 -16  -3   -1.10   10.90
   0 -16  -3    9.80    7.10
   0  16  -3   20.80    7.20
   1 -16   3  206.58   19.50
   1 -16   3  230.18   24.40
  -1 -16  -3  219.78   17.90
   1 -16   3  181.58   22.50
  -1 -16  -3  208.98   20.90
   1 -16   3  190.28   20.60
  -1 -16  -3  220.08   19.00
   1 -16   3  219.88   28.90
   1 -16   3  241.68   34.90
  -1 -16  -3  209.78   22.40
   1 -16   3  211.08   18.70
   1  16   3  285.27   26.50
   1  16   3  335.87   33.20
   2 -16   3  164.38   14.90
  -2 -16  -3  166.18   14.90
   2 -16   3  184.28   19.20
   2 -16   3  174.18   26.00
   2 -16   3  149.19   28.70
   2 -16   3  181.88   20.40
  -2 -16  -3  142.49   15.10
  -2 -16  -3  138.99   13.50
   2 -16   3  175.08   20.10
   2  16   3  260.67   28.20
   2  16   3  196.38   24.80
   2  16   3  229.38   19.90
   3 -16   3   20.10    7.70
   3 -16   3   17.20   14.10
   3 -16   3   17.40   10.50
  -3 -16  -3   17.70    4.00
   3 -16   3   18.00    7.50
   3 -16   3    9.00    3.80
   3 -16   3   15.30    8.20
  -3 -16  -3   21.40    5.70
   3  16   3   36.70    6.40
   3  16   3   29.10   11.10
   4 -16   3   25.90    5.40
  -4 -16  -3   19.00    3.70
  -4 -16  -3   21.50    3.00
   4 -16   3   25.10    5.10
   4 -16   3   17.40    8.50
   4 -16   3   17.60    4.60
   4 -16   3   14.00    5.70
   4  16   3   21.20    4.00
   4  16   3   24.80    7.10
  -5 -17   3   20.90    3.20
   5  17  -3   25.10    4.10
  -4 -17   3    9.50    3.80
   4 -17  -3    9.00    3.00
  -4 -17   3    5.90    5.30
  -4 -17   3    8.20    3.60
   4 -17  -3    4.30    8.40
   4  17  -3   22.80    6.40
   4  17  -3   36.20    6.10
   3 -17  -3  107.29   13.30
  -3 -17   3   92.29   16.60
   3 -17  -3  123.29   13.30
   3 -17  -3  115.59   11.20
  -3 -17   3  122.79   13.10
   3 -17  -3  126.79   17.30
   3 -17  -3  114.59   18.50
   3  17  -3  152.48   17.70
   3  17  -3  148.39   16.50
  -2 -17   3  281.57   23.70
   2 -17  -3  292.77   22.70
   2 -17  -3  298.07   23.90
  -2 -17   3  308.47   31.30
   2 -17  -3  300.27   29.00
   2 -17  -3  303.97   29.20
  -2 -17   3  263.67   24.10
   2 -17  -3  289.97   25.10
   2 -17  -3  265.67   24.90
   2  17  -3  374.76   30.80
   2  17  -3  373.16   30.80
  -1 -17   3    3.30    5.40
   1 -17  -3   -6.20    9.00
   1 -17  -3    3.60    8.30
   1 -17  -3    2.80    3.50
  -1 -17   3    7.00   14.80
  -1 -17   3    7.50    9.80
   1 -17  -3    8.00    5.10
   1 -17  -3    2.70    4.50
   1 -17  -3    1.80    7.80
   1  17  -3   19.40    8.00
   1  17  -3   20.10    7.60
   0 -17  -3  271.97   23.90
   0 -17   3  304.77   23.10
   0 -17   3  291.57   26.90
   0 -17  -3  267.17   22.20
   0 -17  -3  201.08   27.60
   0 -17   3  277.67   30.70
   0 -17   3  288.87   23.90
   0 -17   3  270.57   39.10
   0 -17  -3  305.67   27.50
   0 -17  -3  271.67   22.90
   0 -17  -3  281.27   22.80
   0  17   3  340.47   33.70
   0  17  -3  343.37   28.80
   1 -17   3  156.68   17.10
   1 -17   3  154.38   23.50
   1 -17   3  174.88   15.80
   1 -17   3  152.48   19.50
   1 -17   3  160.58   29.40
  -1 -17  -3  156.88   15.50
  -1 -17  -3  142.99   14.20
  -1 -17  -3  156.88   20.10
  -1 -17  -3  181.98   17.00
   1 -17   3  170.78   20.20
   1 -17   3  176.08   19.40
   1  17   3  317.37   27.00
   1  17   3  310.57   32.90
   2 -17   3   -0.70    6.20
   2 -17   3    3.60    6.70
  -2 -17  -3    0.80    3.00
   2 -17   3    1.90    9.20
  -2 -17  -3    0.30    3.60
   2 -17   3   -0.50   11.70
   2 -17   3    3.30    4.20
   2 -17   3   -3.30    7.10
   2  17   3    0.10    3.80
   2  17   3    0.10    8.70
   3 -17   3   26.50   10.90
  -3 -17  -3   33.20    5.00
   3 -17   3   17.10   12.50
   3 -17   3   39.80    8.60
   3 -17   3   34.40    8.00
  -3 -17  -3   31.40    6.20
   3 -17   3   31.50    8.70
   3 -17   3   28.20    5.00
   3  17   3   39.50    6.40
   3  17   3   45.10   11.60
   4 -18  -3   93.79   12.60
   4 -18  -3  108.99    8.60
  -4 -18   3   78.59   11.80
   4  18  -3  188.18   15.40
   4  18  -3  186.88   16.10
   3 -18  -3   17.60    5.40
   3 -18  -3   25.40    9.80
   3 -18  -3   10.90    6.80
  -3 -18   3    9.70    5.10
   3 -18  -3   19.80    4.70
   3 -18  -3   23.20    9.70
  -3 -18   3   24.50    8.90
   3  18  -3   31.30    7.10
   3  18  -3   40.80    8.30
   2 -18  -3   65.29   11.00
  -2 -18   3   49.90    8.80
   2 -18  -3   50.29    7.60
   2 -18  -3   77.79   15.80
   2 -18  -3   63.39    9.40
  -2 -18   3   68.59   15.40
  -2 -18   3   65.99    9.30
   2 -18  -3   59.19   13.70
   2 -18  -3   53.19   11.40
   2  18  -3   50.89    9.90
   2  18  -3   68.59   11.10
   1 -18  -3  244.88   27.90
  -1 -18   3  273.77   22.50
  -1 -18   3  272.37   28.80
   1 -18  -3  242.38   20.00
   1 -18  -3  252.67   21.20
  -1 -18   3  271.17   37.00
   1 -18  -3  265.17   24.10
   1 -18  -3  239.88   22.10
   1 -18  -3  255.57   26.60
   1  18  -3  401.56   32.70
   1  18  -3  395.96   32.70
   0 -18  -3   56.29    8.70
   0 -18  -3   56.19   12.20
   0 -18   3   70.19   13.10
   0 -18  -3   67.39   10.90
   0 -18   3   59.59    8.70
   0 -18   3   69.79   10.10
   0 -18  -3   62.39    9.20
   0 -18  -3   33.10   13.60
   0 -18  -3   65.19    9.50
   0 -18   3   60.59   15.10
   0 -18   3   32.00   19.00
   0  18  -3  102.39   13.90
   0  18   3  122.29   20.20
   1 -18   3   64.59   15.50
   1 -18   3   47.20   10.20
  -1 -18  -3   66.09    8.50
  -1 -18  -3   64.09    9.30
   1 -18   3   73.99   11.00
  -1 -18  -3   71.39   12.70
   1 -18   3   57.09    8.90
   1 -18   3   74.79   19.50
   1 -18   3   72.19   13.30
   1  18   3   52.59   15.40
   1  18   3   50.29    9.80
   2 -18   3   80.39   10.00
  -2 -18  -3   93.89    9.70
   2 -18   3   98.09   13.70
   2 -18   3   87.29   13.50
   2 -18   3   86.19   17.30
   2 -18   3   77.79   20.00
   2 -18   3   95.49   14.30
  -2 -18  -3   89.69    9.70
   2  18   3  134.89   21.80
   2  18   3  155.38   14.20
   3 -18   3   37.40    7.60
   3 -18   3   22.60    9.10
   3 -18   3   21.30    3.90
   3 -18   3   21.20   11.50
  -3 -18  -3   29.10    4.40
   3 -18   3   35.80    8.10
   3 -18   3   22.70    6.80
   3  18   3   39.50    5.80
   3  18   3   34.50    9.80
   4 -19  -3   40.40    8.90
  -4 -19   3   34.80    7.00
  -4 -19   3   31.50    4.60
   4 -19  -3   45.50    4.70
   4  19  -3   92.59    8.80
   4  19  -3   96.99   10.20
  -3 -19   3  100.99   10.80
   3 -19  -3  106.09   11.10
   3 -19  -3   98.89    9.10
   3 -19  -3  103.89   15.10
   3 -19  -3   84.09   11.60
   3 -19  -3   85.19   14.20
  -3 -19   3   83.29   14.60
   3  19  -3  136.29   14.50
   3  19  -3  122.99   12.70
   2 -19  -3   26.60   11.50
  -2 -19   3   25.10    6.00
   2 -19  -3   22.20    6.20
   2 -19  -3   25.50    6.30
   2 -19  -3   30.30    9.10
   2 -19  -3   26.80    5.30
  -2 -19   3   16.50    5.90
   2 -19  -3   13.10    8.60
  -2 -19   3   16.90   10.70
   2  19  -3   29.40   17.50
   2  19  -3   33.10    8.50
   2  19  -3   52.09    9.00
   1 -19  -3   73.59   11.20
   1 -19  -3   74.39   16.70
  -1 -19   3   75.39   19.40
   1 -19  -3   66.19   13.20
   1 -19  -3   92.89   15.50
  -1 -19   3   76.99   10.80
   1 -19  -3   71.29    8.90
   1 -19  -3   79.99   10.20
  -1 -19   3   92.59   17.60
   1  19  -3  102.19   13.70
   1  19  -3   86.29   12.60
   0 -19  -3  290.27   27.60
   0 -19   3  344.87   25.10
   0 -19   3  304.87   23.20
   0 -19  -3  289.27   23.70
   0 -19   3  302.07   26.90
   0 -19  -3  288.87   23.80
   0 -19   3  275.97   37.90
   0 -19  -3  230.38   28.20
   0 -19   3  318.17   30.60
   0 -19  -3  267.27   24.00
   0 -19  -3  292.27   22.90
   0  19   3  475.65   40.30
   0  19  -3  433.26   35.10
   1 -19   3   48.90   17.00
  -1 -19  -3   45.10   10.60
   1 -19   3   44.90    8.50
   1 -19   3   55.89    8.20
  -1 -19  -3   54.19    7.60
   1 -19   3   49.80    9.90
   1 -19   3   56.29   11.30
  -1 -19  -3   54.79    8.00
   1 -19   3   36.40   11.70
   1  19   3   69.59   16.10
   1  19   3   78.19   11.00
  -1  19  -3   74.09   10.60
   2 -19   3   18.10    6.90
   2 -19   3   17.50    8.00
   2 -19   3   14.20    4.30
  -2 -19  -3   18.80    4.50
   2 -19   3   13.80   11.90
  -2 -19  -3   20.10    4.30
   2 -19   3   17.30    9.70
   2  19   3   32.50   10.90
   2  19   3   22.30    5.50
   3 -19   3   39.60    5.00
   3 -19   3   42.40    9.20
   3 -19   3   59.89    7.90
   3 -19   3   66.59    9.00
   3 -19   3   42.10   11.70
  -3 -19  -3   61.49    5.70
   3  19   3   70.99    7.20
   3  19   3   64.79   11.00
  -4 -20   3   27.00    3.80
   4  20  -3   35.20    5.30
   4  20  -3   36.70    4.60
  -3 -20   3   18.40    7.60
  -3 -20   3   18.50    4.70
   3 -20  -3   38.10   10.20
   3 -20  -3   25.00    7.40
   3 -20  -3   23.30    4.80
   3 -20  -3   26.20    4.10
   3 -20  -3   17.30    6.90
   3  20  -3   31.60    5.80
   3  20  -3   27.00    6.40
   2 -20  -3   51.09   11.70
  -2 -20   3   47.40    7.60
  -2 -20   3   30.50    6.80
   2 -20  -3   45.00    7.40
  -2 -20   3   54.49   13.50
   2 -20  -3   59.49   10.90
   2 -20  -3   50.19    6.80
   2 -20  -3   47.50    8.50
   2 -20  -3   49.70   13.80
   2  20  -3   75.69    9.80
   2  20  -3   82.49   10.80
   2  20  -3   47.10   13.10
   1 -20  -3  300.27   25.50
   1 -20  -3  276.77   21.60
   1 -20  -3  278.97   27.20
   1 -20  -3  274.97   23.50
  -1 -20   3  300.77   30.50
  -1 -20   3  292.97   24.10
   1 -20  -3  292.37   22.70
   1 -20  -3  281.37   30.00
   1  20  -3  485.45   36.10
   1  20  -3  442.06   35.30
   0 -20   3   43.10    6.80
   0 -20   3   16.60   14.50
   0 -20  -3   19.90   10.60
   0 -20   3   37.00    8.00
   0 -20  -3   34.20    7.30
   0 -20  -3   37.50    7.80
   0 -20  -3   32.60    5.80
   0 -20  -3   35.10   10.10
   0 -20  -3   37.50    7.50
   0 -20   3   40.90   11.60
   0  20   3   42.30   12.60
   0  20  -3   46.50    9.10
   0  20  -3   56.59    9.00
   1 -20   3   56.49   18.00
   1 -20   3   65.29   11.50
  -1 -20  -3   76.19    8.80
   1 -20   3   72.09    8.80
  -1 -20  -3   64.39    8.70
  -1 -20  -3   57.99   11.20
   1 -20   3   63.89    9.20
   1 -20   3   62.39   10.30
   1  20   3  122.39   19.40
   1  20   3  117.39   13.30
  -1  20  -3  105.59   12.90
   2 -20   3   76.79   13.90
   2 -20   3   79.29   17.20
   2 -20   3   88.09   12.10
   2 -20   3   88.59    9.10
  -2 -20  -3   82.99    8.60
  -2 -20  -3   85.19    8.40
   2 -20   3   92.79   11.50
   2  20   3  130.09   11.90
  -2  20  -3  134.79   12.90
   2  20   3  117.69   17.70
   3 -20   3   21.10    5.10
   3 -20   3   26.20    9.80
  -3 -20  -3   25.70    3.40
   3 -20   3   21.00    5.90
   3 -20   3   31.30    5.20
   3  20   3   34.40    7.40
   3  20   3   32.50    4.30
   3 -21  -3   86.69   12.80
  -3 -21   3   57.29   10.40
   3 -21  -3   67.39    7.80
   3 -21  -3   77.59    6.90
   3 -21  -3   85.49   10.10
   3 -21  -3   54.39    9.70
  -3 -21   3   72.49    8.00
   3  21  -3  107.99   10.80
   3  21  -3   90.09    8.90
  -2 -21   3   27.90    6.10
   2 -21  -3   38.20    5.30
  -2 -21   3   37.20   11.10
  -2 -21   3   28.50    5.90
   2 -21  -3   30.10    8.90
   2 -21  -3   41.00    9.90
   2 -21  -3   37.70    6.20
   2 -21  -3   37.80   12.70
   2  21  -3   49.99   14.40
   2  21  -3   66.49    8.60
   2  21  -3   78.69    9.90
   1 -21  -3   54.39   15.70
   1 -21  -3   46.70   10.40
  -1 -21   3   64.19   13.80
   1 -21  -3   42.60    6.10
   1 -21  -3   46.00    8.00
   1 -21  -3   53.79   10.60
   1 -21  -3   58.09    7.70
  -1 -21   3   65.09    8.90
   1  21  -3   45.70   14.30
   1  21  -3   46.00    8.10
   1  21  -3   37.30    7.40
   0 -21  -3   74.19    8.40
   0 -21  -3   84.39   10.30
   0 -21  -3   79.49   12.90
   0 -21   3   81.19    9.00
   0 -21   3   57.89   16.70
   0 -21  -3   55.99   13.40
   0 -21   3   80.69   10.40
   0 -21   3   76.49   14.10
   0  21   3  122.29   18.70
   0  21  -3  106.19   12.70
   0  21  -3  107.29   13.30
  -1 -21  -3   42.30    6.60
  -1 -21  -3   27.30    7.80
  -1 -21  -3   43.20    6.40
   1 -21   3   50.09    6.80
   1 -21   3   42.60    9.00
   1 -21   3   31.30   14.60
   1 -21   3   31.90    6.40
   1  21   3   80.49   15.60
  -1  21  -3   97.89   11.00
   1  21   3   94.89   10.10
   2 -21   3   15.40    6.10
  -2 -21  -3    9.60    3.20
   2 -21   3    8.60    6.20
  -2 -21  -3   10.30    3.50
   2 -21   3   10.90    3.40
   2 -21   3   11.60   11.30
   2 -21   3   12.70    5.20
   2  21   3    7.80    6.30
  -2  21  -3    9.20    4.00
   2  21   3   11.30    3.50
  -3 -22   3    3.20    2.40
   3 -22  -3   19.10    9.00
   3 -22  -3    5.80    5.10
  -3 -22   3    9.40    4.80
   3 -22  -3    7.30    2.60
   3 -22  -3    4.80    1.90
   3  22  -3    7.60    3.80
   2 -22  -3   78.19   15.00
   2 -22  -3   62.69    7.00
  -2 -22   3   71.89   12.60
   2 -22  -3   64.99   10.80
   2 -22  -3   72.39    8.20
  -2 -22   3   59.49    7.50
   2 -22  -3   73.89   10.60
   2  22  -3   94.39   10.40
   2  22  -3   79.89    9.40
   1 -22  -3   49.99    9.50
   1 -22  -3   44.50    9.70
  -1 -22   3   44.70   11.20
   1 -22  -3   56.99   15.60
   1 -22  -3   64.59    6.60
   1 -22  -3   63.09    8.50
  -1 -22   3   56.79    8.20
   1 -22  -3   51.59    7.10
   1  22  -3   62.39    8.60
   1  22  -3   46.70   12.50
   0 -22  -3   -0.70    7.00
   0 -22   3    2.80    9.40
   0 -22   3    5.00    3.40
   0 -22   3    0.70    5.80
   0 -22  -3    3.10    2.70
   0 -22  -3    0.70    4.80
   0 -22  -3    3.90    3.30
   0 -22   3    2.70    3.80
   0  22   3   12.10    5.90
   0  22  -3   11.50    4.70
   0  22   3    1.30    7.10
   0  22  -3   11.40    5.60
   1 -22   3   39.70    6.00
   1 -22   3   42.00    6.20
  -1 -22  -3   42.60    6.20
   1 -22   3   27.60   12.90
  -1 -22  -3   36.80    7.40
  -1 -22  -3   38.60    5.90
   1  22   3   82.19   13.50
   1  22   3   57.69   11.60
   1  22   3   59.69    7.80
  -1  22  -3   56.09    8.00
  -1  22  -3   70.49    9.10
   2 -22   3   33.20    6.60
  -2 -22  -3   34.40    4.50
   2 -22   3   39.60    4.60
   2 -22   3   27.30    6.90
   2 -22   3   21.80   11.00
  -2 -22  -3   38.90    4.90
   2  22   3   42.90    8.50
  -2  22  -3   40.30    6.70
   2  22   3   43.70    5.50
   3 -23  -3   48.70    4.30
  -3 -23   3   33.20    6.30
   3 -23  -3   53.99    9.60
   3  23  -3   72.49    6.90
   2 -23  -3   41.70    8.30
   2 -23  -3   58.29    5.70
   2 -23  -3   48.40    7.90
  -2 -23   3   43.30    9.30
   2 -23  -3   67.39   13.50
   2 -23  -3   55.09    6.50
   2  23  -3   72.49    8.50
   1 -23  -3   -0.40    4.50
   1 -23  -3    2.10    2.10
  -1 -23   3    0.00    5.40
   1 -23  -3    4.20    3.20
   1 -23  -3   -0.40   11.00
   1 -23  -3    3.50    2.80
   1 -23  -3   -2.40    4.90
  -1 -23   3    3.50    3.70
   1  23  -3    5.20    6.10
   1  23  -3    8.80    4.50
   0 -23   3   85.59    9.40
   0 -23  -3   80.79   11.20
   0 -23   3   68.49   11.20
   0 -23   3   90.09    8.20
   0 -23  -3   85.09    8.50
   0 -23  -3   70.49   11.30
   0  23  -3  168.68   15.20
   0  23   3  183.48   15.40
   0  23   3  159.68   24.00
  -1 -23  -3   59.19    8.70
   1 -23   3   85.49    7.50
   1 -23   3   62.69    7.50
   1 -23   3   70.29   14.90
  -1 -23  -3   74.59    7.60
   1  23   3   98.99    9.10
   1  23   3   92.69   13.40
  -1  23  -3   93.49   10.30
   2 -23   3   13.10    2.90
  -2  23  -3    9.40    3.10
  -2 -24   3   25.10    5.80
   2 -24  -3   26.60    3.80
   2 -24  -3   22.00    5.00
   2 -24  -3   26.20    3.40
   2 -24  -3   38.20   10.10
   2  24  -3   26.30    4.40
   1 -24  -3   49.70    8.40
   1 -24  -3   70.89    7.10
  -1 -24   3   67.29    7.10
   1 -24  -3   55.39   11.90
   1 -24  -3   64.89    5.80
   1 -24  -3   60.69    6.20
  -1 -24   3   62.19    9.70
  -1  24   3  142.89   12.40
   1  24  -3  113.89   11.10
   0 -24   3   10.30    2.90
   0 -24  -3   12.90    5.10
   0 -24   3   15.20    3.90
   0 -24  -3   14.10    3.50
   0 -24  -3    9.00    4.70
   0  24   3   26.30    4.70
   0  24  -3   24.00    4.70
   0  24  -3   15.90    7.30
   1 -24   3   12.60    3.00
  -1 -24  -3   14.80    3.10
   1 -24   3   19.70    3.20
   1  24   3   21.60    3.60
  -1  24  -3   24.40    4.50
   1 -25  -3    4.80    5.30
   1 -25  -3   11.30    2.90
  -1 -25   3   12.10    3.10
  -1 -25   3   18.70    5.70
   1 -25  -3   13.60    4.00
  -1  25   3   11.60    3.30
   1  25  -3   13.80    3.50
   0 -25  -3   54.29    5.70
   0 -25  -3   44.60    6.70
   0 -25   3   51.89    5.80
   0  25   3   89.89    8.00
   0  25  -3   90.09    8.30
   6   0  -4    5.10    6.40
   6   0  -4    2.60    4.90
   6   0  -4    1.60    3.30
   6   0  -4    2.50    3.70
   6   0  -4    5.50    6.00
   5   0  -4   23.90   11.00
   5   0  -4    6.30    5.80
   5   0  -4   17.00   11.70
   5   0  -4   18.10    7.00
   5   0  -4   13.60    8.90
   5   0  -4   18.00    6.20
   4   0  -4   42.00   13.30
   4   0  -4   36.30   15.90
   4   0  -4   37.40    8.80
   4   0  -4   51.99   14.60
   4   0  -4   36.70    8.90
  -3   0   4  300.67   30.90
   3   0  -4  360.36   39.40
  -3   0   4  328.87   40.00
   3   0  -4  326.37   49.90
  -3   0   4  450.45   49.60
   3   0  -4  444.36   41.40
   2   0  -4   16.80   11.70
   2   0  -4    8.60    9.40
   2   0  -4   13.10   16.30
   2   0  -4   10.10   11.80
  -2   0   4   20.10   14.30
  -2   0   4   -1.80    8.00
  -2   0   4    1.30   10.10
   1   0  -4 1663.23  143.69
   1   0  -4 1611.54  125.79
  -1   0   4 1594.24  135.99
  -1   0   4 1880.11  124.59
  -1   0   4 1900.11  119.29
   1   0  -4 1667.43  127.69
   0   0  -4  101.29   19.00
   0   0  -4  119.89   18.30
   0   0   4  109.69   22.30
   0   0   4  109.99   28.20
   0   0   4  100.79   13.90
   0   0  -4  102.99   23.00
   0   0   4   83.59   15.50
  -1   0  -4  277.77   33.50
   1   0   4  211.38   40.10
   1   0   4  352.46   42.50
  -1   0  -4  261.57   35.50
   2   0   4  104.09   28.40
  -2   0  -4  109.79   26.40
   2   0   4  101.59   27.90
  -2   0  -4   74.99   27.10
   3   0   4    9.40   11.20
   3   0   4    7.80   10.00
   3   0   4   12.20    9.00
   3   0   4   -2.00   12.30
   4   0   4   15.90   10.90
   4   0   4   10.00   10.40
   4   0   4   66.89   14.00
   4   0   4    2.80    6.80
  -4   0  -4   24.20    6.50
  -5   0  -4   33.80    4.60
  -5   0  -4   38.70    4.90
   6  -1  -4   64.39    8.00
   6  -1  -4  103.19   15.20
   6  -1  -4   70.79   11.90
   6  -1  -4   74.29   12.10
   6   1  -4  112.19   13.90
   6   1  -4  108.39   14.70
   6   1  -4   92.59    9.90
   6   1  -4  102.59   14.80
   6   1  -4  105.89   10.40
   5  -1  -4  265.27   27.70
   5  -1  -4  246.48   26.50
   5  -1  -4  285.27   29.70
   5  -1  -4  237.98   22.10
   5  -1  -4  217.78   21.20
   5   1  -4  256.37   27.70
   5   1  -4  239.08   26.60
   5   1  -4  260.07   20.70
   5   1  -4  224.78   21.50
   5   1  -4  201.98   20.60
   5   1  -4  248.58   28.50
   4  -1  -4   63.49   16.00
   4  -1  -4   62.09   15.60
   4  -1  -4   57.99   17.70
   4  -1  -4   55.29   10.00
   4  -1  -4   54.49   10.50
   4   1  -4   73.89   11.90
   4   1  -4   51.59    9.90
   4   1  -4   54.49   17.50
   4   1  -4   69.39   16.20
   4   1  -4   78.69   10.60
   4   1  -4   65.99   16.20
  -3  -1   4  272.67   26.20
  -3  -1   4  290.17   38.80
  -3  -1   4  312.07   36.20
   3  -1  -4  322.37   35.10
   3  -1  -4  293.27   45.20
   3   1  -4  471.25   48.00
   3   1  -4  527.25   49.30
   3   1  -4  478.45   61.29
  -3   1   4  467.15   47.40
  -3   1   4  458.85   39.20
  -3   1   4  513.75   57.19
   2  -1  -4  730.23   76.99
  -2  -1   4  729.43   56.89
   2  -1  -4  768.42   66.79
   2  -1  -4  834.92   70.29
  -2  -1   4  730.93   62.49
   2   1  -4  615.04   58.09
   2   1  -4  674.93   59.89
  -2   1   4  675.53   66.59
  -2   1   4  687.63   57.79
   2   1  -4  659.13   75.19
  -2   1   4  724.03   52.59
   2   1  -4  769.02   64.59
  -1  -1   4 1373.66   88.49
   1  -1  -4 1135.69  108.59
   1  -1  -4 1342.47   96.49
  -1  -1   4 1159.68   92.79
   1  -1  -4 1137.69   97.39
  -1  -1   4 1271.77  104.39
   1   1  -4 1147.79  100.59
  -1   1   4 1353.86   94.39
  -1   1   4 1232.78   98.79
   1   1  -4 1365.26  101.09
  -1   1   4 1420.76  113.69
   1   1  -4 1427.16  102.29
   0  -1   4  192.68   36.70
   0  -1  -4  231.78   28.10
   0  -1   4  203.08   21.00
   0  -1   4  221.58   31.30
   0  -1   4  256.47   25.20
   0  -1  -4  226.58   25.10
   0  -1  -4  218.58   30.60
   0   1   4  324.37   36.30
   0   1   4  387.16   32.70
   0   1  -4  321.27   31.30
   0   1  -4  297.77   37.30
   0   1   4  261.27   43.60
   0   1  -4  327.97   33.90
   0   1  -4  287.87   28.60
   0   1   4  307.97   27.60
  -1  -1  -4 1032.80   88.29
   1  -1   4 1216.58   96.99
   1  -1   4  981.00   79.39
   1  -1   4 1221.68  100.99
   1   1   4 1338.27  106.69
  -1   1  -4 1258.67   88.49
  -1   1  -4  989.60   97.29
  -1   1  -4 1142.49   93.69
   1   1   4 1388.96  102.79
  -2  -1  -4  136.09   29.80
  -2  -1  -4   78.49   27.20
   2  -1   4  173.48   35.50
   2  -1   4  126.29   30.30
  -2   1  -4  127.19   28.00
   2   1   4  144.39   31.00
  -2   1  -4   96.79   29.50
   2   1   4  128.39   31.60
   3  -1   4   34.70   11.60
   3  -1   4   18.40   15.30
   3  -1   4   39.90   14.70
   3  -1   4   66.39   15.90
   3   1   4   28.70   16.60
   3   1   4   26.20   11.20
   3   1   4   41.30   15.30
   3   1   4   46.10   14.40
   4  -1   4   91.09   13.40
   4  -1   4   90.99   10.70
   4  -1   4  100.99   18.80
  -4  -1  -4  100.29   11.80
   4  -1   4  109.49   18.70
   4  -1   4   53.49   14.60
   4  -1   4   79.59   11.90
   4   1   4  121.89   20.00
   4   1   4   79.19   17.50
   4   1   4  105.99   14.50
   4   1   4  125.59   19.60
  -4   1  -4  126.09   13.40
  -5  -1  -4   55.49    5.70
  -5  -1  -4   46.00    5.50
   5   1   4   21.50    4.50
  -5   1  -4   42.70    5.00
   6  -2  -4   20.80    7.30
   6  -2  -4   31.60    7.80
   6  -2  -4   29.90    8.90
   6   2  -4   37.60    6.20
   6   2  -4   30.40    9.40
   6   2  -4   23.10    8.10
   6   2  -4   31.00    8.50
   6   2  -4   24.90    5.00
   5  -2  -4   31.90   13.10
   5  -2  -4   25.20    9.60
   5  -2  -4   27.80    7.50
   5  -2  -4   33.90   11.80
   5   2  -4   24.90   12.00
   5   2  -4   29.50    6.30
   5   2  -4   32.10   13.40
   5   2  -4   17.50    6.10
   5   2  -4   23.10    7.40
   4  -2  -4  351.36   33.20
   4  -2  -4  299.37   26.50
   4  -2  -4  297.57   31.90
   4  -2  -4  260.67   25.50
   4  -2  -4  361.76   36.20
   4   2  -4  475.55   33.00
   4   2  -4  484.25   43.60
   4   2  -4  398.26   33.50
   4   2  -4  376.76   39.80
   4   2  -4  378.86   39.50
   4   2  -4  427.06   34.40
   4   2  -4  433.86   35.80
  -3  -2   4  368.06   39.70
   3  -2  -4  384.26   51.89
  -3  -2   4  346.57   31.90
  -3  -2   4  396.66   45.30
   3  -2  -4  405.66   41.00
   3   2  -4  413.16   43.00
   3   2  -4  424.66   42.70
   3   2  -4  329.57   51.89
  -3   2   4  326.47   41.20
  -3   2   4  405.86   33.40
  -2  -2   4   19.80   12.10
   2  -2  -4   19.90   13.10
   2  -2  -4   36.90   13.30
   2  -2  -4   25.40   17.50
  -2  -2   4    8.60    8.00
   2   2  -4    2.20   16.20
  -2   2   4    3.70   15.90
   2   2  -4   10.10   11.10
  -2   2   4    2.90    7.80
   2   2  -4    4.60   10.50
  -2   2   4  -13.80    9.80
   2   2  -4    2.40   10.70
  -1  -2   4 1124.19  101.39
  -1  -2   4 1318.67   92.99
   1  -2  -4 1128.69   94.09
   1  -2  -4 1327.07  109.09
  -1  -2   4 1315.67   87.69
  -1   2   4 1344.77  118.49
   1   2  -4 1527.25  107.59
  -1   2   4 1457.45   99.09
   1   2  -4 1347.97  105.29
   1   2  -4 1336.97  106.99
   0  -2   4 1205.68   87.49
   0  -2   4 1180.58   90.49
   0  -2  -4 1186.78   94.79
   0  -2  -4 1375.66  101.79
   0  -2   4 1355.96  108.29
   0  -2  -4 1314.27   93.29
   0  -2   4 1151.78   96.19
   0   2   4 1989.20  147.59
   0   2  -4 1876.81  126.39
   0   2   4 1755.12  122.19
   0   2  -4 1814.32  129.29
   0   2   4 1710.93  131.99
   0   2  -4 1518.95  133.99
   1  -2   4   -0.20   14.30
  -1  -2  -4    5.40    7.10
   1  -2   4   -2.00   12.30
  -1  -2  -4   15.50   12.70
   1  -2   4    2.40    5.70
  -1  -2  -4   12.60   11.20
  -1   2  -4    4.30    6.50
   1   2   4   13.10   15.00
   1   2   4    8.90   12.80
  -1   2  -4    5.70   10.40
  -1   2  -4   15.40   11.60
  -2  -2  -4  352.76   45.80
  -2  -2  -4  217.38   44.20
   2  -2   4  396.86   50.89
   2  -2   4  288.07   46.30
  -2   2  -4  409.66   39.80
   2   2   4  367.56   48.40
  -2   2  -4  238.28   48.20
  -2   2  -4  323.67   43.60
  -2   2  -4  400.46   33.50
  -2   2  -4  298.57   40.30
   2   2   4  337.67   46.20
   3  -2   4  304.17   34.50
   3  -2   4  321.47   30.30
   3  -2   4  303.07   35.70
  -3  -2  -4  293.97   26.90
   3  -2   4  338.17   28.20
   3  -2   4  289.47   35.70
   3   2   4  375.56   41.00
   3   2   4  332.37   34.80
   3   2   4  321.97   36.00
   3   2   4  363.16   30.90
   4  -2   4    9.10   10.20
   4  -2   4   22.20    8.90
  -4  -2  -4   55.29    9.50
   4  -2   4   31.00   12.40
   4   2   4   27.00   12.40
   4   2   4   44.50   14.00
   4   2   4   93.69   15.40
  -4   2  -4   51.79    9.30
   4   2   4   36.50    9.10
   5  -2   4    5.50    4.90
   5  -2   4   11.80    3.60
  -5  -2  -4   39.60    4.30
  -5   2  -4   34.60    5.30
   5   2   4   27.30    4.60
   6  -3  -4   48.20    9.50
   6  -3  -4   42.40    8.80
   6  -3  -4   66.59   11.80
   6   3  -4   69.29    8.60
   6   3  -4   81.59   12.60
   6   3  -4  100.59   15.30
   6   3  -4   77.69   13.10
   6   3  -4   99.09   10.20
   5  -3  -4   65.99   10.60
   5  -3  -4   69.99   16.70
   5  -3  -4   95.69   17.80
   5  -3  -4   75.19   15.10
   5   3  -4   65.69    9.10
   5   3  -4   53.79    9.60
   5   3  -4   40.50   14.50
   5   3  -4   65.99   15.30
   5   3  -4   59.99   16.10
   5   3  -4   45.30    8.40
   4  -3  -4   35.00    8.70
   4  -3  -4   25.80    7.20
   4  -3  -4   44.00   14.80
   4  -3  -4   23.00   10.50
   4  -3  -4   41.70   15.60
   4   3  -4   45.50   14.50
   4   3  -4   19.40    6.80
   4   3  -4   42.10    9.20
   4   3  -4   34.30   15.40
   4   3  -4   27.80    7.00
   4   3  -4   36.60   11.00
   4   3  -4   36.00   13.70
   3  -3  -4  260.97   45.30
   3  -3  -4  189.28   34.00
  -3  -3   4  228.18   29.70
  -3  -3   4  179.78   31.10
   3  -3  -4  224.18   30.70
  -3   3   4  199.48   29.20
   3   3  -4  199.48   43.70
  -3   3   4  192.68   21.90
   3   3  -4  185.88   30.40
   3   3  -4  224.28   31.10
   2  -3  -4  707.23   68.49
  -2  -3   4  749.73   67.19
   2  -3  -4  755.02   74.99
  -2  -3   4  801.72   63.69
  -2  -3   4  794.22   56.39
   2  -3  -4  734.03   65.89
  -2   3   4  756.12   54.89
   2   3  -4  744.73   61.79
  -2   3   4  768.42   62.39
  -2   3   4  684.33   70.99
   2   3  -4  681.23   65.19
   2   3  -4  657.13   80.39
  -1  -3   4   52.99   14.40
  -1  -3   4   29.70   16.90
  -1  -3   4   53.29   10.40
   1  -3  -4   40.50   15.50
   1  -3  -4   49.00   20.20
   1  -3  -4   57.59   12.10
   1  -3  -4   45.80   13.90
   1   3  -4   90.59   18.20
  -1   3   4   80.19   14.00
   1   3  -4   69.69   30.30
   1   3  -4   94.49   19.20
   1   3  -4   69.89   18.90
  -1   3   4   88.69   27.90
   0  -3  -4  774.82   51.29
   0  -3  -4  594.34   52.99
   0  -3   4  636.94   48.10
   0  -3   4  639.74   56.49
   0  -3   4  574.04   65.29
   0  -3  -4  561.14   54.39
   0  -3  -4  745.83   61.49
   0   3  -4  596.14   53.89
   0   3  -4  665.93   63.99
   0   3   4  649.34   70.29
   0   3   4  672.53   50.89
   0   3   4  794.02   62.09
   0   3  -4  726.43   58.29
  -1  -3  -4  379.16   43.20
   1  -3   4  447.36   52.69
   1  -3   4  445.66   33.10
   1  -3   4  465.95   50.69
  -1  -3  -4  414.06   37.00
  -1  -3  -4  431.46   45.40
  -1   3  -4  402.96   47.90
  -1   3  -4  412.16   42.60
   1   3   4  528.15   53.19
  -1   3  -4  512.45   42.10
   1   3   4  548.35   57.19
  -2  -3  -4    8.30   15.90
   2  -3   4   13.60   18.20
   2  -3   4   -1.10   13.20
  -2  -3  -4    0.80   14.70
   2  -3   4    0.90   16.20
   2   3   4   17.80   16.40
  -2   3  -4   13.40   16.60
  -2   3  -4   16.10   10.90
   2   3   4   -0.40   15.20
  -2   3  -4    6.50   16.90
   3  -3   4   42.70   10.70
   3  -3   4   40.90    8.90
  -3  -3  -4   68.39   12.60
   3  -3   4   42.30   15.60
   3  -3   4   56.59   17.50
   3  -3   4   39.00   16.70
   3  -3   4   28.90   11.50
   3   3   4   36.30   20.30
  -3   3  -4   40.10   10.40
   3   3   4   44.00   15.40
   3   3   4   40.90    9.80
   4  -3   4   56.59   10.40
   4  -3   4   53.99    8.40
   4  -3   4   38.10   13.00
  -4  -3  -4   71.19    9.60
   4  -3   4   64.49   10.50
   4  -3   4   51.19   14.20
   4  -3   4   45.00   13.80
  -4  -3  -4   76.99   10.40
  -4   3  -4   74.39   10.00
   4   3   4   54.39   14.90
   4   3   4   87.89   16.00
   4   3   4   75.49   11.80
   4   3   4   49.20   14.30
   5  -3   4   -1.90    4.70
   5  -3   4    5.10    2.50
  -5   3  -4    9.60    3.30
   5   3   4    7.70    4.50
   5   3   4    9.40    2.80
   6  -4  -4   35.80    7.90
   6  -4  -4   27.60    6.80
   6  -4  -4   43.90    9.50
   6   4  -4   45.10    9.60
   6   4  -4   53.19    7.20
   6   4  -4   48.40   11.40
   6   4  -4   37.50    6.00
   6   4  -4   42.40    9.70
   5  -4  -4   18.60    8.50
   5  -4  -4   25.20    7.10
   5  -4  -4   17.50   10.70
   5  -4  -4   31.70   11.40
   5   4  -4   36.00   13.20
   5   4  -4   28.30   11.10
   5   4  -4   28.00   12.50
   5   4  -4   37.80    8.30
   5   4  -4   26.30    6.90
   5   4  -4   31.40    6.90
   4  -4  -4  288.67   27.10
   4  -4  -4  297.07   26.90
   4  -4  -4  384.66   35.30
   4  -4  -4  354.66   35.80
   4  -4  -4  295.77   31.90
   4   4  -4  436.16   43.10
   4   4  -4  461.85   36.80
   4   4  -4  538.25   46.70
   4   4  -4  422.46   43.50
   4   4  -4  506.55   36.10
   4   4  -4  449.56   38.70
   4   4  -4  465.85   37.10
   3  -4  -4  345.37   44.40
   3  -4  -4  365.86   49.99
  -3  -4   4  334.17   39.80
   3  -4  -4  336.47   37.70
  -3  -4   4  423.06   43.60
   3   4  -4  388.66   42.80
   3   4  -4  296.37   56.99
  -3   4   4  321.17   40.00
  -3   4   4  325.97   32.10
   3   4  -4  375.56   40.10
   2  -4  -4   78.09   20.80
   2  -4  -4   88.59   20.20
  -2  -4   4   99.29   18.50
  -2  -4   4   63.09   17.80
   2  -4  -4   97.89   25.90
  -2  -4   4   88.29   12.80
   2   4  -4  107.99   25.60
  -2   4   4  136.29   17.60
  -2   4   4   96.69   28.20
   2   4  -4  189.48   44.80
   2   4  -4  166.88   24.40
  -1  -4   4 1050.69   95.49
   1  -4  -4 1081.99   89.39
   1  -4  -4 1217.48   84.59
  -1  -4   4 1174.18   87.39
  -1  -4   4 1226.48   81.89
   1  -4  -4 1174.38   98.59
  -1   4   4 1550.54  125.09
  -1   4   4 1509.35  103.29
   1   4  -4 1566.44  117.59
   1   4  -4 1212.58  128.49
   1   4  -4 1452.85  108.39
  -1   4   4 1485.25  108.29
   0  -4  -4 1211.78   93.29
   0  -4   4 1269.97  102.79
   0  -4  -4 1161.98   82.69
   0  -4   4 1213.48   80.49
   0  -4   4  914.91   86.79
   0  -4  -4  956.70   86.09
   0  -4  -4 1279.97   87.19
   0   4   4 1269.57  109.09
   0   4  -4 1484.05  106.89
   0   4   4 1613.14  124.89
   0   4  -4 1549.24  106.59
   0   4  -4 1279.77  113.79
   0   4   4 1412.06  100.19
  -1  -4  -4    4.30    6.60
   1  -4   4   13.00   15.70
   1  -4   4    9.40   14.70
   1  -4   4   12.10    5.80
  -1  -4  -4   10.30    9.40
  -1  -4  -4    6.60   10.00
  -1   4  -4    6.20    9.90
  -1   4  -4    6.60   11.40
   1   4   4    6.90   12.90
  -1   4  -4    4.30    6.30
   1   4   4    2.50   12.00
  -2  -4  -4  259.47   39.40
  -2  -4  -4  188.88   38.90
   2  -4   4  217.98   42.30
   2  -4   4  342.77   48.60
   2  -4   4  249.68   30.10
  -2   4  -4  235.98   46.90
   2   4   4  358.76   48.90
   2   4   4  320.57   43.50
  -2   4  -4  380.26   37.50
   3  -4   4  249.78   25.00
   3  -4   4  241.88   30.40
   3  -4   4  242.38   21.80
  -3  -4  -4  265.37   23.50
   3  -4   4  170.18   28.40
   3  -4   4  268.87   24.80
   3  -4   4  263.97   35.10
   3   4   4  171.48   22.60
  -3   4  -4  158.88   17.70
   3   4   4  153.08   24.20
   3   4   4  168.78   29.20
   3   4   4  170.48   18.00
  -4  -4  -4   34.50    7.40
   4  -4   4   18.00   10.90
  -4  -4  -4   37.80    7.60
   4  -4   4   21.90   11.20
   4  -4   4   10.90   10.50
   4  -4   4   33.10    8.40
   4  -4   4   23.20    6.50
   4  -4   4   27.50    8.40
   4   4   4   13.20   10.60
   4   4   4   24.50   11.50
  -4   4  -4   51.39    9.40
   4   4   4   45.90   11.60
   4   4   4   41.60    8.70
   5  -4   4    1.50    2.10
   5  -4   4   -0.30    4.60
  -5  -4  -4    5.00    2.20
  -5   4  -4    5.20    2.70
   5   4   4    3.50    2.30
   5   4   4    3.10    4.20
   6  -5  -4   63.39   10.70
   6  -5  -4   42.00    8.00
   6   5  -4   93.09    9.90
   6   5  -4   99.39   13.00
   6   5  -4   85.49    9.30
   6   5  -4  108.19   15.90
   6   5  -4  104.19   13.90
   5  -5  -4   77.89   14.10
   5  -5  -4   99.79   17.80
   5  -5  -4   54.09   13.90
   5  -5  -4   79.89   11.00
   5   5  -4  173.08   16.90
   5   5  -4  170.08   25.50
   5   5  -4  182.78   16.60
   5   5  -4  161.48   22.40
   5   5  -4  176.98   21.90
   5   5  -4  194.58   18.10
   4  -5  -4   47.50   15.20
   4  -5  -4   48.20   10.40
   4  -5  -4   44.30   15.50
   4  -5  -4   60.29   14.40
   4  -5  -4   48.40    9.20
   4   5  -4   60.89   11.10
   4   5  -4   57.69   17.90
   4   5  -4   65.39   11.00
   4   5  -4   59.49   16.10
   4   5  -4   77.59   10.20
   4   5  -4   53.69   16.20
   4   5  -4   49.80   10.90
   3  -5  -4   82.29   23.80
  -3  -5   4  123.29   22.20
  -3  -5   4   81.69   20.30
   3  -5  -4  107.59   20.20
   3   5  -4  146.49   29.80
   3   5  -4  203.68   47.00
  -3   5   4  192.38   30.10
  -3   5   4  211.68   22.70
   3   5  -4  212.98   30.20
   2  -5  -4 1865.91  147.69
  -2  -5   4 1939.61  128.99
   2  -5  -4 1793.72  143.79
  -2  -5   4 1970.90  136.89
   2  -5  -4 1781.22  138.69
   2  -5  -4 1811.82  132.39
  -2  -5   4 1945.01  141.19
  -2   5   4 2127.89  142.19
  -2   5   4 2038.70  162.18
   2   5  -4 2135.29  149.49
   2   5  -4 1909.31  173.48
  -1  -5   4  360.76   35.60
  -1  -5   4  303.27   39.60
   1  -5  -4  295.87   39.90
  -1  -5   4  273.87   34.00
   1  -5  -4  356.26   36.30
   1  -5  -4  297.47   39.90
   1  -5  -4  322.47   30.80
  -1  -5   4  354.56   28.90
   1   5  -4  334.27   57.19
  -1   5   4  394.76   41.80
   1   5  -4  421.26   40.20
   1   5  -4  508.35   51.89
  -1   5   4  380.06   34.80
  -1   5   4  514.05   57.69
   0  -5   4 1182.18   78.79
   0  -5  -4  977.20   85.19
   0  -5  -4 1293.87   81.89
   0  -5  -4 1227.08   93.39
   0  -5   4 1015.50   86.59
   0  -5   4 1022.00   96.79
   0  -5  -4 1077.49   83.99
   0   5  -4 1283.77  105.89
   0   5   4 1362.56   89.79
   0   5   4 1267.47  100.29
   0   5   4 1190.48  110.09
   0   5  -4 1153.28   94.89
   0   5  -4 1366.46   95.69
   1  -5   4  533.95   59.99
   1  -5   4  712.33   70.29
  -1  -5  -4  628.54   49.30
   1  -5   4  599.64   44.30
  -1  -5  -4  477.35   52.89
  -1   5  -4  614.94   65.99
   1   5   4  887.01   72.79
  -1   5  -4  645.24   60.49
  -1   5  -4  849.02   62.39
   1   5   4  856.61   75.89
  -1   5  -4  728.73   54.59
   2  -5   4  142.79   35.00
  -2  -5  -4  147.69   28.40
   2  -5   4  114.99   20.50
   2  -5   4  209.08   42.80
  -2   5  -4  179.78   38.90
  -2   5  -4  268.47   29.50
   2   5   4  203.18   36.40
   3  -5   4   15.10    6.80
   3  -5   4   10.90   13.40
   3  -5   4   12.10   13.60
   3  -5   4    8.90   11.80
  -3  -5  -4   10.60    7.20
   3  -5   4   10.30    7.80
   3  -5   4    6.60    7.70
   3   5   4    5.70    5.50
   3   5   4   -4.20   11.40
   3   5   4    7.90   10.10
   3   5   4    0.90    9.50
   4  -5   4   68.69   16.00
  -4  -5  -4  109.79   10.80
  -4  -5  -4  112.09   11.10
   4  -5   4   58.99   15.20
   4  -5   4   99.49   13.40
   4  -5   4  102.39   13.10
   4  -5   4   88.49   11.10
   4  -5   4   73.99   17.00
   4   5   4   93.69   17.80
   4   5   4  136.49   17.10
   4   5   4  132.99   13.90
   4   5   4   73.99   16.00
   5  -5   4   33.40    6.00
  -5  -5  -4   62.09    7.40
   6   6  -4    1.00    6.10
   6   6  -4    0.40    5.00
   6   6  -4    4.60    3.80
   6   6  -4    0.90    3.00
   6   6  -4    4.40    5.70
   5  -6  -4   66.29   12.70
   5  -6  -4   37.90   12.20
   5   6  -4  101.39   13.00
   5   6  -4  111.09   14.00
   5   6  -4  103.79   19.40
   5   6  -4  113.69   19.70
   5   6  -4  128.09   19.90
   5   6  -4  101.59   12.60
   4  -6  -4   82.49   13.60
   4  -6  -4  129.19   20.90
   4  -6  -4  105.39   14.60
   4  -6  -4  127.39   21.10
   4   6  -4  158.68   25.80
   4   6  -4  154.48   17.70
   4   6  -4  160.98   25.20
   4   6  -4  162.38   16.10
   4   6  -4  157.28   16.90
   4   6  -4  132.69   24.90
   4   6  -4  147.59   18.30
   3  -6  -4  197.98   36.40
   3  -6  -4  161.48   25.40
  -3  -6   4  171.18   28.50
  -3  -6   4  162.08   25.60
  -3   6   4  122.09   17.80
   3   6  -4  132.69   29.50
   3   6  -4  153.18   25.70
   3   6  -4  115.49   37.30
  -3   6   4  118.89   24.60
  -2  -6   4  331.07   32.10
   2  -6  -4  298.47   26.90
  -2  -6   4  237.98   22.70
  -2  -6   4  180.98   29.50
   2  -6  -4  173.28   33.50
   2  -6  -4  261.67   31.10
   2   6  -4  357.36   54.49
  -2   6   4  195.88   39.00
   2   6  -4  164.28   34.80
   2   6  -4  318.17   32.30
  -2   6   4  263.37   25.30
   1  -6  -4  958.40   86.29
  -1  -6   4 1236.78   76.69
   1  -6  -4 1027.10   84.69
  -1  -6   4 1127.39   81.49
  -1  -6   4  919.01   88.49
   1  -6  -4 1154.78   79.19
  -1   6   4 1291.67   99.59
   1   6  -4 1400.06   96.89
  -1   6   4 1282.07  113.49
  -1   6   4 1274.57   90.89
   1   6  -4 1158.28  118.49
   1   6  -4 1233.28  107.69
   0  -6  -4  411.06   37.60
   0  -6   4  477.65   36.20
   0  -6  -4  377.86   42.10
   0  -6   4  510.65   57.69
   0  -6  -4  501.15   42.20
   0   6   4  376.66   45.10
   0   6  -4  493.05   43.10
   0   6   4  416.06   35.50
   0   6  -4  457.45   42.70
   0   6  -4  380.66   48.80
   0   6   4  486.95   57.69
   1  -6   4  108.09   31.70
  -1  -6  -4   86.89   16.10
   1  -6   4  104.49   12.90
  -1  -6  -4   91.79   20.10
   1  -6   4  100.69   26.80
   1   6   4   70.09   23.50
  -1   6  -4   90.69   12.40
  -1   6  -4  104.79   24.50
  -1   6  -4   98.79   18.50
   1   6   4  150.68   28.60
  -2  -6  -4  206.18   21.00
  -2  -6  -4  235.18   21.50
  -2  -6  -4  149.79   41.50
   2  -6   4  275.67   33.70
   2  -6   4  239.18   23.80
   2  -6   4  306.67   64.99
   2  -6   4  248.58   29.40
   2  -6   4  225.68   35.70
   2  -6   4  219.38   43.80
  -2   6  -4  194.98   26.00
  -2   6  -4  139.19   34.10
   2   6   4  251.47   51.29
  -2   6  -4  135.89   18.60
   2   6   4  197.38   23.80
   2   6   4  183.28   17.40
  -3  -6  -4  135.39   15.00
   3  -6   4  113.69   24.30
   3  -6   4  128.59   17.20
   3  -6   4  132.99   15.20
   3  -6   4  108.29   21.70
   3  -6   4  126.49   16.80
   3  -6   4  100.29   21.10
   3   6   4   86.09   17.70
   3   6   4  106.09   21.50
   3   6   4   86.19   12.30
   4  -6   4    3.80    6.20
   4  -6   4    4.30    9.20
  -4  -6  -4    0.30    3.90
  -4  -6  -4    6.70    3.70
   4  -6   4    0.80    5.00
   4  -6   4    3.30    5.70
   4  -6   4    0.40    8.60
   4  -6   4    2.60    8.40
   4   6   4   11.20    8.40
   4   6   4    5.20    8.00
   4   6   4    5.40    4.70
   6   7  -4   74.09   12.00
   6   7  -4   89.49   11.80
   6   7  -4   77.89   11.20
   6   7  -4   59.59    7.70
   6   7  -4   58.99    8.20
   5   7  -4  160.98   15.10
   5   7  -4  144.09   19.60
   5   7  -4  129.09   14.10
   5   7  -4  152.98   15.40
   5   7  -4  139.29   18.60
   5   7  -4  135.39   20.40
   4  -7  -4   17.40   12.50
   4  -7  -4   31.00    8.30
   4  -7  -4   25.10    8.60
   4   7  -4   31.40    9.00
   4   7  -4   44.70    9.10
   4   7  -4   35.60   13.60
   4   7  -4   27.70   14.90
   4   7  -4   28.90    8.50
   4   7  -4   56.39    9.80
   4   7  -4   41.50   13.80
  -3  -7   4  391.06   45.30
   3  -7  -4  399.36   51.89
  -3  -7   4  503.35   44.40
   3  -7  -4  430.06   42.80
  -3   7   4  523.15   55.19
   3   7  -4  693.53   56.49
   3   7  -4  564.24   73.59
   3   7  -4  450.65   60.49
  -3   7   4  611.14   46.80
  -2  -7   4 1242.58   86.49
  -2  -7   4 1302.97   98.09
   2  -7  -4 1178.18   90.39
  -2  -7   4 1275.67   94.39
   2  -7  -4 1052.69  101.29
   2  -7  -4 1288.37   96.39
   2   7  -4 1398.06  105.09
  -2   7   4 1334.07   98.89
   2   7  -4 1353.26  130.69
  -2   7   4 1487.25  121.69
  -1  -7   4  225.08   21.30
   1  -7  -4  181.98   23.20
   1  -7  -4  218.58   27.90
  -1  -7   4  208.58   33.70
   1  -7  -4  208.08   31.20
  -1  -7   4  148.89   23.00
  -1   7   4  315.57   46.60
   1   7  -4  206.08   46.70
   1   7  -4  348.67   43.40
  -1   7   4  234.98   24.60
  -1   7   4  170.18   31.50
   0  -7   4  507.15   36.80
   0  -7  -4  411.16   43.30
   0  -7  -4  413.96   41.20
   0  -7  -4  525.05   39.70
   0  -7   4  481.15   57.89
   0   7  -4  530.25   58.49
   0   7   4  496.15   60.99
   0   7  -4  477.15   48.20
   0   7   4  557.04   41.50
   0   7   4  570.94   53.09
   1  -7   4  521.65   60.49
  -1  -7  -4  612.04   49.90
  -1  -7  -4  492.35   52.39
   1  -7   4  716.93   74.69
   1  -7   4  606.64   44.60
   1   7   4  743.53   69.99
  -1   7  -4  512.35   59.49
   1   7   4  608.04   59.19
  -1   7  -4  573.14   45.90
  -1   7  -4  681.53   54.49
  -2  -7  -4  303.67   35.20
   2  -7   4  168.78   27.80
  -2  -7  -4  197.58   19.80
   2  -7   4  250.17   23.00
   2  -7   4  223.38   22.50
   2  -7   4  240.18   34.90
  -2  -7  -4  216.18   17.70
   2  -7   4  196.58   28.80
  -2  -7  -4  207.78   20.30
   2  -7   4  260.97   21.50
  -2   7  -4  159.08   22.30
   2   7   4  202.28   19.00
   2   7   4  215.68   25.00
   3  -7   4    6.70   11.60
   3  -7   4    3.20    7.60
   3  -7   4   15.30    7.30
   3  -7   4   17.90    8.40
   3  -7   4    4.00   12.40
  -3  -7  -4   14.70    6.90
   3  -7   4    6.30   11.50
  -3  -7  -4   11.50    5.40
   3   7   4    5.40    5.10
   3   7   4    4.20    9.40
   3   7   4   12.80   11.50
   4  -7   4   88.89   12.20
   4  -7   4   86.39   12.00
   4  -7   4   42.50   13.20
  -4  -7  -4   96.39    9.60
   4  -7   4   72.89   10.50
  -4  -7  -4   96.19    9.90
   4   7   4   67.79    9.40
   4   7   4   37.40   10.80
   6   8  -4    7.80    5.90
   6   8  -4   12.10    5.80
   6   8  -4   10.40    4.20
   6   8  -4    5.20    5.10
   6   8  -4    7.00    3.10
   5   8  -4   69.09   10.00
   5   8  -4   77.39   11.20
   5   8  -4   88.09   11.30
   5   8  -4   92.09   15.80
   5   8  -4   79.19   15.60
   5   8  -4   74.39   15.30
   4  -8  -4  105.39   14.90
   4  -8  -4  110.09   15.20
   4   8  -4  174.58   25.50
   4   8  -4  165.68   18.20
   4   8  -4  166.88   18.60
   4   8  -4  169.78   25.10
   4   8  -4  141.29   24.70
   4   8  -4  158.38   17.00
   3  -8  -4  429.36   54.29
  -3  -8   4  392.76   44.60
  -3  -8   4  405.66   41.10
  -3   8   4  462.35   49.20
   3   8  -4  432.46   64.89
  -3   8   4  490.95   40.40
   3   8  -4  455.15   58.79
  -2  -8   4   13.30    7.30
   2  -8  -4   10.00    7.50
   2  -8  -4   13.80   10.70
   2  -8  -4   15.60   13.40
  -2  -8   4   23.30   11.40
  -2  -8   4    6.20   11.00
  -2   8   4   -6.30    7.10
   2   8  -4    7.50   16.20
  -2   8   4    7.90   15.10
   2   8  -4    7.30   19.50
  -1  -8   4  980.90   74.19
   1  -8  -4  966.70   79.69
  -1  -8   4  753.22   82.09
   1  -8  -4 1054.29   72.79
  -1  -8   4 1089.59   69.79
   1  -8  -4  956.60   78.69
  -1   8   4 1410.76   97.99
   1   8  -4 1296.47  125.29
  -1   8   4 1510.85  123.99
   1   8  -4 1321.47  116.99
  -1   8   4 1359.16  108.69
   0  -8  -4  798.92   63.49
   0  -8   4  834.32   60.79
   0  -8   4  943.51   86.59
   0  -8  -4  713.43   67.99
   0  -8  -4  890.31   68.19
   0   8   4 1192.98   84.79
   0   8  -4 1234.78   95.69
   0   8  -4 1069.69  103.19
   0   8   4 1129.99   95.59
   0   8   4 1338.97  109.69
  -1  -8  -4   -4.30    8.50
  -1  -8  -4   14.70    8.20
   1  -8   4   14.70   19.70
   1  -8   4    0.00   14.30
   1  -8   4    3.90    7.00
  -1   8  -4    6.40   12.60
  -1   8  -4   12.30    9.10
   1   8   4   10.00   15.60
   1   8   4    5.00   11.30
  -1   8  -4    4.70    5.70
   2  -8   4  169.78   26.80
   2  -8   4  210.18   21.10
  -2  -8  -4  192.58   18.40
  -2  -8  -4  156.48   17.00
   2  -8   4  192.88   21.50
   2  -8   4  202.68   20.00
   2  -8   4  276.97   36.20
  -2  -8  -4  193.88   15.80
   2  -8   4  190.38   27.50
   2   8   4  118.19   14.60
   2   8   4  119.89   19.80
  -3  -8  -4  216.98   19.30
   3  -8   4  148.29   26.00
   3  -8   4  214.78   31.60
   3  -8   4  209.78   21.60
   3  -8   4  215.18   21.60
   3  -8   4  167.38   26.80
  -3  -8  -4  193.88   18.30
   3  -8   4  220.58   20.10
   3   8   4  236.98   20.90
   3   8   4  247.98   28.30
   3   8   4  216.48   26.20
  -4  -8  -4   19.00    5.40
   4  -8   4   15.00    6.30
   4  -8   4   17.90    6.40
   4  -8   4   17.00    6.60
  -4  -8  -4   17.90    4.60
   4  -8   4   15.40    8.70
   4  -8   4   12.50   10.00
   4   8   4   22.80    9.10
  -4   8  -4   22.60    6.10
   4   8   4   21.00    5.60
   6   9  -4   32.40    7.80
   6   9  -4   44.90   11.20
   6   9  -4   39.20    7.00
   6   9  -4   23.90    5.30
   5   9  -4   53.39    8.10
   5   9  -4   53.59    8.80
   5   9  -4   44.40   12.30
   5   9  -4   51.39    8.50
   5   9  -4   52.79   12.10
   5   9  -4   49.99   12.50
  -4  -9   4    7.30    7.30
   4   9  -4   15.70    7.30
   4   9  -4    9.60   10.00
   4   9  -4   12.20    6.20
   4   9  -4    8.10    6.30
   4   9  -4   19.20    6.90
   4   9  -4   11.60   12.10
   4   9  -4   16.80   11.40
   3  -9  -4  131.69   13.70
   3  -9  -4  125.29   33.10
   3  -9  -4  153.58   19.90
  -3  -9   4   85.29   21.70
   3  -9  -4  132.19   22.30
   3  -9  -4  102.79   15.60
   3  -9  -4   97.79   14.60
   3   9  -4  111.79   18.70
   3   9  -4  164.18   45.00
   3   9  -4  158.58   19.20
   3   9  -4  165.98   18.40
   3   9  -4  158.78   16.90
  -3   9   4  159.68   20.80
   2  -9  -4  554.34   62.19
   2  -9  -4  581.64   49.99
  -2  -9   4  605.94   53.39
  -2  -9   4  643.84   46.10
   2   9  -4  619.34   78.29
  -2   9   4  676.43   52.29
  -2   9   4  707.33   73.29
   1  -9  -4  174.78   27.20
   1  -9  -4  121.49   18.90
  -1  -9   4  119.69   19.80
   1  -9  -4  140.49   24.70
  -1  -9   4  161.28   17.50
  -1   9   4  142.29   18.20
   1   9  -4  119.99   36.30
  -1   9   4  100.19   26.20
  -1   9   4  174.88   37.80
   1   9  -4  160.68   32.10
   0  -9  -4  267.17   31.10
   0  -9   4  279.77   26.10
   0  -9  -4  352.36   29.70
   0  -9   4  272.17   49.10
   0  -9  -4  300.97   35.20
   0   9  -4  474.15   56.19
   0   9  -4  394.66   44.80
   0   9   4  453.15   36.20
   0   9   4  385.76   54.39
   0   9   4  470.25   48.00
   1  -9   4  451.05   59.39
  -1  -9  -4  299.87   37.00
   1  -9   4  443.96   32.70
  -1  -9  -4  404.66   37.60
   1  -9   4  355.16   49.99
   1   9   4  375.56   43.90
  -1   9  -4  329.97   45.40
  -1   9  -4  360.26   30.90
  -1   9  -4  372.06   38.70
   1   9   4  398.26   50.99
   2  -9   4  109.99   24.90
   2  -9   4  147.59   16.30
   2  -9   4  147.39   17.30
   2  -9   4   80.49   19.90
   2  -9   4  157.78   17.80
   2  -9   4  116.39   12.90
  -2  -9  -4  120.69   15.70
  -2  -9  -4  100.09   11.30
  -2  -9  -4   85.19   11.30
   2   9   4   54.79   26.70
   2   9   4   55.69    9.50
   2   9   4   55.19   14.40
   3  -9   4   30.30    9.20
   3  -9   4   20.00   13.40
  -3  -9  -4   28.20    7.80
  -3  -9  -4   17.10    5.40
  -3  -9  -4   24.80    5.30
   3  -9   4    9.40    8.10
   3  -9   4   29.20   14.60
   3  -9   4   20.80    8.80
   3   9   4    5.20    4.70
   3   9   4   11.80   10.60
   3   9   4   13.70   10.10
   4  -9   4   43.30    8.20
   4  -9   4   32.20   10.80
   4  -9   4   41.00    8.20
  -4  -9  -4   46.10    5.90
   4  -9   4   29.60   11.60
  -4  -9  -4   39.90    6.90
   4  -9   4   30.30    7.30
   4   9   4   35.60   10.30
   4   9   4   40.70    6.90
  -6 -10   4    6.10    2.90
   6  10  -4    5.10    3.00
  -5 -10   4   33.60    7.00
   5  10  -4   72.49    9.30
   5  10  -4   72.89    9.90
   5  10  -4   61.49    9.70
   5  10  -4   64.79   13.70
   5  10  -4   74.89   13.50
   5  10  -4   72.49   13.30
  -4 -10   4  267.07   26.60
   4  10  -4  363.86   36.30
   4  10  -4  295.87   33.70
   4  10  -4  361.66   30.90
   4  10  -4  371.36   30.00
   4  10  -4  414.26   30.00
   4  10  -4  379.46   29.90
   3 -10  -4  145.19   13.60
   3 -10  -4  161.38   19.50
   3 -10  -4  165.18   15.40
   3 -10  -4  141.29   20.50
   3 -10  -4  173.08   22.30
   3  10  -4  194.28   21.80
   3  10  -4  200.28   19.20
   3  10  -4  143.09   18.40
   3  10  -4  206.48   21.10
   3  10  -4  191.38   34.80
   2 -10  -4   24.10    9.60
   2 -10  -4    8.90   13.40
  -2 -10   4   16.20    7.60
   2  10  -4   28.30   20.20
  -2  10   4   53.09   23.40
   2  10  -4   59.89   29.80
  -2  10   4   59.99   11.70
  -1 -10   4  846.02   69.79
   1 -10  -4  872.61   75.99
   1 -10  -4  919.71   69.09
  -1 -10   4  964.80   65.99
  -1  10   4  995.00   71.39
  -1  10   4 1044.00   96.99
   1  10  -4  915.21   90.49
   1  10  -4  917.91   98.09
  -1  10   4  950.20   83.69
   0 -10  -4  593.44   55.89
   0 -10   4  654.03   47.00
   0 -10   4  622.44   69.59
   0 -10  -4  563.24   52.99
   0 -10  -4  633.04   49.70
   0  10  -4  713.13   80.19
   0  10   4  854.91   59.79
   0  10   4  845.72   82.79
   0  10   4  724.13   71.09
   0  10  -4  830.72   71.99
   1 -10   4  164.08   39.70
  -1 -10  -4   69.89   17.80
   1 -10   4  115.59   28.70
  -1 -10  -4  154.38   22.90
   1 -10   4  135.29   15.80
   1  10   4  144.39   33.00
  -1  10  -4  117.79   16.00
  -1  10  -4  119.39   29.90
   1  10   4  115.09   26.00
  -1  10  -4  166.08   27.60
   2 -10   4  216.48   22.40
   2 -10   4  220.38   19.40
  -2 -10  -4  223.78   17.80
   2 -10   4  227.38   23.10
  -2 -10  -4  198.48   19.40
   2 -10   4  247.78   23.60
  -2 -10  -4  202.08   19.00
   2 -10   4  214.98   31.10
   2 -10   4  252.47   35.10
  -2  10  -4  204.98   21.40
   2  10   4  218.88   19.70
   2  10   4  235.78   27.70
   2  10   4  211.98   25.70
  -3 -10  -4  201.18   17.80
  -3 -10  -4  216.28   16.70
  -3 -10  -4  211.98   18.70
   3 -10   4  215.08   21.70
   3 -10   4  154.68   27.20
   3 -10   4  218.88   21.60
   3 -10   4  173.98   29.00
   3 -10   4  190.98   21.10
   3  10   4  218.58   18.90
   3  10   4  177.78   23.50
  -3  10  -4  208.18   20.40
   3  10   4  229.88   26.10
  -4 -10  -4   16.30    3.80
   4 -10   4   12.30    8.20
   4 -10   4   14.30    5.90
   4 -10   4   17.20   10.40
   4 -10   4   16.30    5.70
  -4 -10  -4   13.60    4.50
   4 -10   4   22.40    6.70
   4  10   4   15.40    4.60
  -4  10  -4   13.70    4.60
   4  10   4   10.40    7.40
  -5 -11   4   49.70    8.00
   5  11  -4   83.69    9.70
   5  11  -4   82.49   13.90
   5  11  -4   76.29   10.10
   5  11  -4   66.99    9.50
   5  11  -4   68.49   14.40
  -4 -11   4   21.20    8.90
   4  11  -4   31.80    8.00
   4  11  -4   25.20    7.50
   4  11  -4   34.70    8.80
   4  11  -4   31.70    7.40
   3 -11  -4  223.18   19.40
  -3 -11   4  286.27   27.50
   3 -11  -4  208.48   25.40
   3 -11  -4  214.48   17.90
   3 -11  -4  251.37   24.60
   3 -11  -4  179.88   21.10
   3  11  -4  244.18   23.80
   3  11  -4  285.87   24.60
   3  11  -4  234.98   25.10
   3  11  -4  286.07   24.40
  -2 -11   4  500.25   36.40
   2 -11  -4  427.46   53.99
  -2 -11   4  425.36   42.00
   2 -11  -4  421.36   40.20
  -2  11   4  626.74   51.19
   2  11  -4  582.44   72.99
  -2  11   4  760.82   75.29
   2  11  -4  633.84   79.19
   1 -11  -4   49.00   12.90
  -1 -11   4   48.80   13.50
   1 -11  -4   67.09   18.00
  -1 -11   4   66.79   11.40
  -1  11   4  124.19   32.70
   1  11  -4   91.99   27.00
   1  11  -4  105.69   34.70
  -1  11   4   50.59   23.40
  -1  11   4   88.99   14.50
   0 -11  -4  129.09   18.70
   0 -11  -4   72.99   17.10
   0 -11   4  100.79   13.50
   0 -11   4   82.19   28.30
   0  11  -4   83.19   21.70
   0  11   4   93.99   29.60
   0  11   4  119.79   27.40
   0  11  -4  143.79   37.10
  -1 -11  -4  408.36   34.50
  -1 -11  -4  395.66   30.80
   1 -11   4  449.36   35.00
  -1 -11  -4  391.66   33.00
   1 -11   4  433.86   36.10
   1 -11   4  436.96   46.80
   1 -11   4  428.86   35.60
  -1 -11  -4  420.46   34.70
   1 -11   4  427.06   32.40
   1  11   4  471.25   34.60
   1  11   4  475.35   57.59
  -1  11  -4  420.36   39.10
  -1  11  -4  404.76   55.09
   2 -11   4  217.08   21.60
   2 -11   4  186.18   17.30
   2 -11   4  189.98   30.90
  -2 -11  -4  164.88   17.00
   2 -11   4  204.38   22.30
   2 -11   4  206.88   20.60
   2 -11   4  168.38   29.10
  -2 -11  -4  174.18   15.60
   2  11   4  231.08   27.60
   2  11   4  235.48   20.60
   2  11   4  219.78   26.50
  -3 -11  -4   51.89    7.00
   3 -11   4   53.59   18.00
   3 -11   4   53.29   16.30
   3 -11   4   44.20   10.60
   3 -11   4   52.99   10.90
   3 -11   4   38.30   10.50
  -3 -11  -4   43.70    7.70
  -3 -11  -4   68.99   10.50
   3  11   4   32.90    7.10
   3  11   4   51.09   14.10
   3  11   4   38.20   11.70
  -4 -11  -4   64.09    6.40
   4 -11   4   46.70    7.90
   4 -11   4   41.70   10.80
   4 -11   4   48.80   13.10
   4 -11   4   63.39    9.50
   4 -11   4   68.49    9.50
  -4 -11  -4   66.59    7.20
   4  11   4   93.29    9.30
   4  11   4   66.49   12.20
  -5 -12   4   13.10    4.50
   5  12  -4   20.60   11.80
   5  12  -4   36.20    6.50
   5  12  -4   36.90    6.50
   5  12  -4   33.30    6.50
  -4 -12   4  185.18   21.00
   4  12  -4  276.27   23.40
   4  12  -4  279.27   23.90
   4  12  -4  260.87   24.40
   3 -12  -4  150.58   19.20
  -3 -12   4  155.88   22.30
   3 -12  -4  144.49   15.10
   3 -12  -4  176.58   22.90
   3 -12  -4  159.28   13.80
   3  12  -4  129.29   18.10
   3  12  -4  137.79   17.80
   3  12  -4  147.99   15.70
  -2 -12   4   41.10    9.00
   2 -12  -4   47.50   12.40
   2 -12  -4   27.40    5.70
   2 -12  -4   33.10   10.30
  -2 -12   4   54.39   14.60
   2 -12  -4   48.30    8.20
  -2 -12   4   35.80   10.00
   2 -12  -4   31.80    8.00
   2 -12  -4   39.20   13.90
   2 -12  -4   24.50   18.30
   2  12  -4   47.80   10.90
   2  12  -4   26.90    9.50
   2  12  -4   38.50   10.30
  -1 -12   4  620.94   41.90
  -1 -12   4  402.56   42.80
   1 -12  -4  511.15   51.09
   1 -12  -4  517.55   44.40
   1  12  -4  503.95   61.39
  -1  12   4  549.85   64.59
  -1  12   4  527.45   42.00
  -1  12   4  470.95   55.29
   0 -12   4  278.37   48.50
   0 -12  -4  268.97   31.70
   0 -12  -4  233.08   28.60
   0 -12   4  283.27   25.10
   0  12   4  190.18   36.10
   0  12   4  204.38   23.60
   0  12  -4  237.88   37.30
   0  12   4  227.48   45.00
   1 -12   4    5.90    5.40
   1 -12   4    8.40   11.80
  -1 -12  -4    8.20    4.20
   1 -12   4   15.90    8.90
  -1 -12  -4   12.10    4.90
   1 -12   4    9.60    7.90
  -1 -12  -4    8.60    5.90
   1  12   4   14.50    5.40
   2 -12   4  158.28   16.00
  -2 -12  -4  168.88   16.60
   2 -12   4  146.89   19.60
   2 -12   4  185.88   30.00
   2 -12   4  192.28   21.50
  -2 -12  -4  180.68   15.10
   2 -12   4  195.98   20.90
   2 -12   4  195.78   30.00
   2  12   4  211.28   25.40
   2  12   4  193.58   18.90
   2  12   4  254.17   27.10
   3 -12   4   79.19   12.60
  -3 -12  -4   93.89   10.60
  -3 -12  -4   86.39    9.00
   3 -12   4   98.49   14.20
   3 -12   4   78.19   19.60
   3 -12   4   89.49   19.70
   3 -12   4  107.39   14.60
   3  12   4   57.59   12.80
   3  12   4   61.29    9.00
   3  12   4   61.59   14.50
   4 -12   4    0.90    4.60
   4 -12   4    0.90    5.10
   4 -12   4    0.50    4.20
   4 -12   4   -0.20    3.90
  -4 -12  -4    3.50    2.80
   4 -12   4    0.20    7.50
   4  12   4   -1.50    5.60
   4  12   4    3.80    3.10
  -5 -13   4   42.80    6.50
   5  13  -4   72.89    8.80
   5  13  -4   82.49    9.60
  -4 -13   4   10.40    5.40
  -4 -13   4    7.20    6.50
   4 -13  -4    5.30    4.60
   4  13  -4    7.20    5.40
   4  13  -4    0.90    5.60
   4  13  -4    4.40    6.00
  -3 -13   4  207.18   23.70
   3 -13  -4  190.08   16.00
   3 -13  -4  167.38   19.30
   3 -13  -4  196.78   17.60
   3 -13  -4  209.68   22.80
   3  13  -4  288.87   24.70
   3  13  -4  231.88   24.20
   2 -13  -4  476.15   39.10
  -2 -13   4  521.85   45.20
   2 -13  -4  509.55   36.70
  -2 -13   4  510.75   38.90
   2 -13  -4  498.15   37.70
   2 -13  -4  502.85   43.10
   2 -13  -4  540.75   44.10
   2 -13  -4  475.35   41.50
   2  13  -4  595.84   48.20
   2  13  -4  639.34   46.70
  -1 -13   4   83.09   16.70
   1 -13  -4   92.39   11.60
   1 -13  -4   91.09   18.80
  -1 -13   4   70.49   15.80
   1 -13  -4   89.29   12.10
   1 -13  -4   83.89   14.90
  -1 -13   4   91.89   12.50
   1 -13  -4   85.89   10.30
   1 -13  -4   89.99   12.40
  -1  13   4   48.10   25.30
   1  13  -4  117.09   14.70
   0 -13  -4   80.69   10.20
   0 -13   4  102.09   39.00
   0 -13  -4  132.69   18.50
   0 -13  -4  112.59   12.50
   0 -13  -4  100.99   17.50
   0 -13   4   96.39   12.40
   0 -13   4  112.89   13.80
   0 -13  -4  111.69   13.00
   0 -13   4  102.89   15.70
   0 -13  -4  122.19   17.70
   0 -13   4   92.19   15.50
   1 -13   4  358.86   32.60
   1 -13   4  360.46   39.50
   1 -13   4  327.57   29.70
   1 -13   4  418.96   32.80
  -1 -13  -4  370.96   30.40
   1 -13   4  393.86   29.70
  -1 -13  -4  369.76   28.20
  -1 -13  -4  351.66   31.30
  -1 -13  -4  391.16   29.00
   1  13   4  407.26   32.00
   2 -13   4  239.48   21.90
   2 -13   4  180.18   29.20
  -2 -13  -4  158.88   17.10
   2 -13   4  191.68   17.10
   2 -13   4  187.68   21.70
   2 -13   4  196.98   30.80
  -2 -13  -4  187.08   15.90
   2 -13   4  184.38   20.90
   2  13   4  215.78   19.00
   2  13   4  207.98   25.10
   2  13   4  186.78   25.30
   3 -13   4    4.40    6.90
   3 -13   4    2.90   10.20
   3 -13   4    4.10    6.80
   3 -13   4   -0.10    6.50
  -3 -13  -4    2.50    3.90
   3 -13   4    2.50   11.70
  -3 -13  -4    1.30    2.80
   3  13   4    3.30    3.50
   3  13   4    0.20    8.00
   4 -13   4   21.00    8.70
   4 -13   4   24.50    5.30
   4 -13   4   38.10    6.30
  -4 -13  -4   28.50    4.80
   4 -13   4   12.90    6.10
   4 -13   4   30.90    5.80
   4  13   4   25.40    7.30
   4  13   4   43.30    5.50
  -5 -14   4   21.40    4.30
  -5 -14   4   22.00    4.50
   5  14  -4   49.00    6.40
   5  14  -4   48.80    6.80
   4 -14  -4   60.19    7.30
  -4 -14   4   59.69    9.20
  -4 -14   4   51.79   11.30
   4 -14  -4   60.99    8.20
   4  14  -4  124.09   14.50
   4  14  -4  110.19   13.50
   4  14  -4  110.39   12.60
   3 -14  -4   67.19    8.10
   3 -14  -4   60.49    9.20
  -3 -14   4   38.20   13.00
   3 -14  -4   46.30   12.50
   3 -14  -4   54.89   14.00
  -3 -14   4   58.79   10.70
   3 -14  -4   66.49   12.20
   3  14  -4  128.09   16.40
   3  14  -4  109.19   15.50
   2 -14  -4  200.78   23.30
  -2 -14   4  205.48   18.70
  -2 -14   4  308.67   28.70
   2 -14  -4  223.58   25.00
   2 -14  -4  198.38   17.90
   2 -14  -4  161.38   18.60
   2 -14  -4  178.68   16.40
   2 -14  -4  253.97   24.60
  -2 -14   4  162.48   19.40
   2  14  -4  214.18   22.50
   2  14  -4  238.98   21.30
   1 -14  -4  375.66   31.00
   1 -14  -4  374.56   36.40
   1 -14  -4  341.97   30.00
  -1 -14   4  355.36   29.30
   1 -14  -4  391.96   30.00
  -1 -14   4  443.16   37.60
   1 -14  -4  393.46   31.50
   1 -14  -4  383.36   28.60
   1 -14  -4  398.66   34.40
  -1 -14   4  384.26   30.70
   1  14  -4  454.35   36.60
   0 -14   4  209.38   18.00
   0 -14  -4  176.68   15.70
   0 -14  -4  175.48   17.00
   0 -14  -4  179.68   21.30
   0 -14  -4  187.48   23.80
   0 -14  -4  201.38   17.60
   0 -14   4  203.48   22.50
   0 -14   4  183.28   18.60
   1 -14   4   91.59   14.90
   1 -14   4  112.59   23.80
   1 -14   4   81.99   19.80
  -1 -14  -4   85.49   11.20
   1 -14   4   89.69   12.60
   1 -14   4   66.69   13.70
   1 -14   4   77.79   11.70
  -1 -14  -4  102.49   14.60
  -1 -14  -4  119.39   13.20
  -1 -14  -4   91.89   11.00
   1  14   4  100.69   12.80
   2 -14   4   71.89   20.40
   2 -14   4   59.19   12.40
   2 -14   4   99.29   14.70
  -2 -14  -4   88.69   10.00
   2 -14   4   97.69   21.30
  -2 -14  -4   84.69   12.40
   2 -14   4   74.59   10.30
   2  14   4   91.69   17.10
   2  14   4   98.49   18.10
   2  14   4   98.29   12.30
   3 -14   4   30.30   14.00
  -3 -14  -4   50.79    8.30
   3 -14   4   45.10    9.90
  -3 -14  -4   46.20    6.10
   3 -14   4   54.99   10.20
   3 -14   4   44.80    9.40
   3 -14   4   37.10   13.20
   3  14   4   99.79   10.00
   3  14   4   64.09   13.80
   4 -14   4    5.40    3.50
   4 -14   4    3.50    3.90
   4 -14   4   -1.80    7.30
   4 -14   4    4.00    3.50
   4 -14   4    5.50    3.90
  -4 -14  -4    5.10    2.60
   4  14   4    3.40    2.40
  -5 -15   4   31.90    4.60
  -5 -15   4   19.90    3.80
   5  15  -4   55.99    6.80
   4 -15  -4    0.60    3.30
  -4 -15   4    1.70    3.40
  -4 -15   4    2.40    5.60
   4 -15  -4   -1.10    2.80
   4  15  -4   -2.50    4.40
   4  15  -4   -2.70    4.80
  -3 -15   4  180.38   17.90
   3 -15  -4  167.98   14.70
   3 -15  -4  163.28   18.10
   3 -15  -4  194.28   23.40
   3 -15  -4  171.58   21.50
  -3 -15   4  171.88   22.90
   3  15  -4  229.78   23.20
   3  15  -4  289.57   23.80
  -2 -15   4  246.08   24.40
  -2 -15   4  291.27   30.60
   2 -15  -4  291.77   28.70
   2 -15  -4  276.47   24.70
   2 -15  -4  316.17   30.70
   2 -15  -4  291.07   23.60
   2 -15  -4  258.87   26.40
  -2 -15   4  286.17   24.70
   2 -15  -4  303.17   22.40
   2  15  -4  254.57   22.80
   2  15  -4  257.57   24.30
   1 -15  -4   27.00    9.80
   1 -15  -4   40.30    8.00
   1 -15  -4   38.90    8.80
  -1 -15   4   25.60    8.30
   1 -15  -4   35.20   10.70
  -1 -15   4   32.40   12.90
   1 -15  -4   41.50    6.60
   1 -15  -4   39.50    7.70
   1 -15  -4   22.80   14.30
  -1 -15   4   35.20    7.40
   1  15  -4   40.60    9.40
   1  15  -4   25.40    8.20
   0 -15  -4  197.18   18.90
   0 -15  -4  259.17   24.40
   0 -15  -4  197.68   24.20
   0 -15   4  207.58   23.70
   0 -15  -4  214.68   19.00
   0 -15   4  246.98   20.90
   0 -15   4  199.08   19.30
   0  15  -4  177.88   17.80
   1 -15   4  197.48   22.10
  -1 -15  -4  188.48   16.80
  -1 -15  -4  210.88   19.80
   1 -15   4  215.58   18.20
   1 -15   4  182.18   18.30
  -1 -15  -4  202.98   17.50
   1 -15   4  176.88   27.50
  -1 -15  -4  189.28   19.20
   1 -15   4  180.18   30.10
   1 -15   4  185.68   22.20
   1  15   4  184.28   17.40
   2 -15   4   71.79   12.20
   2 -15   4   30.70   16.40
  -2 -15  -4   46.90    9.00
   2 -15   4   38.70   10.40
   2 -15   4   41.70   10.40
   2 -15   4   37.70   14.40
  -2 -15  -4   44.80    9.60
   2 -15   4   43.90    7.80
  -2 -15  -4   46.10    6.90
   2  15   4   25.10   10.20
   2  15   4   40.00    7.60
   2  15   4   29.20   11.40
  -3 -15  -4   16.90    4.90
   3 -15   4   14.80    6.40
   3 -15   4   14.10   11.70
   3 -15   4   15.30    6.90
   3 -15   4   22.80    7.20
   3 -15   4   12.40    9.20
  -3 -15  -4   16.00    3.80
   3  15   4   22.40    8.70
   3  15   4   23.30    4.90
  -5 -16   4    3.70    1.80
   5  16  -4    6.60    2.80
   4 -16  -4   94.99    9.50
  -4 -16   4   96.69   10.40
   4 -16  -4   97.39    8.90
  -4 -16   4   88.49   13.50
   4  16  -4  145.99   14.00
   4  16  -4  144.39   13.90
   3 -16  -4  182.78   14.70
   3 -16  -4  166.48   17.40
   3 -16  -4  155.08   21.00
  -3 -16   4  155.68   22.20
  -3 -16   4  184.38   17.30
   3 -16  -4  165.98   21.10
   3 -16  -4  180.28   16.00
   3  16  -4  258.97   23.70
   3  16  -4  267.67   23.20
  -2 -16   4   31.30   12.30
   2 -16  -4   20.90    6.90
   2 -16  -4   32.30    7.00
   2 -16  -4   11.30    9.90
  -2 -16   4   40.80    8.10
   2 -16  -4   17.60   13.00
   2 -16  -4   26.90   10.30
   2 -16  -4   13.20    4.80
  -2 -16   4   20.70    6.90
   2  16  -4   39.30    9.50
   2  16  -4   38.80    8.50
   1 -16  -4  144.19   15.40
   1 -16  -4  148.39   20.10
   1 -16  -4  141.29   13.00
  -1 -16   4  150.08   23.00
   1 -16  -4  141.99   17.00
   1 -16  -4  145.49   16.80
   1 -16  -4  148.29   22.40
   1 -16  -4  140.29   14.80
  -1 -16   4  140.29   14.40
  -1 -16   4  146.89   16.50
   1  16  -4  169.38   19.20
   1  16  -4  178.58   19.00
   0 -16  -4  286.77   23.90
   0 -16   4  298.57   24.00
   0 -16   4  316.27   27.60
   0 -16  -4  260.37   27.40
   0 -16   4  313.27   25.60
   0 -16  -4  262.37   28.50
   0 -16  -4  289.57   24.00
   0  16  -4  329.97   27.80
   1 -16   4   26.80    9.20
   1 -16   4   21.30   15.30
  -1 -16  -4   22.80    5.70
   1 -16   4   19.30    6.40
   1 -16   4   26.30    9.90
   1 -16   4   20.80   12.40
  -1 -16  -4   27.00    6.20
   1 -16   4   22.00    6.50
  -1 -16  -4   26.40    8.50
   1  16   4   27.00    6.80
   2 -16   4   70.09   18.80
  -2 -16  -4   76.39    8.90
   2 -16   4   72.49   16.80
   2 -16   4   73.99    9.40
   2 -16   4   70.09   12.60
  -2 -16  -4   83.49    8.90
   2 -16   4   66.69   12.40
   2 -16   4   71.59   12.10
  -2 -16  -4   80.89   11.80
   2  16   4   38.20   11.80
   2  16   4   41.40   11.70
   2  16   4   42.80    7.60
   3 -16   4   92.19   11.30
   3 -16   4   96.79   11.80
  -3 -16  -4   89.19    8.00
   3 -16   4   67.49   15.50
   3 -16   4   93.39   11.50
  -3 -16  -4   80.59    8.90
   3 -16   4   72.59   14.20
   3  16   4  100.89    9.10
   3  16   4   65.39   11.90
  -4 -17   4    3.20    2.90
   4 -17  -4    5.50    2.70
   4 -17  -4    8.10    3.20
  -4 -17   4    7.60    5.70
   4  17  -4    9.70    4.10
   4  17  -4    9.10    4.40
   3 -17  -4   42.20   10.60
   3 -17  -4   45.80   12.70
  -3 -17   4   31.30    7.60
  -3 -17   4   47.00   12.30
   3 -17  -4   42.50    6.30
   3 -17  -4   56.09    8.10
   3 -17  -4   42.90    8.50
   3  17  -4   55.09    9.40
   3  17  -4   53.69    9.80
   2 -17  -4   80.39   17.40
  -2 -17   4   69.69   10.50
  -2 -17   4   60.49   15.40
   2 -17  -4   68.79    9.90
   2 -17  -4   71.19   11.00
   2 -17  -4   61.89   13.60
   2 -17  -4   69.59    8.50
   2 -17  -4   66.89   12.50
   2  17  -4  107.89   14.00
   2  17  -4  113.59   14.60
  -1 -17   4    3.20    8.20
   1 -17  -4   11.00    8.20
   1 -17  -4    9.90    7.90
  -1 -17   4    8.70    4.90
   1 -17  -4   12.60    5.40
   1 -17  -4    2.90   13.40
   1 -17  -4    6.80    4.50
  -1 -17   4    2.30    5.90
   1 -17  -4    8.90    5.70
   1 -17  -4    7.80    3.60
   1  17  -4   13.30    6.90
   1  17  -4   16.90    7.20
   0 -17  -4   35.00   11.60
   0 -17  -4   35.10   10.30
   0 -17  -4   22.40    6.30
   0 -17   4   17.20    5.80
   0 -17  -4   24.20    6.30
   0 -17   4   25.40    9.60
   0 -17   4   23.10    7.40
   0  17  -4    8.10    5.80
   0  17   4    6.00    6.90
   1 -17   4   87.99   14.70
   1 -17   4   98.19   21.10
  -1 -17  -4  110.29   11.80
  -1 -17  -4  114.69   11.50
   1 -17   4  121.79   12.70
   1 -17   4   89.19   12.20
   1  17   4  159.58   15.50
   2 -17   4   23.30    7.30
   2 -17   4   18.70    7.90
   2 -17   4   17.60   10.70
  -2 -17  -4   14.40    4.30
  -2 -17  -4   12.10    5.50
   2 -17   4   13.60    4.40
   2 -17   4    7.90   11.50
  -2 -17  -4   13.40    4.30
   2 -17   4   20.20    7.60
   2  17   4   14.50    8.00
   2  17   4   28.60    6.00
   2  17   4   14.80    8.70
   3 -17   4    8.10    5.10
   3 -17   4    4.20    4.50
   3 -17   4   26.80    8.60
  -3 -17  -4   10.20    3.00
  -3 -17  -4    7.60    3.70
   3 -17   4    7.20    8.60
   3 -17   4    7.50    4.70
   3  17   4    6.90    2.80
   3  17   4    9.10    5.80
   4 -18  -4   65.09    6.10
  -4 -18   4   42.80    5.70
  -4 -18   4   60.59    9.60
   4 -18  -4   64.79    5.80
   4  18  -4   98.59   10.10
   4  18  -4   94.19    9.60
   3 -18  -4   36.80   12.00
   3 -18  -4   30.10    8.90
  -3 -18   4   31.50    6.60
  -3 -18   4   32.90   10.30
   3 -18  -4   39.60    5.70
   3 -18  -4   48.50    7.10
   3  18  -4   34.00    7.40
   3  18  -4   62.39    9.50
   2 -18  -4    2.70    3.30
   2 -18  -4    6.70    6.80
   2 -18  -4    6.70    4.70
   2 -18  -4    9.90   13.20
   2 -18  -4    2.20    7.80
  -2 -18   4    4.20    8.90
  -2 -18   4    3.60    4.90
   2 -18  -4    3.70    4.20
   2  18  -4   22.10    7.10
   2  18  -4   13.20    6.60
   1 -18  -4  207.78   18.90
   1 -18  -4  203.58   22.40
   1 -18  -4  209.08   19.80
   1 -18  -4  201.28   17.90
  -1 -18   4  220.78   27.10
   1 -18  -4  206.18   19.70
  -1 -18   4  230.98   20.00
   1 -18  -4  202.48   16.80
  -1 -18   4  200.28   17.70
   1 -18  -4  223.68   27.40
   1  18  -4  264.67   22.60
   1  18  -4  235.48   22.70
   0 -18  -4  102.99   12.10
   0 -18  -4   92.29   14.80
   0 -18   4   94.19   11.70
   0 -18   4  100.69   12.90
   0 -18  -4  106.99   12.60
   0 -18   4   99.49   14.90
   0 -18  -4   94.99   16.20
   0  18   4   90.49   12.40
   0  18  -4   79.19   11.80
   1 -18   4    3.90    4.20
   1 -18   4    1.70    4.50
  -1 -18  -4   -1.40    3.20
  -1 -18  -4    3.30    3.60
   1 -18   4    0.90    6.50
   1 -18   4   -0.80   11.20
   1  18   4    4.90    4.30
  -1  18  -4    0.60    4.70
   2 -18   4   43.80   11.80
  -2 -18  -4   43.80    6.00
   2 -18   4   32.10    5.60
   2 -18   4   34.40    8.70
   2 -18   4   39.80    8.00
   2 -18   4   39.30   13.40
  -2 -18  -4   45.10    6.20
   2  18   4   41.70   10.10
   2  18   4   46.10   10.40
   2  18   4   60.69    7.90
   3 -18   4   21.60    6.70
   3 -18   4   28.30    5.80
   3 -18   4   20.80    8.10
  -3 -18  -4   32.30    4.10
   3 -18   4   34.00    5.70
   3  18   4   26.60    4.00
  -3  18  -4   24.60    4.10
   4 -19  -4   11.30    2.60
  -4 -19   4    7.30    2.50
   4 -19  -4    6.90    3.10
  -4 -19   4    5.20    4.20
   4  19  -4   14.10    3.60
   4  19  -4   14.50    3.70
   3 -19  -4   61.49   12.90
   3 -19  -4   41.00    9.40
   3 -19  -4   52.69    6.10
  -3 -19   4   39.30    6.80
   3 -19  -4   56.69    7.50
  -3 -19   4   53.69   11.30
   3  19  -4   62.99    9.00
   3  19  -4   53.69    8.10
   2 -19  -4  125.89   12.00
   2 -19  -4  142.19   13.30
   2 -19  -4  161.78   21.70
   2 -19  -4  148.99   15.80
  -2 -19   4  137.09   13.70
  -2 -19   4  147.89   21.20
   2 -19  -4  134.99   18.60
   2 -19  -4  143.89   14.50
   2  19  -4  170.38   16.90
   2  19  -4  172.98   16.50
   1 -19  -4   42.50    7.20
  -1 -19   4   48.50    7.00
   1 -19  -4   42.40    8.70
   1 -19  -4   52.29    8.80
   1 -19  -4   43.80   16.70
  -1 -19   4   62.49    9.50
   1 -19  -4   45.30    6.40
   1 -19  -4   45.60   11.20
   1 -19  -4   44.80    9.20
  -1 -19   4   58.59   14.20
   1  19  -4   56.09    9.70
   1  19  -4   60.89   10.10
   0 -19  -4    1.40    7.50
   0 -19  -4   16.90    5.60
   0 -19   4   10.00    4.60
   0 -19  -4   17.00    5.40
   0 -19  -4   16.70    7.30
   0 -19   4   14.60    5.90
   0  19   4   12.40    6.30
   0  19  -4    4.80    5.30
  -1 -19  -4  144.29   13.20
  -1 -19  -4  155.18   13.30
   1 -19   4  151.78   13.60
   1 -19   4  109.79   22.00
   1 -19   4  131.89   13.70
   1 -19   4  144.49   16.60
   1  19   4  170.28   15.20
  -1  19  -4  165.18   16.10
   1  19   4  157.08   21.80
  -2 -19  -4   34.40    5.10
   2 -19   4   31.90    4.90
   2 -19   4   29.30   11.70
   2 -19   4   27.40    7.50
   2 -19   4   22.40    8.70
   2 -19   4   34.20    8.20
  -2 -19  -4   36.20    5.30
   2  19   4   51.59    7.20
  -2  19  -4   59.29    7.90
  -4 -20   4    9.50    2.30
   3 -20  -4    2.60    4.40
   3 -20  -4    0.20    2.10
  -3 -20   4    1.70    2.70
   3 -20  -4   -0.30    2.70
   3 -20  -4   15.00   10.30
  -3 -20   4   -2.10    5.70
   3  20  -4    8.60    4.00
   3  20  -4   12.70    4.40
   2 -20  -4    5.60    3.00
   2 -20  -4    2.50    6.00
   2 -20  -4    3.30    3.90
   2 -20  -4   34.70   14.30
  -2 -20   4   13.90    8.50
  -2 -20   4    8.20    4.40
   2 -20  -4   11.60    6.40
   2 -20  -4    5.10    3.90
   2  20  -4    6.90    4.30
   2  20  -4    8.70    4.90
   1 -20  -4   18.00    6.40
   1 -20  -4   27.30   14.50
   1 -20  -4   23.00    6.10
   1 -20  -4   36.30    5.90
   1 -20  -4   28.90    8.80
  -1 -20   4   31.60   10.70
   1 -20  -4   24.00    4.60
  -1 -20   4   44.60    7.70
   1  20  -4   23.20    6.40
   1  20  -4   12.80    5.30
   0 -20   4   13.90    5.60
   0 -20  -4   23.40    5.60
   0 -20  -4   20.10    7.50
   0 -20  -4   12.30    8.10
   0 -20   4   17.80    5.10
   0 -20  -4   18.20    5.50
   0  20  -4   32.50    7.10
   0  20  -4   19.30    6.10
   0  20   4   34.50    7.00
  -1 -20  -4    9.50    4.00
   1 -20   4   10.50    4.10
   1 -20   4   13.70    6.80
   1 -20   4    2.30    3.60
   1 -20   4    2.20   10.20
  -1 -20  -4   10.10    3.90
   1  20   4    6.30    3.70
  -1  20  -4    4.40    4.30
   2 -20   4   21.30    7.20
  -2 -20  -4   30.80    4.40
   2 -20   4   20.30   10.60
   2 -20   4   26.70    4.10
  -2 -20  -4   30.50    4.30
   2 -20   4   27.90    6.30
   2  20   4   50.69    6.40
  -2  20  -4   59.89    7.30
  -3 -21   4   38.30    5.60
  -3 -21   4   42.40    8.70
   3 -21  -4   41.00    7.40
   3 -21  -4   44.40    5.30
   3 -21  -4   47.00    5.00
   3 -21  -4   56.69   11.10
   3  21  -4   63.59    7.20
   3  21  -4   67.19    7.60
   2 -21  -4   67.79    7.90
   2 -21  -4   59.99   10.60
   2 -21  -4   61.19    8.40
   2 -21  -4   70.59    7.20
  -2 -21   4   57.59    7.70
   2 -21  -4   72.89    8.70
  -2 -21   4   58.39   12.40
   2 -21  -4   69.69   15.60
   2  21  -4   57.39    7.90
   2  21  -4   62.69    8.10
   1 -21  -4   12.40    3.50
   1 -21  -4   14.40    3.80
  -1 -21   4   13.00    5.80
   1 -21  -4   -1.50   12.50
   1 -21  -4   14.20    6.50
  -1 -21   4   10.60    7.80
   1 -21  -4   22.30    5.50
   1  21  -4   13.40    4.90
   1  21  -4   11.60    4.50
   0 -21  -4   56.69    7.30
   0 -21   4   40.80    7.20
   0 -21   4   46.60    6.50
   0 -21  -4   37.00    8.40
   0 -21  -4   44.90    6.90
   0 -21  -4   31.60    8.90
   0  21   4   59.49    8.00
   0  21  -4   47.50    7.80
   0  21  -4   54.89    8.40
   1 -21   4   22.90   11.30
   1 -21   4   24.90    5.20
  -1 -21  -4   38.90    5.70
   1 -21   4   38.90    5.50
  -1 -21  -4   28.70    5.10
  -1  21  -4   58.89    7.90
   1  21   4   58.09    7.10
   1  21   4   44.30    9.60
   2 -21   4    3.20    1.90
  -2 -21  -4    3.90    2.30
   2  21   4   10.40    2.50
  -2  21  -4    9.20    3.10
   3 -22  -4   24.90    3.00
  -3 -22   4   16.60    5.40
   3 -22  -4   25.20    7.70
   3 -22  -4   18.60    3.00
   3  22  -4   40.40    5.30
  -2 -22   4   15.20    3.90
   2 -22  -4   10.30    2.80
  -2 -22   4   20.20    7.10
   2 -22  -4    8.80    3.40
   2 -22  -4   15.30    3.60
   2 -22  -4   16.10   10.90
   2 -22  -4   19.90    5.50
   2  22  -4   18.90    4.50
   2  22  -4   14.80    4.20
   1 -22  -4   32.50    4.90
   1 -22  -4   34.80    7.70
   1 -22  -4   39.80   12.10
  -1 -22   4   30.60    8.70
   1 -22  -4   36.60    4.70
   1 -22  -4   40.20    6.20
  -1 -22   4   39.70    6.60
   1  22  -4   57.89    8.00
   1  22  -4   58.29    7.80
  -1  22   4   78.49    9.30
   0 -22   4   69.59    8.30
   0 -22   4   83.09    7.90
   0 -22  -4   57.19    9.20
   0 -22  -4   58.99    9.90
   0 -22  -4   73.19    7.70
   0 -22  -4   58.39    7.60
   0  22  -4   83.79   10.20
   0  22   4  104.99    9.80
   0  22  -4  106.99   10.70
   1 -22   4    7.80   11.20
  -1 -22  -4    0.80    2.50
  -1 -22  -4   -0.90    2.40
   1 -22   4    1.00    2.50
   1 -22   4    0.80    2.60
   1  22   4    5.90    4.60
  -1  22  -4    3.00    3.40
  -1  22  -4    0.60    3.00
   1  22   4    2.90    2.50
   2 -23  -4   13.40    2.60
   2 -23  -4    9.30    2.60
  -2 -23   4   11.40    3.00
   2 -23  -4   11.80    7.90
   2 -23  -4    7.90    3.70
  -2 -23   4   12.30    5.40
  -2  23   4   13.60    4.20
   2  23  -4    8.60    3.00
   2  23  -4   13.60    3.30
   1 -23  -4    1.80    2.20
   1 -23  -4    1.90    2.10
  -1 -23   4   -1.00    4.20
   1 -23  -4   -8.00    6.60
  -1 -23   4    2.90    3.30
   1 -23  -4    0.10    3.60
   1 -23  -4    1.60    2.60
  -1  23   4    5.00    3.30
   1  23  -4    6.30    3.20
   1  23  -4    6.80    3.20
   0 -23   4   37.70    4.70
   0 -23  -4   34.00    5.10
   0 -23   4   31.50    5.10
   0 -23  -4   31.50    6.20
   0  23   4   29.40    8.00
   0  23  -4   22.40    4.30
   0  23   4   26.80    4.60
   0  23  -4   26.20    4.70
   1 -23   4   13.90    2.90
  -1 -23  -4   17.40    3.30
  -1  23  -4   26.50    4.30
   1  23   4   28.50    4.10
  -1 -24   4   23.00    3.70
   1 -24  -4   23.60    3.70
   1 -24  -4   17.00    4.30
   1 -24  -4   15.50    5.30
  -1  24   4   24.90    3.90
   1  24  -4   15.90    3.40
   0 -24  -4   26.20    3.70
   0 -24   4   20.70    3.60
   0  24  -4   26.20    4.00
   0  24   4   26.70    3.80
   6   0  -5   76.29   13.40
   6   0  -5   47.90    7.20
   6   0  -5   60.99   11.70
   6   0  -5   64.89   11.80
   5   0  -5   14.90   13.50
   5   0  -5   -4.30    5.10
   5   0  -5    7.10   10.10
   5   0  -5   -1.90    5.70
   5   0  -5    3.60    8.60
   4   0  -5  230.78   30.70
   4   0  -5  283.37   26.70
   4   0  -5  345.37   36.80
   4   0  -5  247.38   24.10
   4   0  -5  265.17   24.90
   4   0  -5  292.87   32.30
  -3   0   5  600.74   56.09
  -3   0   5  587.74   63.69
   3   0  -5  523.05   72.59
  -3   0   5  546.65   45.50
   3   0  -5  582.14   59.79
   2   0  -5  109.59   37.20
  -2   0   5  127.89   18.60
   2   0  -5  188.08   30.90
  -2   0   5  123.69   22.70
   2   0  -5  148.59   29.50
   1   0  -5  199.18   41.80
  -1   0   5  153.48   34.60
   1   0  -5  172.68   29.30
  -1   0   5  192.78   21.10
   1   0  -5  158.78   26.50
  -1   0   5  197.78   26.80
   0   0   5 1045.40   93.19
   0   0  -5  830.42   76.09
   0   0   5 1011.50   68.19
   0   0  -5  854.31   83.39
  -1   0  -5  255.97   33.80
  -1   0  -5  245.38   35.40
   1   0   5  394.66   50.59
  -2   0  -5  188.98   18.20
   2   0   5  195.58   28.20
   2   0   5  124.49   21.20
   3   0   5  184.68   22.00
   3   0   5  154.48   24.50
   3   0   5  192.68   24.80
  -3   0  -5  189.48   19.00
   4   0   5   18.00    6.00
  -4   0  -5   46.00    7.40
   4   0   5   20.50    8.00
   4   0   5   14.80    7.40
   6  -1  -5   20.80    7.70
   6  -1  -5   14.70    4.60
   6  -1  -5   22.50    8.00
   6  -1  -5   21.70    8.50
   6   1  -5   24.60    9.20
   6   1  -5   23.00    8.00
   6   1  -5   21.90    8.30
   6   1  -5   20.20    4.90
   5  -1  -5   75.09   17.00
   5  -1  -5   73.19   19.70
   5  -1  -5   95.99   19.40
   5  -1  -5   66.09   10.80
   5  -1  -5   75.39   12.20
   5   1  -5  119.39   22.20
   5   1  -5   99.19   14.20
   5   1  -5  125.89   22.10
   5   1  -5   98.29   13.50
   5   1  -5  104.89   21.70
   4  -1  -5   56.29   20.00
   4  -1  -5   55.99   10.70
   4  -1  -5   31.10   11.80
   4  -1  -5   52.29   10.70
   4  -1  -5   50.79   16.10
   4  -1  -5   61.19   16.60
   4   1  -5  119.79   23.10
   4   1  -5   89.09   13.40
   4   1  -5  102.29   14.90
   4   1  -5   96.39   23.40
   4   1  -5   90.49   16.60
   4   1  -5   99.89   20.90
   3  -1  -5  120.09   26.50
  -3  -1   5   93.89   25.10
   3  -1  -5  106.19   35.50
  -3  -1   5  115.39   24.50
  -3  -1   5  115.39   15.70
   3   1  -5  113.89   25.70
  -3   1   5  105.19   24.20
   3   1  -5  118.59   38.50
  -3   1   5  100.49   16.60
  -2  -1   5  494.45   46.40
   2  -1  -5  513.95   53.09
  -2  -1   5  494.55   40.50
   2  -1  -5  498.05   67.39
   2  -1  -5  406.76   51.49
   2   1  -5  407.76   66.19
   2   1  -5  469.15   49.40
  -2   1   5  382.76   52.39
  -2   1   5  454.55   44.00
   2   1  -5  474.55   50.09
  -2   1   5  471.65   38.60
  -1  -1   5  167.98   37.00
  -1  -1   5  133.29   23.20
   1  -1  -5  197.08   28.80
   1  -1  -5  169.88   28.80
   1  -1  -5  168.78   38.80
  -1  -1   5  159.58   19.20
  -1   1   5  119.29   21.50
   1   1  -5  118.99   24.00
  -1   1   5  122.89   17.20
   1   1  -5  135.89   36.10
   0  -1  -5   32.50   14.80
   0  -1   5    8.10   18.30
   0  -1   5   -2.80    6.90
   0   1   5    3.30    8.70
   0   1  -5    9.50   12.00
   0   1  -5   17.00   13.30
   0   1   5    7.70   18.50
   0   1   5   99.59   28.90
   1  -1   5  147.99   32.00
  -1  -1  -5  143.89   27.50
   1  -1   5  107.49   30.50
  -1  -1  -5  102.89   20.80
   1   1   5  153.38   33.70
   1   1   5  291.17   41.70
  -1   1  -5  148.09   24.20
  -1   1  -5  110.79   26.10
   2  -1   5  266.77   29.30
  -2  -1  -5  254.47   22.80
   2  -1   5  227.78   27.90
   2  -1   5  225.68   31.80
   2   1   5  203.08   29.20
  -2   1  -5  192.08   20.10
   2   1   5  290.57   28.10
   2   1   5  192.68   23.50
   3  -1   5   15.00   12.10
  -3  -1  -5   96.09   11.80
   3  -1   5   61.09   15.20
   3   1   5   49.90   14.50
   3   1   5    6.10    8.10
   4  -1   5   15.60    7.70
   4  -1   5   11.50    5.70
   4  -1   5   14.50    7.60
  -4  -1  -5   37.90    6.50
  -4   1  -5   27.70    6.10
   4   1   5   18.40    5.70
   4   1   5   21.40    8.20
  -4   1  -5   26.00    6.20
   6  -2  -5   34.20    9.00
   6  -2  -5   19.30    5.10
   6  -2  -5   24.80    8.00
   6  -2  -5   32.40    8.50
   6   2  -5   16.80    7.20
   6   2  -5    8.20    7.60
   6   2  -5    8.00    6.30
   6   2  -5    8.30    4.10
   5  -2  -5   18.70   14.80
   5  -2  -5    8.80    9.20
   5  -2  -5   15.20    7.10
   5  -2  -5   11.90   10.50
   5  -2  -5    2.70    5.30
   5   2  -5   12.50   10.30
   5   2  -5   26.60   13.10
   5   2  -5   24.00   13.40
   5   2  -5    7.60    6.50
   5   2  -5   11.20    6.00
   4  -2  -5  176.58   22.00
   4  -2  -5  143.69   24.90
   4  -2  -5  141.29   27.40
   4  -2  -5  135.59   17.60
   4  -2  -5  166.68   19.70
   4  -2  -5  179.08   26.80
   4   2  -5  111.79   22.00
   4   2  -5  123.89   15.90
   4   2  -5  101.69   14.50
   4   2  -5  128.79   17.70
   4   2  -5  118.59   23.40
   4   2  -5  120.39   24.70
  -3  -2   5  364.86   45.50
   3  -2  -5  325.77   48.50
   3  -2  -5  381.66   45.60
  -3  -2   5  337.47   40.60
   3  -2  -5  345.17   55.09
  -3  -2   5  325.47   30.40
  -3   2   5  218.98   35.20
   3   2  -5  329.77   42.00
   3   2  -5  290.17   60.69
  -3   2   5  277.57   28.30
   2  -2  -5   49.20   18.30
  -2  -2   5   24.90   13.90
  -2  -2   5   48.80   11.40
   2  -2  -5   28.90   22.20
   2  -2  -5   81.99   22.40
   2   2  -5   51.29   31.00
  -2   2   5   70.09   14.70
   2   2  -5  120.19   25.00
   2   2  -5   78.19   21.20
  -2   2   5  112.49   28.10
  -2   2   5   46.00   16.80
   1  -2  -5  257.77   33.60
  -1  -2   5  340.97   34.50
   1  -2  -5  284.37   38.90
  -1  -2   5  266.07   27.00
   1  -2  -5  322.57   47.90
  -1  -2   5  235.18   42.60
  -1   2   5  270.47   28.30
  -1   2   5  278.37   48.70
  -1   2   5  302.57   34.70
   1   2  -5  269.07   34.10
   1   2  -5  282.27   35.30
   1   2  -5  315.37   51.19
   0  -2   5  759.52   78.59
   0  -2   5  775.52   54.89
   0  -2  -5  645.74   62.99
   0  -2  -5  716.23   61.49
   0  -2  -5  731.43   70.69
   0   2   5  743.43   69.59
   0   2   5  884.91   84.09
   0   2   5  810.52   58.29
   0   2  -5  743.93   74.29
   0   2  -5  702.43   65.49
   1  -2   5  179.48   36.60
   1  -2   5  152.68   32.50
  -1  -2  -5  135.09   23.50
  -1  -2  -5  138.59   27.50
  -1   2  -5   90.19   23.70
  -1   2  -5  124.89   22.70
   1   2   5  174.98   35.10
   1   2   5  162.78   31.70
  -2  -2  -5  171.08   16.40
   2  -2   5  117.99   24.00
   2  -2   5  112.69   20.30
  -2  -2  -5  136.89   18.00
   2   2   5  112.89   21.30
   2   2   5   78.89   14.00
   3  -2   5   59.29   16.20
  -3  -2  -5   72.59   18.40
   3  -2   5   63.09   12.60
   3  -2   5   46.40   15.80
  -3  -2  -5   82.89   12.80
  -3   2  -5   88.19   12.00
   3   2   5   72.19   13.70
   3   2   5   77.89   16.10
   3   2   5   56.39   14.80
   4  -2   5   18.90    7.80
  -4  -2  -5   37.60    6.40
   4  -2   5    9.20    7.20
   4  -2   5   20.30    6.20
  -4   2  -5   19.50    5.80
   4   2   5    8.20    4.60
  -4   2  -5   11.00    4.40
   4   2   5   20.70    8.10
   4   2   5   13.70    6.60
   6  -3  -5   32.80    8.70
   6  -3  -5   26.90    7.20
   6  -3  -5   15.20    4.70
   6  -3  -5   25.00    8.00
   6   3  -5   33.90    9.50
   6   3  -5   38.70    9.50
   6   3  -5   26.80    5.40
   6   3  -5   31.20   10.10
   5  -3  -5  211.08   23.50
   5  -3  -5  183.38   19.10
   5  -3  -5  194.88   23.40
   5  -3  -5  158.18   17.10
   5  -3  -5  159.98   27.60
   5   3  -5  319.27   32.60
   5   3  -5  235.88   29.30
   5   3  -5  291.47   22.50
   5   3  -5  299.57   25.10
   5   3  -5  292.07   32.20
   5   3  -5  258.67   24.00
   4  -3  -5  196.78   22.30
   4  -3  -5  196.08   19.70
   4  -3  -5  189.88   26.00
   4  -3  -5  212.98   22.80
   4  -3  -5  198.78   25.80
   4  -3  -5  166.48   31.60
   4   3  -5  254.67   22.40
   4   3  -5  216.28   29.80
   4   3  -5  246.38   34.90
   4   3  -5  238.98   24.40
   4   3  -5  244.48   23.20
   4   3  -5  221.28   29.20
   3  -3  -5   20.80   16.10
   3  -3  -5   15.20   19.40
  -3  -3   5   13.90   13.70
   3  -3  -5   14.30   14.50
  -3  -3   5   17.80    8.90
  -3  -3   5   27.00   15.70
  -3   3   5   36.40   17.80
   3   3  -5   50.99   19.30
  -3   3   5   57.29   13.40
   3   3  -5   54.79   31.60
  -2  -3   5 1086.69   85.89
   2  -3  -5  979.70   90.89
  -2  -3   5 1125.89   78.29
   2  -3  -5 1092.09  104.59
  -2  -3   5 1083.99   91.69
  -2   3   5 1201.28   96.39
  -2   3   5 1195.38  109.89
   2   3  -5 1284.17  100.59
  -2   3   5 1243.28   89.49
  -1  -3   5  796.92   67.19
   1  -3  -5  851.81   83.79
   1  -3  -5  680.73   69.49
  -1  -3   5  787.12   78.79
  -1  -3   5  893.31   61.09
   1  -3  -5  827.02   69.99
  -1   3   5 1076.29   94.49
  -1   3   5  879.01   73.59
  -1   3   5  883.81   67.79
   1   3  -5  806.42   73.69
   1   3  -5  884.51   95.79
   0  -3   5  226.58   43.50
   0  -3  -5  137.69   26.10
   0  -3  -5  167.18   24.50
   0  -3  -5  157.28   31.00
   0  -3   5  148.79   17.90
   0   3   5  211.08   40.80
   0   3  -5  154.48   32.80
   0   3   5  167.18   29.50
   0   3   5  156.98   19.20
   0   3  -5  154.48   25.60
   1  -3   5  495.85   58.19
  -1  -3  -5  357.86   43.70
  -1  -3  -5  363.26   40.50
   1  -3   5  469.85   53.09
  -1   3  -5  430.36   44.50
   1   3   5  504.85   53.49
  -1   3  -5  352.26   46.30
   1   3   5  482.95   55.79
  -2  -3  -5  313.67   26.30
   2  -3   5  314.87   34.30
   2  -3   5  306.07   30.20
   2  -3   5  323.97   36.40
  -2  -3  -5  294.57   26.20
   2   3   5  393.86   33.90
  -2   3  -5  370.26   33.20
   2   3   5  460.95   39.40
   2   3   5  460.85   41.60
  -3  -3  -5   26.40    8.40
  -3  -3  -5   49.80    9.60
   3  -3   5    8.90    8.60
   3  -3   5   16.30   12.50
  -3   3  -5   47.40   10.30
   3   3   5   75.49   14.80
   3   3   5   40.50   10.30
   3   3   5   40.60   13.30
   4  -3   5    6.50    6.70
   4  -3   5    7.10    6.90
  -4  -3  -5   25.70    5.10
   4  -3   5   13.90    5.60
  -4   3  -5   15.60    5.90
   4   3   5   10.60    6.50
   4   3   5   11.70    4.70
  -4   3  -5   14.40    5.00
   4   3   5   16.30    7.70
   6  -4  -5   30.70    7.30
   6  -4  -5   32.90    8.00
   6  -4  -5   20.10    7.10
   6   4  -5   50.09    7.00
   6   4  -5   56.29    6.80
   6   4  -5   50.49   10.10
   6   4  -5   57.69   12.70
   6   4  -5   68.29   11.40
   5  -4  -5    8.70    8.10
   5  -4  -5    2.50    6.70
   5  -4  -5    1.70    4.90
   5  -4  -5    5.80    8.30
   5  -4  -5    6.20   11.10
   5   4  -5   10.80    4.80
   5   4  -5   14.70   11.90
   5   4  -5    5.80    5.00
   5   4  -5   12.90   11.50
   5   4  -5   11.90    6.20
   5   4  -5    7.00    9.20
   4  -4  -5  132.09   27.40
   4  -4  -5  102.79   16.00
   4  -4  -5   80.89   13.30
   4  -4  -5  119.89   16.80
   4  -4  -5  122.09   21.50
   4  -4  -5  104.29   20.40
   4   4  -5  151.68   26.70
   4   4  -5  135.89   14.50
   4   4  -5  116.19   22.80
   4   4  -5  143.29   25.60
   4   4  -5   99.09   14.60
   4   4  -5  130.59   16.80
   4   4  -5  129.39   18.20
  -3  -4   5  410.86   47.00
   3  -4  -5  439.36   53.19
   3  -4  -5  410.96   49.40
  -3  -4   5  431.96   35.90
  -3  -4   5  414.96   48.80
  -3   4   5  455.55   43.70
   3   4  -5  618.04   56.79
   3   4  -5  474.85   76.59
  -3   4   5  498.35   52.19
   3   4  -5  594.84   71.59
   2  -4  -5    7.40   19.20
   2  -4  -5    8.90   13.40
  -2  -4   5   21.00   14.00
   2  -4  -5   27.90   15.30
  -2  -4   5    9.70   13.00
  -2  -4   5   16.00    8.90
   2   4  -5   42.10   17.30
  -2   4   5   17.20   13.00
   2   4  -5    6.30   22.50
  -2   4   5   37.00   23.20
  -2   4   5   14.00    9.40
   2   4  -5   30.50   16.20
   1  -4  -5   77.39   19.40
  -1  -4   5   74.19   25.90
  -1  -4   5  166.88   23.70
  -1  -4   5  108.89   14.80
   1  -4  -5  117.29   24.20
   1  -4  -5  128.79   32.50
  -1   4   5  117.39   34.00
   1   4  -5   91.89   22.70
  -1   4   5  142.99   18.20
   1   4  -5  169.58   26.00
   1   4  -5  183.48   43.00
   0  -4   5  380.86   29.80
   0  -4  -5  276.87   36.50
   0  -4   5  350.36   50.39
   0  -4  -5  361.26   36.70
   0   4   5  368.56   41.80
   0   4  -5  363.36   38.20
   0   4  -5  316.97   44.60
   0   4   5  299.37   31.00
   0   4   5  380.36   52.39
   0   4  -5  347.07   36.80
   1  -4   5   82.99   28.60
   1  -4   5  151.18   36.10
  -1  -4  -5   83.59   18.70
  -1   4  -5  113.49   27.10
   1   4   5  138.79   30.10
   1   4   5  159.48   32.70
   2  -4   5   53.09   18.00
  -2  -4  -5   52.89   10.70
   2  -4   5   33.80   10.90
   2   4   5   65.79   15.90
   2   4   5   58.19   11.10
  -2   4  -5   64.39   11.90
   3  -4   5   89.29   14.40
   3  -4   5   64.89   22.40
  -3  -4  -5  122.49   15.40
   3  -4   5   71.29   19.60
  -3  -4  -5  108.49   12.60
   3  -4   5   80.49   16.00
   3   4   5   94.29   17.40
   3   4   5   88.99   13.80
  -3   4  -5   95.09   12.30
   4  -4   5    6.70    5.00
   4  -4   5    5.80    6.50
  -4  -4  -5   15.20    4.30
  -4  -4  -5    8.10    3.40
   4  -4   5   -1.80    6.10
   4   4   5    8.40    4.20
  -4   4  -5    7.60    4.90
   4   4   5   10.80    6.20
   4   4   5   10.80    6.80
   6  -5  -5   21.80    5.90
   6  -5  -5   19.70    6.20
  -6  -5   5   22.90    4.60
   6   5  -5   22.60    7.30
   6   5  -5   20.90    4.40
   6   5  -5   24.10    7.50
   6   5  -5   20.20    4.50
   5  -5  -5  164.38   20.30
   5  -5  -5  154.48   17.80
   5  -5  -5  135.09   23.60
   5  -5  -5  169.08   20.00
   5  -5  -5  132.79   15.70
   5   5  -5  199.98   27.90
   5   5  -5  164.28   25.00
   5   5  -5  153.88   21.70
   5   5  -5  198.38   16.10
   5   5  -5  184.38   17.70
   5   5  -5  151.48   16.70
   4  -5  -5   54.79   12.00
   4  -5  -5   56.39   10.40
   4  -5  -5   64.19   15.30
   4  -5  -5   48.30   11.20
   4  -5  -5   31.80   18.00
   4   5  -5   68.29   11.70
   4   5  -5   67.99   11.90
   4   5  -5   78.79   10.70
   4   5  -5   73.19   20.50
   4   5  -5   44.90   11.90
   4   5  -5   56.19   17.70
   4   5  -5   78.99   18.70
   3  -5  -5  201.08   23.40
  -3  -5   5  212.58   31.30
   3  -5  -5  129.89   32.00
   3  -5  -5  147.39   17.10
   3  -5  -5  259.87   26.00
  -3  -5   5  161.98   29.60
   3  -5  -5  216.58   35.00
   3  -5  -5  310.27   63.99
  -3   5   5  163.88   22.20
  -3   5   5  240.68   33.20
   3   5  -5  103.89   27.90
   3   5  -5  162.28   21.50
   3   5  -5  233.28   59.59
   3   5  -5  195.48   31.60
   3   5  -5  242.18   22.60
   3   5  -5  226.38   33.40
  -2  -5   5  471.25   50.69
   2  -5  -5  464.35   52.39
   2  -5  -5  406.76   55.19
  -2  -5   5  523.75   48.70
  -2  -5   5  496.65   40.00
  -2   5   5  563.44   44.90
   2   5  -5  482.15   86.99
  -2   5   5  538.45   51.39
  -2   5   5  534.55   66.39
   2   5  -5  490.75   57.79
   2   5  -5  584.14   53.79
   1  -5  -5 1026.30   71.89
   1  -5  -5  920.11   77.49
  -1  -5   5  880.91   74.09
  -1  -5   5  820.72   84.39
  -1  -5   5 1033.50   68.49
   1  -5  -5  834.82   78.09
   1   5  -5  704.43   64.29
   1   5  -5  780.42   71.39
  -1   5   5  810.42   83.99
  -1   5   5  749.62   58.29
   1   5  -5  753.22   87.79
   0  -5  -5   29.20   14.20
   0  -5   5   34.90    9.10
   0  -5   5   34.80   22.50
   0  -5  -5   37.70   12.60
   0   5  -5   45.20   21.20
   0   5  -5   38.30   13.40
   0   5   5   40.10   22.30
   0   5  -5   28.10   13.90
   0   5   5   21.30    9.50
   0   5   5   37.20   17.50
  -1  -5  -5  192.98   29.40
   1  -5   5  339.07   50.99
   1   5   5  240.08   39.30
  -1   5  -5  192.18   37.70
   1   5   5  307.07   40.20
  -1   5  -5  281.67   30.30
  -2  -5  -5  392.16   30.60
   2  -5   5  367.16   31.10
  -2  -5  -5  340.07   30.20
   2  -5   5  430.96   44.20
   2  -5   5  372.16   33.20
   2   5   5  306.47   26.60
   2   5   5  297.67   31.70
  -3  -5  -5   12.10    5.20
   3  -5   5    5.10    6.60
   3  -5   5   -3.60   10.50
   3  -5   5    0.10   10.90
   3  -5   5    3.80    6.60
  -3  -5  -5    5.90    5.80
   3   5   5    3.40    8.20
   3   5   5    3.70    5.50
  -4  -5  -5    4.30    3.90
   4  -5   5    5.00    6.00
  -4  -5  -5    1.90    2.50
  -4  -5  -5    6.80    3.10
   4  -5   5   -1.20    6.50
   4  -5   5    5.50    4.40
   4   5   5    7.30    4.20
   4   5   5    7.60    6.50
  -4   5  -5    5.30    4.50
   4   5   5    7.90    6.10
  -6  -6   5   66.39    7.50
   6   6  -5   97.39   12.00
   6   6  -5  109.59    9.00
   6   6  -5   99.29   11.20
   6   6  -5   78.09    8.80
   6   6  -5   89.09   13.80
   5  -6  -5    5.40    9.70
   5  -6  -5    8.90    6.60
   5  -6  -5    1.10    6.40
   5  -6  -5    3.60    5.20
   5   6  -5    9.40    8.60
   5   6  -5    2.40    4.40
   5   6  -5   10.20   10.00
   5   6  -5   11.20    4.90
   5   6  -5    5.80    5.50
   5   6  -5    2.40    9.30
   4  -6  -5  165.58   29.90
   4  -6  -5  183.38   19.60
   4  -6  -5  148.59   17.40
   4  -6  -5  167.38   25.00
   4  -6  -5  167.58   21.10
   4   6  -5  223.08   32.00
   4   6  -5  230.38   22.30
   4   6  -5  207.28   31.30
   4   6  -5  226.08   21.20
   4   6  -5  192.08   19.10
   4   6  -5  209.38   30.60
   4   6  -5  193.38   20.60
   3  -6  -5  409.76   38.00
   3  -6  -5  482.45   52.19
   3  -6  -5  487.05   39.20
   3  -6  -5  473.15   34.20
   3  -6  -5  586.74   56.59
   3  -6  -5  412.76   44.50
   3  -6  -5  404.46   35.10
   3  -6  -5  427.96   35.70
  -3  -6   5  511.65   52.39
   3   6  -5  574.24   44.30
   3   6  -5  601.94   46.70
   3   6  -5  772.32   63.29
   3   6  -5  620.24   46.90
  -3   6   5  713.33   56.29
   3   6  -5  664.53   49.80
   3   6  -5  725.73   50.19
   3   6  -5  446.46   51.59
   3   6  -5  560.74   55.59
  -2  -6   5  243.68   48.40
  -2  -6   5  202.78   22.10
  -2  -6   5  174.58   28.00
   2  -6  -5  223.08   36.00
   2  -6  -5  207.18   36.40
  -2   6   5  186.68   24.20
   2   6  -5  237.88   33.00
   2   6  -5  223.08   38.00
  -2   6   5  231.18   44.60
   2   6  -5  228.28   58.59
  -1  -6   5  237.48   23.70
  -1  -6   5  190.48   38.90
  -1  -6   5  242.58   30.00
   1  -6  -5  279.47   27.40
   1  -6  -5  228.88   34.90
   1  -6  -5  223.88   31.00
  -1   6   5  347.57   31.30
   1   6  -5  295.07   41.60
   1   6  -5  344.67   44.40
   1   6  -5  327.87   60.39
  -1   6   5  377.16   55.59
   0  -6  -5  544.25   61.09
   0  -6   5  839.82   83.59
   0  -6  -5  755.22   62.69
   0  -6   5  785.92   54.79
   0   6  -5 1017.60   80.29
   0   6   5  964.90   70.39
   0   6   5  935.01   81.89
   0   6  -5  842.12   89.19
   0   6   5 1030.90   96.09
   1  -6   5  458.15   63.89
  -1  -6  -5  382.96   36.30
  -1  -6  -5  463.25   43.20
   1   6   5  527.55   59.59
   1   6   5  543.85   56.99
  -1   6  -5  540.15   48.50
  -1   6  -5  375.76   54.09
   1   6   5  570.44   48.10
   2  -6   5   21.60    8.80
   2  -6   5   13.80   14.60
  -2  -6  -5   23.30    7.90
   2  -6   5   17.30    8.20
  -2  -6  -5   22.60    6.60
   2   6   5   34.40   12.30
  -2   6  -5   40.20   10.40
   2   6   5   36.30    8.60
   3  -6   5   97.39   21.00
   3  -6   5  108.09   15.40
  -3  -6  -5  132.19   13.60
  -3  -6  -5  127.89   13.30
   3  -6   5   74.69   17.20
   3  -6   5  118.59   14.60
   3   6   5  103.89   18.10
   3   6   5  113.39   14.60
  -3   6  -5  140.29   15.80
   4  -6   5   43.90    7.00
   4  -6   5   43.80    6.70
   4  -6   5   26.50    8.30
  -4  -6  -5   51.09    5.90
  -4  -6  -5   45.00    6.80
   4  -6   5   22.70    8.70
   4   6   5   34.30    8.10
   4   6   5   31.90    8.60
   4   6   5   58.19    7.30
  -6  -7   5    6.90    2.90
   6   7  -5   12.40    5.60
   6   7  -5   11.50    3.50
   6   7  -5   17.90    6.90
   6   7  -5   22.00    6.40
   6   7  -5   16.00    3.60
   5  -7  -5   31.20   12.60
   5  -7  -5   19.70    7.50
   5  -7  -5   17.60    8.50
   5   7  -5   36.00    7.80
   5   7  -5   49.00   13.90
   5   7  -5   38.60   11.70
   5   7  -5   32.90    7.90
   5   7  -5   42.20    7.30
   5   7  -5   31.00   11.60
   4  -7  -5   71.59   15.90
   4  -7  -5   31.70   16.30
   4  -7  -5   68.49   11.50
   4  -7  -5   60.99    9.00
   4  -7  -5   54.79   11.60
   4  -7  -5   43.20   11.90
   4   7  -5  157.78   15.90
   4   7  -5  113.79   15.50
   4   7  -5  119.09   22.60
   4   7  -5  124.19   23.30
   4   7  -5   92.09   21.40
   4   7  -5  103.39   15.00
   4   7  -5  101.79   15.70
   3  -7  -5   14.20    6.50
   3  -7  -5   16.90   19.00
   3  -7  -5   21.60    5.90
   3  -7  -5   31.00    9.50
   3  -7  -5   28.80   10.50
  -3  -7   5   20.90    7.70
   3  -7  -5   18.70   11.70
   3  -7  -5   12.80    4.90
   3   7  -5   35.20   14.70
   3   7  -5   45.50   17.20
   3   7  -5   32.20    8.70
   3   7  -5   33.00    9.20
   3   7  -5   51.49   12.10
   3   7  -5   30.20    9.30
   2  -7  -5   38.30   12.50
  -2  -7   5   46.20   15.70
   2  -7  -5   37.50   15.80
  -2  -7   5   43.80   11.10
   2  -7  -5   39.30   17.60
  -2   7   5  160.68   38.90
  -2   7   5  142.19   20.30
   2   7  -5  195.38   54.39
   2   7  -5  159.98   34.00
   1  -7  -5  280.87   30.60
  -1  -7   5  323.67   70.19
  -1  -7   5  228.88   32.20
   1  -7  -5  296.77   40.10
   1  -7  -5  370.06   39.20
  -1  -7   5  346.97   29.40
  -1   7   5  387.26   57.29
   1   7  -5  389.96   47.20
  -1   7   5  316.67   32.50
   1   7  -5  300.07   58.29
   0  -7   5    4.70   17.90
   0  -7  -5    2.80    8.50
   0  -7   5   12.90    7.80
   0  -7  -5    7.30   11.50
   0   7   5   -0.20   15.50
   0   7  -5    5.10   10.00
   0   7  -5   13.50   17.10
   0   7   5   22.60    9.00
   0   7   5   27.80   14.90
  -1  -7  -5  144.69   15.20
   1  -7   5  124.39   16.80
  -1  -7  -5  122.79   14.20
   1  -7   5  165.78   28.50
  -1  -7  -5  136.29   23.70
  -1  -7  -5  127.99   13.50
   1  -7   5  144.59   15.50
  -1   7  -5  160.58   17.80
   1   7   5  142.59   16.30
   1   7   5  226.18   25.10
  -1   7  -5  156.08   27.10
   2  -7   5   90.89   13.80
  -2  -7  -5  108.69   14.70
  -2  -7  -5   89.79   11.60
   2  -7   5   90.49   14.70
   2  -7   5   83.29   23.70
  -2   7  -5  179.28   19.40
   2   7   5  173.88   17.80
   2   7   5  171.88   23.50
   3  -7   5    6.20    6.80
  -3  -7  -5    8.20    4.60
   3  -7   5    0.60    9.90
   3  -7   5   10.50    6.60
  -3  -7  -5    6.90    5.40
   3  -7   5    7.30   11.60
  -3   7  -5   12.10    6.70
   3   7   5    3.00    4.60
   3   7   5    6.30    7.90
   4  -7   5    8.80    7.60
   4  -7   5   10.80    4.60
   4  -7   5    8.20    5.60
  -4  -7  -5   11.50    3.20
   4  -7   5   11.90    4.50
  -4  -7  -5   11.00    4.10
   4   7   5   19.90    5.00
  -4   7  -5   23.60    5.90
   6   8  -5   73.39    8.00
   6   8  -5   68.99    6.70
   6   8  -5   60.69   10.20
   6   8  -5   47.30    6.50
   5  -8  -5    5.20   10.40
   5  -8  -5   12.50    6.20
   5   8  -5   14.20    8.90
   5   8  -5   13.50    5.20
   5   8  -5    7.90    4.40
   5   8  -5   18.00   10.30
   5   8  -5   15.20    8.80
   5   8  -5   14.10    5.60
   4  -8  -5  225.48   18.80
   4  -8  -5  217.08   25.10
   4  -8  -5  198.58   20.80
   4  -8  -5  194.18   31.40
   4  -8  -5  241.98   23.50
   4   8  -5  312.47   27.40
   4   8  -5  320.77   27.10
   4   8  -5  279.37   33.10
   4   8  -5  314.87   33.50
   4   8  -5  292.27   33.70
   4   8  -5  332.57   27.10
   4   8  -5  319.97   28.50
   3  -8  -5  212.18   21.80
   3  -8  -5  196.08   24.40
  -3  -8   5  193.58   20.00
   3  -8  -5  173.98   15.90
   3  -8  -5  198.88   17.40
   3  -8  -5  193.58   34.90
   3  -8  -5  180.48   18.60
   3   8  -5  202.58   20.00
   3   8  -5  158.58   19.90
   3   8  -5  194.58   20.60
   3   8  -5  194.98   21.40
   3   8  -5  162.58   28.80
  -2  -8   5  113.69   23.00
   2  -8  -5  146.19   22.00
   2  -8  -5  129.59   27.30
   2  -8  -5  153.68   31.40
  -2  -8   5  144.89   17.80
  -2   8   5   99.19   32.70
  -2   8   5   68.99   13.80
   2   8  -5   92.89   40.60
   2   8  -5   67.59   25.70
   1  -8  -5  243.48   36.10
  -1  -8   5  294.97   27.00
  -1  -8   5  226.58   30.00
   1  -8  -5  323.47   30.00
   1  -8  -5  238.48   33.30
  -1   8   5  239.88   25.10
  -1   8   5  225.18   48.10
   1   8  -5  273.77   54.39
   1   8  -5  192.68   36.00
   0  -8  -5  479.95   54.39
   0  -8   5  635.84   47.00
   0  -8   5  640.64   75.49
   0  -8  -5  653.73   56.79
   0   8  -5  457.25   62.69
   0   8   5  534.55   54.99
   0   8  -5  564.14   53.99
   0   8   5  601.44   68.09
   0   8   5  501.35   43.70
   1  -8   5  141.89   15.20
  -1  -8  -5  125.59   13.90
   1  -8   5  106.39   26.70
   1  -8   5  138.69   17.10
  -1  -8  -5  127.99   12.70
  -1  -8  -5  127.09   14.70
   1   8   5  104.39   19.20
  -1   8  -5  104.89   16.50
   1   8   5  115.79   13.70
   2  -8   5   23.30    8.60
  -2  -8  -5   24.30    6.60
  -2  -8  -5   21.30    7.60
   2  -8   5   29.50   16.20
  -2  -8  -5   18.60    5.80
   2  -8   5   16.50    8.20
  -2   8  -5   21.50    7.70
   2   8   5   21.70   10.80
   2   8   5   19.80    6.50
   3  -8   5  101.49   13.50
  -3  -8  -5  106.49   11.30
   3  -8   5   63.89   16.70
   3  -8   5  107.09   14.30
  -3  -8  -5  114.49   12.20
   3  -8   5   88.59   20.30
  -3   8  -5  122.39   14.80
   3   8   5  143.19   14.10
   3   8   5  130.19   19.10
  -4  -8  -5   41.00    6.40
   4  -8   5   29.30    8.30
   4  -8   5   53.59    7.20
  -4  -8  -5   53.89    5.70
   4  -8   5   30.70    9.40
   4  -8   5   48.60    6.70
   4   8   5   31.30    5.40
  -4   8  -5   33.10    6.70
   5   9  -5  160.88   15.20
   5   9  -5  160.68   14.90
   5   9  -5  153.98   14.60
   5   9  -5  157.08   17.80
   5   9  -5  128.79   17.30
   5   9  -5  165.28   19.70
   4  -9  -5   21.30    9.40
   4  -9  -5   48.10   11.40
   4  -9  -5   42.10   16.00
   4  -9  -5   37.10    9.00
  -4  -9   5   35.30   11.30
   4  -9  -5   39.30    7.20
   4   9  -5   98.29   19.70
   4   9  -5   72.79   12.50
   4   9  -5  103.49   13.90
   4   9  -5   96.59   19.70
   4   9  -5   86.69   19.00
   4   9  -5  100.29   13.70
   3  -9  -5   33.40    6.40
   3  -9  -5   20.00    7.00
  -3  -9   5   27.90    8.10
   3  -9  -5   20.90    5.00
   3  -9  -5   12.80    9.90
   3  -9  -5   21.20    9.10
   3  -9  -5    7.50   17.50
   3   9  -5   51.99   12.00
   3   9  -5   32.00    9.00
   3   9  -5   39.90   10.30
   3   9  -5   41.40   16.20
  -2  -9   5  583.04   45.00
  -2  -9   5  524.05   52.49
   2  -9  -5  564.24   45.00
   2  -9  -5  511.85   42.30
  -2  -9   5  595.94   45.30
   2  -9  -5  570.04   40.50
   2  -9  -5  556.54   41.70
   2  -9  -5  590.64   49.60
   2  -9  -5  624.74   81.99
   2  -9  -5  551.74   45.90
   2  -9  -5  568.24   61.69
   2   9  -5  566.34   83.29
  -2   9   5  564.94   48.50
   2   9  -5  604.74   69.79
  -2   9   5  617.24   73.59
   2   9  -5  629.74   49.30
   1  -9  -5  565.44   56.09
   1  -9  -5  502.65   54.19
   1  -9  -5  594.94   49.50
  -1  -9   5  630.04   46.60
   1   9  -5  637.74   83.19
   1   9  -5  683.63   71.39
  -1   9   5  689.83   55.09
  -1   9   5  791.32   84.59
   0  -9  -5   27.00   14.20
   0  -9   5   33.70    9.50
   0  -9  -5   41.40   14.10
   0  -9   5   42.30   25.10
   0   9   5   70.29   27.70
   0   9  -5   41.60   16.30
   0   9  -5   36.00   23.20
   0   9   5   96.69   23.20
   1  -9   5  340.87   26.60
   1  -9   5  335.37   42.60
  -1  -9  -5  297.37   26.80
   1  -9   5  341.77   29.40
  -1  -9  -5  323.37   27.30
  -1  -9  -5  305.97   24.90
  -1   9  -5  299.47   29.00
   1   9   5  305.27   32.30
   1   9   5  316.47   25.60
  -2  -9  -5  261.47   20.80
  -2  -9  -5  253.07   22.70
  -2  -9  -5  245.18   21.80
   2  -9   5  269.37   24.60
   2  -9   5  274.87   24.80
   2  -9   5  246.58   36.00
   2  -9   5  236.68   20.90
   2   9   5  356.06   28.50
   2   9   5  349.27   34.10
  -2   9  -5  348.47   30.50
   3  -9   5   26.80    8.00
   3  -9   5   42.40    9.30
   3  -9   5   27.90    7.60
   3  -9   5   29.30   13.80
  -3  -9  -5   45.50    8.70
   3  -9   5   24.60   12.70
  -3  -9  -5   45.60    7.40
   3   9   5   24.70    9.60
  -3   9  -5   37.80    8.80
   3   9   5   43.50    7.70
  -4  -9  -5   14.40    4.20
   4  -9   5   16.80    4.40
  -4  -9  -5   19.50    3.70
   4  -9   5   12.00    5.90
   4  -9   5   16.80    4.70
  -4   9  -5   14.80    4.80
   4   9   5   13.30    3.60
   5  10  -5   18.90    5.40
   5  10  -5   24.10    8.50
   5  10  -5   11.60    5.00
   5  10  -5   12.60    8.20
   4 -10  -5   19.60    8.60
   4 -10  -5   15.40    6.80
   4 -10  -5   13.50    8.90
  -4 -10   5   21.50    9.20
   4 -10  -5   18.10    5.30
   4  10  -5   37.80    8.50
   4  10  -5   29.20    8.30
   4  10  -5   57.99   15.20
   4  10  -5   42.20    9.60
   3 -10  -5   60.59   10.60
   3 -10  -5   61.89   13.10
   3 -10  -5   29.60   11.40
   3 -10  -5   56.19    8.90
   3 -10  -5   58.09    7.80
  -3 -10   5   62.89   10.10
   3 -10  -5   36.00   19.60
   3  10  -5  148.79   26.20
   3  10  -5  171.28   20.50
   3  10  -5  186.58   19.10
   2 -10  -5   44.80   18.70
   2 -10  -5    5.90    8.00
   2 -10  -5    9.10    4.70
   2 -10  -5    4.90    5.10
  -2 -10   5   13.00    7.30
   2 -10  -5   10.20    7.70
   2 -10  -5    8.80    5.50
   2  10  -5   23.70    8.70
   2  10  -5   12.30   12.80
   1 -10  -5    0.80    5.40
   1 -10  -5   -1.60    4.40
   1 -10  -5    2.40    8.30
  -1 -10   5    7.60    7.20
  -1 -10   5    1.20    8.20
   1 -10  -5    9.90   10.00
   1 -10  -5    3.60    4.90
  -1  10   5    3.90   23.50
  -1  10   5   21.70    9.80
   1  10  -5    8.50   16.80
   1  10  -5   27.30   25.80
   0 -10   5  144.49   17.30
   0 -10   5  168.08   19.90
   0 -10   5  164.28   17.00
   0 -10  -5  148.89   15.10
   0 -10  -5  172.48   18.80
   0 -10  -5  144.19   27.40
   0 -10  -5  194.18   19.30
   0 -10  -5  146.59   15.10
   0 -10  -5  139.89   13.70
   0 -10   5  181.08   57.09
   0  10   5  250.77   48.10
   0  10  -5  214.98   33.20
  -1 -10  -5   21.80    7.10
  -1 -10  -5   25.60    5.80
   1 -10   5   15.20    8.60
  -1 -10  -5   28.00    8.40
   1 -10   5   23.40    6.90
   1 -10   5   41.70   17.00
  -1  10  -5   71.99   14.80
   1  10   5   68.29   10.40
   1  10   5   76.19   16.90
  -2 -10  -5   47.50    9.80
   2 -10   5   30.30    9.40
   2 -10   5   24.20    8.60
  -2 -10  -5   33.00    7.00
   2 -10   5   44.00   17.80
   2 -10   5   24.30    8.70
  -2 -10  -5   36.70    6.70
   2 -10   5   39.20    7.30
  -2  10  -5   22.60    8.20
   2  10   5   24.50   10.60
   2  10   5   29.30    7.00
   3 -10   5   22.00   12.20
   3 -10   5   21.50    6.80
   3 -10   5   11.90   11.30
  -3 -10  -5   21.20    5.10
   3 -10   5   18.50    7.10
  -3 -10  -5   24.50    6.70
   3 -10   5   17.20    7.20
   3  10   5   45.00   10.60
   3  10   5   44.20    7.50
  -3  10  -5   43.40    9.30
  -4 -10  -5    7.80    3.10
   4 -10   5    3.60    4.40
   4 -10   5    9.60    4.10
   4  10   5   12.60    3.10
  -5 -11   5   81.49   10.50
   5  11  -5  113.99   15.10
   5  11  -5  108.99   11.80
   5  11  -5  140.09   12.30
   4 -11  -5    9.60    7.40
   4 -11  -5   14.00    8.00
  -4 -11   5   14.10    7.70
   4 -11  -5   12.90    4.50
   4 -11  -5   14.60    6.60
   4  11  -5   28.10    7.10
   4  11  -5   23.10    7.10
   4  11  -5   20.30    7.70
   4  11  -5   19.80   11.10
   3 -11  -5    4.60    8.40
  -3 -11   5    6.80    9.70
   3 -11  -5   15.20    8.30
   3 -11  -5    7.40    5.40
   3 -11  -5    4.90    4.00
  -3 -11   5    4.00    5.80
   3 -11  -5    5.40    4.40
   3  11  -5    5.90    6.40
   3  11  -5    2.60   10.90
   3  11  -5   16.40    8.20
   2 -11  -5  408.16   41.00
   2 -11  -5  394.16   34.30
   2 -11  -5  397.96   31.20
   2 -11  -5  332.77   31.30
  -2 -11   5  422.06   32.80
   2 -11  -5  429.56   36.30
   2 -11  -5  380.96   42.90
   2 -11  -5  395.36   29.90
  -2 -11   5  458.65   39.90
   2  11  -5  477.35   39.00
   1 -11  -5  241.38   20.30
  -1 -11   5  274.87   23.60
   1 -11  -5  259.17   25.80
   1 -11  -5  250.97   28.20
  -1 -11   5  232.18   27.70
   1 -11  -5  266.67   29.40
   1 -11  -5  255.47   21.90
   1 -11  -5  233.68   22.10
   1 -11  -5  248.88   22.00
  -1 -11   5  240.98   21.90
   1  11  -5  230.48   21.50
   0 -11  -5   18.40    9.00
   0 -11  -5   10.10    4.70
   0 -11  -5   12.50    5.50
   0 -11   5   13.80    7.00
   0 -11   5    9.00    8.70
   0 -11  -5    1.10    3.90
   0 -11  -5   27.40    7.90
   0 -11   5   10.80    6.20
   0  11   5   28.30    6.50
   1 -11   5  211.88   18.50
   1 -11   5  207.68   22.70
  -1 -11  -5  185.38   19.30
  -1 -11  -5  190.38   17.00
   1 -11   5  182.48   30.70
   1  11   5  235.88   20.90
   1  11   5  243.48   28.20
   2 -11   5   54.99   19.00
   2 -11   5   66.49   12.00
   2 -11   5   62.09   11.40
  -2 -11  -5   72.39    9.40
  -2 -11  -5   81.69   12.30
   2 -11   5   66.79    9.50
  -2 -11  -5   73.09    9.50
   2 -11   5   88.99   13.40
   2  11   5   32.80   11.00
  -2  11  -5   34.30   10.60
   2  11   5   31.60    7.00
   3 -11   5    9.10   10.40
   3 -11   5   21.60   10.70
   3 -11   5   18.80    6.90
  -3 -11  -5   23.00    5.20
   3 -11   5   15.50    6.30
  -3 -11  -5   23.60    6.40
   3 -11   5   12.70    6.90
  -3  11  -5   12.40    6.00
   3  11   5   18.90    5.10
   3  11   5    9.60    6.90
  -5 -12   5    8.80    3.90
   5  12  -5    7.60    4.00
   5  12  -5    8.30    4.00
  -4 -12   5   72.09   13.60
   4 -12  -5   97.69   11.50
   4 -12  -5   75.09   12.40
   4 -12  -5  109.09   15.60
   4 -12  -5   95.49   10.30
   4  12  -5  125.39   16.30
   4  12  -5  167.58   15.70
   3 -12  -5  225.28   19.10
  -3 -12   5  240.18   26.70
   3 -12  -5  213.98   20.60
   3 -12  -5  240.98   24.20
   3 -12  -5  211.28   17.90
  -3 -12   5  219.68   19.80
   3 -12  -5  173.58   23.90
   3  12  -5  377.26   33.30
   3  12  -5  397.66   32.30
   2 -12  -5  165.58   26.40
   2 -12  -5  166.48   14.80
  -2 -12   5  153.38   23.90
   2 -12  -5  154.18   16.70
  -2 -12   5  171.38   18.60
   2 -12  -5  156.78   16.50
   2 -12  -5  127.79   27.60
   2 -12  -5  169.58   20.60
   2 -12  -5  169.08   22.30
   2  12  -5  218.78   22.30
   1 -12  -5  283.37   31.50
   1 -12  -5  303.57   23.80
   1 -12  -5  349.57   30.10
   1 -12  -5  278.37   25.10
   1 -12  -5  334.97   32.90
   1 -12  -5  283.07   25.80
  -1 -12   5  304.47   31.70
  -1 -12   5  309.07   26.90
  -1 -12   5  302.47   25.40
   1 -12  -5  300.67   25.40
   1  12  -5  377.16   31.00
   0 -12  -5  660.73   50.59
   0 -12  -5  639.34   50.39
   0 -12  -5  569.14   44.70
   0 -12  -5  614.44   46.70
   0 -12  -5  658.73   46.90
   0 -12   5  686.23   47.60
   0 -12   5  665.63   47.70
   0  12   5  748.93   53.99
   1 -12   5   94.19   14.80
   1 -12   5   82.59   11.80
  -1 -12  -5  101.59   14.80
   1 -12   5   80.59   13.80
  -1 -12  -5  105.99   11.60
   1  12   5  140.09   14.20
   1  12   5  134.99   21.90
  -2 -12  -5   24.20    5.40
   2 -12   5   27.50    8.40
   2 -12   5   25.00   13.30
   2 -12   5   10.20    5.00
  -2 -12  -5   23.70    7.30
   2 -12   5   15.90    8.80
   2 -12   5   13.40    7.80
   2  12   5   17.60    9.40
   2  12   5   16.60    5.60
   3 -12   5   46.60    8.70
   3 -12   5   60.69    9.60
   3 -12   5   35.10   13.40
   3 -12   5   38.10    7.60
  -3 -12  -5   51.09    6.30
  -3 -12  -5   52.19    8.50
   3 -12   5   47.60   13.40
   3  12   5   76.09    8.90
   3  12   5   52.79   10.80
  -5 -13   5   25.70    4.80
   5  13  -5   49.99    6.80
   4 -13  -5   32.10    5.40
  -4 -13   5   24.30    9.20
   4 -13  -5   37.80    8.30
   4 -13  -5   35.20    5.80
   4 -13  -5   27.70    9.00
  -4 -13   5   28.00    7.10
   4  13  -5   54.09    9.20
   4  13  -5   69.29   10.60
   3 -13  -5   20.90    5.80
   3 -13  -5   29.50    9.90
   3 -13  -5   13.80    4.80
  -3 -13   5   20.50    6.20
   3 -13  -5   20.60    7.00
  -3 -13   5   30.40   11.50
   3 -13  -5   29.10    9.60
   3  13  -5   15.90    7.90
   2 -13  -5   56.19   10.50
   2 -13  -5   62.19   19.50
   2 -13  -5   60.99   12.40
  -2 -13   5   80.39   11.90
   2 -13  -5   64.99    9.80
  -2 -13   5   58.89   15.60
   2 -13  -5   59.39    8.50
   2 -13  -5   54.19   13.40
   2  13  -5  119.39   16.00
   1 -13  -5  152.08   13.90
   1 -13  -5  144.09   15.80
   1 -13  -5  156.18   15.60
   1 -13  -5  151.58   17.40
   1 -13  -5  134.59   19.70
   1 -13  -5  129.59   23.70
  -1 -13   5  155.38   16.10
  -1 -13   5  142.89   17.20
   1 -13  -5  165.78   23.60
  -1 -13   5  141.59   22.70
   1  13  -5  241.68   22.20
   0 -13   5   19.30    7.20
   0 -13  -5   38.40    9.00
   0 -13  -5   22.20    9.40
   0 -13  -5   24.40    6.40
   0 -13   5   36.20    7.80
   0 -13  -5   22.40    6.50
   0 -13   5   -0.40    8.40
   0 -13  -5   16.50    4.90
   0  13  -5   26.40    7.20
   0  13   5   35.20    7.30
  -1 -13  -5   89.69   11.50
  -1 -13  -5  103.19   15.50
   1 -13   5  107.69   16.00
  -1 -13  -5  107.19   11.80
   1 -13   5   99.59   12.30
   1 -13   5   92.79   23.00
   1 -13   5  110.19   15.00
   1  13   5  118.39   13.00
   1  13   5  133.09   21.30
   2 -13   5   36.60   15.80
   2 -13   5   64.29   11.30
   2 -13   5   54.29    7.90
  -2 -13  -5   61.39    8.20
  -2 -13  -5   72.09   11.70
   2 -13   5   48.00    9.70
   2  13   5   59.89    8.70
   2  13   5   58.09   13.20
   3 -13   5   21.90    6.60
   3 -13   5   11.80    8.90
   3 -13   5   11.90    5.40
  -3 -13  -5   17.80    3.90
  -3 -13  -5   20.10    5.50
   3 -13   5   17.30    6.30
   3  13   5   19.60    6.90
   3  13   5   24.30    5.10
  -5 -14   5   -0.20    2.10
  -5 -14   5    0.70    2.40
   5  14  -5    5.60    2.90
   4 -14  -5   48.80   10.30
   4 -14  -5   36.70    5.70
  -4 -14   5   34.10    6.90
  -4 -14   5   34.40    9.70
   4 -14  -5   47.60    8.60
   4 -14  -5   43.00    6.20
   4  14  -5   42.70    8.10
  -3 -14   5  128.29   13.60
  -3 -14   5  127.79   20.20
   3 -14  -5  127.09   11.80
   3 -14  -5  137.09   13.90
   3 -14  -5  118.99   17.60
  -3 -14   5  119.39   15.40
   3 -14  -5  131.29   14.20
   3 -14  -5   91.09   15.40
   3  14  -5  134.79   17.80
   3  14  -5  185.18   19.50
   2 -14  -5  110.19   18.20
  -2 -14   5  128.49   15.10
   2 -14  -5  124.99   15.40
   2 -14  -5  136.39   23.40
  -2 -14   5  142.99   21.90
   2 -14  -5  129.09   17.20
   2 -14  -5  122.09   13.90
   2 -14  -5  114.99   12.60
   2  14  -5  162.38   18.30
   2  14  -5  139.89   15.50
   1 -14  -5   57.09    8.60
  -1 -14   5   74.99   11.40
   1 -14  -5   76.69   11.80
   1 -14  -5   52.09   20.80
   1 -14  -5   82.99   10.90
  -1 -14   5   68.09   10.20
   1 -14  -5   80.99   18.00
   1 -14  -5   59.99   10.30
   1 -14  -5   98.99   15.50
  -1 -14   5   71.29   15.90
   1  14  -5   47.50    9.40
   1  14  -5   59.49    9.90
   0 -14   5  208.78   19.70
   0 -14  -5  208.08   22.80
   0 -14   5  227.48   19.10
   0 -14  -5  198.08   21.00
   0 -14  -5  182.78   19.90
   0 -14  -5  196.48   17.90
   0 -14   5  194.08   21.30
   0 -14  -5  193.68   18.20
   0 -14  -5  181.58   21.00
   0  14  -5  255.77   22.10
   0  14   5  241.78   21.00
   1 -14   5   83.89   14.00
   1 -14   5   69.79   10.70
  -1 -14  -5   81.09   10.40
  -1 -14  -5   87.99   10.90
   1 -14   5   79.99   12.80
  -1 -14  -5   81.09   13.90
   1  14   5   73.09   16.10
   1  14   5   72.29   10.20
   2 -14   5   14.60    7.40
   2 -14   5    7.10    4.10
  -2 -14  -5   10.20    4.20
   2 -14   5   16.40    6.60
  -2 -14  -5   11.70    5.60
   2 -14   5   15.10   11.10
   2  14   5   11.90    4.50
   2  14   5    7.10    7.00
   3 -14   5   54.89    7.70
   3 -14   5   71.99    9.30
  -3 -14  -5   53.09    6.10
  -3 -14  -5   57.09    8.20
   3 -14   5   70.59    8.70
   3 -14   5   40.60   11.00
   3  14   5   58.69    7.20
  -5 -15   5   30.40    4.30
   5  15  -5   81.19    7.50
  -4 -15   5   26.50    8.50
   4 -15  -5   46.80    6.10
   4 -15  -5   44.30    8.90
  -4 -15   5   35.30    6.70
   4 -15  -5   43.10    5.80
   4  15  -5   96.89   11.40
   3 -15  -5   39.30    6.90
  -3 -15   5   36.80    7.20
   3 -15  -5   32.80    7.50
  -3 -15   5   41.50   12.30
   3 -15  -5   34.10    9.00
  -3 -15   5   25.50    7.30
   3 -15  -5   48.60   11.00
   3 -15  -5   33.90    5.80
   3  15  -5   35.60    8.80
   3  15  -5   40.90    7.40
   2 -15  -5  177.48   25.10
  -2 -15   5  168.28   23.70
   2 -15  -5  149.88   16.30
   2 -15  -5  155.28   14.30
  -2 -15   5  167.68   17.40
   2 -15  -5  155.88   19.30
   2 -15  -5  157.38   15.40
   2 -15  -5  163.38   21.90
   2  15  -5  236.78   22.40
   2  15  -5  234.08   20.50
   1 -15  -5  301.77   23.50
   1 -15  -5  294.47   25.50
  -1 -15   5  323.37   26.70
   1 -15  -5  289.07   26.30
   1 -15  -5  313.87   33.00
   1 -15  -5  303.77   24.90
   1 -15  -5  314.07   29.20
  -1 -15   5  292.17   24.80
  -1 -15   5  318.57   32.10
   1  15  -5  427.26   32.30
   1  15  -5  399.16   33.10
   0 -15  -5   15.10    9.20
   0 -15  -5   14.20    5.40
   0 -15   5   15.10    8.20
   0 -15   5   17.10    6.70
   0 -15  -5   17.90    6.10
   0 -15  -5   33.30   10.60
   0 -15   5   10.40    5.90
   0 -15  -5   19.80    7.70
   0  15   5   29.80    6.80
   0  15  -5   19.50    6.70
   1 -15   5   82.59   12.50
  -1 -15  -5  103.49   15.20
  -1 -15  -5  103.19   11.00
   1 -15   5  111.39   12.10
  -1 -15  -5   97.99   11.60
   1 -15   5  104.39   14.10
   1  15   5  146.89   21.60
   1  15   5  132.79   13.60
   2 -15   5   88.89   17.80
   2 -15   5   97.49   13.30
   2 -15   5  104.99    9.90
  -2 -15  -5   87.39   12.40
   2 -15   5   92.99   12.30
  -2 -15  -5   97.89    9.80
   2  15   5  119.39   17.10
   2  15   5  135.59   12.50
  -3 -15  -5   10.10    3.70
  -3 -15  -5    5.70    2.70
   3 -15   5    5.80    6.10
   3 -15   5    4.60    4.10
   3 -15   5    5.60    4.60
   3  15   5    7.60    3.00
   4 -16  -5   13.80    3.50
   4 -16  -5   13.40    5.80
  -4 -16   5   12.40    6.30
  -4 -16   5   11.30    3.90
   4 -16  -5   12.10    3.60
   4  16  -5   25.20    5.50
   4  16  -5   22.90    5.50
  -3 -16   5   59.59   13.80
   3 -16  -5   71.79    8.20
  -3 -16   5   56.99    9.30
   3 -16  -5   79.69   10.80
   3 -16  -5   61.79   15.40
   3 -16  -5   55.99   11.80
  -3 -16   5   66.59    9.00
   3 -16  -5   68.69    9.00
   3  16  -5   83.99   10.60
   3  16  -5  104.39   12.90
   2 -16  -5    3.20    6.40
   2 -16  -5   12.80    5.30
  -2 -16   5    9.70    6.20
  -2 -16   5    7.80    9.40
   2 -16  -5   15.90   15.80
   2 -16  -5    7.40    7.60
   2 -16  -5    9.00    5.10
   2 -16  -5    9.30    4.30
   2  16  -5   30.70    8.10
   2  16  -5   19.40    6.40
  -1 -16   5   60.29   14.90
   1 -16  -5   44.70    9.40
   1 -16  -5   40.40    6.50
   1 -16  -5   55.69   12.20
  -1 -16   5   48.30    9.70
  -1 -16   5   39.30    7.80
   1 -16  -5   41.50    8.60
   1 -16  -5   31.00   15.50
   1  16  -5   58.89    9.40
   1  16  -5   49.99    9.50
  -1  16   5   38.60    8.90
   0 -16   5  219.88   18.40
   0 -16  -5  167.58   25.80
   0 -16  -5  196.08   18.10
   0 -16  -5  182.38   20.40
   0 -16  -5  202.18   21.40
   0 -16   5  184.78   20.30
   0 -16  -5  196.48   17.60
   0 -16   5  209.68   19.30
   0  16  -5  304.57   26.80
   0  16   5  336.77   25.90
   1 -16   5   16.50    5.30
  -1 -16  -5   20.70    5.50
   1 -16   5    8.70    6.90
  -1 -16  -5   23.30    7.80
  -1 -16  -5   26.00    5.50
   1 -16   5   30.90    6.40
   1  16   5   33.30    6.50
  -1  16  -5   33.60    7.10
   1  16   5   23.60   10.30
  -2 -16  -5   14.60    4.20
   2 -16   5    6.60    5.80
   2 -16   5    8.70    3.40
  -2 -16  -5    9.30    4.60
   2 -16   5    9.90    8.70
   2  16   5   16.80    7.00
   2  16   5   14.90    4.40
   3 -16   5   10.50    5.50
  -3 -16  -5   13.90    3.80
  -3  16  -5   24.70    3.80
   3  16   5   30.70    4.20
   4 -17  -5   28.10    4.00
  -4 -17   5   21.60    4.30
   4 -17  -5   31.70    4.10
   4 -17  -5   19.80    5.60
  -4 -17   5   21.90    6.50
   4  17  -5   47.80    6.40
   4  17  -5   36.10    5.60
   3 -17  -5   -0.50    2.50
   3 -17  -5    6.50   11.70
   3 -17  -5    2.20    5.40
   3 -17  -5   -3.10    3.30
  -3 -17   5    2.40    3.90
   3 -17  -5    1.10    2.90
  -3 -17   5    8.40    7.80
  -3 -17   5    1.30    3.50
   3  17  -5    0.40    3.60
   3  17  -5    5.10    5.30
   2 -17  -5  166.38   16.30
   2 -17  -5  167.78   18.20
   2 -17  -5  152.78   15.00
  -2 -17   5  169.78   16.60
   2 -17  -5  160.28   14.20
  -2 -17   5  194.58   24.70
   2 -17  -5  177.28   24.20
   2 -17  -5  164.88   19.10
   2  17  -5  205.18   19.00
   2  17  -5  182.58   17.00
   1 -17  -5  100.29   10.30
   1 -17  -5   97.49   13.00
   1 -17  -5  117.69   13.30
   1 -17  -5   85.89   10.90
   1 -17  -5   86.29   14.70
  -1 -17   5   97.09   17.60
  -1 -17   5  110.09   13.80
  -1 -17   5  107.19   11.50
   1 -17  -5   74.29   18.40
  -1  17   5  119.39   13.00
   1  17  -5  128.49   15.00
   1  17  -5  115.39   13.50
   0 -17   5    1.70    5.00
   0 -17  -5    1.20    6.10
   0 -17  -5    3.90    3.90
   0 -17   5    5.90    4.50
   0 -17  -5    5.30    4.60
   0 -17  -5   -2.90    5.60
   0  17  -5    4.10    5.50
   0  17   5    2.30    3.70
   1 -17   5   57.59   10.30
   1 -17   5   48.40    8.00
  -1 -17  -5   73.19    8.70
  -1 -17  -5   58.99   10.70
   1 -17   5   61.29    8.80
  -1 -17  -5   70.89    8.60
  -1  17  -5   60.89    9.10
   1  17   5   60.29   12.90
   1  17   5   62.39    8.50
   2 -17   5   57.29   12.30
  -2 -17  -5   64.89    9.50
   2 -17   5   72.19    7.60
  -2 -17  -5   89.59    8.10
   2 -17   5   71.49    9.50
   2  17   5   82.89   12.60
   2  17   5  114.49   10.20
  -2  17  -5  117.59   10.90
  -4 -18   5   20.80    3.70
   4 -18  -5   23.50    3.30
  -4 -18   5   19.20    6.00
   4 -18  -5   24.20    3.40
   4  18  -5   39.60    5.50
   3 -18  -5   64.69    8.60
   3 -18  -5   65.79    7.60
   3 -18  -5   57.89   12.60
   3 -18  -5   63.19    6.80
  -3 -18   5   60.79   12.40
   3 -18  -5   47.70    9.40
  -3 -18   5   49.60    7.40
   3  18  -5  149.59   14.30
   3  18  -5  122.79   12.00
   2 -18  -5    9.60    6.90
   2 -18  -5   10.80    4.50
   2 -18  -5   10.20    4.80
   2 -18  -5    8.50   13.50
  -2 -18   5   16.80    5.70
   2 -18  -5   10.90    3.90
   2 -18  -5   11.20    6.10
  -2 -18   5   15.80    9.20
   2  18  -5   30.00    6.30
   2  18  -5   42.90    8.40
   1 -18  -5   53.99    8.60
  -1 -18   5   45.40   12.10
   1 -18  -5   41.70    5.90
   1 -18  -5   47.30   10.30
   1 -18  -5   36.50   13.50
   1 -18  -5   37.60    8.00
  -1 -18   5   36.40    6.80
  -1 -18   5   45.20    8.80
   1 -18  -5   38.50    6.30
   1  18  -5   69.59   10.40
   1  18  -5   60.79    9.10
  -1  18   5   66.09    9.10
   0 -18  -5   87.69   10.60
   0 -18  -5   74.79    9.70
   0 -18  -5   78.69   12.20
   0 -18  -5   64.49   12.00
   0 -18   5   79.39    9.90
   0 -18   5   61.89    9.60
   0  18   5   99.99   10.70
   0  18  -5  110.49   12.90
   0  18  -5  110.59   12.00
  -1 -18  -5   12.30    4.30
   1 -18   5   11.10    4.10
   1 -18   5    7.50    3.90
  -1 -18  -5   10.60    4.00
   1 -18   5   13.00    6.00
   1  18   5   30.90    9.20
  -1  18  -5   33.40    6.80
   1  18   5   31.50    5.70
   2 -18   5    6.90    2.50
  -2 -18  -5   13.70    3.60
  -2 -18  -5    9.80    4.20
   2 -18   5   10.00    4.70
   2 -18   5    8.50    6.30
   2  18   5   12.50    5.20
   2  18   5   18.70    3.90
  -2  18  -5   16.90    4.30
  -4 -19   5    3.20    4.90
   4  19  -5   15.60    3.30
   3 -19  -5    2.70    2.90
   3 -19  -5    5.80    2.80
   3 -19  -5   12.10    9.10
   3 -19  -5    1.20    3.80
   3 -19  -5    4.20    2.60
  -3 -19   5    2.90    6.00
   3  19  -5    4.80    4.00
   3  19  -5    3.50    3.20
   2 -19  -5   78.99   10.00
   2 -19  -5   82.99    8.20
   2 -19  -5   77.39   12.30
  -2 -19   5   84.39   10.00
   2 -19  -5   86.39    9.30
  -2 -19   5   79.59   15.00
   2 -19  -5   77.69   16.20
   2  19  -5  125.59   13.30
   2  19  -5  102.89   11.20
  -1 -19   5   19.20    4.50
   1 -19  -5   -4.90    9.60
   1 -19  -5    9.30    5.20
   1 -19  -5    7.80    3.40
  -1 -19   5    7.70    8.40
   1 -19  -5    4.50    6.10
   1 -19  -5   13.70    3.70
   1 -19  -5   17.00    4.90
  -1 -19   5   13.90    6.00
   1  19  -5   38.10    6.70
   1  19  -5   45.20    8.30
  -1  19   5   47.60    7.00
   0 -19  -5    2.00    3.30
   0 -19   5    1.10    3.70
   0 -19  -5    2.00    4.00
   0 -19  -5    1.60    5.50
   0 -19   5   -1.80    3.80
   0  19   5    2.70    3.20
   0  19  -5    2.30    4.40
   0  19  -5   -5.00    3.20
   1 -19   5   35.80    5.60
   1 -19   5   38.40    5.80
  -1 -19  -5   48.50    6.20
  -1 -19  -5   42.80    6.20
   1  19   5   47.50    6.50
   1  19   5   42.60    9.60
  -1  19  -5   46.60    7.30
  -2 -19  -5   29.70    4.20
   2 -19   5   22.50    3.30
   2  19   5   34.00    4.60
  -2  19  -5   36.60    5.20
   3 -20  -5   77.39    6.80
   3 -20  -5   61.49    8.80
   3 -20  -5   71.49    6.90
   3 -20  -5   67.79    9.70
   3 -20  -5   77.19    7.00
  -3 -20   5   77.79   11.50
   3  20  -5  143.39   12.00
   3  20  -5  126.79   11.10
  -2 -20   5   26.90    5.60
  -2 -20   5   27.40    9.50
   2 -20  -5   32.90    4.60
   2 -20  -5   25.20    6.90
   2 -20  -5   24.00   11.20
   2 -20  -5   31.10    5.00
   2 -20  -5   37.60    6.10
   2  20  -5   51.59    7.60
   2  20  -5   39.80    6.20
   1 -20  -5   33.00   10.70
   1 -20  -5   34.10    5.20
  -1 -20   5   47.40    7.60
  -1 -20   5   42.30   10.30
  -1 -20   5   35.50    5.60
   1 -20  -5   46.90    8.80
   1 -20  -5   42.50    5.40
   1 -20  -5   48.30    7.00
   1 -20  -5   44.70    7.30
  -1  20   5   77.49    8.00
   1  20  -5   71.09    8.50
   1  20  -5   71.99    9.50
   0 -20  -5   84.99   11.70
   0 -20   5  101.89   11.20
   0 -20  -5  115.79   10.50
   0 -20  -5  100.29   10.50
   0 -20   5  107.49   10.30
   0  20   5  135.79   11.90
   0  20  -5  137.69   12.60
   0  20  -5  138.99   13.40
   0  20   5  138.69   17.40
  -1 -20  -5   49.60    6.20
  -1 -20  -5   55.19    6.20
   1 -20   5   33.40    5.20
   1 -20   5   49.10    5.90
  -1  20  -5   50.49    7.00
   1  20   5   74.69    7.10
   1  20   5   58.29   10.00
  -1  20  -5   76.89    8.40
   3 -21  -5    3.40    3.00
  -3 -21   5   -1.80    3.70
   3 -21  -5    0.90    1.50
   3 -21  -5    2.70    1.80
   3  21  -5    1.80    2.30
  -2 -21   5   26.50    5.10
   2 -21  -5   29.30    6.30
  -2 -21   5   29.50    8.00
   2 -21  -5   14.90    7.90
   2 -21  -5   36.50    4.40
   2 -21  -5   37.30    4.70
   2 -21  -5   40.10    5.70
   2  21  -5   42.80    5.80
   2  21  -5   49.40    6.60
   1 -21  -5   39.00    6.50
  -1 -21   5   63.29    8.00
   1 -21  -5   67.29    5.90
   1 -21  -5   45.30    9.40
   1 -21  -5   71.39    7.90
   1 -21  -5   44.50    8.10
  -1 -21   5   45.40    9.30
   1 -21  -5   43.00    5.40
   1  21  -5   74.19    8.80
  -1  21   5   93.89    8.50
   1  21  -5   98.19    9.90
   0 -21   5    8.40    3.80
   0 -21   5   10.10    3.20
   0 -21  -5    8.80    3.40
   0 -21  -5   12.50    4.60
   0 -21  -5    7.10    3.60
   0  21  -5    9.70    4.10
   0  21  -5   10.80    3.70
   0  21   5   11.90    3.30
   0  21   5   10.60    6.10
  -1 -21  -5   35.40    4.80
   1 -21   5   39.20    4.90
  -1 -21  -5   39.60    4.70
   1  21   5   53.09    5.40
  -1  21  -5   39.20    5.30
   1  21   5   40.90    7.20
  -1  21  -5   47.30    6.10
   2 -22  -5    0.60    2.50
   2 -22  -5    6.50    2.40
   2 -22  -5    4.10    2.20
  -2 -22   5    2.90    4.20
   2 -22  -5   -3.10    4.20
  -2 -22   5    3.50    2.80
   2 -22  -5    5.30    2.10
   2  22  -5    2.80    2.30
   2  22  -5    6.30    3.10
   1 -22  -5   16.50    2.80
  -1 -22   5   21.90    4.60
   1 -22  -5   22.90    5.10
   1 -22  -5   18.40    3.80
   1 -22  -5   18.00    2.80
   1  22  -5   20.30    4.40
  -1  22   5   20.80    3.70
   1  22  -5   21.00    3.90
   0 -22   5   29.20    4.70
   0 -22   5   40.30    4.60
   0 -22  -5   38.90    4.90
   0 -22  -5   27.20    4.40
   0  22   5   26.30    6.60
   0  22  -5   26.60    4.10
   0  22   5   36.30    4.50
   0  22  -5   34.20    5.00
  -1 -23   5   80.29    7.60
   1 -23  -5   83.09    7.20
  -1  23   5  107.39   12.00
   6   0  -6   20.50    4.50
   6   0  -6   15.50    6.70
   6   0  -6   15.60    3.50
   6   0  -6   29.90    8.60
   6   0  -6   19.30    7.30
   5   0  -6   38.30   14.20
   5   0  -6   36.50   16.60
   5   0  -6  -10.50    7.60
   5   0  -6   26.00    7.50
   5   0  -6   25.00    7.60
   5   0  -6   23.60   12.50
   4   0  -6   21.30   14.80
   4   0  -6   31.80   15.60
   4   0  -6   37.30   18.20
   4   0  -6   67.79   10.80
   4   0  -6   57.89   10.30
   4   0  -6    8.00    6.50
   4   0  -6   11.50   10.20
   3   0  -6  147.09   16.10
   3   0  -6  163.58   31.50
   3   0  -6  109.99   26.50
   3   0  -6  142.99   20.30
   3   0  -6  140.59   14.40
   3   0  -6  170.38   31.60
   3   0  -6  170.28   19.00
  -2   0   6  519.95   53.09
  -2   0   6  549.95   46.20
   2   0  -6  493.25   75.79
   2   0  -6  712.33   62.89
   2   0  -6  479.55   58.09
  -1   0   6   79.29   15.50
  -1   0   6   18.20   21.50
   1   0  -6   63.69   19.10
   1   0  -6  177.68   39.00
   0   0  -6  325.87   41.70
   0   0  -6  414.76   53.99
   0   0   6  370.36   56.59
   0   0   6  386.66   32.90
  -1   0  -6  207.28   21.80
  -1   0  -6  210.38   21.70
   1   0   6  279.67   31.60
  -2   0  -6  140.09   14.50
   2   0   6   29.00   13.30
   4   0   6   15.40    6.40
  -4   0  -6   15.90    4.60
   6  -1  -6    6.00    4.90
   6  -1  -6    7.60    5.70
   6  -1  -6    5.60    5.30
   6  -1  -6    4.20    5.70
   6  -1  -6   11.30    3.90
   6   1  -6   14.70    6.40
   6   1  -6   11.60    3.20
   6   1  -6    9.40    6.70
   6   1  -6   15.40    3.90
   6   1  -6   16.10    6.40
   5  -1  -6  180.78   27.50
   5  -1  -6  155.08   27.80
   5  -1  -6  141.99   15.80
   5  -1  -6  157.48   24.40
   5  -1  -6  164.28   18.00
   5  -1  -6  164.18   18.00
   5   1  -6  162.68   26.30
   5   1  -6  133.69   17.70
   5   1  -6  155.58   16.00
   5   1  -6  172.98   27.30
   5   1  -6  148.39   16.90
   5   1  -6  137.09   25.90
   4  -1  -6  338.77   29.50
   4  -1  -6  322.67   37.60
   4  -1  -6  337.77   30.40
   4  -1  -6  314.57   39.40
   4  -1  -6  395.06   44.10
   4  -1  -6  353.56   26.40
   4  -1  -6  316.17   28.10
   4   1  -6  320.97   27.40
   4   1  -6  290.87   38.10
   4   1  -6  335.17   30.30
   4   1  -6  328.87   38.90
   4   1  -6  366.86   40.10
   4   1  -6  315.47   25.40
   4   1  -6  303.87   28.20
   3  -1  -6   50.09   19.50
   3  -1  -6   55.99   19.30
   3  -1  -6   35.50    8.00
   3  -1  -6   45.40    9.30
   3  -1  -6   48.70   21.30
   3  -1  -6   45.50   10.50
   3  -1  -6    3.70    9.80
   3   1  -6   46.70   20.20
   3   1  -6   22.70   10.30
   3   1  -6   32.20   18.70
   3   1  -6   62.79   10.80
   3   1  -6   52.09   18.90
   3   1  -6   93.69   12.10
   3   1  -6   24.30    7.70
  -2  -1   6  475.35   47.10
   2  -1  -6  406.26   49.99
   2  -1  -6  468.65   69.39
   2  -1  -6  415.46   51.89
  -2  -1   6  414.56   38.50
  -2   1   6  466.05   46.20
  -2   1   6  434.16   38.60
   2   1  -6  412.56   50.19
   2   1  -6  375.96   50.99
   2   1  -6  441.16   71.29
   1  -1  -6 1149.19  110.39
  -1  -1   6 1203.48   82.99
   1  -1  -6  936.01   90.39
  -1  -1   6 1121.89  106.49
   1  -1  -6 1222.48   94.89
   1   1  -6 1133.39  110.89
  -1   1   6 1178.98  109.79
  -1   1   6 1226.28   83.09
   1   1  -6  976.80   89.99
   0  -1  -6  253.77   36.80
   0  -1  -6  298.77   45.60
   0  -1   6  330.27   52.99
   0  -1   6  229.08   25.90
   0   1   6  191.38   21.60
   0   1   6  246.88   46.40
   0   1  -6  167.98   37.90
   0   1  -6  186.88   30.30
  -1  -1  -6  144.59   16.30
  -1  -1  -6  121.89   15.20
  -1  -1  -6  101.99   18.60
   1   1   6  146.29   24.70
  -2  -1  -6  210.38   20.30
  -2  -1  -6  205.68   20.40
   2  -1   6  243.68   29.60
   2  -1   6  185.58   23.20
  -2   1  -6  244.28   22.40
   2   1   6  206.18   24.90
   2   1   6  244.98   29.80
  -2   1  -6  216.18   21.60
  -3  -1  -6  119.59   13.00
   3  -1   6   99.29   17.60
   3  -1   6   99.59   14.00
  -3  -1  -6  136.59   13.90
   3   1   6   97.39   17.40
   3   1   6   81.99   13.50
  -3   1  -6  148.59   14.60
  -3   1  -6  153.58   15.00
   4  -1   6    4.70    4.20
  -4   1  -6   16.40    3.60
   6  -2  -6   58.09    7.80
   6  -2  -6   92.09   11.10
   6  -2  -6   70.89   12.10
   6   2  -6   81.79   14.60
   6   2  -6  118.29   10.20
   6   2  -6  100.29    9.30
   6   2  -6  145.59   13.80
   6   2  -6  104.69   13.50
   5  -2  -6   69.79   11.40
   5  -2  -6   62.79   15.30
   5  -2  -6   72.49   17.90
   5  -2  -6   63.69   10.20
   5  -2  -6   56.29   18.60
   5  -2  -6   53.79   11.70
   5   2  -6   78.39   11.40
   5   2  -6   98.79   21.30
   5   2  -6   80.59   11.40
   5   2  -6   89.19   19.80
   5   2  -6   82.09   19.60
   5   2  -6   53.99   11.10
   4  -2  -6   33.20    8.70
   4  -2  -6   36.00   16.00
   4  -2  -6   53.99   12.30
   4  -2  -6   52.79   10.90
   4  -2  -6   87.59   23.90
   4  -2  -6   48.80   15.80
   4  -2  -6   40.60    7.50
   4   2  -6   37.00   16.50
   4   2  -6   37.00    8.70
   4   2  -6   44.10   11.80
   4   2  -6   61.69   20.30
   4   2  -6   26.90    8.20
   4   2  -6   45.30   10.10
   4   2  -6   63.59   20.40
   3  -2  -6  442.26   30.50
   3  -2  -6  382.46   32.80
   3  -2  -6  395.56   28.70
   3  -2  -6  425.96   34.80
   3  -2  -6  398.36   42.70
   3  -2  -6  354.86   31.00
   3  -2  -6  493.65   49.70
   3  -2  -6  263.27   41.00
   3   2  -6  549.35   50.39
   3   2  -6  335.27   47.80
   3   2  -6  447.76   36.30
   3   2  -6  511.05   34.70
   3   2  -6  433.86   36.80
   3   2  -6  520.45   39.40
   3   2  -6  398.66   47.00
   2  -2  -6  403.26   56.69
  -2  -2   6  472.55   49.00
   2  -2  -6  594.44   57.99
   2  -2  -6  491.45   69.99
  -2  -2   6  487.35   41.90
   2   2  -6  458.55   75.49
  -2   2   6  507.55   43.80
  -2   2   6  525.05   50.59
   2   2  -6  502.75   55.19
  -1  -2   6   44.20   25.30
  -1  -2   6   17.60   10.20
  -1   2   6   79.89   28.20
   1   2  -6   32.40   15.00
   1   2  -6   27.90   21.80
   0  -2  -6  416.66   51.69
   0  -2   6  284.97   29.70
   0  -2  -6  334.27   40.80
   0  -2   6  367.26   57.39
   0  -2  -6  308.97   30.60
   0   2   6  376.46   34.00
   0   2  -6  354.96   43.10
   0   2  -6  390.56   53.59
   0   2  -6  396.56   37.50
   0   2   6  421.76   57.19
  -1  -2  -6  422.66   36.70
   1  -2   6  529.85   47.70
  -1  -2  -6  444.36   37.10
   1  -2   6  451.95   34.60
  -1  -2  -6  440.46   36.80
  -1   2  -6  351.06   32.40
   1   2   6  445.66   40.60
  -1   2  -6  374.16   32.80
  -2  -2  -6  159.48   17.80
  -2  -2  -6  174.48   17.20
   2  -2   6   95.49   22.00
  -2  -2  -6  170.48   17.00
  -2   2  -6  135.99   16.30
  -2   2  -6  147.49   16.60
   2   2   6  185.48   26.30
   2   2   6  125.09   18.10
   3  -2   6   40.80   12.20
   3  -2   6   30.90    8.70
   3   2   6   56.19   11.40
   3   2   6  129.39   17.80
  -3   2  -6  104.09   12.80
  -3   2  -6  107.99   12.60
  -4  -2  -6   40.80    6.60
   4  -2   6   23.90    7.00
  -4   2  -6   37.10    5.70
   6  -3  -6    5.90    4.60
   6  -3  -6   -1.20    3.20
   6  -3  -6    8.00    5.70
   6   3  -6    9.80    5.90
   6   3  -6   11.70    6.40
   6   3  -6    1.30    5.70
   6   3  -6    4.90    3.00
   6   3  -6    7.20    3.00
   5  -3  -6   42.80   17.00
   5  -3  -6   35.90    9.00
   5  -3  -6   45.40   13.80
   5  -3  -6   42.70    9.40
   5  -3  -6   25.60    7.00
   5  -3  -6   39.70   12.30
   5   3  -6   30.20   14.20
   5   3  -6   31.50   15.00
   5   3  -6   42.70   14.70
   5   3  -6   27.10    6.80
   5   3  -6   24.50    7.70
   4  -3  -6   83.79   13.90
   4  -3  -6   83.49   12.30
   4  -3  -6   82.89   10.20
   4  -3  -6   74.19   13.90
   4  -3  -6   87.19   21.20
   4  -3  -6   68.19   24.10
   4   3  -6   71.49   20.00
   4   3  -6   68.59   22.40
   4   3  -6   67.49   11.80
   4   3  -6   62.59   13.20
   4   3  -6   63.09   10.80
   4   3  -6   71.09   21.50
   3  -3  -6   61.59   10.60
   3  -3  -6   62.89   20.20
   3  -3  -6   55.89   19.30
   3  -3  -6   63.29    7.70
   3  -3  -6   55.19    9.00
   3  -3  -6   53.99   12.20
   3  -3  -6   72.69   25.00
   3  -3  -6   64.19   11.90
   3   3  -6   70.69   14.50
   3   3  -6   96.29   11.70
   3   3  -6   79.39   24.80
   3   3  -6  109.69   24.40
   3   3  -6   95.39   13.30
   3   3  -6  110.89   26.60
   3   3  -6   92.09   12.90
   2  -3  -6   68.79   21.50
  -2  -3   6  103.69   21.40
   2  -3  -6   66.79   21.70
   2  -3  -6   92.09   14.80
  -2  -3   6   90.29   15.70
   2   3  -6   81.29   28.70
   2   3  -6   91.69   24.70
  -2   3   6   66.49   15.00
  -2   3   6  103.79   20.80
   2   3  -6   81.49   12.80
  -2   3   6   61.19   41.10
   2   3  -6   69.09   35.40
   1  -3  -6  330.67   42.50
  -1  -3   6  458.55   36.40
  -1  -3   6  393.86   57.39
   1  -3  -6  425.06   46.30
  -1   3   6  485.55   62.09
   1   3  -6  408.76   61.29
  -1   3   6  429.26   44.20
  -1   3   6  463.35   39.20
   1   3  -6  411.46   46.00
   0  -3   6  253.17   28.40
   0  -3  -6  308.77   29.20
   0  -3   6  376.06   56.19
   0  -3  -6  259.77   42.60
   0  -3   6  375.96   28.20
   0   3  -6  179.38   40.90
   0   3  -6  203.38   31.20
   0   3   6  294.07   70.29
   0   3  -6  200.78   22.50
   1  -3   6   33.30   15.90
   1  -3   6   16.80    6.80
  -2  -3  -6  171.58   17.40
  -2  -3  -6  173.08   17.20
   2  -3   6  151.18   26.40
   2  -3   6  141.89   25.70
  -2  -3  -6  167.18   18.30
  -2   3  -6  113.69   17.30
  -2   3  -6  116.49   17.00
   2   3   6  100.39   15.20
   2   3   6  137.59   22.00
   3  -3   6   64.99   11.90
  -3  -3  -6  102.79   11.50
  -3  -3  -6  134.19   12.80
   3  -3   6   66.09   16.50
   3   3   6   69.19   11.40
  -3   3  -6   89.89   11.90
   3   3   6   80.29   14.20
  -3   3  -6   89.19   11.80
  -4  -3  -6   26.00    6.30
  -4   3  -6    3.20    3.10
   6  -4  -6   63.09    8.70
   6  -4  -6   53.99    9.40
   6   4  -6   37.20    9.90
   6   4  -6   74.39   10.40
   6   4  -6   58.19    6.70
   6   4  -6   69.09   10.30
   5  -4  -6   33.70   15.50
   5  -4  -6   32.20    7.30
   5  -4  -6   29.90    8.80
   5  -4  -6   22.50    7.70
   5  -4  -6   36.70   11.10
   5  -4  -6   34.20   11.70
   5   4  -6   27.60    7.20
   5   4  -6   36.30    8.00
   5   4  -6   32.30   15.10
   5   4  -6   42.90   13.60
   5   4  -6   28.40    6.80
   5   4  -6   32.90   13.80
   4  -4  -6   57.99    8.50
   4  -4  -6   50.49   21.90
   4  -4  -6   50.09   17.10
   4  -4  -6   43.20   15.00
   4  -4  -6   43.20    9.30
   4  -4  -6   51.59   11.80
   4  -4  -6   64.79   12.50
   4   4  -6   45.90   16.40
   4   4  -6   72.69   13.40
   4   4  -6   59.99   21.10
   4   4  -6   36.10    8.90
   4   4  -6   49.00   10.20
   4   4  -6   45.30   17.50
   3  -4  -6  458.85   35.50
   3  -4  -6  386.06   31.80
   3  -4  -6  336.07   42.80
   3  -4  -6  393.06   29.10
   3  -4  -6  457.45   50.49
   3  -4  -6  454.65   31.00
   3  -4  -6  355.06   33.10
   3  -4  -6  334.87   41.30
   3   4  -6  388.76   28.40
   3   4  -6  294.37   38.70
   3   4  -6  296.47   46.60
   3   4  -6  400.66   33.40
   3   4  -6  373.56   30.50
   3   4  -6  383.16   41.70
   3   4  -6  356.56   30.30
   2  -4  -6  259.77   38.90
   2  -4  -6  257.97   36.30
   2  -4  -6  217.48   19.10
   2  -4  -6  196.18   21.00
  -2  -4   6  255.77   25.80
   2  -4  -6  173.28   29.80
   2  -4  -6  211.28   17.50
   2  -4  -6  208.58   21.90
   2  -4  -6  211.78   23.60
   2  -4  -6  213.38   41.40
  -2  -4   6  194.28   31.90
  -2   4   6  157.48   26.90
   2   4  -6  225.28   71.59
  -2   4   6  170.18   24.60
   2   4  -6  185.38   16.80
  -2   4   6  206.18   42.10
   2   4  -6  128.09   38.40
   2   4  -6  178.08   24.90
   2   4  -6  164.28   32.00
   2   4  -6  182.88   32.70
  -1  -4   6   37.00   22.40
   1  -4  -6   21.50   13.60
   1  -4  -6   37.80   16.10
  -1  -4   6   21.90    9.70
   1   4  -6   21.40   21.10
   1   4  -6   15.70   14.90
  -1   4   6   16.30   14.00
  -1   4   6   60.89   27.60
  -1   4   6   24.20   10.80
   0  -4  -6  495.95   39.20
   0  -4  -6  439.36   33.50
   0  -4  -6  445.26   38.90
   0  -4   6  523.45   39.70
   0   4  -6  434.56   37.90
   0   4  -6  369.26   37.30
   0   4   6  548.25   45.50
  -1  -4  -6  354.16   30.40
  -1  -4  -6  345.17   30.20
   1  -4   6  398.36   40.70
  -1  -4  -6  319.47   30.50
   1  -4   6  360.46   28.30
   1   4   6  391.46   35.90
  -1   4  -6  285.57   29.00
  -1   4  -6  339.07   30.40
  -2  -4  -6   17.50    7.90
  -2  -4  -6   25.20    6.60
   2  -4   6   10.70   13.00
  -2   4  -6    9.30    6.70
  -2   4  -6    6.10    6.80
   2   4   6   10.00    7.00
   2   4   6   27.80   11.80
   3  -4   6   25.10   11.60
  -3  -4  -6   32.10    8.10
   3  -4   6   24.50    7.60
   3   4   6   33.30    8.10
  -3   4  -6   42.40    9.30
   3   4   6   42.70   10.20
  -3   4  -6   48.30    9.90
  -6  -5   6    1.70    2.50
   6   5  -6    3.30    6.00
   6   5  -6    2.80    2.60
   6   5  -6    5.00    4.70
   6   5  -6   -0.50    4.40
   5  -5  -6   48.10   10.30
   5  -5  -6   70.19   11.10
   5  -5  -6   56.69   13.20
   5  -5  -6   49.60    8.80
   5  -5  -6   32.80   15.60
   5   5  -6  105.79   13.00
   5   5  -6  122.19   22.90
   5   5  -6  105.39   19.30
   5   5  -6  121.69   13.70
   5   5  -6  114.59   20.00
   4  -5  -6   97.79   13.50
   4  -5  -6  106.79   15.80
   4  -5  -6  108.19   21.60
   4  -5  -6   97.79   11.40
   4  -5  -6   99.49   15.40
   4  -5  -6   92.99   26.90
   4   5  -6  143.39   19.20
   4   5  -6  169.88   30.70
   4   5  -6  137.19   25.50
   4   5  -6  140.99   17.20
   4   5  -6  131.19   16.70
   4   5  -6  152.98   26.30
   3  -5  -6   98.99   15.30
   3  -5  -6   90.49   22.50
   3  -5  -6   90.09   15.60
   3  -5  -6  103.89   12.30
   3  -5  -6   98.19   28.80
   3  -5  -6   97.69   12.80
   3  -5  -6  111.89   10.40
   3   5  -6  101.29   14.60
   3   5  -6  125.29   25.20
   3   5  -6  122.29   13.40
   3   5  -6  128.39   15.50
   3   5  -6  106.29   17.60
   3   5  -6  115.79   25.70
   3   5  -6  126.99   28.80
   2  -5  -6   83.69   14.90
  -2  -5   6   49.40   10.10
   2  -5  -6   93.29   23.30
   2  -5  -6   43.50    7.10
   2  -5  -6   50.29    9.10
   2  -5  -6   66.29   11.90
   2  -5  -6   46.30   16.10
   2  -5  -6   60.39    9.10
  -2  -5   6   56.59   24.00
  -2   5   6  109.19   32.50
   2   5  -6   97.89   22.00
   2   5  -6  122.69   27.20
   2   5  -6  123.29   13.70
   2   5  -6  137.19   18.80
   2   5  -6  130.39   26.80
   1  -5  -6  438.56   46.30
  -1  -5   6  399.56   70.99
   1  -5  -6  369.06   29.70
   1  -5  -6  320.67   42.40
   1  -5  -6  432.96   43.40
  -1  -5   6  442.26   35.70
  -1  -5   6  420.26   37.00
  -1   5   6  446.56   45.70
  -1   5   6  513.85   66.19
   1   5  -6  438.56   44.50
  -1   5   6  429.06   39.20
   1   5  -6  428.76   63.69
   0  -5  -6  174.08   17.40
   0  -5   6  193.38   19.30
   0  -5  -6  165.98   22.30
   0  -5  -6  169.88   14.50
   0  -5  -6  164.38   19.30
   0   5  -6  154.28   22.40
   0   5  -6  141.49   19.50
   0   5   6  194.48   26.60
  -1  -5  -6   17.10    8.20
  -1  -5  -6   19.50    7.20
   1  -5   6    8.40   13.30
   1  -5   6   10.40    5.90
  -1   5  -6   35.60   11.20
   1   5   6   41.70   14.30
  -1   5  -6   23.10   10.20
  -2  -5  -6  144.19   15.40
  -2  -5  -6   97.99   13.80
   2  -5   6  124.29   24.50
  -2  -5  -6  125.79   13.90
   2   5   6  104.19   19.10
  -2   5  -6  124.49   15.90
  -2   5  -6  137.79   23.70
   2   5   6  127.99   15.50
   3  -5   6   46.40    9.30
  -3  -5  -6   84.59    9.50
  -3  -5  -6   54.09   10.50
   3  -5   6   41.60   13.20
  -3  -5  -6   65.69   10.60
  -3   5  -6  106.09   13.00
   3   5   6   83.79   11.60
   3   5   6   71.89   13.20
   6   6  -6   31.20    4.60
   6   6  -6   52.09   10.10
  -5  -6   6   25.50    9.30
   5  -6  -6   46.80   10.00
   5  -6  -6   61.49   12.40
   5  -6  -6   53.69    9.10
   5  -6  -6   40.90    9.10
   5  -6  -6   36.10   15.30
   5   6  -6   68.29   17.50
   5   6  -6   54.89    9.00
   5   6  -6   64.49   15.00
   5   6  -6   57.59    9.30
   5   6  -6   69.69    8.30
   5   6  -6   72.29   15.00
   4  -6  -6    9.40    4.20
   4  -6  -6   13.00    6.90
   4  -6  -6    2.70    7.20
   4  -6  -6    3.60    9.30
   4  -6  -6    7.00    5.20
   4  -6  -6   15.90   17.70
   4   6  -6   38.80   17.00
   4   6  -6   10.90   13.40
   4   6  -6    7.10    5.80
   4   6  -6   10.60   11.70
   4   6  -6    2.20    5.50
   4   6  -6    8.00    6.90
   3  -6  -6  134.99   17.90
   3  -6  -6  127.39   13.60
   3  -6  -6  101.99   13.60
   3  -6  -6  135.79   18.10
   3  -6  -6  109.79   11.00
   3  -6  -6  101.79   23.00
   3  -6  -6   71.19   26.70
   3   6  -6   83.39   23.70
   3   6  -6  100.29   16.90
   3   6  -6   67.59   12.70
   3   6  -6   83.09   20.60
   3   6  -6   81.49   12.70
   2  -6  -6  370.76   40.80
   2  -6  -6  350.76   27.80
   2  -6  -6  322.27   29.90
   2  -6  -6  361.36   28.70
   2  -6  -6  379.06   26.80
  -2  -6   6  355.26   29.30
   2  -6  -6  318.47   31.70
   2  -6  -6  336.67   37.70
   2   6  -6  453.85   31.70
   2   6  -6  417.56   36.20
   2   6  -6  402.36   45.50
   2   6  -6  337.47   39.90
  -1  -6   6    9.20    6.60
   1  -6  -6    5.00    6.00
   1  -6  -6   12.30    8.40
   1  -6  -6   17.30   11.40
   1  -6  -6    9.30    4.30
   1  -6  -6    3.00    4.70
   1   6  -6   14.90   11.10
  -1   6   6   10.50   14.40
   0  -6   6  178.08   18.10
   0  -6  -6  133.19   17.70
   0  -6  -6  172.18   19.00
   0  -6   6  150.38   17.80
   0  -6  -6  143.59   13.20
   0  -6  -6  165.58   16.00
   0   6  -6  121.99   20.30
   0   6   6  115.69   21.00
   1  -6   6  280.47   35.10
  -1  -6  -6  254.67   24.30
  -1  -6  -6  257.57   24.50
   1  -6   6  257.67   22.40
   1   6   6  247.88   28.40
  -1   6  -6  235.68   25.20
  -2  -6  -6    4.80    6.20
  -2  -6  -6   13.30    5.50
   2  -6   6   14.40   13.40
   2   6   6   12.00    6.10
   2   6   6    9.00    9.00
  -2   6  -6   13.70    7.90
   3  -6   6    7.10    8.60
  -3  -6  -6    0.90    4.90
  -3  -6  -6    9.90    4.00
   3  -6   6    0.70    4.90
   3   6   6   13.30    5.60
  -3   6  -6   11.40    6.80
   3   6   6    4.40    6.10
   5  -7  -6   41.10    9.90
   5  -7  -6  104.99   13.10
   5  -7  -6   92.39   14.10
  -5  -7   6   85.89   13.70
   5  -7  -6   85.59   10.90
   5  -7  -6   67.69   16.60
   5   7  -6  147.39   21.90
   5   7  -6  110.99   17.50
   5   7  -6   95.69   12.10
   5   7  -6  109.69   12.40
   5   7  -6  102.59   10.30
   5   7  -6  113.39   17.70
   4  -7  -6  230.18   25.40
   4  -7  -6  234.08   19.10
   4  -7  -6  234.78   22.70
   4  -7  -6  243.08   27.30
   4  -7  -6  144.59   32.30
   4  -7  -6  226.28   21.00
   4   7  -6  251.77   30.80
   4   7  -6  282.07   22.10
   4   7  -6  291.07   25.50
   4   7  -6  228.18   31.70
   4   7  -6  253.47   30.40
   4   7  -6  246.28   23.70
   4   7  -6  258.47   23.60
   3  -7  -6    2.40    6.20
   3  -7  -6   -8.70   15.40
   3  -7  -6    1.70    4.40
   3  -7  -6   -3.60    3.60
   3  -7  -6    4.80   10.50
   3  -7  -6    0.70    4.00
  -3  -7   6    0.40    6.30
   3  -7  -6   -0.20    6.40
   3   7  -6    7.60    6.50
   3   7  -6   13.30    8.30
   3   7  -6    6.50   13.70
   3   7  -6    8.70   12.70
   3   7  -6    6.40    6.60
  -2  -7   6  339.57   27.80
   2  -7  -6  279.07   25.50
   2  -7  -6  317.57   27.70
   2  -7  -6  257.37   33.20
   2  -7  -6  302.47   23.80
   2  -7  -6  348.97   29.70
  -2  -7   6  256.07   25.30
   2  -7  -6  310.37   24.80
   2  -7  -6  372.96   39.10
   2   7  -6  294.67   38.20
   2   7  -6  337.67   30.70
   1  -7  -6  466.25   36.10
   1  -7  -6  469.35   35.60
   1  -7  -6  449.16   42.30
   1  -7  -6  474.85   40.10
   1  -7  -6  470.25   36.90
  -1  -7   6  496.75   37.70
  -1  -7   6  514.55   38.80
   1  -7  -6  453.75   34.10
   1  -7  -6  440.16   42.10
   1   7  -6  493.25   47.30
  -1   7   6  519.15   56.69
   0  -7   6  223.68   20.50
   0  -7  -6  207.88   22.40
   0  -7   6  188.98   21.10
   0  -7  -6  204.88   19.10
   0  -7  -6  222.88   17.00
   0  -7  -6  195.98   21.90
   0   7  -6  223.48   26.40
   0   7   6  265.77   29.40
  -1  -7  -6   80.69   14.30
  -1  -7  -6   79.79   13.00
   1  -7   6   61.09   10.20
   1  -7   6   84.09   22.20
   1   7   6   92.09   18.30
  -1   7  -6   89.29   16.20
  -2  -7  -6  297.57   26.30
   2  -7   6  313.47   36.80
  -2  -7  -6  293.77   25.60
  -2   7  -6  260.37   25.40
   2   7   6  240.98   27.10
   2   7   6  255.27   22.30
  -3  -7  -6   45.90    8.70
   3  -7   6   46.60    8.10
   3  -7   6   39.70   12.00
  -3  -7  -6   52.89    8.20
   3   7   6   42.30    9.40
  -3   7  -6   57.49   10.90
   3   7   6   57.49    8.60
   5  -8  -6   51.59    7.80
  -5  -8   6   33.60    8.90
   5  -8  -6   25.50    7.40
   5  -8  -6   29.70   11.40
   5   8  -6   36.10    6.90
   5   8  -6   43.20   12.60
   5   8  -6   53.09   11.00
   5   8  -6   52.09   11.70
   5   8  -6   64.59    7.20
   5   8  -6   45.60    7.40
   4  -8  -6    1.10    5.20
   4  -8  -6   -1.00    6.70
   4  -8  -6    3.70    3.70
   4  -8  -6    2.00    4.50
   4  -8  -6   -0.10   14.20
   4   8  -6    6.90    5.50
   4   8  -6    6.60    5.00
   4   8  -6    7.50   11.70
   4   8  -6    9.10    6.60
   4   8  -6   10.60    6.30
   4   8  -6    9.90   11.70
   3  -8  -6  187.58   20.40
   3  -8  -6  165.78   14.80
   3  -8  -6  136.69   32.90
   3  -8  -6  154.78   16.80
   3  -8  -6  159.18   26.90
   3  -8  -6  177.88   15.90
   3  -8  -6  192.08   22.00
  -3  -8   6  166.58   18.90
   3   8  -6  213.58   21.80
   3   8  -6  203.38   19.70
   3   8  -6  218.68   23.80
   3   8  -6  202.68   33.10
   2  -8  -6  263.87   32.20
   2  -8  -6  286.57   23.60
   2  -8  -6  287.07   27.70
   2  -8  -6  244.68   25.60
  -2  -8   6  326.17   27.40
  -2  -8   6  284.47   24.60
   2  -8  -6  268.57   24.20
   2  -8  -6  300.77   41.00
   2  -8  -6  309.77   22.80
   2   8  -6  420.56   32.50
   2   8  -6  360.56   42.30
   2   8  -6  412.56   35.80
   1  -8  -6   33.70    6.40
   1  -8  -6   33.20    8.60
   1  -8  -6   35.90    7.60
  -1  -8   6   39.50   10.00
  -1  -8   6   41.00   11.30
   1  -8  -6   36.20    7.30
   1  -8  -6   39.30   11.20
   1  -8  -6   55.99   15.40
   1  -8  -6   45.80   13.40
   1   8  -6   35.80    9.00
   1   8  -6   52.79   15.90
   0  -8  -6  110.39   10.60
   0  -8   6  119.89   14.60
   0  -8  -6  109.99   17.20
   0  -8  -6  121.59   18.40
   0  -8  -6  118.69   14.10
   0  -8   6  111.39   14.10
   0   8  -6  187.88   24.20
   0   8   6  221.78   26.80
  -1  -8  -6  135.99   15.50
  -1  -8  -6  156.28   20.50
   1  -8   6  157.28   16.10
   1  -8   6  141.89   26.90
   1  -8   6  152.38   17.40
  -1  -8  -6  152.88   16.90
  -1   8  -6  113.39   18.20
   1   8   6   97.29   18.50
   1   8   6   88.79   12.40
   2  -8   6   10.60   12.60
   2  -8   6   15.90    6.50
  -2  -8  -6   22.20    6.50
  -2  -8  -6   15.50    7.50
   2   8   6   19.40    6.10
   2   8   6   16.60    9.30
  -2   8  -6   13.50    8.00
   3  -8   6   20.70    9.50
  -3  -8  -6   18.70    6.30
  -3  -8  -6   21.60    5.10
   3  -8   6   25.60    6.30
  -3   8  -6   21.20    7.00
   3   8   6   15.20    6.60
   3   8   6   17.10    5.30
   5  -9  -6   16.50    4.90
  -5  -9   6   10.20    6.00
   5  -9  -6    6.30    5.50
   5  -9  -6    5.10   12.30
   5   9  -6   25.10    9.90
   5   9  -6   22.80    4.40
   5   9  -6   14.30    4.70
   5   9  -6   18.30    5.10
   5   9  -6   20.60    7.60
   5   9  -6   18.30    7.70
   4  -9  -6  111.19   16.70
   4  -9  -6  116.59   11.90
   4  -9  -6  117.29   24.50
   4  -9  -6  145.29   14.30
   4  -9  -6  122.59   16.00
  -4  -9   6   94.59   16.50
   4   9  -6  127.29   15.70
   4   9  -6  137.39   15.60
   4   9  -6  159.98   14.60
   4   9  -6  142.59   23.90
   3  -9  -6   40.40    7.60
   3  -9  -6   43.60   11.20
   3  -9  -6   38.50   21.10
   3  -9  -6   50.09    7.40
  -3  -9   6   45.30    9.90
   3  -9  -6   28.60   10.10
   3  -9  -6   61.89    9.70
   3   9  -6   45.70   11.80
   3   9  -6  106.69   12.30
   3   9  -6   69.39   12.30
   3   9  -6   66.29   19.60
  -2  -9   6   59.49   11.60
  -2  -9   6   47.50    9.20
   2  -9  -6   57.09   11.40
   2  -9  -6   49.80    9.00
   2  -9  -6   67.69   20.70
   2  -9  -6   51.29    8.10
   2  -9  -6   71.09   13.60
   2  -9  -6   57.59    9.40
   2   9  -6   20.30   14.00
   2   9  -6   28.20    9.80
   2   9  -6   24.50    7.90
  -1  -9   6  223.58   21.10
  -1  -9   6  218.18   19.70
   1  -9  -6  208.68   28.50
   1  -9  -6  174.68   17.50
   1  -9  -6  194.08   18.40
   1  -9  -6  177.28   16.40
   1  -9  -6  199.88   22.40
   1  -9  -6  193.98   24.40
   1  -9  -6  176.48   18.70
   1   9  -6  238.38   30.30
   1   9  -6  256.47   22.00
   0  -9  -6  185.68   18.40
   0  -9  -6  198.68   16.20
   0  -9   6  177.68   20.30
   0  -9  -6  197.58   21.90
   0  -9   6  224.38   19.80
   0  -9  -6  213.78   22.80
   0   9   6  191.08   26.90
   0   9  -6  170.88   23.20
   0   9  -6  190.58   17.30
   1  -9   6    8.20    5.70
   1  -9   6   22.60   14.80
   1  -9   6   15.50    7.80
  -1  -9  -6   15.70    6.80
  -1  -9  -6   21.10    8.70
  -1  -9  -6   16.40    5.80
   1   9   6   24.50   10.90
  -1   9  -6   15.40    8.50
   1   9   6   10.00    5.80
   2  -9   6   60.09   10.20
   2  -9   6   77.19   11.50
  -2  -9  -6   96.89   11.30
   2  -9   6   83.09   19.60
  -2  -9  -6  104.29   14.40
   2   9   6   73.59    9.80
   2   9   6   70.49   13.90
  -2   9  -6   63.99   12.80
   3  -9   6   28.80    6.60
  -3  -9  -6   26.50    6.50
   3  -9   6   28.70    6.20
   3  -9   6   17.50    8.90
  -3  -9  -6   29.20    5.60
   3   9   6   14.60    6.40
  -3   9  -6    7.70    5.40
   3   9   6    9.60    4.60
   5 -10  -6   35.10    6.00
  -5 -10   6   32.50    8.00
   5 -10  -6   29.90    6.60
   5  10  -6   60.49   11.90
   5  10  -6   78.19    7.40
   5  10  -6   45.80    7.20
   4 -10  -6   25.40    5.60
   4 -10  -6   17.80   13.60
   4 -10  -6   31.20    8.00
   4 -10  -6   22.70    8.90
  -4 -10   6   20.30    9.00
   4 -10  -6   26.70    7.20
   4  10  -6   15.80    5.80
   4  10  -6   35.10   12.70
   4  10  -6   22.10    6.70
   4  10  -6   24.20    6.50
   3 -10  -6  543.75   42.80
   3 -10  -6  533.95   42.60
   3 -10  -6  514.05   38.10
   3 -10  -6  519.05   37.30
   3 -10  -6  494.25   39.70
   3 -10  -6  444.76   51.99
  -3 -10   6  539.85   39.80
   3  10  -6  642.24   60.19
   3  10  -6  702.33   50.59
   3  10  -6  685.03   51.49
   2 -10  -6   86.19   11.50
   2 -10  -6   93.09   11.00
   2 -10  -6   76.09   11.30
   2 -10  -6   81.59   15.00
   2 -10  -6   85.49   13.90
  -2 -10   6   93.59   13.90
  -2 -10   6   92.49   11.60
   2 -10  -6   98.19   23.70
   2  10  -6  154.88   16.90
   2  10  -6  141.69   25.60
   1 -10  -6    7.50    5.20
   1 -10  -6    9.20    6.30
   1 -10  -6   21.00   12.40
   1 -10  -6   24.80    8.50
   1 -10  -6   11.20    5.70
  -1 -10   6    9.80    7.40
   1 -10  -6    9.90    5.00
  -1 -10   6    8.10    6.30
   1 -10  -6   17.30    9.00
   1  10  -6   16.30    6.30
   1  10  -6   11.70   11.30
   0 -10  -6  331.87   32.20
   0 -10  -6  341.97   31.30
   0 -10  -6  314.17   24.60
   0 -10   6  389.46   28.40
   0 -10  -6  328.97   27.30
   0 -10   6  313.27   27.60
   0  10  -6  352.66   37.00
   0  10   6  417.96   39.20
   0  10  -6  377.76   29.80
   1 -10   6  291.57   25.60
  -1 -10  -6  288.77   25.30
  -1 -10  -6  269.27   25.90
   1 -10   6  269.27   23.10
  -1 -10  -6  276.87   23.00
   1 -10   6  254.87   36.30
   1  10   6  279.57   29.20
   1  10   6  256.37   21.80
  -1  10  -6  235.58   26.10
   2 -10   6   16.00    4.30
  -2 -10  -6   18.10    7.30
  -2 -10  -6   21.40    6.10
   2 -10   6   12.90   11.80
   2 -10   6   20.60    7.10
   2  10   6    9.80    7.70
   2  10   6   13.40    5.40
  -2  10  -6  104.99   17.70
   3 -10   6   62.49    8.30
  -3 -10  -6   64.49    9.10
  -3 -10  -6   67.69    7.40
   3 -10   6   55.19   12.30
   3  10   6   48.50    8.80
   3  10   6   88.69    8.40
  -3  10  -6   52.09    9.40
  -5 -11   6   17.40    6.20
  -5 -11   6   19.40    4.80
   5  11  -6   35.10    8.60
   5  11  -6   30.10    5.20
   4 -11  -6   80.69   12.80
   4 -11  -6   93.69    8.50
  -4 -11   6   74.09   13.80
   4 -11  -6   80.39   12.30
   4 -11  -6   81.19    9.70
   4 -11  -6   32.20   18.90
   4 -11  -6  113.69   12.90
   4  11  -6   96.39   12.30
   4  11  -6   95.19   17.60
   4  11  -6  119.99   12.50
   3 -11  -6   11.20    4.90
   3 -11  -6   10.40    7.70
   3 -11  -6    8.00    4.40
   3 -11  -6    8.70    6.40
  -3 -11   6   10.40    6.50
   3 -11  -6   14.30    6.10
  -3 -11   6    9.60    9.70
   3 -11  -6    1.50   14.00
   3  11  -6   20.60    7.20
   3  11  -6   31.30    7.80
   3  11  -6    6.50   12.20
   2 -11  -6   78.79   13.30
  -2 -11   6   92.69   13.00
   2 -11  -6   79.19   14.20
   2 -11  -6   73.89   10.50
   2 -11  -6   72.79   10.60
   2 -11  -6   76.59   20.60
  -2 -11   6   67.29   16.40
   2 -11  -6   75.89   10.00
   2  11  -6  103.29   13.60
   2  11  -6  107.79   21.40
   1 -11  -6   76.39   11.00
  -1 -11   6   81.29   11.40
   1 -11  -6   73.39   10.60
   1 -11  -6   67.99   11.60
   1 -11  -6   63.79    9.00
   1 -11  -6   81.89   14.40
   1 -11  -6   85.39   18.40
  -1 -11   6   84.69   13.30
   1 -11  -6   94.49   15.50
   1  11  -6  116.39   22.10
   1  11  -6   81.89   11.70
   0 -11  -6   64.49   10.30
   0 -11   6   52.49    9.90
   0 -11  -6   76.79   10.40
   0 -11   6   75.49   11.30
   0 -11  -6   70.89    7.70
   0 -11  -6   67.19   14.70
   0  11  -6   73.69    9.90
   0  11   6   60.99   16.80
   0  11  -6   56.39   15.40
   1 -11   6    6.80    5.20
  -1 -11  -6    4.00    6.20
  -1 -11  -6    9.50    5.10
   1 -11   6    0.20    6.60
  -1 -11  -6    6.40    5.20
  -1  11  -6   11.50    9.00
   1  11   6   17.40   10.80
   1  11   6   16.80    5.60
   2 -11   6   65.09    8.70
   2 -11   6   77.89   11.40
   2 -11   6   78.99   18.00
  -2 -11  -6  111.69   14.60
  -2 -11  -6  103.59   10.90
  -2 -11  -6   98.69   10.60
   2  11   6   86.49   10.10
  -2  11  -6   71.29   13.20
   2  11   6   77.79   13.50
   3 -11   6    8.00    7.10
  -3 -11  -6   11.20    4.40
  -3 -11  -6   19.00    4.00
   3  11   6   13.50    5.30
   3  11   6   26.80    4.90
  -5 -12   6   22.30    4.30
  -5 -12   6   23.50    6.20
   5  12  -6   49.30    5.70
   4 -12  -6   15.50    3.70
   4 -12  -6    9.30    6.30
   4 -12  -6    5.90    3.60
  -4 -12   6    4.50    6.20
   4 -12  -6   11.40    5.00
   4 -12  -6    7.70    5.30
   4  12  -6    3.10    8.40
   4  12  -6    7.30    4.40
  -3 -12   6   93.99   16.70
   3 -12  -6   74.99   13.00
   3 -12  -6   50.69   19.40
   3 -12  -6   71.89    8.80
   3 -12  -6   64.39    9.00
  -3 -12   6   66.19   10.20
   3 -12  -6   71.09   10.70
   3 -12  -6   74.49   12.90
   3  12  -6   65.59   10.90
   3  12  -6   73.49   17.60
   3  12  -6   80.29   11.20
   2 -12  -6   48.00    8.60
   2 -12  -6   64.59    8.80
   2 -12  -6   60.89   15.10
   2 -12  -6   53.69   18.70
   2 -12  -6   45.50   11.50
  -2 -12   6   69.69   11.80
  -2 -12   6   54.39   14.90
   2 -12  -6   61.29   11.90
   2 -12  -6   60.99    9.80
   2  12  -6   41.90    8.80
   1 -12  -6   35.40    6.50
  -1 -12   6   47.30    8.90
  -1 -12   6   40.00    9.40
   1 -12  -6   29.90    8.20
   1 -12  -6   37.00    7.60
   1 -12  -6   27.30   10.10
   1 -12  -6   27.00   12.30
   1 -12  -6   44.90   11.50
   1 -12  -6   33.20    7.40
   1  12  -6   35.10    7.80
   0 -12  -6   21.60    6.20
   0 -12  -6   15.30    3.70
   0 -12  -6   25.70    7.00
   0 -12   6   19.00    6.90
   0 -12  -6   21.60    9.90
   0 -12   6   12.60    6.30
   0  12  -6   11.40    5.70
   0  12   6   19.30   12.60
   1 -12   6  122.69   13.50
  -1 -12  -6  126.49   17.50
  -1 -12  -6  123.49   12.80
   1  12   6   97.89   11.50
   1  12   6   89.99   16.90
  -1  12  -6   75.69   21.30
   2 -12   6   12.60    6.20
  -2 -12  -6   13.30    4.60
   2 -12   6   12.90    3.90
   2 -12   6    7.40    9.80
  -2 -12  -6   14.10    5.90
   2  12   6    2.20    5.70
   2  12   6    6.60    4.00
   3 -12   6   18.70    7.20
  -3 -12  -6   25.40    5.10
  -3  12  -6   23.50    5.10
   3  12   6   26.20    4.50
   3  12   6   15.00    7.40
  -5 -13   6   16.10    3.40
   5  13  -6   44.50    5.10
  -4 -13   6  106.99   12.30
   4 -13  -6   99.09   12.40
   4 -13  -6  140.09   12.50
   4 -13  -6  121.69   10.90
   4 -13  -6  113.99   13.10
   4 -13  -6  118.39   10.10
  -4 -13   6  119.69   16.20
   4  13  -6  222.38   18.50
   3 -13  -6   31.80    7.20
   3 -13  -6   25.10    8.60
  -3 -13   6   22.40   10.20
   3 -13  -6   26.00    8.10
   3 -13  -6   28.00    6.00
   3 -13  -6   29.10    5.80
  -3 -13   6   26.10    6.60
   3  13  -6   63.49   10.20
   2 -13  -6  110.19   18.30
  -2 -13   6  118.49   19.90
   2 -13  -6  120.39   13.60
   2 -13  -6  130.29   18.00
   2 -13  -6  123.19   16.60
   2 -13  -6  115.49   14.10
  -2 -13   6  130.89   15.50
   2 -13  -6  133.19   13.00
   2 -13  -6  124.19   23.90
   2  13  -6  135.79   15.60
   1 -13  -6  172.08   17.20
   1 -13  -6  156.68   24.40
   1 -13  -6  157.38   19.90
   1 -13  -6  153.58   15.30
   1 -13  -6  157.38   14.20
  -1 -13   6  163.08   18.00
  -1 -13   6  158.08   16.70
   1 -13  -6  161.78   20.50
   1 -13  -6  164.18   15.90
   1  13  -6  213.88   19.80
   0 -13  -6   69.39   13.80
   0 -13  -6   56.39    9.20
   0 -13   6   44.00    9.50
   0 -13  -6   68.09   10.30
   0 -13  -6   68.39    9.70
   0 -13   6   58.89   10.10
   0  13  -6   97.09   12.00
   0  13   6   85.99   18.50
  -1 -13  -6   14.90    5.40
   1 -13   6   23.00    5.90
  -1 -13  -6   16.70    7.60
   1  13   6   37.60   11.60
   1  13   6   27.90    6.20
   2 -13   6   65.09   15.50
  -2 -13  -6   95.99   10.70
  -2 -13  -6   99.19    9.40
   2 -13   6   76.29    8.50
   2  13   6  123.19   11.10
   2  13   6   91.69   14.00
  -3 -13  -6   16.40    4.00
  -5 -14   6   16.30    3.10
  -4 -14   6    1.70    3.20
   4 -14  -6    4.20    3.40
   4 -14  -6    4.50    2.70
  -4 -14   6    8.20    6.10
   4 -14  -6    5.30    3.00
   4 -14  -6    8.00    4.40
   4  14  -6   10.50    4.00
   3 -14  -6   39.80    8.80
   3 -14  -6   45.90    7.90
   3 -14  -6   33.60    8.60
   3 -14  -6   44.40    6.50
  -3 -14   6   36.90   11.80
  -3 -14   6   33.10    7.00
   3 -14  -6   39.30    6.40
  -3 -14   6   27.20    7.30
   3  14  -6  125.39   14.00
   2 -14  -6   76.29   10.40
   2 -14  -6   58.49   13.40
   2 -14  -6   61.99   11.30
   2 -14  -6   75.09    8.90
   2 -14  -6   55.79   17.00
  -2 -14   6   56.29   14.90
   2 -14  -6   55.49    8.80
   2 -14  -6   53.89   11.70
  -2 -14   6   60.49   10.20
   2  14  -6  116.69   14.00
  -1 -14   6   -2.70    4.70
  -1 -14   6    8.50    6.00
   1 -14  -6    1.00    3.70
   1 -14  -6   -0.70    7.80
   1 -14  -6    0.00    8.90
   1 -14  -6    3.10    6.50
   1 -14  -6    1.70    4.20
   1 -14  -6    5.20    5.60
   1 -14  -6    1.30    3.80
   1  14  -6   -1.40    4.80
   0 -14   6   36.80    7.70
   0 -14  -6   27.00   10.60
   0 -14  -6   30.00    6.70
   0 -14   6   24.30    6.80
   0 -14  -6   28.10    7.40
   0  14  -6   53.89    9.10
   0  14   6   66.29   15.60
  -1 -14  -6   85.89   10.20
   1 -14   6   73.59    9.40
  -1 -14  -6   65.39   12.30
   1  14   6  111.29   10.90
  -1  14  -6   88.89   11.10
   1  14   6   95.09   16.10
  -2 -14  -6   12.90    4.10
   2 -14   6    5.40    2.70
  -2 -14  -6   12.20    5.20
   2 -14   6    9.20    8.20
  -2  14  -6   25.10    4.80
   2  14   6   21.60    4.60
   2  14   6   14.40    6.50
   4 -15  -6   52.89    6.10
   4 -15  -6   45.50    7.60
   4 -15  -6   62.59    7.40
   4 -15  -6   58.99    5.60
  -4 -15   6   39.10    6.50
  -4 -15   6   48.80    9.40
   4  15  -6   78.79    8.20
   3 -15  -6   28.90    6.50
   3 -15  -6   36.30    5.60
   3 -15  -6   18.40    6.70
   3 -15  -6   27.10    5.20
   3 -15  -6   24.40    6.80
  -3 -15   6   25.40    6.30
  -3 -15   6   28.30    9.90
   3  15  -6   28.70    6.50
   2 -15  -6   10.10    4.80
  -2 -15   6   16.20    9.70
   2 -15  -6    9.60    4.90
   2 -15  -6    0.90    9.50
   2 -15  -6    3.90    4.00
  -2 -15   6   10.30    5.90
   2 -15  -6   11.30    7.20
   2 -15  -6   12.20    6.50
   2  15  -6   12.10    5.70
   1 -15  -6   83.69   16.20
  -1 -15   6   93.09   11.20
   1 -15  -6   87.29   13.60
   1 -15  -6   84.69   12.20
   1 -15  -6   72.29   14.10
   1 -15  -6   74.09    9.00
   1 -15  -6   80.69   10.00
   1 -15  -6   90.89   11.40
  -1 -15   6   89.99   12.50
   1  15  -6  101.29   12.20
   0 -15  -6   36.00    6.80
   0 -15   6   45.40    8.00
   0 -15   6   27.80    7.30
   0 -15  -6   27.20    9.90
   0 -15  -6   27.90    7.00
   0  15   6   23.20   10.50
   0  15   6   35.20    6.80
   0  15  -6   32.20    6.90
   1 -15   6    9.00    4.30
  -1 -15  -6   13.40    5.00
  -1 -15  -6    9.60    6.10
  -1  15  -6    9.20    4.30
   1  15   6    7.80    6.90
   1  15   6    4.80    3.60
  -2 -15  -6   43.00    5.60
  -2 -15  -6   31.90    6.70
   2 -15   6   23.20    8.50
   2 -15   6   27.10    4.00
   2  15   6   43.80    5.60
  -2  15  -6   39.60    5.80
   2  15   6   34.20    7.60
   4 -16  -6   12.70    3.10
   4 -16  -6   15.30    2.70
  -4 -16   6    6.40    2.90
  -4 -16   6   16.60    6.30
   4 -16  -6   14.50    4.40
   4 -16  -6   15.60    2.90
   4  16  -6   20.50    3.90
   3 -16  -6  114.89    9.90
   3 -16  -6  110.89   11.10
   3 -16  -6  109.79   10.00
   3 -16  -6   81.59   11.10
  -3 -16   6  104.89   11.20
   3 -16  -6   98.49   13.20
  -3 -16   6  121.29   16.70
   3  16  -6  189.28   16.80
  -2 -16   6   93.79   11.40
   2 -16  -6   68.69   12.20
   2 -16  -6   64.69   10.90
   2 -16  -6   91.09    9.30
   2 -16  -6   66.29   13.30
   2 -16  -6   74.39    9.30
  -2 -16   6   72.99   14.50
   2 -16  -6   85.79   10.80
   2  16  -6  129.19   13.50
  -1 -16   6    2.60    4.10
  -1 -16   6    6.10    5.60
   1 -16  -6   -2.90    7.40
   1 -16  -6    5.40    3.60
   1 -16  -6    9.00    5.90
   1 -16  -6    4.50    5.80
   1 -16  -6    8.20    4.60
   1 -16  -6    6.30    3.50
   1  16  -6    4.80    4.90
   0 -16   6   61.59    9.20
   0 -16  -6   73.69    9.30
   0 -16  -6  107.99   11.40
   0 -16   6   57.09    9.30
   0 -16  -6   67.89   13.30
   0  16   6  109.49   10.20
   0  16  -6   87.69   11.20
   0  16   6   86.89   16.00
   1 -16   6  105.79   10.20
  -1 -16  -6  111.49   10.60
  -1 -16  -6   81.89   12.60
   1  16   6  123.79   15.90
   1  16   6  130.39   11.90
  -1  16  -6  155.78   13.20
  -2 -16  -6    4.80    3.90
   2 -16   6    5.00    2.00
  -2 -16  -6    5.40    2.90
  -2  16  -6    8.60    3.10
   2  16   6   13.10    5.00
   2  16   6   11.90    3.00
   4 -17  -6   32.20    3.90
  -4 -17   6   35.60    6.90
   4  17  -6   75.19    7.00
   3 -17  -6    5.60    3.30
  -3 -17   6    2.90    3.60
   3 -17  -6    7.10    3.10
   3 -17  -6    0.90    3.70
   3 -17  -6    5.50    4.20
   3 -17  -6    5.00    2.60
  -3 -17   6    0.40    6.00
   3  17  -6   15.30    4.90
   2 -17  -6   10.10    8.00
  -2 -17   6   22.30    6.50
  -2 -17   6   23.30    9.70
   2 -17  -6   18.80    6.30
   2 -17  -6   15.30    4.60
   2 -17  -6   19.60    5.20
   2 -17  -6   24.20    7.20
   2 -17  -6   23.20    4.80
   2  17  -6   31.90    6.80
   1 -17  -6   86.09   10.10
   1 -17  -6   64.19    7.20
  -1 -17   6   72.89    8.80
   1 -17  -6   52.39    7.00
   1 -17  -6   78.29   10.40
  -1 -17   6   76.39   10.50
   1 -17  -6   67.79   11.20
   1  17  -6  150.48   14.60
   0 -17   6   33.80    6.30
   0 -17  -6   34.40    5.80
   0 -17  -6   27.80    6.30
   0 -17   6   20.50    5.70
   0 -17  -6   21.10    8.10
   0  17   6   30.30   10.30
   0  17  -6   51.99    7.60
   0  17   6   50.29    6.60
  -1 -17  -6    6.80    5.10
  -1 -17  -6   10.60    4.10
   1 -17   6    8.90    3.30
  -1  17  -6    3.90    3.40
   1  17   6    9.60    5.60
   1  17   6    7.90    3.20
  -2  17  -6   22.40    4.10
   3 -18  -6   51.59    8.10
   3 -18  -6   59.39    7.00
  -3 -18   6   61.99    6.70
   3 -18  -6   56.99    5.90
   3 -18  -6   56.89    6.20
  -3 -18   6   56.69   10.10
   3  18  -6   73.69    8.50
   2 -18  -6   83.09    9.20
  -2 -18   6   61.59    8.50
   2 -18  -6   50.59    9.80
  -2 -18   6   54.99   11.50
   2 -18  -6   58.89    8.60
   2 -18  -6   54.99    9.30
   2 -18  -6   68.49    7.00
   2 -18  -6   56.39    6.90
   2  18  -6   93.39   10.40
  -1 -18   6    5.40    4.40
   1 -18  -6    5.60    4.00
   1 -18  -6    3.60    2.40
   1 -18  -6    4.60    5.20
   1 -18  -6    4.20    2.70
  -1 -18   6    3.20    3.50
   1 -18  -6    1.90    4.30
   1  18  -6    7.40    4.30
   0 -18   6   78.59    9.40
   0 -18  -6   93.59   10.10
   0 -18  -6   88.09    9.10
   0 -18   6   82.49    9.60
   0  18   6   71.69    7.50
   0  18   6   73.19   12.40
   0  18  -6   73.49    9.00
  -1 -18  -6   57.69    6.70
  -1 -18  -6   27.40    8.40
   1 -18   6   50.79    5.80
   1  18   6   61.69   10.10
  -1  18  -6   89.99    8.50
   1  18   6   87.29    7.60
   3 -19  -6    4.30    1.90
  -3 -19   6    4.30    4.90
   3 -19  -6    2.90    1.80
   3 -19  -6    5.30    2.20
   3 -19  -6    1.30    2.70
   3  19  -6    8.10    2.80
   2 -19  -6   35.40    6.70
  -2 -19   6   57.39   10.40
   2 -19  -6   37.50    5.00
   2 -19  -6   40.60    5.00
   2 -19  -6   29.20    5.60
   2 -19  -6   44.50    6.20
  -2 -19   6   46.90    6.60
   2  19  -6   76.29    8.70
   1 -19  -6   75.09    7.40
   1 -19  -6   83.89    9.60
   1 -19  -6   78.19    7.20
  -1 -19   6   97.79   10.20
   1 -19  -6   76.39   10.30
   1 -19  -6  107.79    9.20
  -1 -19   6   89.49    8.20
   1  19  -6  133.29   12.10
  -1  19   6  125.09   15.80
   0 -19  -6   51.19    6.20
   0 -19   6   46.80    6.00
   0 -19  -6   33.70    5.80
   0 -19   6   34.30    5.80
   0  19  -6   60.99    7.40
   0  19   6   42.30    8.90
   0  19   6   52.29    6.10
  -1 -19  -6    9.50    3.20
   1 -19   6    7.30    2.30
  -1  19  -6   16.50    3.60
   1  19   6   12.90    4.50
   1  19   6   15.90    4.50
   3 -20  -6   17.50    3.10
   3 -20  -6   21.50    3.30
   3  20  -6   35.50    5.00
   2 -20  -6   15.10    4.40
   2 -20  -6   30.80    4.50
   2 -20  -6   23.90    3.20
  -2 -20   6   19.30    4.30
   2 -20  -6   20.80    3.30
   2  20  -6   41.10    5.60
   1 -20  -6    1.40    3.10
   1 -20  -6    0.90    1.50
  -1 -20   6    3.80    2.70
   1 -20  -6    4.70    2.70
  -1 -20   6    0.70    3.00
   1 -20  -6    1.50    3.30
  -1  20   6    5.20    5.40
   1  20  -6    3.50    3.00
   0 -20   6   11.40    3.30
   0 -20  -6    9.60    3.20
   0 -20   6   16.10    3.30
   0 -20  -6   14.20    3.10
   0  20   6   22.90    6.10
   0  20  -6   27.00    4.70
  -2 -21   6   17.90    4.50
   2 -21  -6   16.00    3.20
   2 -21  -6   14.50    3.10
   2 -21  -6   15.10    3.70
   2  21  -6   21.70    3.70
   1 -21  -6   52.29    5.60
  -1 -21   6   49.30    5.90
   1  21  -6   63.19    6.80
  -1  21   6   59.69    8.90
   0  21   6    7.60    5.10
   0  21  -6   15.90    4.50
   5   0  -7  151.28   24.20
   5   0  -7  146.39   15.60
   5   0  -7  157.98   15.10
   5   0  -7  136.59   23.60
   5   0  -7  151.78   22.30
   5   0  -7  152.48   14.50
   4   0  -7   10.10   14.20
   4   0  -7    3.80    4.40
   4   0  -7    5.80   11.90
   4   0  -7   22.00    6.70
   4   0  -7   -0.40    6.70
   4   0  -7   -4.10   10.50
   4   0  -7   35.70    8.00
   3   0  -7   70.89    9.30
   3   0  -7   89.99   15.50
   3   0  -7   76.59   21.60
   3   0  -7   90.19   11.30
   3   0  -7  140.49   27.80
   3   0  -7   98.39   13.00
   3   0  -7  134.89   26.70
   2   0  -7  116.19   15.00
   2   0  -7  122.49   18.00
   2   0  -7  140.59   26.60
   2   0  -7  138.69   26.30
   2   0  -7  103.19   11.60
   2   0  -7  103.79   16.20
   2   0  -7  119.99   22.90
   2   0  -7   99.29   12.60
   1   0  -7   74.49   18.80
   1   0  -7   59.29    9.90
   1   0  -7  112.39   21.90
   1   0  -7   74.79   16.30
   0   0  -7  150.98   24.20
   1   0   7  162.48   19.90
  -1   0  -7  211.78   22.40
  -1   0  -7  231.58   22.90
   1   0   7  260.57   29.70
  -2   0  -7   85.59   13.40
   2   0   7   60.39   14.60
  -2   0  -7   70.19   12.30
  -3   0  -7    9.90    4.50
   3   0   7   11.20    6.00
  -3   0  -7   12.80    4.90
   5  -1  -7   30.50    6.60
   5  -1  -7   47.10   15.10
   5  -1  -7   68.29    8.80
   5  -1  -7    5.00    6.70
   5  -1  -7   16.30    9.00
   5  -1  -7   15.20   10.10
   5   1  -7   28.10   13.40
   5   1  -7   30.00   11.60
   5   1  -7    5.60    6.10
   5   1  -7   34.30   12.90
   5   1  -7   38.00    7.20
   5   1  -7   37.70    7.00
   4  -1  -7   56.19   19.00
   4  -1  -7   66.19   20.60
   4  -1  -7   73.09   10.90
   4  -1  -7   77.09   11.70
   4  -1  -7   75.19    9.10
   4  -1  -7   69.59   12.80
   4  -1  -7   70.49   17.90
   4   1  -7   93.29   14.40
   4   1  -7  100.09   12.70
   4   1  -7   86.79   21.80
   4   1  -7  101.49   13.30
   4   1  -7   85.49   21.10
   4   1  -7   98.49   10.80
   4   1  -7  100.49   23.30
   3  -1  -7  234.88   21.20
   3  -1  -7  230.48   34.30
   3  -1  -7  236.18   20.00
   3  -1  -7  225.18   36.60
   3  -1  -7  227.48   21.80
   3  -1  -7  229.88   18.30
   3  -1  -7  235.08   36.10
   3  -1  -7  205.48   23.70
   3   1  -7  128.99   20.40
   3   1  -7  179.18   18.20
   3   1  -7  167.58   16.40
   3   1  -7  198.88   33.00
   3   1  -7  181.18   32.10
   3   1  -7  179.58   30.80
   3   1  -7  200.68   18.10
   2  -1  -7   42.10   16.20
   2  -1  -7   13.40    4.60
   2  -1  -7   35.40    8.20
   2  -1  -7   19.60    7.10
   2  -1  -7   40.30   17.60
   2  -1  -7    7.40    5.90
   2  -1  -7   -0.70    8.20
   2  -1  -7   20.90   11.70
   2   1  -7    6.30    8.20
   2   1  -7   80.89   22.40
   2   1  -7   28.10   15.90
   2   1  -7   34.60   13.10
   1  -1  -7   95.99   19.90
   1  -1  -7   62.09   15.60
   1  -1  -7  105.89   21.20
   1  -1  -7   68.39    9.80
   1  -1  -7   57.29    8.60
   1   1  -7  110.09   13.20
   1   1  -7  122.09   21.10
   1   1  -7  178.38   27.10
   1   1  -7  133.39   25.90
   0  -1  -7  155.88   21.30
   0  -1   7  166.78   17.80
   0  -1  -7  150.98   20.10
   0  -1  -7  154.68   23.70
   0   1   7  204.28   19.40
   0   1  -7  174.08   22.10
   0   1  -7  203.08   24.50
  -1  -1  -7  137.29   17.10
  -1  -1  -7  142.79   17.40
   1   1   7  201.28   27.00
  -1   1  -7   89.19   15.40
   2  -1   7   50.29   14.80
  -2  -1  -7   78.59   12.80
  -2  -1  -7   89.29   13.60
  -2   1  -7  103.79   14.10
  -2   1  -7  114.39   14.40
   2   1   7  101.19   17.90
   3  -1   7   11.90    6.40
  -3  -1  -7   13.30    4.70
  -3  -1  -7   23.70    5.90
  -3   1  -7   23.70    6.30
  -3   1  -7   21.60    5.60
   3   1   7   10.70    5.90
   5  -2  -7   86.59   18.90
   5  -2  -7  105.19   12.30
   5  -2  -7   95.59   10.60
   5  -2  -7   85.89   17.90
   5  -2  -7   94.49   12.20
   5  -2  -7   94.09   15.80
   5   2  -7   74.39   11.20
   5   2  -7   82.79   18.20
   5   2  -7  112.29   19.70
   5   2  -7   83.39   10.70
   5   2  -7   74.09   16.60
   5   2  -7   86.69   10.50
   4  -2  -7   54.09   15.10
   4  -2  -7   58.49    9.40
   4  -2  -7   35.30   16.60
   4  -2  -7   36.80   10.10
   4  -2  -7   44.30    7.10
   4  -2  -7   60.49   20.80
   4  -2  -7   51.59    9.50
   4   2  -7   34.30   10.60
   4   2  -7   71.89   10.50
   4   2  -7   55.59   19.10
   4   2  -7   60.39   18.80
   4   2  -7   86.39   20.30
   4   2  -7   59.49    8.10
   3  -2  -7  151.28   28.50
   3  -2  -7   90.09   13.00
   3  -2  -7   84.29   11.00
   3  -2  -7   93.59   15.30
   3  -2  -7   83.69   11.70
   3  -2  -7   85.29   22.10
   3  -2  -7   98.49   21.60
   3  -2  -7   73.49    9.00
   3   2  -7   79.69   21.30
   3   2  -7   79.19   12.20
   3   2  -7   72.99   14.70
   3   2  -7   82.19   11.00
   3   2  -7   82.69   12.00
   3   2  -7  103.59   25.20
   3   2  -7  196.38   28.30
   2  -2  -7  182.18   19.10
   2  -2  -7  197.08   16.30
  -2  -2   7  212.18   21.30
   2  -2  -7  175.78   27.90
   2  -2  -7  166.78   17.90
   2  -2  -7  203.68   17.90
   2  -2  -7  202.58   30.00
   2  -2  -7  184.68   23.60
   2  -2  -7  197.38   31.80
   2   2  -7  232.38   19.80
   2   2  -7  199.38   32.90
   2   2  -7  222.08   23.70
   2   2  -7  210.68   31.60
   2   2  -7  230.58   35.20
   1  -2  -7   97.29   10.50
   1  -2  -7   88.89   19.30
   1  -2  -7   86.59   11.30
  -1  -2   7  123.59   15.40
   1  -2  -7  102.59   20.80
   1  -2  -7   79.59   17.10
   1   2  -7  180.68   23.90
   1   2  -7  193.88   26.10
   0  -2  -7  126.99   19.30
   0  -2  -7   81.89   15.10
   0  -2  -7   87.19   16.80
   0  -2   7   65.39   11.50
   0   2   7  145.29   21.30
   0   2   7   43.30   10.00
   0   2  -7   98.09   17.30
  -1  -2  -7  146.89   17.20
  -1  -2  -7  142.99   19.80
   1  -2   7  102.69   13.00
  -1  -2  -7  139.39   16.80
   1  -2   7  134.19   23.60
  -1   2  -7  140.39   17.90
  -1   2  -7  135.09   17.70
   1   2   7  160.68   24.30
  -2  -2  -7   76.09   12.00
   2  -2   7   39.70   13.40
  -2  -2  -7   87.09   13.10
   2   2   7  108.09   17.30
  -2   2  -7   69.19   12.90
  -2   2  -7   80.99   13.50
  -3  -2  -7   12.20    4.50
  -3  -2  -7   15.20    4.80
   3  -2   7    6.50    5.70
  -3   2  -7    7.50    4.60
   3   2   7   21.10    6.70
  -3   2  -7   19.90    5.10
   3   2   7    2.20    3.80
   5  -3  -7   11.70    7.10
   5  -3  -7    1.80    3.90
   5  -3  -7    9.10    8.90
   5  -3  -7   19.10    6.40
   5  -3  -7   21.70    6.10
   5  -3  -7   28.60   12.10
   5   3  -7   17.60   10.30
   5   3  -7   22.80   11.80
   5   3  -7   17.50    5.80
   5   3  -7   22.60   10.40
   5   3  -7   21.10    5.70
   4  -3  -7  187.48   16.00
   4  -3  -7  204.48   32.90
   4  -3  -7  202.38   20.00
   4  -3  -7  177.58   18.50
   4  -3  -7  181.58   17.70
   4  -3  -7  144.69   27.90
   4  -3  -7  173.68   24.00
   4   3  -7  219.98   32.60
   4   3  -7  219.78   21.70
   4   3  -7  255.77   24.20
   4   3  -7  248.18   21.70
   4   3  -7  248.98   31.00
   4   3  -7  237.78   36.30
   3  -3  -7   53.29   12.40
   3  -3  -7   76.59   22.30
   3  -3  -7   65.49    7.90
   3  -3  -7   64.49    9.30
   3  -3  -7   61.69   18.30
   3  -3  -7   72.59   20.70
   3  -3  -7   52.89   10.60
   3  -3  -7   64.19   10.20
   3   3  -7   58.49    8.50
   3   3  -7   48.30   11.60
   3   3  -7   56.09   10.20
   3   3  -7   46.50   19.90
   3   3  -7   65.49   19.40
   3   3  -7   63.79   21.60
   2  -3  -7   19.40    6.20
   2  -3  -7   17.90   11.90
  -2  -3   7   11.50    7.90
   2  -3  -7   24.50    7.20
   2  -3  -7   40.50   15.00
   2  -3  -7   15.40    4.70
   2  -3  -7   31.10    8.20
   2  -3  -7   61.39   18.10
   2  -3  -7   21.60    9.20
   2   3  -7   12.20    8.20
   2   3  -7   15.00    5.50
   2   3  -7   21.90   12.80
   2   3  -7   23.90   14.60
   1  -3  -7  230.08   20.30
   1  -3  -7  256.07   29.80
  -1  -3   7  235.58   23.10
   1  -3  -7  209.08   26.40
   1  -3  -7  274.07   29.00
   1  -3  -7  227.48   19.30
   1   3  -7  225.38   28.20
   1   3  -7  264.37   21.50
   1   3  -7  302.27   32.40
   0  -3  -7  169.38   21.40
   0  -3  -7  154.48   22.80
   0  -3  -7  134.09   18.90
   0  -3   7  147.59   17.10
   0   3  -7  249.88   27.60
   0   3   7  258.37   29.00
   0   3  -7  209.38   25.10
  -1  -3  -7   37.90    9.20
   1  -3   7    4.90    5.10
  -1  -3  -7   42.20    9.40
   1  -3   7   14.80   12.40
  -1   3  -7   27.00   10.10
  -1   3  -7   41.10   10.70
   1   3   7   86.19   16.80
  -2  -3  -7   77.19   12.10
   2  -3   7   46.80   14.10
  -2  -3  -7   50.39    9.70
  -2  -3  -7   57.79   18.20
  -2   3  -7   80.79   13.60
   2   3   7  102.89   16.90
  -2   3  -7   75.79   13.50
  -3  -3  -7   79.49    8.70
   3  -3   7   43.00    9.40
  -3  -3  -7   51.29    7.70
   3   3   7   35.90    8.00
   3   3   7   52.99    6.50
  -3   3  -7   59.69    8.80
   5  -4  -7   63.49    9.60
   5  -4  -7   51.59    8.80
   5  -4  -7   72.69   14.50
   5  -4  -7   59.99    8.00
   5  -4  -7   46.30   15.40
   5   4  -7   80.79   10.20
   5   4  -7  113.79   17.70
   5   4  -7   86.59   15.80
   5   4  -7   95.59   18.90
   5   4  -7   88.29   10.70
   4  -4  -7  110.39   26.30
   4  -4  -7   74.89   16.40
   4  -4  -7   88.29   11.20
   4  -4  -7   89.99   20.20
   4  -4  -7   56.39   11.50
   4  -4  -7   68.59   11.60
  -4  -4   7   59.39   10.10
   4  -4  -7   66.79    8.90
   4   4  -7   57.49   19.80
   4   4  -7   86.59   11.30
   4   4  -7   85.29   19.40
   4   4  -7   67.59   10.50
   4   4  -7   58.69   18.00
   4   4  -7   55.79   11.80
   3  -4  -7  128.49   16.60
   3  -4  -7  106.19   23.60
   3  -4  -7  108.19   10.40
   3  -4  -7  136.09   29.30
   3  -4  -7   83.89   23.00
   3  -4  -7  114.39   12.70
   3  -4  -7  111.69   15.10
   3  -4  -7   93.69   12.80
   3   4  -7  166.18   15.90
   3   4  -7  161.98   18.40
   3   4  -7  185.68   20.90
   3   4  -7  211.28   34.90
   3   4  -7  165.28   28.70
   3   4  -7  167.58   17.30
   3   4  -7  177.88   29.30
   2  -4  -7  157.18   28.40
   2  -4  -7  175.98   27.30
   2  -4  -7  134.49   15.00
   2  -4  -7  132.59   14.50
   2  -4  -7  159.58   13.60
  -2  -4   7  153.08   17.20
   2  -4  -7  101.09   17.70
   2  -4  -7  155.38   18.00
   2   4  -7  122.09   14.20
   2   4  -7  135.19   18.60
   2   4  -7  149.59   25.30
   2   4  -7  148.89   28.60
  -1  -4   7   50.69   10.60
   1  -4  -7   52.49    7.50
   1  -4  -7   35.50    7.50
   1  -4  -7   56.99   14.20
   1  -4  -7   58.19   10.40
   1   4  -7   73.39   16.60
   1   4  -7   80.59   18.90
   0  -4   7   10.10    6.40
   0  -4  -7    4.60    3.70
   0  -4  -7   14.90    7.70
   0   4  -7   29.90   11.50
   0   4  -7   13.10    8.50
  -1  -4  -7   52.69   11.80
   1  -4   7   40.60    7.50
  -1  -4  -7   61.69   11.80
   1  -4   7   46.40   16.00
  -1  -4  -7   52.39   12.50
   1   4   7  106.69   19.30
  -1   4  -7  113.89   18.30
  -1   4  -7  107.69   17.50
  -2  -4  -7   63.79   11.90
   2  -4   7   43.90   14.40
  -2  -4  -7   51.89    9.50
  -2   4  -7   94.09   15.00
  -2   4  -7   93.49   15.20
   2   4   7   76.89   14.80
   3  -4   7    1.80    5.30
   3   4   7   41.00    7.90
   5  -5  -7   13.70   11.40
   5  -5  -7   16.10    5.70
   5  -5  -7   12.30    4.20
   5  -5  -7   22.20    8.60
   5  -5  -7   12.10    4.90
   5   5  -7   13.80    8.20
   5   5  -7   11.00   10.80
   5   5  -7   10.40    8.00
   5   5  -7   10.30    4.10
   5   5  -7   13.00    4.80
   4  -5  -7  192.68   17.70
   4  -5  -7  193.98   16.20
   4  -5  -7  184.58   25.70
  -4  -5   7  158.88   18.10
   4  -5  -7  189.28   19.40
   4  -5  -7  199.88   33.20
   4  -5  -7  193.78   19.20
   4   5  -7  246.08   34.80
   4   5  -7  206.58   19.50
   4   5  -7  191.78   28.00
   4   5  -7  189.38   28.20
   4   5  -7  202.18   19.00
   4   5  -7  213.68   20.90
   3  -5  -7  150.38   30.40
   3  -5  -7  159.58   16.20
   3  -5  -7  141.89   18.00
   3  -5  -7  131.79   18.80
   3  -5  -7  174.38   14.00
   3  -5  -7  199.98   30.60
   3  -5  -7  152.08   14.90
   3   5  -7  200.28   28.30
   3   5  -7  244.18   37.30
   3   5  -7  228.08   20.80
   3   5  -7  195.38   23.20
  -2  -5   7   29.60    8.40
   2  -5  -7   38.00   10.10
   2  -5  -7   40.40   16.50
   2  -5  -7   22.90    6.50
   2  -5  -7   23.90    5.40
   2  -5  -7   21.10   12.20
   2  -5  -7   37.00    7.30
   2  -5  -7   34.60    9.00
   2   5  -7   28.60   13.80
   2   5  -7   54.49   12.10
   2   5  -7   30.20    7.10
   2   5  -7   43.60   18.00
   1  -5  -7  153.68   23.50
  -1  -5   7  157.18   18.60
   1  -5  -7  172.88   26.10
   1  -5  -7  154.78   13.90
  -1  -5   7  162.88   18.40
   1  -5  -7  156.78   18.20
   1  -5  -7  142.09   15.80
   1   5  -7  119.49   21.10
   1   5  -7  170.38   26.10
   0  -5   7  212.78   19.70
   0  -5  -7  206.68   26.70
   0  -5  -7  181.38   15.90
   0  -5  -7  194.78   22.40
   0   5  -7  218.98   25.60
   0   5   7  224.28   26.40
   0   5  -7  177.98   23.20
  -1  -5  -7   38.70    9.40
   1  -5   7   37.10   15.40
   1  -5   7   20.80    6.10
  -1  -5  -7   30.80   10.10
   1   5   7   35.50   12.00
  -1   5  -7   26.90   12.60
  -1   5  -7   31.50   10.80
  -2  -5  -7   79.79   10.70
   2  -5   7   43.10   14.00
  -2  -5  -7   55.59   11.50
   2   5   7   41.50   11.00
  -2   5  -7   39.80   10.70
  -3  -5  -7   67.09    7.50
   3  -5   7   39.70    8.90
   3   5   7   43.00    7.60
  -3   5  -7   44.50    8.00
   5  -6  -7   25.40   11.40
   5  -6  -7   44.70    7.80
  -5  -6   7   31.90    8.70
   5  -6  -7   53.39   10.40
   5  -6  -7   45.30    7.50
   5  -6  -7   48.00    6.90
   5   6  -7   92.59   14.40
   5   6  -7  111.69   18.00
   5   6  -7   77.99    9.50
   5   6  -7   77.99   13.60
   4  -6  -7   12.90   15.60
   4  -6  -7   -1.40    5.20
   4  -6  -7    2.40    4.00
   4  -6  -7    2.40    5.30
  -4  -6   7    1.40    5.30
   4  -6  -7    3.10    3.30
   4  -6  -7    2.10    8.40
   4   6  -7    7.90   12.10
   4   6  -7    2.20    4.30
   4   6  -7    3.80   10.70
   4   6  -7   -0.40    5.00
   4   6  -7   -0.10    8.30
   4   6  -7    3.40    5.40
   3  -6  -7   82.59    9.80
   3  -6  -7   89.99   12.40
   3  -6  -7  113.19   27.20
   3  -6  -7  105.09   14.70
  -3  -6   7  102.69   13.90
   3  -6  -7  103.09   11.90
   3  -6  -7  105.79   22.00
   3  -6  -7  120.49   15.70
   3   6  -7  207.08   21.20
   3   6  -7  162.28   27.60
   3   6  -7  211.08   33.60
   3   6  -7  160.68   18.20
   2  -6  -7  301.27   30.40
   2  -6  -7  340.97   36.30
   2  -6  -7  320.97   26.90
  -2  -6   7  337.07   29.60
  -2  -6   7  358.86   28.50
   2  -6  -7  327.17   29.10
   2  -6  -7  338.37   37.70
   2  -6  -7  347.47   27.70
   2  -6  -7  337.07   25.70
   2   6  -7  343.27   39.20
   2   6  -7  372.96   31.40
   2   6  -7  314.47   36.00
   1  -6  -7   31.80   11.30
   1  -6  -7   23.20    5.20
  -1  -6   7   19.70    8.80
   1  -6  -7   20.60    5.80
   1  -6  -7   27.70    8.20
   1  -6  -7   17.30   11.90
  -1  -6   7   18.90    8.00
   1   6  -7   64.29   17.40
   1   6  -7   54.79   15.40
   0  -6  -7   55.99   14.20
   0  -6  -7   39.10    6.00
   0  -6  -7   43.60   11.10
   0  -6   7   46.00    9.50
   0   6   7   68.29   16.00
   0   6  -7   53.99   15.40
  -1  -6  -7  147.09   16.70
   1  -6   7  117.39   13.50
   1  -6   7  158.08   25.40
  -1  -6  -7  127.29   18.70
   1   6   7  152.98   22.20
  -1   6  -7  172.88   20.90
  -2  -6  -7   82.59   10.50
  -2  -6  -7   65.49   12.10
   2  -6   7   55.39   14.90
   2   6   7   67.99   13.60
  -2   6  -7   79.59   14.10
   3  -6   7    0.60    4.70
  -3  -6  -7    6.60    3.00
  -3   6  -7    2.80    4.50
   5  -7  -7    6.70    8.40
   5  -7  -7   -2.20    4.10
   5  -7  -7    0.90    3.60
   5  -7  -7   -1.00    6.00
  -5  -7   7   -1.80    4.20
   5  -7  -7   -1.00    2.60
   5   7  -7    6.90    3.60
   5   7  -7    1.20    3.00
   5   7  -7    4.30    5.90
   5   7  -7    3.80    5.80
   5   7  -7    1.40    8.00
   4  -7  -7   40.50    7.80
   4  -7  -7   49.80    6.90
   4  -7  -7   45.30   18.10
   4  -7  -7   36.10    9.00
   4  -7  -7   54.79   13.30
   4  -7  -7   51.09    9.60
  -4  -7   7   40.90    8.10
   4   7  -7  106.49   21.60
   4   7  -7   91.69   11.70
   4   7  -7  102.59   13.90
   4   7  -7   84.79   11.70
   4   7  -7  122.89   20.60
   3  -7  -7  108.49   15.80
   3  -7  -7  121.39   13.20
  -3  -7   7  108.49   15.20
   3  -7  -7  157.48   25.20
   3  -7  -7  118.49   13.10
   3  -7  -7  116.29   11.20
   3  -7  -7  102.79   26.30
   3  -7  -7  113.79   15.30
   3   7  -7  151.58   20.60
   3   7  -7  193.78   31.00
   3   7  -7  179.78   18.20
   3   7  -7  179.78   27.90
   2  -7  -7   19.90    8.20
   2  -7  -7    9.10    5.10
   2  -7  -7   16.40   14.30
   2  -7  -7    5.40    4.80
  -2  -7   7    8.90    6.30
   2  -7  -7    1.30    3.80
   2  -7  -7   12.90   10.20
  -2  -7   7    5.20    8.10
   2  -7  -7   14.20    7.30
   2   7  -7   16.70    8.70
   2   7  -7   13.20   13.10
   2   7  -7    2.50   14.00
   1  -7  -7   26.10    5.60
   1  -7  -7   34.90    8.60
  -1  -7   7   32.60    9.40
  -1  -7   7   30.00    8.60
   1  -7  -7   44.80   14.50
   1  -7  -7   23.90   10.20
   1  -7  -7   29.30    6.70
   1   7  -7   43.20   14.70
   0  -7  -7   87.19    9.70
   0  -7   7  120.79   14.10
   0  -7  -7   93.89   17.90
   0  -7  -7  100.99   16.60
   0  -7  -7   99.89   13.00
   0   7   7  179.58   25.00
   0   7  -7  150.08   24.50
  -1  -7  -7   31.50    8.70
   1  -7   7   21.40    6.00
   1  -7   7   14.00   12.00
  -1  -7  -7   23.80    9.40
  -1   7  -7   39.60   12.10
   1   7   7   39.20   11.80
   2  -7   7    5.40    8.70
  -2  -7  -7    9.30    4.60
  -2  -7  -7    8.10    6.40
  -2   7  -7    5.80    6.60
   2   7   7    8.60    7.70
   2   7   7    3.60    5.10
   3  -7   7   13.90    5.60
  -3  -7  -7   25.20    6.50
  -3   7  -7   33.60    7.70
   3   7   7   22.70    5.30
   5  -8  -7   75.19    7.60
  -5  -8   7   55.29    9.30
   5  -8  -7   56.89    7.80
   5  -8  -7   63.49    8.50
   5  -8  -7   47.00   11.40
   5   8  -7  100.09    9.60
   5   8  -7  110.99   14.60
   5   8  -7   96.49    9.30
   5   8  -7   94.49   11.90
   4  -8  -7   18.20    8.70
   4  -8  -7   20.30    5.50
   4  -8  -7    7.60    5.30
   4  -8  -7   11.00    4.00
  -4  -8   7   16.90    5.70
   4  -8  -7   13.80    6.50
   4  -8  -7   15.30   14.10
   4   8  -7   21.30   12.10
   4   8  -7   20.30    8.40
   4   8  -7   30.10    6.90
   4   8  -7   35.10   12.70
   3  -8  -7   54.49    8.20
   3  -8  -7   44.40   14.90
  -3  -8   7   62.99   10.80
   3  -8  -7   68.39   11.50
   3  -8  -7   47.60    7.10
   3  -8  -7   49.30    8.60
   3  -8  -7   70.09   22.00
   3  -8  -7   64.49   11.30
   3   8  -7   72.59   19.70
   3   8  -7   65.19   10.60
   3   8  -7   81.89   13.50
   2  -8  -7  361.06   31.60
  -2  -8   7  413.36   32.90
   2  -8  -7  347.77   37.10
   2  -8  -7  364.46   33.00
  -2  -8   7  361.06   30.00
   2  -8  -7  365.46   30.00
   2  -8  -7  399.46   28.40
   2  -8  -7  388.46   29.60
   2  -8  -7  365.96   40.00
   2   8  -7  377.76   32.60
   2   8  -7  373.76   39.70
   1  -8  -7   70.49   12.10
   1  -8  -7   89.79   11.40
   1  -8  -7   87.89   10.00
  -1  -8   7   96.69   13.80
  -1  -8   7  126.39   14.00
   1  -8  -7   64.19   10.40
   1  -8  -7  102.09   20.40
   1  -8  -7  110.19   18.50
   1   8  -7  126.09   22.80
  -1   8   7  112.29   22.00
   0  -8  -7   36.50    8.10
   0  -8  -7   34.10    9.90
   0  -8  -7   41.30   12.60
   0  -8   7   25.80    7.60
   0  -8   7   26.50    9.00
   0  -8  -7   34.30    5.30
   0   8  -7   31.40   12.60
   0   8   7   29.20   12.20
  -1  -8  -7  151.28   16.70
  -1  -8  -7  157.68   20.30
   1  -8   7  131.79   13.50
  -1   8  -7  139.99   19.20
   1   8   7  141.39   20.00
  -2  -8  -7   77.69    9.50
   2  -8   7   39.10   12.20
  -2  -8  -7   56.59   10.70
   2   8   7   77.39    9.70
   2   8   7   55.29   11.50
  -2   8  -7   66.39   13.00
   5  -9  -7   15.90    3.80
   5  -9  -7   21.20    4.70
  -5  -9   7   18.40    5.70
   5  -9  -7    8.80    6.50
   5  -9  -7   14.90    4.30
   5   9  -7   23.30    4.20
   5   9  -7   34.40    9.00
   4  -9  -7   93.39   19.90
   4  -9  -7  123.89   12.10
   4  -9  -7  127.19   14.40
  -4  -9   7  112.79   17.00
   4  -9  -7  116.49   10.90
   4  -9  -7  109.39    9.70
  -4  -9   7  104.39   12.20
   4  -9  -7  116.09   13.40
   4   9  -7  150.78   15.50
   4   9  -7  194.78   22.80
   3  -9  -7   95.09   14.80
  -3  -9   7  112.29   14.40
   3  -9  -7  105.49   25.10
   3  -9  -7  122.49   11.10
   3  -9  -7  125.19   15.60
   3  -9  -7  116.39   12.60
   3  -9  -7  116.69   12.50
   3   9  -7  139.09   15.40
   3   9  -7  147.79   25.90
   2  -9  -7    8.20    5.30
  -2  -9   7   15.10    6.20
   2  -9  -7   16.80    9.90
   2  -9  -7   10.80    5.20
   2  -9  -7   12.10    7.00
  -2  -9   7    9.10    7.20
   2  -9  -7   18.10    5.20
   2  -9  -7   14.70   13.50
   2  -9  -7    4.90    6.60
   2   9  -7   21.00   12.70
   1  -9  -7  216.58   17.90
  -1  -9   7  227.98   21.60
   1  -9  -7  236.88   26.60
  -1  -9   7  219.08   20.90
   1  -9  -7  222.88   20.90
   1  -9  -7  211.18   19.60
   1  -9  -7  199.48   24.00
   1  -9  -7  232.18   19.10
   1   9  -7  232.38   29.80
  -1   9   7  287.67   29.50
   0  -9   7  176.08   16.10
   0  -9   7  126.59   15.60
   0  -9  -7  174.88   23.70
   0  -9  -7  153.78   18.40
   0  -9  -7  160.08   15.60
   0  -9  -7  134.79   12.50
   0   9  -7  177.58   23.40
   0   9   7  185.28   23.40
  -1  -9  -7   79.49   13.80
   1  -9   7   68.09    9.30
  -1  -9  -7   75.99   12.30
  -1   9  -7   69.89   15.00
   1   9   7   82.49   14.70
  -2  -9  -7   27.60    7.70
   2  -9   7   26.30   10.00
  -2  -9  -7   27.60    6.40
  -2   9  -7   38.60   10.00
   2   9   7   35.90    8.90
   2   9   7   51.79    7.50
  -5 -10   7   19.90    5.50
  -5 -10   7   14.90    3.60
   5 -10  -7   26.50    4.00
   5 -10  -7   22.30    4.30
   5  10  -7   28.80    7.40
   4 -10  -7   19.50    6.10
  -4 -10   7   26.30    6.70
   4 -10  -7   30.60    5.10
   4 -10  -7   20.80   11.80
   4 -10  -7   32.20    4.40
   4 -10  -7   35.90    7.60
   4 -10  -7   44.90    7.00
  -4 -10   7   15.00    8.30
   4  10  -7   52.49    6.50
   4  10  -7   47.30    7.50
   4  10  -7   43.70   12.50
  -3 -10   7   24.60   10.50
  -3 -10   7   16.50    6.60
   3 -10  -7   15.60    4.40
   3 -10  -7   20.70   15.50
   3 -10  -7   11.50    5.00
   3 -10  -7   13.40    5.20
   3 -10  -7   22.60    7.60
   3 -10  -7   26.10    8.20
   3  10  -7   14.90    5.80
   3  10  -7   27.90   13.80
   2 -10  -7   70.99   10.40
   2 -10  -7   74.09   10.50
   2 -10  -7   82.19   20.60
  -2 -10   7   74.79   10.40
  -2 -10   7  106.59   13.90
   2 -10  -7   91.59   13.50
   2 -10  -7   88.59    9.90
   2 -10  -7   75.19   13.60
  -2 -10   7   74.39   16.00
   2  10  -7  136.49   14.30
   2  10  -7  158.88   25.20
   1 -10  -7   69.39   19.80
   1 -10  -7   80.09   11.40
   1 -10  -7  116.59   15.00
   1 -10  -7  138.19   13.20
  -1 -10   7   83.69   13.70
   1 -10  -7  118.69   21.50
   1 -10  -7  126.99   17.20
  -1 -10   7  125.79   14.20
   1 -10  -7  125.39   11.20
  -1  10   7  151.18   22.10
   1  10  -7  174.38   16.90
   1  10  -7  134.19   23.80
   0 -10   7   -0.10    4.70
   0 -10  -7   15.00    9.40
   0 -10  -7    7.30    6.80
   0 -10  -7    6.80    5.20
   0 -10   7    7.20    5.90
   0 -10  -7    8.10    3.10
   0  10  -7    6.20    8.30
   0  10   7    8.70    9.30
   0  10  -7    2.50    5.60
  -1 -10  -7   29.70    8.00
  -1 -10  -7   40.80    7.70
  -1 -10  -7   39.50   10.50
   1 -10   7   28.80    6.10
   1  10   7   59.19   12.20
  -1  10  -7   44.30   12.20
  -2 -10  -7   29.80    7.70
  -2 -10  -7   35.40    6.50
   2 -10   7   22.90    9.20
   2  10   7   39.60    8.90
  -2  10  -7   38.80    9.60
   2  10   7   54.89    7.20
  -5 -11   7    8.00    2.40
   4 -11  -7   67.79   14.70
   4 -11  -7   79.39    7.30
   4 -11  -7   81.59    8.20
   4 -11  -7   92.09    9.40
   4 -11  -7   76.79   10.20
   4 -11  -7   85.49   10.80
  -4 -11   7   73.39   12.80
   4  11  -7  104.19    9.70
   4  11  -7  113.79   16.60
   3 -11  -7   96.89   12.60
  -3 -11   7   93.29   11.70
   3 -11  -7   77.19    9.70
  -3 -11   7   72.09   14.90
   3 -11  -7   70.39   12.20
   3 -11  -7   90.09    9.10
   3 -11  -7   85.39   20.20
   3 -11  -7   87.99   10.80
   3  11  -7  113.19   20.80
   3  11  -7  146.59   13.60
  -2 -11   7   18.80    6.10
  -2 -11   7   23.50   10.60
   2 -11  -7   24.60   13.40
   2 -11  -7   23.60    6.10
   2 -11  -7   18.80    5.80
  -2 -11   7   23.60    8.40
   2 -11  -7   24.70    8.30
   2 -11  -7   26.20    8.70
   2 -11  -7   21.90    5.50
   2  11  -7   35.40    7.10
   2  11  -7   31.60   13.00
   1 -11  -7  268.17   29.10
   1 -11  -7  238.58   21.20
  -1 -11   7  241.28   22.50
   1 -11  -7  303.97   26.40
   1 -11  -7  260.57   22.00
  -1 -11   7  283.57   23.90
   1 -11  -7  259.07   20.40
   1 -11  -7  265.27   23.50
   1  11  -7  273.97   31.40
   1  11  -7  266.47   23.70
  -1  11   7  348.47   31.10
   0 -11   7   67.29   10.60
   0 -11   7  108.39   12.50
   0 -11  -7  100.99   12.30
   0 -11  -7   89.89    8.40
   0 -11  -7  100.19   17.50
   0  11  -7  102.89   18.80
   0  11   7  133.39   20.00
   0  11  -7  151.78   13.40
  -1 -11  -7   11.10    5.30
  -1 -11  -7    5.50    6.40
  -1 -11  -7   19.80    5.70
   1 -11   7   10.20    4.20
   1  11   7   11.40    7.70
  -1  11  -7   12.80    8.10
  -2 -11  -7   29.60    5.50
   2 -11   7   19.10    8.10
  -2 -11  -7   25.60    6.90
  -2  11  -7   19.70    6.90
   2  11   7   24.10    7.00
   2  11   7   34.20    5.40
   4 -12  -7    2.70    3.50
  -4 -12   7    4.20    3.40
   4 -12  -7    3.30    2.50
   4 -12  -7    6.40    3.20
   4 -12  -7    6.20    4.30
   4 -12  -7    4.70    2.10
  -4 -12   7    6.70    6.10
   4  12  -7    9.20    3.10
   4  12  -7    2.70    6.90
   3 -12  -7   78.69    9.10
   3 -12  -7   77.29    9.70
  -3 -12   7   95.49   15.10
   3 -12  -7   80.09   11.20
   3 -12  -7   64.89    7.90
   3 -12  -7   59.29   16.40
   3 -12  -7   89.89   12.50
  -3 -12   7   83.99   10.70
   3  12  -7  117.49   18.70
   3  12  -7  105.09   11.80
   2 -12  -7  290.27   32.80
   2 -12  -7  286.87   26.70
   2 -12  -7  296.07   22.90
  -2 -12   7  343.17   31.10
  -2 -12   7  296.17   23.80
   2 -12  -7  299.17   24.50
  -2 -12   7  331.17   26.50
   2 -12  -7  297.27   26.30
   2 -12  -7  294.07   23.80
   2  12  -7  371.66   28.30
   2  12  -7  349.77   35.40
   1 -12  -7   66.49    9.20
  -1 -12   7   60.19   10.10
  -1 -12   7   66.19    9.50
   1 -12  -7   49.90   14.50
   1 -12  -7   62.09    7.30
   1 -12  -7   44.80   10.00
   1 -12  -7   77.09   11.30
   1 -12  -7   41.10    7.40
  -1  12   7   84.19   15.30
   1  12  -7   73.89    9.90
   1  12  -7   57.09   15.00
   0 -12   7   22.70    6.40
   0 -12  -7   30.60   11.10
   0 -12   7   18.10    6.00
   0 -12  -7   29.80    6.80
   0  12   7   32.60   10.90
   0  12  -7   22.20    9.80
  -1 -12  -7  103.29   11.50
   1 -12   7  101.19   10.60
  -1 -12  -7   96.09   14.60
  -1  12  -7   77.19   14.90
   1  12   7  124.29   15.50
  -1  12  -7  148.09   11.70
  -2 -12  -7   50.89    8.70
   2  12   7   93.39    9.20
   2  12   7   60.69    9.60
  -4 -13   7   31.60    8.00
   4 -13  -7   30.50    3.70
   4 -13  -7   37.60    5.50
  -4 -13   7   17.60    4.20
   4 -13  -7   19.10    4.70
   4 -13  -7   28.20    4.10
   4 -13  -7   30.00    5.80
   4  13  -7   48.20    5.70
   3 -13  -7   57.49    7.40
   3 -13  -7   69.69    8.60
  -3 -13   7   55.89    8.30
   3 -13  -7   59.19    9.30
   3 -13  -7   35.50   13.10
   3 -13  -7   45.00    9.00
  -3 -13   7   43.90   11.30
   3 -13  -7   64.19    6.80
   3  13  -7   76.79    9.50
   2 -13  -7   11.30    6.30
  -2 -13   7    8.50    5.90
  -2 -13   7    3.60    8.50
   2 -13  -7   10.00    6.20
   2 -13  -7   12.90    4.60
   2 -13  -7    7.30   11.00
   2 -13  -7    7.90    4.00
  -2 -13   7    8.10    4.60
   2 -13  -7    7.30    4.10
   2  13  -7   16.10    5.30
   1 -13  -7   47.60    9.80
  -1 -13   7   46.70    8.00
  -1 -13   7   43.40    8.20
   1 -13  -7   39.90    7.00
   1 -13  -7   32.90    5.90
   1 -13  -7   47.50    9.00
   1 -13  -7   46.30   13.50
   1 -13  -7   38.40    5.70
  -1  13   7   48.40   12.00
   1  13  -7   47.60    7.70
   0 -13   7  148.99   13.50
   0 -13  -7  125.09   13.90
   0 -13  -7  132.59   19.00
   0 -13   7  111.29   12.80
   0  13  -7  182.48   15.40
   0  13   7  162.38   20.40
  -1 -13  -7   22.60    5.40
  -1 -13  -7   18.90    7.20
   1 -13   7   18.60    4.40
  -1  13  -7   36.30    5.50
   1  13   7   22.20    7.70
  -2 -13  -7    4.40    3.50
   2  13   7    6.10    4.20
  -4 -14   7    3.40    2.60
   4 -14  -7    5.40    3.10
   4 -14  -7    7.80    1.90
   4 -14  -7   10.10    3.70
   4 -14  -7    5.30    2.10
   4 -14  -7    9.40    2.90
  -4 -14   7   15.50    6.00
   4  14  -7   21.50    3.60
  -3 -14   7   83.69    9.60
  -3 -14   7   93.89   13.60
   3 -14  -7   63.39    7.40
   3 -14  -7   78.99    8.60
   3 -14  -7   86.99   11.20
   3 -14  -7   79.99    8.60
   3 -14  -7   68.59    9.50
   3  14  -7   71.19    8.70
   2 -14  -7  169.48   13.70
   2 -14  -7  146.79   22.60
  -2 -14   7  174.38   16.20
  -2 -14   7  171.88   21.10
   2 -14  -7  170.38   15.10
   2 -14  -7  170.88   16.60
   2 -14  -7  147.69   14.10
   2  14  -7  209.68   17.80
   1 -14  -7   10.90    3.20
   1 -14  -7    6.80    8.80
   1 -14  -7    4.70    3.30
  -1 -14   7   15.00    6.10
   1 -14  -7   18.60    5.00
   1 -14  -7   10.10    6.20
   1 -14  -7   14.60    6.20
  -1 -14   7   19.50    5.30
   1  14  -7   49.80    7.50
  -1  14   7   37.30   10.50
   0 -14  -7   17.70    7.90
   0 -14  -7   25.10    6.20
   0 -14   7   16.10    5.40
   0 -14   7   20.10    5.40
   0  14   7   28.90    9.40
   1 -14   7   63.29    7.20
  -1 -14  -7   76.09    8.40
  -1 -14  -7   51.49    9.70
  -1  14  -7   66.69    7.40
   1  14   7   58.39   10.10
   4 -15  -7   37.10    4.50
   4 -15  -7   29.20    3.80
   4 -15  -7   28.40    4.90
  -4 -15   7   36.60    7.20
   4  15  -7   47.30    4.90
   3 -15  -7   59.19    6.30
  -3 -15   7   62.29    7.80
   3 -15  -7   56.09    7.60
   3 -15  -7   68.69    7.40
   3 -15  -7   71.29    7.30
   3 -15  -7   49.00    8.50
  -3 -15   7   56.39   10.90
   3  15  -7  105.99   10.10
   2 -15  -7   13.00    5.40
   2 -15  -7    9.70    8.90
   2 -15  -7   14.80    5.70
   2 -15  -7    1.00    3.00
   2 -15  -7    7.60    3.20
  -2 -15   7   11.10    7.20
  -2 -15   7    9.30    5.20
   2 -15  -7    6.30    3.80
   2  15  -7    3.40    3.60
   1 -15  -7   88.59   15.90
   1 -15  -7  105.69   10.40
   1 -15  -7   95.29    8.50
  -1 -15   7   99.19   10.80
  -1 -15   7  104.69   11.70
   1 -15  -7   76.99    9.30
   1 -15  -7  116.49   12.70
   1 -15  -7   90.79   11.90
  -1  15   7  136.29   16.10
   1  15  -7  127.69   12.40
   0 -15   7  102.59   10.10
   0 -15  -7   78.39   13.00
   0 -15  -7  100.29   10.80
   0 -15   7   72.39    9.20
   0  15   7  104.19   14.80
   0  15  -7  120.19   11.00
  -1 -15  -7    8.50    3.80
  -1 -15  -7    4.50    4.40
   1 -15   7    2.90    2.60
  -1  15  -7    4.50    2.80
   1  15   7    3.00    3.90
   3 -16  -7   17.90    3.80
  -3 -16   7   31.00    7.50
   3 -16  -7   20.80    5.10
   3 -16  -7   15.70    3.00
   3 -16  -7   15.30    4.30
   3 -16  -7   19.20    3.60
  -3 -16   7   21.00    4.50
   3  16  -7   14.60    3.50
   2 -16  -7   75.29   10.70
   2 -16  -7  103.69    9.80
   2 -16  -7  103.59    8.30
   2 -16  -7   92.09   10.60
  -2 -16   7   64.79   12.20
  -2 -16   7   86.99   10.50
   2 -16  -7   89.19    8.50
  -2  16   7   75.29   11.00
   2  16  -7   86.29    9.10
   1 -16  -7   50.29    8.90
   1 -16  -7   71.69    6.50
   1 -16  -7   78.49    9.70
   1 -16  -7   84.29    8.40
  -1 -16   7   80.09    8.30
   1 -16  -7   41.60   10.90
  -1 -16   7   66.79    9.10
   1  16  -7  100.59    9.50
  -1  16   7   68.69   11.70
   0 -16   7   15.80    4.00
   0 -16  -7   12.70    6.20
   0 -16  -7   13.30    4.20
   0 -16   7   19.40    4.50
   0 -16  -7   21.80    5.10
   0  16  -7   10.90    3.80
   0  16   7   10.90    5.90
  -1 -16  -7   19.70    4.00
  -1 -16  -7    8.30    4.20
   1 -16   7   15.00    2.90
   1  16   7   10.80    4.30
  -1  16  -7   16.70    3.40
   3 -17  -7   51.79    4.60
   3 -17  -7   55.09    5.60
   3 -17  -7   39.80    6.20
  -3 -17   7   46.70    5.60
   3 -17  -7   44.00    5.10
  -3 -17   7   49.90    8.20
   3  17  -7   80.69    7.40
   2 -17  -7    8.70    2.60
  -2 -17   7   12.60    4.40
   2 -17  -7   10.90    3.80
  -2 -17   7   15.20    6.20
   2 -17  -7   13.30    4.60
   2 -17  -7   12.60    4.10
   2 -17  -7   12.50    3.00
  -2  17   7   17.30    5.50
   2  17  -7   14.20    3.70
   1 -17  -7   79.19    7.00
   1 -17  -7   89.09    8.60
  -1 -17   7   87.99    9.60
  -1 -17   7   77.09    8.50
   1 -17  -7  105.89    9.80
   1 -17  -7   78.99   10.10
   1  17  -7   97.19    9.50
  -1  17   7   99.69   12.10
   0 -17   7   27.90    4.60
   0 -17  -7   43.70    6.10
   0 -17  -7   39.80    5.40
   0 -17   7   38.60    5.40
   0 -17  -7   25.40    6.90
   0  17   7   35.70    7.60
   0  17  -7   49.50    6.00
   3 -18  -7   10.50    2.50
   3 -18  -7   10.20    3.60
   3 -18  -7    8.30    2.30
   2 -18  -7   27.80    3.70
   2 -18  -7   30.90    3.50
   2 -18  -7   27.30    5.10
   2 -18  -7   22.70    4.30
   2 -18  -7   33.90    4.70
  -2 -18   7   30.90    5.00
  -2  18   7   38.30    8.60
   2  18  -7   42.30    5.20
   1 -18  -7   35.00    4.60
  -1 -18   7   26.60    4.00
  -1 -18   7   18.20    4.20
   1 -18  -7   20.30    4.40
   1 -18  -7   23.20    2.80
  -1  18   7   21.60    5.90
   1  18  -7   27.70    4.40
   0 -18   7    5.80    2.40
   0 -18  -7    6.90    3.20
   0  18  -7   11.70    3.00
   0  18   7    8.70    4.20
  -2 -19   7    5.30    2.70
   2 -19  -7    8.00    2.30
   2  19  -7   13.20    4.10
  -1 -19   7   18.10    3.50
   1 -19  -7   16.10    3.20
   1 -19  -7   16.30    3.20
  -1  19   7   11.60    5.00
   1  19  -7   11.80    2.80
   5   0  -8   28.30    5.20
   5   0  -8   26.10    7.20
   5   0  -8   20.50    4.40
   5   0  -8   17.40    8.10
   5   0  -8   15.80    4.50
   5   0  -8   23.50    7.80
   4   0  -8  105.69   10.80
   4   0  -8   69.29   17.20
   4   0  -8   82.79   13.00
   4   0  -8   82.49    9.40
   4   0  -8  122.49   20.30
   4   0  -8   92.79   11.50
   4   0  -8   97.09   17.40
  -3   0   8   37.40    9.60
   3   0  -8  131.09   13.70
   3   0  -8   84.89   19.90
   3   0  -8   69.39   10.40
   3   0  -8   91.29   19.40
   3   0  -8  121.79   12.50
   3   0  -8  121.39   22.80
   2   0  -8  240.78   25.60
   2   0  -8  279.77   22.40
  -2   0   8  259.37   24.00
   2   0  -8  253.77   30.30
   2   0  -8  276.87   36.70
   2   0  -8  282.87   31.20
   1   0  -8  164.18   25.00
   1   0  -8  154.58   14.70
   1   0  -8  161.78   26.00
   1   0  -8  144.29   22.70
  -1   0   8  177.58   18.30
   0   0  -8   94.39   17.10
   0   0   8   52.09    9.70
   0   0  -8   81.19   14.60
  -1   0  -8   19.10    7.80
   1   0   8   41.00   11.50
  -1   0  -8   23.10    9.00
  -2   0  -8   45.20    8.60
   2   0   8   35.50    9.10
  -2   0  -8   36.40    8.40
   5  -1  -8    2.10    5.50
   5  -1  -8    3.90    3.10
   5  -1  -8   14.70    4.20
   5  -1  -8   -0.20    3.20
   5  -1  -8    1.50    5.00
   5  -1  -8   18.30    8.30
   5   1  -8   16.20    6.50
   5   1  -8    1.50    3.30
   5   1  -8    6.40    6.70
   5   1  -8   30.70    4.90
   5   1  -8   20.20    7.50
   4  -1  -8   54.49   12.60
   4  -1  -8   63.29   16.00
   4  -1  -8   39.00    9.00
   4  -1  -8   36.30    7.20
   4  -1  -8   29.40    5.70
   4  -1  -8   47.00   13.00
   4  -1  -8   82.39    9.80
   4   1  -8   72.29   15.60
   4   1  -8   42.60    6.60
   4   1  -8   87.39   10.20
   4   1  -8   89.39   17.20
   4   1  -8   45.40   14.00
   4   1  -8   45.20   10.20
  -3  -1   8  172.78   20.00
   3  -1  -8  232.08   20.10
   3  -1  -8  263.07   30.10
   3  -1  -8  189.08   30.60
   3  -1  -8  241.48   28.40
   3  -1  -8  242.78   19.40
   3  -1  -8  226.78   20.40
   3  -1  -8  235.58   23.00
   3   1  -8  227.78   19.50
   3   1  -8  202.78   21.80
   3   1  -8  199.18   27.20
   3   1  -8  218.38   27.90
   3   1  -8  187.48   29.60
   3   1  -8  223.38   19.20
   3   1  -8  225.68   18.20
  -3   1   8  190.78   19.20
   2  -1  -8  150.48   23.10
   2  -1  -8  105.49   13.60
  -2  -1   8   84.99   14.00
   2  -1  -8  150.78   25.50
   2  -1  -8  167.18   24.30
   2   1  -8  113.99   20.10
   2   1  -8  117.09   21.70
   2   1  -8   71.49   10.80
   2   1  -8   75.79   19.80
   1  -1  -8   83.09   16.10
   1  -1  -8   91.69   18.90
  -1  -1   8   45.70   10.20
   1  -1  -8   67.29    9.50
   1  -1  -8  110.69   19.60
   1   1  -8   61.79   13.70
   1   1  -8   52.69    8.00
   1   1  -8  109.79   20.10
  -1   1   8   51.59   10.50
   0  -1  -8  201.68   23.80
   0  -1   8  189.98   18.30
   0  -1  -8  207.68   23.00
   0   1   8  176.58   17.00
   0   1  -8  183.78   21.90
   0   1  -8  189.28   23.40
   1  -1   8   40.90   12.10
  -1  -1  -8   55.59   11.50
  -1  -1  -8   34.60   10.20
  -1   1  -8   58.99   12.20
   1   1   8   40.50   12.10
  -1   1  -8   65.39   13.00
  -2  -1  -8   26.20    7.20
  -2  -1  -8   33.00    7.40
  -2   1  -8   25.60    7.40
   2   1   8   42.60    9.00
  -2   1  -8   17.30    6.40
   5  -2  -8   50.89    6.60
   5  -2  -8   50.29    9.90
   5  -2  -8   44.50   11.00
   5  -2  -8   42.10    7.90
   5  -2  -8   45.60    6.00
   5  -2  -8   34.00    6.10
   5   2  -8   56.49    6.80
   5   2  -8   61.09   10.80
   5   2  -8   48.30   10.40
   5   2  -8   42.60    7.00
   5   2  -8   65.59   11.00
   5   2  -8   69.99    7.00
   4  -2  -8   96.79   16.30
   4  -2  -8  106.69   12.50
   4  -2  -8   96.59   20.10
   4  -2  -8   87.69   12.90
   4  -2  -8  125.49   11.90
   4  -2  -8  149.29   21.80
   4  -2  -8  103.69   10.10
   4   2  -8  140.49   13.40
   4   2  -8  125.89   16.10
   4   2  -8  139.79   21.50
   4   2  -8  155.18   22.30
   4   2  -8  115.99   13.40
   4   2  -8   99.59   19.40
   3  -2  -8  100.09   20.20
  -3  -2   8   20.20    6.50
   3  -2  -8   58.19   14.40
   3  -2  -8   39.80   13.40
   3  -2  -8   23.90    6.10
   3   2  -8   53.29   14.60
   3   2  -8   10.30    8.50
   3   2  -8   -3.90    6.90
   3   2  -8   20.40    5.60
   3   2  -8   11.20   12.70
   3   2  -8   70.49   17.90
   2  -2  -8  179.68   17.10
   2  -2  -8  168.18   15.70
   2  -2  -8  151.78   14.30
   2  -2  -8  166.18   25.20
   2  -2  -8  164.08   24.50
   2  -2  -8  177.68   28.40
   2  -2  -8  144.69   19.10
   2   2  -8  275.37   29.80
   2   2  -8  181.78   23.00
   2   2  -8  173.08   31.10
   2   2  -8  252.17   28.40
   1  -2  -8  191.78   24.60
   1  -2  -8  162.98   16.30
   1  -2  -8  178.58   23.10
   1  -2  -8  199.68   28.00
  -1  -2   8  204.28   19.00
   1   2  -8  146.39   22.60
  -1   2   8  183.28   18.00
   1   2  -8  144.49   24.40
   0  -2  -8   72.79   14.90
   0  -2   8   30.90    8.10
   0  -2  -8   65.59   13.60
   0  -2  -8   88.39   14.20
   0   2  -8   38.90   12.50
   0   2   8   39.80    7.60
   0   2  -8   39.30   11.60
  -1  -2  -8   34.80    9.60
  -1  -2  -8   39.10    9.50
   1  -2   8   16.50    4.30
   1   2   8   82.09   14.70
  -1   2  -8   67.19   13.20
  -1   2  -8   38.30   10.30
   2  -2   8   41.40    9.80
  -2  -2  -8   77.09    9.90
  -2  -2  -8   53.39    9.10
  -2   2  -8   50.59    9.90
   2   2   8   51.39    9.80
  -2   2  -8   49.30    9.20
   5  -3  -8   30.20    5.20
   5  -3  -8   23.20    4.40
   5  -3  -8   26.50    7.50
   5  -3  -8   32.60    8.80
   5   3  -8   41.40    8.70
   5   3  -8   33.20    8.60
   5   3  -8   34.40    8.60
   5   3  -8   34.20    5.10
   4  -3  -8   38.40   10.10
   4  -3  -8   49.30    7.70
   4  -3  -8   91.89   17.80
   4  -3  -8   31.70    5.30
  -4  -3   8   27.20    6.90
   4  -3  -8   36.90    7.80
   4  -3  -8   33.40   11.60
   4  -3  -8   25.50    6.10
   4   3  -8   31.60    6.20
   4   3  -8   11.80   10.60
   4   3  -8   17.00    6.60
   4   3  -8   22.30    6.10
   4   3  -8   38.00   12.40
   4   3  -8   31.30   11.10
   3  -3  -8  138.09   21.50
   3  -3  -8  120.39   24.90
   3  -3  -8  119.09   14.70
   3  -3  -8  152.38   24.50
   3  -3  -8  143.39   12.90
  -3  -3   8  111.79   13.50
   3  -3  -8  132.49   13.50
   3  -3  -8  118.99   11.30
   3  -3  -8  127.39   16.50
   3   3  -8  146.59   14.80
   3   3  -8  126.59   23.20
   3   3  -8  145.09   13.70
   3   3  -8  176.08   26.90
   3   3  -8  161.48   25.20
   3   3  -8  134.39   18.20
   2  -3  -8  216.18   20.00
  -2  -3   8  232.08   21.60
   2  -3  -8  206.58   23.20
   2  -3  -8  258.17   21.60
   2  -3  -8  250.07   19.20
   2  -3  -8  257.37   29.00
   2  -3  -8  234.68   27.70
   2  -3  -8  212.38   31.60
   2   3  -8  241.98   19.50
   2   3  -8  201.08   23.30
   2   3  -8  230.98   28.60
   2   3  -8  223.88   27.40
  -1  -3   8   19.10    7.70
   1  -3  -8   54.69   13.50
   1  -3  -8   23.80    6.10
   1  -3  -8   51.69   13.80
   1  -3  -8   30.20   10.30
   1   3  -8   47.80   13.50
   1   3  -8   22.20    9.20
   0  -3  -8  123.39   19.60
   0  -3   8  111.09   13.40
   0  -3  -8  105.69   17.80
   0  -3  -8  129.39   17.00
   0   3   8  127.79   26.60
   0   3  -8   97.59   18.50
   0   3  -8   93.59   17.20
   0   3   8   96.89   11.70
  -1  -3  -8  100.39   16.50
  -1  -3  -8  130.39   15.30
   1  -3   8  101.59    9.80
  -1  -3  -8  102.59   14.10
   1  -3   8   85.59   16.80
  -1   3  -8  122.79   15.90
   1   3   8   98.49   16.80
  -1   3  -8  124.79   16.80
  -2  -3  -8   39.80    7.50
   2  -3   8   15.10    7.10
  -2   3  -8   19.10    6.60
  -2   3  -8   20.10    7.20
   2   3   8   47.60    8.80
  -5  -4   8   30.90    7.00
   5  -4  -8   40.70    5.50
   5  -4  -8   37.70    9.60
   5  -4  -8   46.20    6.10
   5  -4  -8   48.20    8.60
   5  -4  -8   46.40    6.60
   5   4  -8   68.39   10.90
   5   4  -8   54.69    9.30
   5   4  -8   44.70    5.90
   5   4  -8   49.60    6.10
   5   4  -8   46.10    8.80
   4  -4  -8   36.10   14.00
  -4  -4   8   38.60    7.90
   4  -4  -8   45.40    8.00
   4  -4  -8   40.60    5.90
   4  -4  -8   34.70    7.90
   4  -4  -8   53.59    7.70
   4  -4  -8   60.49   13.50
   4   4  -8   59.29   13.70
   4   4  -8   40.20    7.10
   4   4  -8   43.10   12.50
   4   4  -8   41.80    7.20
   4   4  -8   55.99   14.40
   4   4  -8   37.90    8.50
  -3  -4   8    7.20    5.80
   3  -4  -8    2.70    8.40
   3  -4  -8   11.50    5.40
   3  -4  -8   45.80   15.60
   3  -4  -8    4.70    3.70
   3  -4  -8    9.30    6.20
   3  -4  -8    3.50    2.80
   3  -4  -8    2.80    4.20
  -3  -4   8    1.50    5.60
   3   4  -8    9.10    6.60
   3   4  -8   15.00    9.50
   2  -4  -8  173.28   26.40
   2  -4  -8  133.59   12.80
   2  -4  -8  167.08   18.00
   2  -4  -8  172.98   16.00
  -2  -4   8  105.39   14.60
   2  -4  -8  152.68   14.30
   2  -4  -8  122.49   21.90
   2  -4  -8  132.99   14.40
   2   4  -8  118.59   21.80
   2   4  -8  153.88   17.20
   2   4  -8  158.58   25.30
   1  -4  -8  322.57   23.30
   1  -4  -8  278.77   31.30
   1  -4  -8  285.47   23.60
   1  -4  -8  288.17   30.40
  -1  -4   8  272.47   25.90
  -1  -4   8  350.76   26.60
   1   4  -8  292.17   31.30
   1   4  -8  242.48   27.90
   0  -4  -8   16.40    7.60
   0  -4   8    7.40    5.20
   0  -4  -8   16.50    9.50
   0   4  -8    9.20    8.80
   0   4   8   14.70    9.60
   0   4  -8    5.80    8.60
   0   4   8    5.70    4.60
  -1  -4  -8   80.79   14.50
  -1  -4  -8  102.69   13.20
   1  -4   8   73.59   24.40
  -1   4  -8   71.99   14.40
  -1   4  -8   59.89   12.70
  -2  -4  -8   76.79    9.70
   2  -4   8   58.49   10.50
   2   4   8   51.99    9.40
  -2   4  -8   58.19   10.30
   5  -5  -8   20.60    4.20
  -5  -5   8    6.80    4.80
   5  -5  -8   17.20    4.40
   5  -5  -8   24.90    7.80
   5  -5  -8   25.20    4.00
   5  -5  -8   25.50    6.00
   5   5  -8   23.30    6.30
   5   5  -8   17.30    3.50
   5   5  -8   21.60    3.60
   5   5  -8   21.50    7.00
   4  -5  -8   10.10    7.80
  -4  -5   8    8.30    4.90
   4  -5  -8    6.10    3.00
   4  -5  -8   17.70   11.30
   4  -5  -8   10.20    4.80
   4  -5  -8    8.20    4.10
   4  -5  -8    6.70    4.90
   4   5  -8   18.60   10.80
   4   5  -8   13.10    5.50
   4   5  -8    7.40    9.50
   4   5  -8    8.30    5.00
   4   5  -8   17.40    8.80
   3  -5  -8  189.68   18.40
   3  -5  -8  201.18   15.60
   3  -5  -8  206.08   25.40
  -3  -5   8  185.98   18.90
   3  -5  -8  205.48   17.10
   3  -5  -8  186.78   17.40
   3  -5  -8  185.48   30.10
   3  -5  -8  201.08   19.90
   3   5  -8  192.18   24.30
   3   5  -8  196.48   20.20
   3   5  -8  222.48   27.50
   2  -5  -8  146.79   14.00
   2  -5  -8  146.19   25.90
   2  -5  -8  121.69   15.10
   2  -5  -8  118.29   13.70
  -2  -5   8  133.49   15.20
   2  -5  -8  149.49   12.60
   2  -5  -8  108.19   16.80
  -2  -5   8  135.29   16.60
   2  -5  -8  166.28   24.30
   2   5  -8  107.59   15.10
   2   5  -8  129.69   21.80
   2   5  -8  121.39   22.50
  -1  -5   8    9.60    6.50
   1  -5  -8   28.80    5.50
   1  -5  -8   20.70    9.50
   1  -5  -8   12.20    4.40
  -1  -5   8   21.40    7.40
   1   5  -8   17.50   10.70
   1   5  -8   39.80   14.20
   0  -5   8   99.49   12.10
   0  -5  -8  104.09   16.50
   0  -5  -8  105.89   18.20
   0   5   8  138.69   19.80
   0   5  -8  118.69   19.60
   0   5   8  129.89   13.60
   0   5  -8  134.59   20.80
  -1  -5  -8   73.49   11.70
   1  -5   8   43.80    6.40
  -1  -5  -8   53.39   12.30
   1   5   8   64.49   12.70
  -1   5  -8   61.69   14.00
   2  -5   8    8.30    5.80
  -2  -5  -8   14.90    4.80
  -2   5  -8    4.00    5.50
  -5  -6   8   38.40    6.90
   5  -6  -8   36.00    8.10
   5  -6  -8   40.20    5.70
   5  -6  -8   39.30    5.10
   5  -6  -8   41.00    5.00
   5   6  -8   38.90    4.90
   5   6  -8   48.40    8.60
   4  -6  -8   78.69   10.90
   4  -6  -8  105.29   10.20
   4  -6  -8   81.79    8.50
   4  -6  -8   98.89   11.40
   4  -6  -8  115.49   14.90
  -4  -6   8   91.49   10.70
   4  -6  -8   73.09   17.10
   4   6  -8  141.09   12.90
   4   6  -8  143.19   19.30
   4   6  -8  133.19   17.90
   3  -6  -8   43.50    5.90
   3  -6  -8   52.49   17.80
   3  -6  -8   34.70    8.90
  -3  -6   8   30.20    8.20
   3  -6  -8   47.60    7.40
   3  -6  -8   54.59   13.70
   3  -6  -8   34.80    8.10
   3  -6  -8   39.30    6.70
   3   6  -8   27.60    7.90
   3   6  -8   40.40   14.60
   3   6  -8   50.39   14.60
  -2  -6   8   56.19    9.70
   2  -6  -8   91.69   13.40
   2  -6  -8   63.39    8.20
  -2  -6   8   65.39   11.60
   2  -6  -8   55.79    8.80
   2  -6  -8   67.69   10.60
   2  -6  -8   82.19   16.90
   2  -6  -8   78.49   19.90
   2  -6  -8   70.09    9.30
   2   6  -8   43.10   14.30
   2   6  -8   56.89   15.70
   2   6  -8   60.69   10.50
   1  -6  -8  215.98   19.00
  -1  -6   8  258.27   21.90
   1  -6  -8  225.48   21.10
   1  -6  -8  239.98   25.60
  -1  -6   8  230.28   21.70
   1  -6  -8  228.78   27.20
   1  -6  -8  256.47   19.00
   1   6  -8  209.58   25.20
   1   6  -8  239.88   28.00
   0  -6   8   40.10    7.80
   0  -6  -8   56.69   12.10
   0  -6  -8   31.60   11.80
   0   6  -8   50.49   13.70
   0   6   8   48.60   12.70
   0   6   8   47.30    8.00
   1  -6   8    6.40    3.30
  -1  -6  -8    7.30    7.80
  -1  -6  -8   14.10    5.90
   1   6   8   11.20    8.00
  -1   6  -8   12.60    8.80
  -2  -6  -8   32.30    6.20
   2   6   8   34.30    7.30
  -2   6  -8   33.00    8.00
   5  -7  -8   -0.10    1.70
   5  -7  -8    0.10    2.30
  -5  -7   8   -1.10    3.50
   5   7  -8    4.00    4.60
   4  -7  -8   35.50   11.90
   4  -7  -8   32.80    4.80
   4  -7  -8   30.50    5.80
   4  -7  -8   39.20    7.00
  -4  -7   8   30.60    6.00
   4  -7  -8   38.30    6.90
   4  -7  -8   32.10    8.90
  -4  -7   8   33.80    8.70
   4   7  -8   36.90    6.20
   4   7  -8   38.20   10.70
   4   7  -8   53.29   12.40
   3  -7  -8  151.38   12.90
   3  -7  -8  166.58   14.30
   3  -7  -8  172.78   21.20
   3  -7  -8  150.08   16.90
   3  -7  -8  153.88   15.80
   3  -7  -8  155.98   26.00
  -3  -7   8  182.18   16.70
   3  -7  -8  149.39   14.60
   3   7  -8  142.79   16.20
   3   7  -8  140.59   21.30
   3   7  -8  155.48   24.40
   2  -7  -8   21.90    6.80
   2  -7  -8   22.30    4.80
   2  -7  -8   14.80   12.70
  -2  -7   8   23.90    6.50
   2  -7  -8   10.10    6.40
   2  -7  -8   14.10    4.90
  -2  -7   8   19.40    7.50
   2  -7  -8   25.10   10.60
   2  -7  -8   21.60    5.70
   2   7  -8   25.30   12.60
   1  -7  -8   39.30    8.50
   1  -7  -8   42.10   13.90
  -1  -7   8   47.10    8.50
  -1  -7   8   25.60    7.30
   1  -7  -8   35.00    6.10
   1  -7  -8   29.00    5.40
   1  -7  -8   29.80    9.80
   1   7  -8   47.20   14.50
   0  -7   8  166.18   15.30
   0  -7  -8  176.28   20.40
   0  -7  -8  159.98   18.70
   0   7  -8  191.78   23.00
   0   7   8  173.48   16.30
   0   7   8  194.38   22.30
  -1  -7  -8   45.00    8.80
  -1  -7  -8   43.10   10.50
   1  -7   8   32.30    5.20
   1   7   8   31.30    9.40
  -1   7  -8   33.60   10.80
  -2  -7  -8    0.20    2.80
  -2   7  -8    3.30    5.20
   2   7   8    7.40    4.20
   4  -8  -8   48.40    6.00
  -4  -8   8   52.39    7.30
   4  -8  -8   51.29   13.00
  -4  -8   8   45.20   10.00
   4  -8  -8   42.50    7.50
   4  -8  -8   54.19    7.80
   4  -8  -8   65.09    7.70
   4  -8  -8   67.99   11.50
   4   8  -8   39.00    5.80
   4   8  -8   42.30   11.20
   3  -8  -8   11.60    4.20
   3  -8  -8   13.40    3.30
  -3  -8   8    4.90    6.80
   3  -8  -8   17.40    6.20
   3  -8  -8   12.80    4.70
   3  -8  -8    3.20    5.20
   3  -8  -8   16.50    8.40
   3  -8  -8   14.90   12.00
  -3  -8   8   14.00    5.90
   3   8  -8   20.90   11.40
   2  -8  -8   73.59   11.10
   2  -8  -8   94.29   20.50
   2  -8  -8   74.39    8.50
   2  -8  -8   82.59   12.00
   2  -8  -8   82.19    9.60
  -2  -8   8   61.19   13.30
  -2  -8   8   68.69    9.80
  -2  -8   8   78.79   11.70
   2  -8  -8   74.49    9.40
   2  -8  -8   70.79   14.80
   2   8  -8  108.39   19.80
   1  -8  -8   91.69    8.90
   1  -8  -8   92.99   18.70
  -1  -8   8   87.49   11.60
   1  -8  -8   89.59   11.90
   1  -8  -8  107.99   16.60
   1  -8  -8   71.89   10.40
  -1  -8   8   80.49   11.60
   1   8  -8   86.39   18.00
   0  -8  -8   33.90   11.50
   0  -8   8   38.10    6.90
   0  -8  -8   41.60   10.00
   0   8  -8   20.60   10.20
   0   8   8   18.90    9.10
   0   8   8   15.40    5.20
   1  -8   8   22.50    4.10
  -1  -8  -8   27.40    8.80
  -1  -8  -8   27.40    6.90
  -1   8  -8   38.60   11.00
   1   8   8   44.10   10.00
   2   8   8   22.40    5.50
   4  -9  -8   22.00    5.10
   4  -9  -8   12.00    3.00
   4  -9  -8   13.40    2.60
   4  -9  -8   15.40    4.50
  -4  -9   8   23.00    6.60
  -4  -9   8   20.30    4.70
   4  -9  -8   19.40    8.80
   4  -9  -8   16.80    4.20
   4   9  -8   14.50    7.80
   3  -9  -8   54.69    9.60
   3  -9  -8   71.59    8.20
   3  -9  -8   67.29    8.50
   3  -9  -8   65.09    7.00
   3  -9  -8   67.99   13.10
  -3  -9   8   62.69    9.30
   3  -9  -8   57.09   15.80
   3  -9  -8   73.49   10.10
   3   9  -8  104.49   18.40
  -2  -9   8   54.59   13.00
   2  -9  -8   97.29   16.10
  -2  -9   8   81.19   11.60
   2  -9  -8   94.49    9.90
  -2  -9   8   85.59   10.20
   2  -9  -8   74.29    9.70
   2  -9  -8   84.99   19.20
   2  -9  -8  112.19    9.40
   2  -9  -8   88.49   12.00
   2  -9  -8   64.69   11.40
   2   9  -8   86.89   17.10
  -1  -9   8   18.50    5.90
   1  -9  -8   12.20    3.70
  -1  -9   8   25.00    6.30
   1  -9  -8   12.90    6.10
   1  -9  -8   15.00    7.40
   1  -9  -8   16.20   10.70
   1   9  -8    8.80    9.30
   0  -9   8   57.49    8.10
   0  -9  -8   62.19   11.10
   0  -9  -8   60.99    9.10
   0  -9  -8   47.50   11.90
   0   9  -8   45.30   12.40
   0   9   8   45.70   10.80
   0   9   8   45.10    6.80
  -1  -9  -8   19.00    7.90
   1  -9   8   15.90    3.70
  -1  -9  -8   24.60    6.30
  -1   9  -8   20.70    8.60
   1   9   8   24.70    7.80
   4 -10  -8   17.00    2.40
  -4 -10   8   11.00    3.20
   4 -10  -8   12.80    4.10
  -4 -10   8    6.50    4.70
  -4 -10   8   14.50    3.70
   4 -10  -8   14.50    4.10
   4 -10  -8   16.40    3.80
   4 -10  -8    7.50    6.40
   4 -10  -8   11.20    2.70
   4  10  -8   27.10    8.00
   3 -10  -8    8.10    9.30
  -3 -10   8    3.90    6.20
   3 -10  -8    4.30    4.10
   3 -10  -8    4.40    4.70
  -3 -10   8    4.50    4.70
   3 -10  -8    2.60    1.90
   3 -10  -8    5.80    3.30
   3 -10  -8    4.60    3.40
   3  10  -8    3.60    8.00
   2 -10  -8  107.89   10.70
   2 -10  -8  119.59   20.90
   2 -10  -8   91.89   10.30
   2 -10  -8  102.39    9.70
  -2 -10   8  103.29   12.80
   2 -10  -8  114.89   12.80
   2 -10  -8  118.89   13.40
  -2 -10   8   92.69   10.90
   2  10  -8   80.69   16.00
   1 -10  -8  119.59   15.40
   1 -10  -8  121.19   10.20
   1 -10  -8  114.79   13.40
  -1 -10   8  115.29   12.70
  -1 -10   8  100.09   12.50
   1 -10  -8  116.99   19.80
   1  10  -8  107.79   18.30
   0 -10  -8    6.00    4.70
   0 -10  -8    3.30    4.50
   0 -10  -8    5.80    7.70
   0 -10   8    9.60    4.10
   0  10   8   10.40    7.10
   0  10  -8    7.90    7.70
  -1 -10  -8   35.80    6.70
   1 -10   8   29.40    4.40
  -1 -10  -8   37.30    8.50
  -1  10  -8   36.30    9.30
   1  10   8   36.50    8.30
   4 -11  -8   13.40    3.80
   4 -11  -8   13.00    3.50
   4 -11  -8   14.00    2.60
   4 -11  -8   13.20    2.50
  -4 -11   8   15.10    5.30
   4 -11  -8   13.10    3.20
   4 -11  -8    9.40    5.90
  -4 -11   8   11.70    4.00
   4  11  -8   28.30    7.60
   3 -11  -8   44.30    6.40
  -3 -11   8   45.20    9.40
   3 -11  -8   48.90   12.70
  -3 -11   8   42.00    7.00
   3 -11  -8   38.00    5.70
   3 -11  -8   38.90    4.90
   3 -11  -8   39.10    7.00
   3 -11  -8   45.90    7.30
   3  11  -8   49.40   11.40
   2 -11  -8   62.99    7.60
   2 -11  -8   67.69    6.80
  -2 -11   8   63.89    7.70
   2 -11  -8   50.69   14.40
   2 -11  -8   51.29    7.30
   2 -11  -8   29.20    7.50
   2 -11  -8   60.49    9.40
  -2 -11   8   56.79    8.70
   2  11  -8   40.40   11.60
   1 -11  -8   15.90    5.90
  -1 -11   8   13.90    5.10
  -1 -11   8   13.90    5.20
   1 -11  -8   20.70   10.10
   1 -11  -8   16.10    3.50
   1  11  -8   21.10    8.90
  -1  11   8   27.10    8.60
   0 -11   8   48.90    7.20
   0 -11  -8   55.39    8.10
   0 -11  -8   57.29   11.90
   0  11  -8   46.10   11.10
   0  11   8   65.49   10.80
   1 -11   8   29.60    4.00
  -1 -11  -8   32.60    7.60
  -1  11  -8   33.60    8.80
   1  11   8   30.30    7.10
  -4 -12   8   38.90    6.80
   4 -12  -8   34.40    4.80
   4 -12  -8   62.99    5.50
   4 -12  -8   37.30    4.20
   4 -12  -8   38.00    5.60
   3 -12  -8    7.60    3.50
   3 -12  -8    6.40    3.80
  -3 -12   8    8.00    6.10
   3 -12  -8   10.10    2.40
   3 -12  -8    7.30    4.20
   3 -12  -8    8.70    7.60
   3 -12  -8    8.20    3.10
  -3 -12   8    8.20    4.00
   3  12  -8    7.50    6.50
   2 -12  -8   39.80   12.20
   2 -12  -8   43.90    5.40
  -2 -12   8   39.10    6.00
  -2 -12   8   53.89    7.60
   2 -12  -8   41.10    7.50
   2 -12  -8   47.00    6.40
   2 -12  -8   49.80    8.10
   2 -12  -8   38.70    5.90
   2  12  -8   34.10   10.10
   1 -12  -8   40.20   11.50
   1 -12  -8   51.89    8.20
  -1 -12   8   40.90    7.00
  -1 -12   8   51.89    7.30
   1 -12  -8   49.80    5.40
  -1  12   8   61.29   10.20
   1  12  -8   55.89   12.10
   0 -12   8   17.40    4.20
   0 -12  -8   11.30    4.80
   0 -12  -8   14.50    7.40
   0  12   8   19.00    6.60
   0  12  -8   18.00    7.90
   1 -12   8    5.30    2.00
  -1 -12  -8   12.10    5.40
   1  12   8    6.00    4.40
   3 -13  -8   97.89    8.60
  -3 -13   8   82.59   11.60
   3 -13  -8   91.39    9.10
   3 -13  -8   83.79    9.10
  -3 -13   8   78.19    8.90
   3 -13  -8   58.99   11.80
   3 -13  -8   90.39    8.00
   3 -13  -8   86.09    7.20
   2 -13  -8   25.30    3.70
  -2 -13   8   20.40    5.10
   2 -13  -8   16.80    3.90
   2 -13  -8   24.00    4.40
   2 -13  -8   12.70    7.90
   2 -13  -8   21.70    5.60
  -2 -13   8   19.70    4.20
   2 -13  -8   12.00    4.70
   1 -13  -8   19.50    4.30
   1 -13  -8   17.80    3.10
  -1 -13   8   20.70    4.90
   1 -13  -8   16.00    8.10
   1 -13  -8   33.20    6.40
  -1 -13   8   18.40    4.90
  -1  13   8   23.90    6.60
   0 -13   8   90.59    8.90
   0 -13  -8   71.29   12.00
   0 -13  -8  111.29    9.90
   0  13   8   72.39   10.20
  -1 -13  -8    8.40    4.80
   3 -14  -8    4.90    2.10
   3 -14  -8    4.10    2.90
  -3 -14   8    2.60    4.20
   3 -14  -8    9.00    1.90
   3 -14  -8    4.50    3.00
  -3 -14   8    4.70    3.10
   3 -14  -8    7.00    2.80
   2 -14  -8   32.50    5.70
   2 -14  -8   40.40    6.40
  -2 -14   8   35.30    6.00
   2 -14  -8   44.80    5.50
   2 -14  -8   27.70    9.00
   2 -14  -8   37.00    4.40
   2 -14  -8   32.70    4.70
   1 -14  -8   87.29    7.10
   1 -14  -8   94.69    8.20
   1 -14  -8   92.69    9.90
  -1 -14   8   74.09    8.80
   1 -14  -8   62.09   12.20
  -1 -14   8   90.29    8.70
  -1  14   8   80.99    9.90
   0 -14  -8   12.00    4.00
   0 -14   8   17.60    3.60
   0 -14  -8    5.70    4.90
   0  14   8    7.50    4.20
   3 -15  -8   40.40    5.60
  -3 -15   8   38.10    6.50
   3 -15  -8   39.30    4.40
   3 -15  -8   48.10    4.00
   3 -15  -8   54.49    5.10
   3 -15  -8   35.10    5.30
   2 -15  -8   16.20    3.30
   2 -15  -8   16.20    2.50
  -2 -15   8   13.30    3.70
   2 -15  -8   14.00    6.30
   2 -15  -8   10.60    3.50
   2 -15  -8   10.60    2.50
   2 -15  -8    7.10    3.30
   2  15  -8   25.10    5.80
   1 -15  -8    3.70    1.60
   1 -15  -8    2.90    5.30
   1 -15  -8    3.50    2.40
   1 -15  -8    8.30    3.80
  -1 -15   8    8.00    3.20
  -1 -15   8    6.00    2.70
  -1  15   8    3.80    3.70
   0 -15   8   24.20    3.80
   0 -15  -8   16.80    7.50
   0 -15  -8   38.60    6.20
   0  15   8   28.80    6.00
   2 -16  -8   30.10    4.30
  -2 -16   8   34.40    4.50
   2 -16  -8   29.60    3.20
   2 -16  -8   26.40    3.80
   1 -16  -8   35.90    4.90
  -1 -16   8   24.20    4.50
   4   0  -9   48.10   10.90
   4   0  -9   56.49    6.90
  -4   0   9   48.70    7.40
   4   0  -9   62.99    6.90
   4   0  -9   47.80    7.60
   4   0  -9   62.59   10.20
   4   0  -9   69.29   11.50
   3   0  -9   17.40   10.70
   3   0  -9   -0.80    6.20
   3   0  -9   32.10    9.90
   3   0  -9   48.10   11.70
  -3   0   9   24.00    5.30
   2   0  -9   32.90   12.60
   2   0  -9   44.00   11.90
  -2   0   9   32.80    7.10
   2   0  -9   36.20   10.90
  -1   0   9  130.19   13.30
   1   0  -9  122.69   17.10
   1   0  -9  140.89   17.90
   0   0  -9   40.70    9.60
   0   0  -9   36.30    9.40
   0   0   9   33.70    5.50
  -1   0  -9   13.50    5.50
  -1   0  -9   13.60    5.70
   4  -1  -9   17.90    7.90
   4  -1  -9   53.39    6.10
   4  -1  -9   33.00    7.30
   4  -1  -9   12.60    5.30
   4  -1  -9   27.40    7.40
   4  -1  -9   26.10    5.00
  -4  -1   9   36.80    6.00
   4   1  -9   46.00    9.30
   4   1  -9   39.60    8.90
   4   1  -9   41.00    5.50
  -4   1   9   39.20    6.20
   4   1  -9    8.80    7.70
  -3  -1   9   80.29    9.20
   3  -1  -9   90.69    9.40
   3  -1  -9  109.39   17.10
   3  -1  -9   78.99   11.40
   3  -1  -9   72.79   15.80
   3  -1  -9   88.59   14.60
   3   1  -9   69.39   15.20
   3   1  -9  119.89   17.40
   3   1  -9  107.89   16.50
   3   1  -9   75.79   11.30
  -3   1   9   77.39    9.40
  -2  -1   9  123.09   12.80
   2  -1  -9  141.39   19.80
   2  -1  -9   95.99   18.80
   2  -1  -9  113.59   17.50
  -2  -1   9   92.89   12.20
   2  -1  -9  111.09   10.90
  -2   1   9   92.99   11.40
   2   1  -9   99.49   17.10
   2   1  -9  103.39   17.00
   1  -1  -9   81.09   14.70
   1  -1  -9   54.19   17.40
   1  -1  -9   62.19   12.70
  -1  -1   9   72.19    9.30
  -1   1   9   72.19    9.40
   1   1  -9   61.89   13.30
   1   1  -9   66.59   13.20
   0  -1  -9   34.20    8.70
   0  -1  -9   31.00    8.50
   0   1  -9   49.40   10.80
   0   1   9   31.10    5.50
   0   1  -9   42.40    9.40
  -1  -1  -9   97.39   11.30
  -1  -1  -9   79.89   10.50
  -1   1  -9   77.99    9.90
  -1   1  -9   62.59   10.10
   4  -2  -9   57.39   10.90
   4  -2  -9   56.99   11.80
   4  -2  -9   79.49   11.80
  -4  -2   9   59.69    7.80
   4  -2  -9   70.89    7.80
   4  -2  -9   64.19    8.70
   4  -2  -9   76.39    7.40
   4   2  -9   77.19    7.30
   4   2  -9   82.79   12.10
   4   2  -9   54.29   10.60
   4   2  -9   78.29   11.70
   4   2  -9   51.39    8.10
  -3  -2   9   33.10    7.40
   3  -2  -9   73.89   13.30
   3  -2  -9   52.39    6.90
   3  -2  -9   46.50   10.20
   3  -2  -9   40.70    8.70
  -3  -2   9   47.50    7.00
   3  -2  -9   82.19    8.50
   3  -2  -9   59.79   13.70
  -3   2   9   64.09    7.90
   3   2  -9   64.39   13.40
   3   2  -9   38.20   12.50
   3   2  -9   36.90    8.50
   3   2  -9   77.59   13.70
  -2  -2   9   18.50    5.40
   2  -2  -9   37.20   12.60
   2  -2  -9   27.10    9.60
   2  -2  -9   27.10    8.90
   2  -2  -9   32.90    6.00
  -2   2   9   19.90    5.90
   2   2  -9   33.00   10.80
   2   2  -9   21.70    9.30
  -1  -2   9   89.09   11.60
  -1  -2   9  121.99   12.80
   1  -2  -9  121.79   15.70
   1  -2  -9  118.19   18.90
   1  -2  -9  142.59   17.40
  -1   2   9  137.39   12.80
   1   2  -9  118.79   18.80
   1   2  -9  121.99   16.90
   0  -2  -9   95.59   12.50
   0  -2  -9   66.89   11.70
   0  -2   9   70.89    8.20
   0   2  -9   92.39   15.00
   0   2   9   90.79    9.10
   0   2  -9  101.69   13.50
  -1  -2  -9   17.20    5.90
  -1   2  -9    7.70    5.00
  -1   2  -9   10.20    5.30
   4  -3  -9    9.40    5.40
   4  -3  -9    6.10    3.30
   4  -3  -9   29.40    8.40
   4  -3  -9   12.90    2.60
  -4  -3   9   12.40    4.10
   4   3  -9   26.30    7.00
   4   3  -9   22.10    6.90
   4   3  -9   11.60    4.40
  -3  -3   9   49.90    8.10
   3  -3  -9   49.00    6.90
   3  -3  -9   63.29   14.10
  -3  -3   9   43.00    6.40
   3  -3  -9   54.79    8.60
   3  -3  -9   58.99    7.60
   3  -3  -9   55.99   12.00
   3  -3  -9   54.19    6.60
   3   3  -9   53.79    8.80
  -3   3   9   29.70    6.40
   3   3  -9   57.99   12.10
   3   3  -9   72.59   13.80
  -2  -3   9  105.29   12.40
   2  -3  -9  126.49   16.80
   2  -3  -9   61.89   17.30
   2  -3  -9  102.69   19.50
  -2  -3   9  111.49   11.90
   2  -3  -9  112.39   10.50
   2   3  -9   92.89   16.40
  -2   3   9   98.79   11.30
   2   3  -9   85.09   15.70
   1  -3  -9   25.20   11.10
  -1  -3   9    7.60    4.30
   1  -3  -9   17.40    8.10
  -1  -3   9    0.60    3.60
   1  -3  -9   13.40    7.20
   1   3  -9   17.40    8.80
   1   3  -9    8.00    7.70
  -1   3   9   17.30    5.10
   0  -3  -9   64.79   13.30
   0  -3   9   29.10    5.20
   0  -3  -9   43.90    9.30
   0   3  -9   52.89   11.10
   0   3  -9   42.40    9.80
  -1  -3  -9   29.50    6.70
  -1   3  -9   30.20    7.40
  -4  -4   9   52.69    6.70
   4  -4  -9   52.99    7.50
   4  -4  -9   66.99   10.30
   4  -4  -9   57.79    7.00
   4  -4  -9   52.19    5.40
   4  -4  -9   56.69   11.10
   4  -4  -9   66.39    6.50
   4   4  -9   62.99   10.80
   4   4  -9   67.39    6.80
   4   4  -9   66.99   10.80
  -3  -4   9   50.29    8.30
   3  -4  -9   65.99    7.50
   3  -4  -9   56.99    6.90
   3  -4  -9   65.69    8.20
  -3  -4   9   47.90    6.80
   3  -4  -9   69.19   12.90
   3  -4  -9   55.19   13.90
   3  -4  -9   43.90    8.10
  -3   4   9   53.19    7.40
   3   4  -9   58.59   12.00
   3   4  -9   32.90    7.30
   3   4  -9   65.89   13.20
   2  -4  -9    8.20    3.80
   2  -4  -9    5.70    6.50
  -2  -4   9    6.40    4.30
  -2  -4   9    6.10    4.40
   2  -4  -9   16.30   10.90
  -2   4   9   -0.10    4.60
   2   4  -9   10.90    8.00
   2   4  -9    5.90    7.60
  -1  -4   9   74.99    8.90
   1  -4  -9   77.39   13.30
  -1  -4   9   47.90    7.50
  -1   4   9   61.19    8.30
   1   4  -9   55.09   12.50
   1   4  -9   63.69   13.70
   0  -4  -9   75.09   13.70
   0  -4  -9   99.59   12.00
   0  -4   9   72.09    8.30
   0   4   9   61.09    6.90
   0   4  -9   65.89   12.50
   0   4  -9   61.29   11.50
  -1  -4  -9   11.00    4.50
  -1   4  -9    4.80    4.70
   4  -5  -9    5.60    4.30
   4  -5  -9    3.60    3.10
   4  -5  -9    4.10    1.80
  -4  -5   9    4.00    3.10
  -4  -5   9    0.20    3.90
   4  -5  -9   11.30    7.00
   4  -5  -9    7.60    3.50
   4  -5  -9    4.20    2.60
   4   5  -9   10.80    5.80
   4   5  -9    5.40    4.90
  -3  -5   9   29.80    6.40
   3  -5  -9   35.10    5.10
   3  -5  -9   29.70    5.30
   3  -5  -9   37.10    6.20
   3  -5  -9   31.00    6.60
   3  -5  -9   30.10    9.00
   3  -5  -9   29.40   11.20
   3   5  -9   37.50   10.70
  -3   5   9   18.30    4.90
   3   5  -9   32.40    9.50
   2  -5  -9   80.29    9.00
   2  -5  -9  102.89   15.60
  -2  -5   9   92.99   10.10
  -2  -5   9   86.69   10.50
   2  -5  -9   76.59   17.10
   2  -5  -9   88.79   10.20
  -2   5   9  108.19   12.00
   2   5  -9  107.79   16.70
   2   5  -9  108.89   17.70
   1  -5  -9   36.20    9.40
   1  -5  -9   23.40   10.80
  -1  -5   9   19.90    5.50
  -1  -5   9   14.90    4.70
   1   5  -9   22.60    9.60
   1   5  -9   29.30    9.90
  -1   5   9   22.80    5.50
   0  -5   9   30.00    5.10
   0  -5  -9   37.60    8.10
   0  -5  -9   50.39   11.50
   0   5   9   22.70    4.10
   0   5  -9   28.20    9.10
  -1  -5  -9   53.69    7.30
  -1   5  -9   48.30    8.70
   4  -6  -9   41.00    7.60
   4  -6  -9   28.90    7.80
   4  -6  -9   42.00    4.90
   4  -6  -9   32.00    5.20
   4  -6  -9   40.60    5.40
  -4  -6   9   34.20    5.00
  -4  -6   9   25.60    6.10
   4  -6  -9   26.50    3.70
   4   6  -9   45.50    8.60
   3  -6  -9   15.30    9.70
   3  -6  -9    3.80    3.90
  -3  -6   9   11.10    4.40
  -3  -6   9    3.00    5.00
   3  -6  -9    9.50    4.20
   3  -6  -9   11.70    3.40
   3  -6  -9   14.80    6.60
   3  -6  -9   19.00    4.10
  -3   6   9   10.10    3.80
   3   6  -9    9.80    6.90
   3   6  -9   13.30    8.40
   2  -6  -9   24.30    4.80
  -2  -6   9   17.90    5.00
   2  -6  -9   31.70    6.20
   2  -6  -9   34.50   12.30
  -2  -6   9   22.30    5.50
   2  -6  -9   19.30    7.80
   2   6  -9   37.70   11.00
  -2   6   9   19.40    5.30
   2   6  -9   19.30    8.80
   1  -6  -9   87.69   15.40
   1  -6  -9   74.19   12.50
  -1  -6   9   57.49    8.10
  -1  -6   9   74.39    8.90
   1   6  -9   95.59   15.80
  -1   6   9   80.79    9.60
   0  -6   9   18.40    4.00
   0  -6  -9   30.40    7.10
   0  -6  -9   21.30    9.10
   0   6  -9   17.50    8.10
   0   6   9   13.40    4.20
  -1   6  -9    7.10    6.00
   4  -7  -9    8.80    5.70
   4  -7  -9    8.70    2.60
   4  -7  -9    2.30    2.60
  -4  -7   9    1.30    3.10
   4  -7  -9    6.00    3.00
   4  -7  -9    5.20    1.60
   4   7  -9    7.10    4.70
  -3  -7   9   46.20    6.70
   3  -7  -9   39.90    6.80
   3  -7  -9   53.09    9.70
   3  -7  -9   42.50   11.70
   3  -7  -9   48.00    6.70
   3  -7  -9   43.40    5.50
   3  -7  -9   47.60    6.00
  -3  -7   9   33.40    7.60
   3   7  -9   61.09   12.00
  -2  -7   9  104.09   11.50
   2  -7  -9  123.79   14.80
   2  -7  -9   99.29   11.10
   2  -7  -9  102.09   18.00
  -2  -7   9  107.19   10.30
   2  -7  -9  103.69    9.80
   2   7  -9  122.69   16.80
   1  -7  -9   27.50   10.50
  -1  -7   9   39.90    6.10
  -1  -7   9   19.60    4.90
   1  -7  -9   49.00    9.70
   1   7  -9   23.80    9.20
  -1   7   9   34.00    5.60
   0  -7  -9   36.30    7.20
   0  -7   9   24.80    4.20
   0  -7  -9   28.30    8.90
   0   7  -9   28.90    9.00
   4  -8  -9   40.40    7.40
   4  -8  -9   49.70    6.70
   3  -8  -9   27.30    6.70
   3  -8  -9   14.40    4.40
   3  -8  -9   18.00    3.50
  -3  -8   9    7.30    4.80
   3  -8  -9   18.70    8.50
   3  -8  -9   18.40    3.90
  -3  -8   9   17.90    4.60
   3  -8  -9   20.50    4.70
   3   8  -9   38.60    9.40
   2  -8  -9   24.10   10.10
   2  -8  -9   22.60    7.10
   2  -8  -9   22.10    5.30
   2  -8  -9   22.00    4.10
  -2  -8   9   22.70    4.50
  -2  -8   9   17.20    4.90
   2   8  -9   13.40    8.20
  -1  -8   9   48.40    6.60
   1  -8  -9   75.59   11.10
   1  -8  -9   59.99   12.90
  -1  -8   9   63.89    7.70
   1   8  -9   63.89   12.10
  -1   8   9   57.09    7.30
   0  -8   9   52.49    6.00
   0  -8  -9   58.59    8.00
   0  -8  -9   45.40    9.80
   0   8  -9   70.39   11.90
   3  -9  -9   51.99    6.90
   3  -9  -9   60.59    7.00
   3  -9  -9   52.29   10.80
   3  -9  -9   54.39    6.00
  -3  -9   9   45.90    7.70
   3  -9  -9   53.79    5.80
  -3  -9   9   52.99    6.60
   3   9  -9   78.39   11.60
   2  -9  -9   51.69    6.20
  -2  -9   9   52.59    7.10
   2  -9  -9   64.99   10.00
   2  -9  -9   58.09   12.60
  -2  -9   9   56.79    6.60
   2  -9  -9   62.99    7.60
   2   9  -9   53.49   11.20
  -1  -9   9   -1.50    2.70
   1  -9  -9    2.20    7.00
   1  -9  -9    5.20    3.80
  -1  -9   9    3.20    3.10
   1  -9  -9    1.90    4.10
  -1   9   9   -0.10    2.70
   1   9  -9    3.60    6.20
   0  -9  -9   26.20    6.50
   0  -9   9   20.20    3.50
   0  -9  -9   35.80    8.40
   0   9  -9   38.40    8.50
   3 -10  -9   25.60    4.70
   3 -10  -9   37.20    5.20
   3 -10  -9   30.00    8.10
   3 -10  -9   25.30    3.80
   3 -10  -9   42.30    4.70
  -3 -10   9   33.60    4.60
   3  10  -9   34.70    7.60
   2 -10  -9    2.00    2.10
  -2 -10   9    0.40    2.60
  -2 -10   9    0.20    2.70
   2 -10  -9    4.70    3.40
   2 -10  -9    0.80    6.20
   2  10  -9    4.40    6.30
  -1 -10   9   72.79    7.30
   1 -10  -9   60.19   11.30
   1 -10  -9   77.09    7.70
  -1 -10   9   52.19    6.50
   1  10  -9   71.89   11.40
  -1  10   9   59.99    6.70
   0 -10   9   45.20    4.90
   0 -10  -9   42.50    8.40
   3 -11  -9   25.40    3.40
  -3 -11   9   27.80    4.10
   3 -11  -9   31.00    4.40
   2 -11  -9   40.40    5.50
   2 -11  -9   31.70    4.00
   2 -11  -9   29.20    8.60
  -2 -11   9   36.40    4.40
  -2 -11   9   31.30    4.80
   2  11  -9   53.49    9.70
   1 -11  -9   13.00    4.10
  -1 -11   9   11.10    3.10
   1 -11  -9    9.00    6.00
  -1  11   9   17.90    3.00
   1  11  -9   17.80    6.70
  -2 -12   9    4.40    2.50
   2 -12  -9    3.70    2.90
   2 -12  -9    7.80    5.10
  -1 -12   9   37.90    4.60
   1 -12  -9   41.60    7.90
   3   0 -10   91.99   10.00
  -3   0  10   63.89    6.80
  -2   0  10   37.30    4.90
  -2   0  10   26.90    4.70
   2   0 -10   44.20    9.00
   2   0 -10   58.09    9.20
   1   0 -10   35.30    7.10
  -1   0  10   25.80    4.00
   3  -1 -10   17.30    5.40
   3   1 -10    5.00    4.50
  -2  -1  10   17.90    3.60
  -2  -1  10   18.10    3.60
   2  -1 -10   31.00    7.10
   2   1 -10   39.60    7.50
   2   1 -10   37.80    7.80
   1  -1 -10   37.90    7.50
  -1  -1  10   31.20    4.20
  -1   1  10   44.60    5.00
   1   1 -10   48.00    8.30
  -3  -2  10   28.40    4.20
   3  -2 -10   45.20    7.10
  -3   2  10   14.60    3.20
  -2  -2  10   19.60    3.40
   2  -2 -10   25.00    6.80
  -2  -2  10    9.30    2.90
   2   2 -10   20.70    6.00
  -2   2  10   21.60    3.80
   2   2 -10   29.20    7.00
  -1  -2  10    3.80    2.10
   1  -2 -10   11.70    5.00
   1   2 -10   24.30    5.90
  -3  -3  10   -1.00    2.60
  -2  -3  10   48.30    5.60
  -2  -3  10   45.10    6.40
   2  -3 -10   72.69    9.00
   2   3 -10   77.59    9.90
   2   3 -10   82.49   12.90
  -2   3  10   76.69    7.20
   1  -3 -10   62.29    8.00
  -1  -3  10   50.19    5.50
   1   3 -10   49.40    8.10
  -1   3  10   55.89    5.70
   2  -4 -10    8.90    4.40
  -2  -4  10    7.00    2.50
   2   4 -10   11.70    5.00
  -2   4  10   14.40    3.00
   1  -4 -10    8.90    4.10
  -1  -4  10    9.50    2.40
   1   4 -10   23.30    6.60
   2  -5 -10   37.90   10.10
   2   5 -10   27.10    6.30
  -2   5  10   25.40    3.60
   0   0   0    0.00    0.00

_computing_structure_solution     'SHELXT 2014/5 (Sheldrick, 2014)'
;
_shelx_hkl_checksum              24545
_olex2_submission_special_instructions 'No special instructions were received'
loop_
_space_group_symop_operation_xyz
'x, y, z'
'-x, y+1/2, -z'
loop_
_atom_site_label
_atom_site_type_symbol
_atom_site_fract_x
_atom_site_fract_y
_atom_site_fract_z
_atom_site_U_iso_or_equiv
_atom_site_adp_type
_atom_site_occupancy
_atom_site_site_symmetry_order
_atom_site_calc_flag
_atom_site_refinement_flags_posn
I1 I 0.34845(16) 0.11137(5) 0.10061(11) 0.0515(3) Uani 1 1 d .
O1 O 0.409(2) 0.0703(5) 0.7553(13) 0.047(2) Uani 1 1 d .
C1 C 0.327(3) 0.0908(7) 0.6167(19) 0.042(3) Uani 1 1 d .
S1 S 0.6437(6) -0.04339(15) 0.4916(5) 0.0407(7) Uani 1 1 d .
N1 N 0.174(2) 0.1419(5) 0.5685(16) 0.040(2) Uani 1 1 d .
N2 N 0.385(2) -0.0009(5) 0.4410(17) 0.042(3) Uani 1 1 d .
H2 H 0.269574 -0.015197 0.484702 0.051 Uiso 1 1 d R
C2 C 0.393(2) 0.0666(6) 0.4588(18) 0.039(3) Uani 1 1 d .
H2A H 0.571413 0.081032 0.463079 0.047 Uiso 1 1 calc R
O2 O -0.2226(19) 0.1794(6) 0.7052(17) 0.056(3) Uani 1 1 d .
O3 O 0.040(2) 0.2509(5) 0.8628(17) 0.050(3) Uani 1 1 d .
C3 C 0.201(3) 0.0988(6) 0.3117(18) 0.042(3) Uani 1 1 d .
H3 H 0.042733 0.072005 0.275279 0.051 Uiso 1 1 calc R
N3 N 0.364(2) -0.1374(6) 0.6914(18) 0.047(3) Uani 1 1 d .
C4 C 0.126(3) 0.1585(7) 0.3890(19) 0.044(3) Uani 1 1 d .
H4 H -0.062487 0.167281 0.338355 0.053 Uiso 1 1 calc R
O4 O 0.8475(19) -0.0051(5) 0.4682(15) 0.047(2) Uani 1 1 d .
O5 O 0.583(2) -0.1006(5) 0.4027(16) 0.051(2) Uani 1 1 d .
C5 C 0.281(3) 0.2188(7) 0.402(2) 0.046(3) Uani 1 1 d .
H5A H 0.218764 0.244347 0.298915 0.056 Uiso 1 1 calc R
H5B H 0.468045 0.210442 0.422717 0.056 Uiso 1 1 calc R
O6 O 0.213(2) -0.1113(5) 0.5737(16) 0.055(3) Uani 1 1 d .
C6 C 0.224(3) 0.2506(7) 0.554(2) 0.048(3) Uani 1 1 d .
H6A H 0.059757 0.274113 0.518862 0.058 Uiso 1 1 calc R
H6B H 0.365768 0.279558 0.609144 0.058 Uiso 1 1 calc R
C7 C 0.205(3) 0.1970(6) 0.675(2) 0.043(3) Uani 1 1 d .
H7 H 0.370004 0.193961 0.767956 0.051 Uiso 1 1 calc R
O7 O 0.332(2) -0.1901(5) 0.7378(18) 0.059(3) Uani 1 1 d .
C8 C -0.021(3) 0.2063(7) 0.7474(18) 0.043(3) Uani 1 1 d .
C9 C -0.155(3) 0.2629(9) 0.949(2) 0.057(4) Uani 1 1 d .
H9A H -0.314917 0.277050 0.867334 0.085 Uiso 1 1 calc GR
H9B H -0.092617 0.295127 1.034137 0.085 Uiso 1 1 calc GR
H9C H -0.189429 0.224607 1.002818 0.085 Uiso 1 1 calc GR
C10 C 0.725(3) -0.0607(6) 0.713(2) 0.045(3) Uani 1 1 d .
C11 C 0.598(3) -0.1035(7) 0.789(2) 0.044(3) Uani 1 1 d .
C12 C 0.676(4) -0.1155(9) 0.956(3) 0.058(4) Uani 1 1 d .
H12 H 0.580936 -0.143891 1.004169 0.069 Uiso 1 1 calc R
C13 C 0.893(4) -0.0861(9) 1.057(3) 0.062(4) Uani 1 1 d .
H13 H 0.950982 -0.094839 1.174160 0.074 Uiso 1 1 calc R
C14 C 1.025(3) -0.0445(8) 0.988(3) 0.058(4) Uani 1 1 d .
H14 H 1.173962 -0.024334 1.057508 0.070 Uiso 1 1 calc R
C15 C 0.943(3) -0.0313(7) 0.817(2) 0.049(4) Uani 1 1 d .
H15 H 1.035933 -0.002123 0.770386 0.058 Uiso 1 1 calc R
loop_
_atom_site_aniso_label
_atom_site_aniso_U_11
_atom_site_aniso_U_22
_atom_site_aniso_U_33
_atom_site_aniso_U_23
_atom_site_aniso_U_13
_atom_site_aniso_U_12
I1 0.0542(5) 0.0529(5) 0.0493(5) 0.0051(5) 0.0178(3) 0.0016(5)
O1 0.052(6) 0.048(5) 0.043(6) 0.005(4) 0.019(4) 0.008(4)
C1 0.033(6) 0.040(7) 0.054(8) -0.001(5) 0.015(6) -0.003(4)
S1 0.0360(14) 0.0389(14) 0.0494(18) 0.0003(12) 0.0159(13) 0.0026(12)
N1 0.033(5) 0.038(5) 0.047(7) 0.000(5) 0.011(5) 0.004(4)
N2 0.033(6) 0.041(6) 0.054(8) 0.005(5) 0.014(5) 0.003(5)
C2 0.033(6) 0.043(6) 0.043(7) -0.001(5) 0.010(5) 0.004(5)
O2 0.032(5) 0.061(6) 0.073(8) -0.014(5) 0.013(5) 0.001(4)
O3 0.035(5) 0.052(5) 0.065(7) -0.009(5) 0.017(5) 0.000(4)
C3 0.037(6) 0.042(8) 0.047(7) 0.000(5) 0.009(5) 0.003(5)
N3 0.040(6) 0.049(6) 0.056(8) 0.004(5) 0.021(5) -0.002(5)
C4 0.040(7) 0.042(7) 0.051(9) 0.004(5) 0.013(6) 0.004(5)
O4 0.038(5) 0.043(5) 0.062(7) 0.005(4) 0.018(4) 0.005(4)
O5 0.040(5) 0.043(5) 0.069(7) 0.001(5) 0.013(5) 0.004(4)
C5 0.053(9) 0.041(7) 0.043(8) 0.005(6) 0.008(7) -0.003(6)
O6 0.042(5) 0.047(5) 0.071(8) 0.006(5) 0.008(5) 0.001(4)
C6 0.056(8) 0.041(6) 0.045(8) 0.002(5) 0.010(6) 0.002(6)
C7 0.038(6) 0.038(6) 0.053(8) -0.001(6) 0.014(6) 0.006(5)
O7 0.056(6) 0.047(6) 0.074(8) 0.013(5) 0.018(6) -0.009(5)
C8 0.038(7) 0.045(7) 0.046(8) -0.001(5) 0.012(6) 0.003(5)
C9 0.043(8) 0.067(10) 0.063(10) -0.018(8) 0.019(7) 0.005(7)
C10 0.039(7) 0.040(7) 0.055(9) 0.001(6) 0.014(6) 0.001(5)
C11 0.037(6) 0.045(7) 0.051(8) 0.003(6) 0.012(6) 0.003(5)
C12 0.060(9) 0.058(9) 0.059(10) 0.009(8) 0.021(7) -0.003(7)
C13 0.065(10) 0.063(10) 0.056(10) 0.006(8) 0.014(8) -0.003(8)
C14 0.049(8) 0.053(8) 0.068(11) -0.004(8) 0.011(7) -0.004(7)
C15 0.034(6) 0.040(7) 0.075(12) 0.007(7) 0.020(7) 0.000(5)
loop_
_atom_type_symbol
_atom_type_description
_atom_type_scat_dispersion_real
_atom_type_scat_dispersion_imag
_atom_type_scat_source
C C 0.0181 0.0091 'International Tables Vol C Tables 4.2.6.8 and 6.1.1.4'
H H 0.0000 0.0000 'International Tables Vol C Tables 4.2.6.8 and 6.1.1.4'
I I -0.3257 6.8362 'International Tables Vol C Tables 4.2.6.8 and 6.1.1.4'
N N 0.0311 0.0180 'International Tables Vol C Tables 4.2.6.8 and 6.1.1.4'
O O 0.0492 0.0322 'International Tables Vol C Tables 4.2.6.8 and 6.1.1.4'
S S 0.3331 0.5567 'International Tables Vol C Tables 4.2.6.8 and 6.1.1.4'
loop_
_geom_angle_atom_site_label_1
_geom_angle_atom_site_label_2
_geom_angle_atom_site_label_3
_geom_angle
O1 C1 N1 127.5(14)
O1 C1 C2 125.5(13)
N1 C1 C2 106.8(12)
N2 S1 C10 108.9(7)
O4 S1 N2 106.1(6)
O4 S1 C10 106.5(7)
O5 S1 N2 107.4(7)
O5 S1 O4 119.9(7)
O5 S1 C10 107.7(7)
C1 N1 C4 114.1(12)
C1 N1 C7 121.3(12)
C7 N1 C4 111.8(11)
C2 N2 S1 122.4(10)
N2 C2 C1 114.5(12)
N2 C2 C3 112.1(12)
C3 C2 C1 104.9(11)
C8 O3 C9 114.7(12)
C2 C3 I1 112.7(9)
C2 C3 C4 104.1(11)
C4 C3 I1 116.0(9)
O6 N3 O7 124.0(13)
O6 N3 C11 118.9(12)
O7 N3 C11 117.1(13)
N1 C4 C3 103.1(11)
N1 C4 C5 101.4(12)
C5 C4 C3 122.3(12)
C4 C5 C6 101.7(13)
C5 C6 C7 105.4(12)
N1 C7 C6 103.2(12)
N1 C7 C8 112.4(12)
C8 C7 C6 111.5(12)
O2 C8 O3 125.4(13)
O2 C8 C7 125.8(14)
O3 C8 C7 108.7(12)
C11 C10 S1 125.9(12)
C11 C10 C15 117.0(15)
C15 C10 S1 117.0(12)
C10 C11 N3 121.8(14)
C12 C11 N3 115.6(14)
C12 C11 C10 122.6(15)
C11 C12 C13 119.5(16)
C14 C13 C12 119.8(18)
C13 C14 C15 120.7(16)
C14 C15 C10 120.3(14)
loop_
_geom_bond_atom_site_label_1
_geom_bond_atom_site_label_2
_geom_bond_distance
I1 C3 2.136(15)
O1 C1 1.194(18)
C1 N1 1.363(17)
C1 C2 1.54(2)
S1 N2 1.620(12)
S1 O4 1.428(11)
S1 O5 1.423(12)
S1 C10 1.804(17)
N1 C4 1.48(2)
N1 C7 1.458(18)
N2 C2 1.457(18)
C2 C3 1.526(19)
O2 C8 1.192(19)
O3 C8 1.329(18)
O3 C9 1.448(19)
C3 C4 1.54(2)
N3 O6 1.214(18)
N3 O7 1.225(17)
N3 C11 1.48(2)
C4 C5 1.53(2)
C5 C6 1.54(2)
C6 C7 1.55(2)
C7 C8 1.516(19)
C10 C11 1.40(2)
C10 C15 1.40(2)
C11 C12 1.36(3)
C12 C13 1.39(3)
C13 C14 1.36(3)
C14 C15 1.39(3)
loop_
_geom_hbond_atom_site_label_D
_geom_hbond_atom_site_label_H
_geom_hbond_atom_site_label_A
_geom_hbond_distance_DH
_geom_hbond_distance_HA
_geom_hbond_distance_DA
_geom_hbond_angle_DHA
_geom_hbond_site_symmetry_A
_geom_hbond_publ_flag
N2 H2 O4 0.86 2.25 2.966(16) 141.1 1_455 yes
N2 H2 O6 0.86 2.24 2.877(17) 130.5 . yes
loop_
_geom_torsion_atom_site_label_1
_geom_torsion_atom_site_label_2
_geom_torsion_atom_site_label_3
_geom_torsion_atom_site_label_4
_geom_torsion
I1 C3 C4 N1 -149.7(9)
I1 C3 C4 C5 -36.9(17)
O1 C1 N1 C4 174.4(14)
O1 C1 N1 C7 36(2)
O1 C1 C2 N2 45.6(19)
O1 C1 C2 C3 168.9(14)
C1 N1 C4 C3 17.1(14)
C1 N1 C4 C5 -110.3(13)
C1 N1 C7 C6 129.1(13)
C1 N1 C7 C8 -110.7(14)
C1 C2 C3 I1 151.5(9)
C1 C2 C3 C4 24.9(14)
S1 N2 C2 C1 -100.3(13)
S1 N2 C2 C3 140.4(11)
S1 C10 C11 N3 -4(2)
S1 C10 C11 C12 177.9(13)
S1 C10 C15 C14 -177.0(12)
N1 C1 C2 N2 -138.6(11)
N1 C1 C2 C3 -15.3(14)
N1 C4 C5 C6 -39.7(13)
N1 C7 C8 O2 -12(2)
N1 C7 C8 O3 170.2(12)
N2 S1 C10 C11 75.2(14)
N2 S1 C10 C15 -108.7(12)
N2 C2 C3 I1 -83.6(12)
N2 C2 C3 C4 149.8(11)
C2 C1 N1 C4 -1.3(15)
C2 C1 N1 C7 -139.8(12)
C2 C3 C4 N1 -25.2(13)
C2 C3 C4 C5 87.6(16)
C3 C4 C5 C6 -153.3(13)
N3 C11 C12 C13 179.8(16)
C4 N1 C7 C6 -10.2(15)
C4 N1 C7 C8 110.0(13)
C4 C5 C6 C7 34.9(15)
O4 S1 N2 C2 -28.8(14)
O4 S1 C10 C11 -170.7(12)
O4 S1 C10 C15 5.4(13)
O5 S1 N2 C2 -158.2(12)
O5 S1 C10 C11 -40.9(14)
O5 S1 C10 C15 135.1(12)
C5 C6 C7 N1 -16.0(15)
C5 C6 C7 C8 -136.8(13)
O6 N3 C11 C10 -33(2)
O6 N3 C11 C12 144.6(15)
C6 C7 C8 O2 103.7(18)
C6 C7 C8 O3 -74.5(15)
C7 N1 C4 C3 159.5(11)
C7 N1 C4 C5 32.1(14)
O7 N3 C11 C10 147.8(14)
O7 N3 C11 C12 -34(2)
C9 O3 C8 O2 5(2)
C9 O3 C8 C7 -177.2(13)
C10 S1 N2 C2 85.5(13)
C10 C11 C12 C13 -2(3)
C11 C10 C15 C14 -1(2)
C11 C12 C13 C14 1(3)
C12 C13 C14 C15 0(3)
C13 C14 C15 C10 0(3)
C15 C10 C11 N3 179.7(13)
C15 C10 C11 C12 2(2)
loop_
_twin_individual_id
_twin_individual_mass_fraction_refined
1 1.006(18)
2 -0.006(18)
