#------------------------------------------------------------------------------
#$Date: 2017-09-28 15:45:26 +0300 (Thu, 28 Sep 2017) $
#$Revision: 201415 $
#$URL: file:///home/coder/svn-repositories/cod/cif/1/54/74/1547413.cif $
#------------------------------------------------------------------------------
#
# This file is available in the Crystallography Open Database (COD),
# http://www.crystallography.net/
#
# All data on this site have been placed in the public domain by the
# contributors.
#
data_1547413
loop_
_publ_author_name
'Anuradha R. Pallipurath'
'Jonathan M. Skelton'
'Mark R. Warren'
'Naghmeh Kamali'
'Patrick McArdle'
'Andrea Erxleben'
_publ_section_title
;
 Sulfamerazine: Understanding the Influence of Slip Planes in the
 Polymorphic Phase Transformation through X-Ray Crystallographic Studies
 and ab Initio Lattice Dynamics
;
_journal_name_full               'Molecular Pharmaceutics'
_journal_page_first              3735
_journal_page_last               3748
_journal_paper_doi               10.1021/acs.molpharmaceut.5b00504
_journal_volume                  12
_journal_year                    2015
_chemical_absolute_configuration ad
_chemical_formula_moiety         'C11 H12 N4 O2 S'
_chemical_formula_sum            'C11 H12 N4 O2 S'
_chemical_formula_weight         264.31
_chemical_name_common            Sulfamerazine
_chemical_name_systematic        4-amino-N-(4-methylpyrimidin-2-yl)
_space_group_crystal_system      orthorhombic
_space_group_IT_number           33
_space_group_name_Hall           'P 2c -2n'
_space_group_name_H-M_alt        'P n a 21'
_symmetry_space_group_name_Hall  'P 2c -2n'
_symmetry_space_group_name_H-M   'P n a 21'
_atom_sites_solution_hydrogens   mixed
_cell_angle_alpha                90
_cell_angle_beta                 90
_cell_angle_gamma                90
_cell_formula_units_Z            8
_cell_length_a                   14.45880(10)
_cell_length_b                   8.18000(10)
_cell_length_c                   21.7664(2)
_cell_measurement_reflns_used    12096
_cell_measurement_temperature    150
_cell_measurement_theta_max      29.4840
_cell_measurement_theta_min      1.8120
_cell_volume                     2574.38(4)
_computing_molecular_graphics    OSCAIL
_computing_structure_refinement  'SHELXL-2014/7 (Sheldrick, 2014)'
_computing_structure_solution    SHELXT
_diffrn_ambient_temperature      150
_diffrn_measured_fraction_theta_full 0.998
_diffrn_measured_fraction_theta_max 0.998
_diffrn_measurement_device       'CrystalLogic Kappa (3 circle)'
_diffrn_measurement_device_type  'Rigaku Saturn724+ (2x2 bin mode)'
_diffrn_measurement_method
;
omega rotation with 1 degree frames
;
_diffrn_measurement_specimen_support 'MiTeGen loop'
_diffrn_radiation_monochromator  'double crystal Silicon 111'
_diffrn_radiation_source         'Diamond Light Source Beamline I19'
_diffrn_radiation_type           Synchrotron
_diffrn_radiation_wavelength     0.68890
_diffrn_reflns_av_R_equivalents  0.0464
_diffrn_reflns_av_unetI/netI     0.0445
_diffrn_reflns_Laue_measured_fraction_full 0.998
_diffrn_reflns_Laue_measured_fraction_max 0.998
_diffrn_reflns_limit_h_max       13
_diffrn_reflns_limit_h_min       -20
_diffrn_reflns_limit_k_max       11
_diffrn_reflns_limit_k_min       -11
_diffrn_reflns_limit_l_max       26
_diffrn_reflns_limit_l_min       -31
_diffrn_reflns_number            23152
_diffrn_reflns_point_group_measured_fraction_full 0.988
_diffrn_reflns_point_group_measured_fraction_max 0.967
_diffrn_reflns_theta_full        24.415
_diffrn_reflns_theta_max         29.468
_diffrn_reflns_theta_min         1.814
_exptl_absorpt_coefficient_mu    0.252
_exptl_absorpt_correction_T_max  1.00000
_exptl_absorpt_correction_T_min  0.79234
_exptl_absorpt_correction_type   multi-scan
_exptl_absorpt_process_details
;
CrysAlisPro, Agilent Technologies,
Version 1.171.36.28 (release 01-02-2013 CrysAlis171 .NET)
Empirical absorption correction using spherical harmonics,
implemented in SCALE3 ABSPACK scaling algorithm.
;
_exptl_crystal_colour            Colourless
_exptl_crystal_density_diffrn    1.364
_exptl_crystal_description       Parallelepiped
_exptl_crystal_F_000             1104
_exptl_crystal_size_max          0.50
_exptl_crystal_size_mid          0.40
_exptl_crystal_size_min          0.20
_refine_diff_density_max         0.331
_refine_diff_density_min         -0.389
_refine_diff_density_rms         0.055
_refine_ls_abs_structure_details
;
 Flack x determined using 2656 quotients [(I+)-(I-)]/[(I+)+(I-)]
 (Parsons, Flack and Wagner, Acta Cryst. B69 (2013) 249-259).
;
_refine_ls_abs_structure_Flack   0.06(4)
_refine_ls_extinction_coef       .
_refine_ls_extinction_method     none
_refine_ls_goodness_of_fit_ref   1.054
_refine_ls_hydrogen_treatment    mixed
_refine_ls_matrix_type           full
_refine_ls_number_parameters     344
_refine_ls_number_reflns         7597
_refine_ls_number_restraints     1
_refine_ls_restrained_S_all      1.054
_refine_ls_R_factor_all          0.0524
_refine_ls_R_factor_gt           0.0433
_refine_ls_shift/su_max          0.000
_refine_ls_shift/su_mean         0.000
_refine_ls_structure_factor_coef Fsqd
_refine_ls_weighting_details
'w=1/[\s^2^(Fo^2^)+(0.0541P)^2^+0.3587P] where P=(Fo^2^+2Fc^2^)/3'
_refine_ls_weighting_scheme      calc
_refine_ls_wR_factor_gt          0.1051
_refine_ls_wR_factor_ref         0.1141
_reflns_Friedel_coverage         0.893
_reflns_Friedel_fraction_full    0.977
_reflns_Friedel_fraction_max     0.934
_reflns_number_gt                6575
_reflns_number_total             7597
_reflns_threshold_expression     'I > 2\s(I)'
_cod_data_source_file            Exp_Form-I2FSynchrotron_Form-I_150K.cif
_cod_data_source_block           150k_smz-f1_a
_cod_database_code               1547413
_shelx_space_group_comment
;
The symmetry employed for this shelxl refinement is uniquely defined
by the following loop, which should always be used as a source of
symmetry information in preference to the above space-group names.
They are only intended as comments.
;
_shelx_estimated_absorpt_t_min   0.885
_shelx_estimated_absorpt_t_max   0.951
_shelx_res_file
;
    150k_smz-f1_a.res created by SHELXL-2014/7
TITL 150k_smz-f1_a.res in Pna2(1)
REM Old TITL 017_150K_SulfamerazineF1_ in Pna2(1)
REM SHELXT solution in Pna2(1)
REM R1 0.087,  Rweak 0.014,  Alpha 0.002,  Orientation as input
REM Flack x =  0.089 ( 0.042 ) from Parsons' quotients
REM Formula found by SHELXT:  C25 N5 O4 S2
CELL  0.68890  14.4588   8.1800  21.7664   90.000   90.000   90.000
ZERR    8.000   0.0001   0.0001   0.0002    0.000    0.000    0.000
REM SG 33 4 4 Pna21 PGmm2 Orthorhombic
LATT -1
REM SG  ASUN  1  .5 .5 1.
REM SG  ORGN  on 2(1)
SYMM -X,-Y,0.5+Z
SYMM 0.5+X,0.5-Y,Z
SYMM 0.5-X,0.5+Y,0.5+Z
SFAC C H N O S
UNIT 88.00 96.00 32.00 16.00 8.00
L.S. 10
SIZE    0.50  0.40  0.20
BOND $H
FMAP 2
PLAN 20
ACTA
CONF
EQIV $1 x, y-1, z
HTAB N5 O4_$1
EQIV $2 -x+3/2, y+1/2, z-1/2
HTAB N1 O4_$2
EQIV $3 x, y+1, z
HTAB N1 O1_$3
HTAB N2 N8
HTAB N6 N4
LIST 4
WGHT    0.054100    0.358700
FVAR       0.53768   0.35344
S1    5    0.643460    0.494300    0.343483    11.00000    0.01845    0.02030 =
         0.01886    0.00165   -0.00081   -0.00112
S2    5    0.578186    0.498577    0.653393    11.00000    0.01844    0.01984 =
         0.01815    0.00215   -0.00091   -0.00151
O1    4    0.686684    0.369423    0.307418    11.00000    0.03161    0.02049 =
         0.02498   -0.00394   -0.00010   -0.00085
O2    4    0.545844    0.521722    0.336935    11.00000    0.01956    0.03109 =
         0.02507    0.00546   -0.00314   -0.00233
O3    4    0.676010    0.471212    0.659802    11.00000    0.01779    0.03174 =
         0.02341    0.00382   -0.00352   -0.00240
O4    4    0.535823    0.625380    0.689018    11.00000    0.02860    0.02007 =
         0.02583   -0.00131   -0.00045   -0.00107
N1    3    0.840896    1.117799    0.312196    11.00000    0.02734    0.02128 =
         0.03914   -0.00496    0.01105   -0.00324
N2    3    0.652939    0.446489    0.417003    11.00000    0.01714    0.02829 =
         0.02062    0.00541    0.00052    0.00060
N3    3    0.812691    0.407686    0.416254    11.00000    0.01852    0.02499 =
         0.02523    0.00153    0.00040    0.00100
N4    3    0.727489    0.432564    0.509743    11.00000    0.02551    0.05335 =
         0.02239    0.00287   -0.00135    0.01096
N5    3    0.380014   -0.120626    0.694349    11.00000    0.03159    0.02067 =
         0.05728   -0.00277    0.01125   -0.00498
AFIX  93
H5A   2    0.406986   -0.212226    0.686929    11.00000   -1.30000
H5B   2    0.323816   -0.119409    0.707282    11.00000   -1.30000
AFIX   0
N6    3    0.568443    0.542288    0.579702    11.00000    0.01853    0.03227 =
         0.02016    0.00663    0.00078    0.00095
N7    3    0.409226    0.588723    0.580881    11.00000    0.02042    0.02672 =
         0.02529   -0.00037   -0.00074    0.00272
N8    3    0.494572    0.565663    0.487263    11.00000    0.02351    0.05286 =
         0.02211    0.00246   -0.00134    0.00855
C1    1    0.702473    0.677111    0.333669    11.00000    0.01826    0.01962 =
         0.02024    0.00213    0.00155   -0.00010
C2    1    0.792348    0.678452    0.310119    11.00000    0.02084    0.02022 =
         0.01810    0.00044   -0.00142    0.00236
AFIX  43
H2    2    0.821151    0.580883    0.299397    11.00000   -1.30000
AFIX   0
C3    1    0.838177    0.824946    0.302834    11.00000    0.01855    0.02314 =
         0.01814   -0.00104    0.00424    0.00081
AFIX  43
H3    2    0.898016    0.825735    0.287167    11.00000   -1.30000
AFIX   0
C4    1    0.795256    0.973282    0.318883    11.00000    0.02218    0.02265 =
         0.01779   -0.00242   -0.00085   -0.00151
C5    1    0.704425    0.970115    0.342662    11.00000    0.02238    0.02156 =
         0.02369   -0.00239    0.00429    0.00112
AFIX  43
H5    2    0.675129    1.067274    0.353323    11.00000   -1.30000
AFIX   0
C6    1    0.658979    0.822722    0.350117    11.00000    0.01877    0.02304 =
         0.02370    0.00039    0.00493    0.00219
AFIX  43
H6    2    0.599349    0.820747    0.366118    11.00000   -1.30000
AFIX   0
C7    1    0.735669    0.427932    0.448736    11.00000    0.01981    0.02246 =
         0.02311    0.00192   -0.00180    0.00248
C8    1    0.806281    0.409333    0.540889    11.00000    0.03522    0.08303 =
         0.02047    0.00100   -0.00622    0.01617
AFIX  43
H8    2    0.804343    0.408833    0.583595    11.00000   -1.30000
AFIX   0
C9    1    0.890220    0.386114    0.512032    11.00000    0.02308    0.07388 =
         0.02891   -0.00414   -0.00856    0.01353
AFIX  43
H9    2    0.944141    0.369930    0.534517    11.00000   -1.30000
AFIX   0
C10   1    0.891372    0.387743    0.448633    11.00000    0.02216    0.03088 =
         0.03426   -0.00265   -0.00115    0.00493
C11   1    0.977853    0.366775    0.412524    11.00000    0.02226    0.04799 =
         0.04362   -0.00515    0.00131    0.00845
AFIX 137
H11A  2    0.978998    0.259412    0.394728    11.00000   -1.30000
H11B  2    1.030329    0.380124    0.439075    11.00000   -1.30000
H11C  2    0.980069    0.447249    0.380456    11.00000   -1.30000
AFIX   0
C12   1    0.519098    0.317462    0.666062    11.00000    0.01919    0.02019 =
         0.01849    0.00070   -0.00018   -0.00005
C13   1    0.563871    0.169430    0.655213    11.00000    0.01927    0.02296 =
         0.03164   -0.00005    0.00441    0.00184
AFIX  43
H13   2    0.624856    0.168957    0.641635    11.00000   -1.30000
AFIX   0
C14   1    0.518130    0.023668    0.664525    11.00000    0.02748    0.01835 =
         0.03784   -0.00058    0.00502    0.00249
AFIX  43
H14   2    0.548273   -0.074635    0.656790    11.00000   -1.30000
AFIX   0
C15   1    0.426314    0.022556    0.685614    11.00000    0.02415    0.02057 =
         0.02442   -0.00005    0.00062   -0.00163
C16   1    0.381714    0.172794    0.696465    11.00000    0.02118    0.02319 =
         0.02032   -0.00209    0.00186   -0.00186
AFIX  43
H16   2    0.320705    0.173918    0.709990    11.00000   -1.30000
AFIX   0
C17   1    0.428054    0.319076    0.687141    11.00000    0.02072    0.02108 =
         0.01912   -0.00158    0.00074    0.00165
AFIX  43
H17   2    0.398512    0.417924    0.694919    11.00000   -1.30000
AFIX   0
C18   1    0.486315    0.566894    0.548540    11.00000    0.02062    0.02445 =
         0.01974    0.00277   -0.00126    0.00127
C19   1    0.416282    0.595274    0.456630    11.00000    0.03128    0.08052 =
         0.02601   -0.00077   -0.00584    0.01687
AFIX  43
H19   2    0.418206    0.597977    0.413935    11.00000   -1.30000
AFIX   0
C20   1    0.333148    0.621880    0.485354    11.00000    0.02659    0.07775 =
         0.03526   -0.00551   -0.00840    0.02150
AFIX  43
H20   2    0.279797    0.643424    0.462904    11.00000   -1.30000
AFIX   0
C21   1    0.331431    0.615548    0.548876    11.00000    0.02075    0.03396 =
         0.03465   -0.00440   -0.00094    0.00656
C22   1    0.244781    0.637672    0.585696    11.00000    0.02309    0.05199 =
         0.04864   -0.00432    0.00415    0.00754
AFIX 137
H22A  2    0.246303    0.741942    0.605911    11.00000   -1.30000
H22B  2    0.240403    0.552422    0.615868    11.00000   -1.30000
H22C  2    0.192115    0.632826    0.558900    11.00000   -1.30000
AFIX   0
H1N1  2    0.891269    1.118751    0.292386    11.00000    0.03255
H2N1  2    0.809983    1.208120    0.317493    11.00000    0.04238
H1N2  2    0.613127    0.476108    0.436822    11.00000    0.02735
H1N6  2    0.621536    0.504252    0.556446    11.00000    0.04901
HKLF 4
REM  150k_smz-f1_a.res in Pna2(1)
REM R1 =  0.0433 for    6575 Fo > 4sig(Fo)  and  0.0524 for all    7597 data
REM    344 parameters refined using      1 restraints
END
WGHT      0.0502      0.5732
REM Highest difference peak  0.331,  deepest hole -0.389,  1-sigma level  0.055
Q1    1   0.5436  0.2539  0.6623  11.00000  0.05    0.33
Q2    1   0.5752  0.5445  0.6123  11.00000  0.05    0.30
Q3    1   0.8080  0.7613  0.3044  11.00000  0.05    0.29
Q4    1   0.4703  0.0220  0.6837  11.00000  0.05    0.29
Q5    1   0.4775  0.3123  0.6795  11.00000  0.05    0.28
Q6    1   0.6364  0.4729  0.6570  11.00000  0.05    0.27
Q7    1   0.5869  0.4969  0.3406  11.00000  0.05    0.27
Q8    1   0.7436  0.6752  0.3224  11.00000  0.05    0.26
Q9    1   0.6837  0.7434  0.3487  11.00000  0.05    0.25
Q10   1   0.5430  0.0923  0.6584  11.00000  0.05    0.25
Q11   1   0.8215  0.8978  0.3205  11.00000  0.05    0.24
Q12   1   0.4129  0.2370  0.6967  11.00000  0.05    0.24
Q13   1   0.4073  0.0977  0.6924  11.00000  0.05    0.24
Q14   1   0.7566  0.9596  0.3433  11.00000  0.05    0.24
Q15   1   0.6967  0.4306  0.4263  11.00000  0.05    0.23
Q16   1   0.5261  0.5603  0.5749  11.00000  0.05    0.23
Q17   1   0.5493  0.3843  0.6571  11.00000  0.05    0.23
Q18   1   0.2899  0.5987  0.5656  11.00000  0.05    0.23
Q19   1   0.6722  0.6004  0.3375  11.00000  0.05    0.23
Q20   1   0.7454  0.4613  0.4821  11.00000  0.05    0.22
;
_shelx_res_checksum              46622
_shelx_hkl_file
;
   0   0 -29   -1.41    5.36
   0   0 -28  833.64   37.81
   0   0 -27   -0.30    2.19
   0   0 -26 1183.07   43.60
   0   0 -25   -0.78    1.65
   0   0 -24   10.90    4.56
   0   0 -23   -1.06    1.73
   0   0 -22  121.41   12.86
   0   0 -21    0.74    2.80
   0   0 -20 1241.84   38.70
   0   0 -19   -0.28    2.47
   0   0 -18   88.63    9.67
   0   0 -17    1.06    2.15
   0   0 -16  489.67   21.32
   0   0 -15    2.36    2.50
   0   0 -14   40.08    5.77
   0   0 -13    0.42    0.82
   0   0 -12 5002.94   59.71
   0   0 -11   -0.15    0.81
   0   0 -10  298.60   13.33
   0   0  -9    0.97    1.11
   0   0  -7    0.15    0.63
   0   0  -5    0.43    0.64
   0   0  -4 5027.32   34.84
   0   0  -3    1.66    0.56
   0   0  -2  273.83    5.73
   0   0   4 5001.42   26.56
   0   0   5    0.11    0.27
   0   0   7    0.02    0.51
   0   0   9    0.27    0.71
   0   0  10  299.15   10.13
   0   0  11    0.94    1.05
   0   0  12 5126.11   46.61
   0   0  13    0.93    1.15
   0   0  14   51.44    5.13
   0   0  15    2.11    1.36
   0   0  16  564.11   18.31
   0   0  17   -1.53    1.54
   0   0  18   74.69    7.39
   0   0  19   -0.73    1.32
   0   1 -30    5.12    4.61
   0   1 -29    1.94    2.57
   0   1 -28    2.04    2.35
   0   1 -27    6.46    4.60
   0   1 -26   -2.39    2.01
   0  -1 -26   -5.78    5.70
   0   1 -25    3.12    1.87
   0  -1 -25    4.67    2.50
   0  -1 -24    1.48    3.73
   0   1 -24   -0.85    2.70
   0  -1 -23    1.82    1.80
   0   1 -23    2.74    2.43
   0  -1 -22    2.26    1.42
   0   1 -22    0.58    3.16
   0   1 -21  212.60   16.52
   0  -1 -21  196.66   16.01
   0   1 -20    0.27    1.81
   0  -1 -20    2.06    1.48
   0   1 -19   73.61    9.49
   0  -1 -19   78.60    9.72
   0  -1 -18    2.21    1.96
   0   1 -18    0.47    1.98
   0  -1 -17   37.43    6.09
   0   1 -17   30.07    5.97
   0   1 -16   -0.32    1.62
   0  -1 -16   -0.67    1.04
   0  -1 -15  107.52    9.70
   0   1 -15  102.96   10.31
   0   1 -14   -1.93    1.91
   0  -1 -14    1.91    1.56
   0   1 -13  158.24   11.58
   0  -1 -13  166.45   11.24
   0   1 -12   -0.19    0.85
   0  -1 -12    0.61    1.81
   0   1 -11   54.41    6.44
   0  -1 -11   60.98    6.15
   0   1 -10    1.74    1.47
   0  -1 -10    0.87    0.77
   0  -1  -9 2333.56   21.85
   0   1  -9 2315.58   37.87
   0  -1  -9 2237.54   32.51
   0  -1  -8    0.50    0.54
   0   1  -8    2.19    1.55
   0  -1  -8    0.59    0.52
   0  -1  -7 1835.10   25.79
   0   1  -7 1849.83   30.76
   0  -1  -6    0.58    0.51
   0  -1  -6    0.19    0.41
   0  -1  -5 3026.82   27.27
   0   1  -5 3302.11   35.53
   0   1  -5 3178.15   34.36
   0  -1  -5 3149.08   22.31
   0   1  -4    0.63    0.46
   0  -1  -4    0.96    0.50
   0  -1  -4   -0.22    0.55
   0   1  -4    0.20    0.92
   0   1  -3 1704.09   22.35
   0  -1  -3 1683.28   16.31
   0   1  -3 1695.31   21.38
   0   1  -2    0.61    0.40
   0   1  -2    0.33    0.65
   0  -1  -2   -0.15    0.56
   0  -1  -1  414.35    8.38
   0   1  -1  413.19    8.02
   0   1   0    0.39    0.63
   0  -1   0    0.60    0.30
   0   1   1  414.91    8.45
   0  -1   1  407.05    8.85
   0   1   2    0.00    0.25
   0  -1   2    0.26    0.49
   0   1   3 1679.50   14.81
   0   1   5 3102.77   20.45
   0   1   6   -0.20    0.28
   0   1   7 1881.83   17.76
   0   1   8    0.34    0.39
   0  -1   8    0.82    0.53
   0  -1   9 2386.91   33.26
   0   1   9 2281.31   22.38
   0   1  10    0.71    0.81
   0  -1  10   -0.53    1.26
   0   1  11   55.08    3.97
   0  -1  11   47.49    4.96
   0  -1  12   -0.23    0.92
   0   1  12    0.43    0.59
   0  -1  13  171.50   10.23
   0   1  13  188.26    8.14
   0   1  14    0.88    0.93
   0  -1  14    0.03    0.96
   0  -1  15  129.23    9.32
   0   1  15  130.48    7.37
   0  -1  16    0.45    1.75
   0  -1  16    1.57    1.67
   0   1  16    1.33    1.31
   0   1  17   35.50    4.48
   0  -1  17   30.39    4.01
   0  -1  17   33.98    4.87
   0  -1  18   -0.31    1.30
   0  -1  18    0.80    1.03
   0  -1  19   64.34    7.39
   0  -1  20   -2.51    1.32
   0   2 -30  230.30   20.66
   0   2 -29   -3.93    2.76
   0   2 -28  107.67   13.54
   0   2 -27    3.36    4.47
   0   2 -26  322.91   22.59
   0   2 -25   -0.98    2.05
   0   2 -24   47.51    8.57
   0   2 -23   -0.27    2.48
   0   2 -22  213.68   17.22
   0   2 -21    1.66    1.67
   0   2 -20  194.47   15.64
   0  -2 -19    1.47    2.18
   0   2 -19    0.10    1.36
   0  -2 -18  218.65   15.09
   0   2 -18  225.12   16.35
   0  -2 -17    2.55    2.51
   0   2 -17    0.95    2.94
   0  -2 -16 1320.58   34.19
   0   2 -16 1355.56   38.12
   0   2 -15   -0.36    1.78
   0  -2 -15    1.70    1.36
   0  -2 -14  312.65   15.73
   0   2 -14  321.16   17.92
   0  -2 -14  337.68   10.59
   0   2 -13    1.61    1.33
   0  -2 -13    1.42    1.78
   0  -2 -13    0.30    0.50
   0  -2 -12 2748.37   41.44
   0  -2 -12 2609.54   29.94
   0   2 -12 2650.14   48.20
   0  -2 -11    1.22    1.21
   0   2 -11   -0.46    1.76
   0  -2 -11   -0.05    0.91
   0   2 -10 2835.26   46.36
   0  -2 -10 2922.21   30.50
   0  -2  -9    0.37    0.49
   0   2  -9    0.89    2.01
   0   2  -8  139.70    9.56
   0  -2  -8  184.34    7.76
   0  -2  -7    1.10    0.86
   0   2  -7    0.43    0.79
   0   2  -7    1.08    1.93
   0  -2  -6 2302.59   26.92
   0   2  -6 2306.15   37.24
   0   2  -5    0.76    1.59
   0  -2  -5    0.75    0.90
   0   2  -5   -0.40    0.51
   0   2  -4 1774.22   27.41
   0  -2  -4 1857.71   24.92
   0   2  -4 1838.59   31.18
   0  -2  -3   -0.19    0.53
   0   2  -3   -0.31    0.58
   0   2  -3   -0.90    1.11
   0   2  -2  714.53   18.54
   0  -2  -2  761.42   16.19
   0  -2  -1    0.04    0.91
   0   2  -1   -0.04    1.03
   0   2  -1    0.60    0.34
   0   2   1    0.63    0.77
   0   2   1    1.32    1.41
   0  -2   1    0.15    0.85
   0   2   2  841.17   10.93
   0  -2   2  798.25   17.60
   0   2   2  792.92   16.51
   0   2   3    0.80    0.37
   0  -2   3    0.13    0.72
   0  -2   4 1835.21   27.72
   0   2   4 1983.42   24.47
   0   2   5    0.14    0.55
   0  -2   5   -0.16    0.57
   0  -2   6 2348.50   32.20
   0   2   6 2275.17   24.64
   0   2   7    4.34    1.08
   0  -2   7    2.65    1.20
   0   2   8  181.25    6.69
   0  -2   8  190.81    9.51
   0  -2   9    2.19    1.37
   0   2   9    0.63    0.35
   0   2  10 2823.92   26.35
   0  -2  10 2816.84   38.25
   0   2  11    0.03    0.39
   0  -2  11    1.60    1.42
   0  -2  11    1.18    1.70
   0  -2  12 2699.83   44.38
   0  -2  12 2642.09   38.91
   0  -2  13   -0.43    1.03
   0  -2  13   -0.82    1.40
   0   2  13    0.34    0.49
   0  -2  14  317.68   14.24
   0   2  14  315.05    9.83
   0  -2  14  354.42   16.75
   0  -2  15   -0.88    1.94
   0   2  15    0.27    0.50
   0  -2  15   -0.97    0.79
   0  -2  16 1277.77   33.57
   0  -2  16 1323.68   30.08
   0  -2  17    2.93    2.07
   0  -2  17   -0.92    1.99
   0  -2  18  220.80   12.64
   0  -2  18  229.74   15.06
   0  -2  19    0.64    1.45
   0  -2  19    1.73    2.07
   0  -2  20  201.36   14.46
   0  -2  21    0.32    1.80
   0   3 -30    1.80    3.26
   0   3 -29    1.70    3.25
   0   3 -28    1.15    3.69
   0   3 -27   58.16    9.68
   0   3 -26   -1.02    3.71
   0   3 -25   -2.33    2.77
   0   3 -24   -0.09    2.72
   0   3 -23    8.46    4.19
   0   3 -22    2.93    3.85
   0   3 -21  172.16   15.26
   0   3 -20   -2.05    1.78
   0   3 -19  365.14   21.77
   0   3 -18   -0.27    2.76
   0   3 -17   85.74   10.01
   0   3 -16   -1.40    1.44
   0   3 -15  145.44   12.71
   0   3 -14    0.46    1.86
   0  -3 -14    0.16    1.16
   0  -3 -13  252.61   11.24
   0   3 -13  270.98   16.51
   0  -3 -12   -1.21    0.84
   0   3 -12    0.09    2.21
   0   3 -11  269.34   15.50
   0  -3 -11  230.98   10.62
   0  -3 -10   -1.34    1.04
   0   3 -10    1.63    2.50
   0  -3  -9 3776.05   43.38
   0   3  -9 3849.59   58.26
   0   3  -8    2.20    2.35
   0   3  -8    2.26    2.75
   0  -3  -8   -0.54    1.04
   0   3  -7   45.35    5.53
   0   3  -7   57.85    7.05
   0  -3  -7   48.79    4.94
   0   3  -6    2.59    1.64
   0  -3  -6   -0.39    0.95
   0   3  -6    2.94    2.20
   0  -3  -5  582.47   17.01
   0   3  -5  561.86   20.97
   0   3  -5  616.62   18.74
   0   3  -4    1.53    1.66
   0   3  -4    0.41    1.39
   0  -3  -4   -0.20    0.64
   0   3  -3  923.98   20.69
   0   3  -3  976.15   26.18
   0   3  -2    1.95    2.16
   0  -3  -2   -0.46    0.56
   0   3  -2    0.77    0.43
   0   3  -1 2027.04   27.22
   0  -3  -1 2066.62   32.73
   0   3   0   -0.16    1.35
   0   3   0    0.24    0.50
   0  -3   0    1.73    1.02
   0   3   1 2230.48   24.23
   0   3   1 2166.97   35.06
   0   3   2   -0.60    1.53
   0   3   2    0.57    0.60
   0  -3   2    0.35    0.67
   0   3   3 1048.52   23.33
   0   3   3 1024.80   14.78
   0   3   4    0.54    0.56
   0  -3   4   -0.03    0.85
   0   3   4    0.67    1.08
   0   3   5  590.18   16.53
   0  -3   5  640.27   19.54
   0   3   6   -0.79    0.84
   0  -3   6   -0.27    0.83
   0   3   7   47.57    4.62
   0  -3   7   52.77    5.76
   0   3   8    0.81    0.53
   0  -3   8   -0.22    1.10
   0   3   9 3747.18   38.78
   0  -3   9 3709.67   49.89
   0  -3  10    2.56    1.90
   0   3  10    0.12    0.88
   0   3  11  253.27    9.59
   0  -3  11  237.28   13.02
   0  -3  12    0.57    1.42
   0   3  12    0.79    0.56
   0  -3  13  236.88   14.91
   0   3  13  232.29    8.86
   0  -3  13  271.47   14.62
   0   3  14    0.74    0.80
   0  -3  14    0.01    1.15
   0  -3  14    1.91    1.52
   0  -3  15  117.76    9.83
   0  -3  15  117.96   10.80
   0  -3  16    0.83    2.09
   0  -3  16   -0.74    1.44
   0  -3  17   72.61    9.04
   0  -3  17   81.27    8.54
   0  -3  18    0.36    2.18
   0  -3  18   -0.41    1.14
   0  -3  19  335.27   20.01
   0  -3  20    1.86    1.40
   0  -3  21  158.78   14.52
   0  -3  22   -0.36    1.95
   0  -3  23    0.54    1.82
   0   4 -29   -5.24    3.70
   0   4 -28    5.68    5.02
   0   4 -27   -1.49    1.73
   0   4 -26  125.08   14.39
   0   4 -25   -0.04    2.71
   0   4 -24    1.03    2.57
   0   4 -23    0.05    2.66
   0   4 -22  714.86   32.57
   0   4 -21    0.04    2.32
   0   4 -20   37.69    7.33
   0   4 -19   -0.50    3.14
   0   4 -18  565.05   27.40
   0   4 -17   -1.73    2.69
   0   4 -16 1514.29   43.45
   0   4 -15    0.07    2.27
   0  -4 -14  199.47   12.11
   0   4 -14  206.17   15.47
   0  -4 -13   -0.08    1.12
   0   4 -13   -0.34    1.43
   0   4 -12 1050.13   33.85
   0  -4 -12 1271.06   29.53
   0   4 -11    0.83    2.39
   0  -4 -11    2.36    2.04
   0   4 -10 3101.02   58.47
   0  -4 -10 3029.16   45.28
   0   4 -10 3159.73   54.43
   0  -4  -9   -0.04    1.30
   0   4  -9    0.25    2.78
   0   4  -9   -0.02    1.05
   0   4  -8  808.63   28.82
   0  -4  -8  803.96   23.37
   0   4  -8  853.65   26.92
   0  -4  -7   -0.56    1.08
   0   4  -7    1.87    2.55
   0   4  -7    0.48    1.49
   0   4  -6 1678.43   34.64
   0   4  -6 1655.94   39.71
   0  -4  -6 1672.38   33.69
   0   4  -5    0.35    1.50
   0   4  -5   -0.66    1.56
   0  -4  -5    3.80    2.59
   0  -4  -4 2659.37   42.80
   0   4  -4 2771.92   50.05
   0   4  -4 2747.39   41.42
   0  -4  -3    0.99    2.15
   0   4  -3    0.14    1.04
   0   4  -3   -1.56    2.02
   0   4  -2  948.65   28.60
   0   4  -2  998.35   22.45
   0   4  -1    0.83    1.04
   0   4  -1    2.40    1.61
   0  -4  -1    0.87    1.19
   0  -4   0  523.48   19.34
   0   4   0  574.98   15.16
   0   4   1    0.13    1.18
   0  -4   1   -0.77    1.35
   0   4   1   -0.24    1.00
   0   4   2  913.49   26.03
   0   4   2  949.14   17.49
   0   4   3   -0.17    1.04
   0   4   3    0.67    0.56
   0  -4   3    2.29    0.99
   0  -4   4 2665.43   45.12
   0   4   4 2673.83   26.74
   0  -4   5    0.68    2.28
   0   4   5   -0.50    0.82
   0   4   5    0.62    0.68
   0   4   6 1608.64   21.55
   0   4   6 1630.78   32.64
   0   4   7   -0.32    0.94
   0  -4   7    0.26    1.29
   0   4   7    0.59    1.06
   0   4   8  855.08   22.46
   0  -4   8  782.65   25.40
   0   4   9    2.04    0.70
   0  -4   9    1.37    1.22
   0   4  10 3037.74   41.97
   0  -4  10 2959.43   50.45
   0   4  11    0.67    0.82
   0  -4  11    1.18    2.37
   0  -4  12 1309.27   34.59
   0   4  12 1266.97   25.53
   0   4  13   -1.52    0.71
   0  -4  13   -0.30    1.63
   0  -4  14  194.45   13.69
   0  -4  14  202.64   15.13
   0  -4  15    2.83    2.95
   0  -4  15    3.43    2.87
   0  -4  16 1422.90   41.23
   0  -4  17   -0.51    1.87
   0  -4  17   -0.32    2.40
   0  -4  18  556.42   25.04
   0  -4  18  544.38   26.35
   0  -4  19    1.95    2.66
   0  -4  19   -0.13    2.12
   0  -4  20   35.27    6.48
   0  -4  20   39.49    7.79
   0  -4  21    2.01    2.58
   0  -4  22  687.75   32.06
   0  -4  23   -4.06    3.78
   0  -4  24    1.23    2.12
   0   5 -28    4.07    3.32
   0   5 -27    3.26    3.57
   0   5 -26   -1.20    3.88
   0   5 -25    9.16    5.35
   0   5 -24    1.81    4.73
   0   5 -23   51.58    9.40
   0   5 -22   -1.37    2.65
   0   5 -21    7.43    2.81
   0   5 -20    0.33    1.67
   0   5 -19   16.16    5.22
   0   5 -18    4.41    3.84
   0   5 -17    3.77    3.38
   0   5 -16    1.63    3.44
   0   5 -15   28.18    6.33
   0   5 -14    0.24    1.70
   0  -5 -13   75.55    8.32
   0   5 -13  101.85   11.24
   0  -5 -12   -1.20    1.07
   0   5 -12    1.95    2.49
   0  -5 -11   46.84    6.34
   0   5 -11   50.18    7.56
   0   5 -10    1.78    2.14
   0  -5 -10   -0.04    1.18
   0   5 -10    1.88    1.58
   0  -5  -9    0.32    1.02
   0   5  -9    2.63    2.56
   0   5  -9    0.36    2.02
   0   5  -8    0.64    2.11
   0  -5  -8    0.81    0.97
   0   5  -8    2.03    1.23
   0   5  -7  200.69   13.48
   0  -5  -7  196.22   12.80
   0   5  -7  196.99   15.04
   0   5  -6    0.30    1.04
   0  -5  -6   -0.88    1.43
   0   5  -6    0.52    1.29
   0  -5  -5  139.87   10.92
   0   5  -5  135.93   12.38
   0   5  -5  130.65    9.90
   0   5  -4   -0.15    2.04
   0   5  -4    0.81    1.04
   0  -5  -4    1.58    2.54
   0   5  -3  230.69   12.26
   0   5  -3  257.28   16.41
   0  -5  -3  242.78   14.49
   0   5  -2    0.61    1.03
   0   5  -2    0.44    0.73
   0  -5  -2   -0.92    1.98
   0   5  -1   66.96    6.08
   0   5  -1   76.99    8.77
   0  -5  -1   69.16    7.62
   0   5   0   -1.76    1.31
   0   5   0    1.40    1.60
   0  -5   0   -1.84    1.75
   0   5   1   60.07    7.47
   0   5   1   60.75    5.32
   0  -5   1   62.04    7.52
   0   5   2    0.66    1.60
   0   5   2   -1.01    1.77
   0  -5   3  228.49   14.37
   0   5   3  238.98   14.92
   0   5   3  200.44    8.51
   0   5   4    0.19    1.59
   0   5   4   -0.61    0.80
   0  -5   4    1.38    1.95
   0  -5   5  128.74   11.08
   0   5   5  147.47   11.37
   0   5   6    0.06    0.72
   0  -5   6    0.50    1.54
   0   5   6    0.76    1.39
   0   5   7  214.63   13.39
   0   5   7  196.67    7.78
   0  -5   8   -0.53    2.27
   0   5   8   -1.18    1.81
   0   5   8   -0.77    0.64
   0   5   9    1.21    1.82
   0   5   9    0.85    1.19
   0  -5   9    2.28    2.29
   0  -5  10   -1.26    3.27
   0   5  10   -0.46    1.36
   0   5  10   -0.60    1.43
   0  -5  11   55.17    8.07
   0   5  11   61.07    6.78
   0  -5  12   -0.29    1.57
   0   5  12   -1.20    1.59
   0  -5  13   96.05   10.17
   0  -5  14    4.20    2.76
   0  -5  15   33.11    6.68
   0  -5  15   27.22    5.62
   0  -5  16    2.07    2.59
   0  -5  16   -0.56    2.05
   0  -5  17    5.99    3.60
   0  -5  17    6.33    3.72
   0  -5  18   -1.02    1.76
   0  -5  18    1.81    2.19
   0  -5  19   20.09    6.27
   0  -5  19   11.23    4.47
   0  -5  20    1.18    3.03
   0  -5  20   -2.41    3.64
   0  -5  21   -0.29    2.62
   0  -5  22    1.67    2.80
   0  -5  23   46.10    9.52
   0  -5  24   -1.28    2.73
   0  -5  25    3.62    4.38
   0   6 -26  258.02   21.85
   0   6 -25    0.28    2.24
   0   6 -24  100.25   12.88
   0   6 -23    3.51    3.79
   0   6 -22  512.72   28.73
   0   6 -21    1.71    3.22
   0   6 -20  152.82   15.71
   0   6 -19   -2.81    2.10
   0   6 -18   10.17    3.85
   0   6 -17    3.04    2.43
   0   6 -16  502.33   26.91
   0   6 -15    0.76    3.62
   0   6 -14   14.07    4.21
   0  -6 -13    0.74    2.52
   0   6 -13   -2.78    4.10
   0  -6 -12  497.87   23.22
   0   6 -12  542.01   26.02
   0  -6 -11    2.44    1.92
   0   6 -11    2.44    2.27
   0   6 -10  611.50   29.56
   0  -6 -10  552.04   24.13
   0   6 -10  541.54   24.81
   0  -6  -9    2.33    1.68
   0   6  -9    3.71    3.56
   0   6  -9   -0.79    2.59
   0   6  -8   81.30   10.50
   0   6  -8  104.32   10.36
   0  -6  -8  107.77   10.50
   0   6  -7    2.43    1.55
   0   6  -7   -1.53    2.39
   0  -6  -7   -0.18    1.91
   0  -6  -6 3381.32   59.38
   0   6  -6 3248.75   55.22
   0  -6  -5    2.49    2.99
   0   6  -5   -0.71    2.32
   0   6  -5    0.76    4.22
   0   6  -4 1413.82   33.82
   0   6  -4 1358.65   41.28
   0  -6  -4 1462.57   39.10
   0  -6  -3    1.99    1.72
   0   6  -3    1.94    2.66
   0   6  -3    1.49    2.01
   0   6  -2 2576.17   55.11
   0   6  -2 2603.72   43.06
   0  -6  -2 2697.79   53.44
   0   6  -1    2.45    3.50
   0  -6  -1   -2.56    1.94
   0   6  -1    0.29    1.55
   0   6   0 1543.04   42.20
   0  -6   0 1631.40   41.84
   0  -6   1    4.03    3.10
   0   6   1    3.25    3.43
   0   6   1    0.44    1.00
   0  -6   2 2748.19   54.09
   0   6   2 2852.39   56.71
   0   6   2 2697.09   36.31
   0  -6   3   -0.63    1.11
   0   6   3    1.34    1.25
   0   6   3   -1.04    2.04
   0   6   4 1428.57   23.26
   0   6   4 1382.91   38.98
   0  -6   4 1343.01   38.25
   0  -6   5   -0.32    2.17
   0   6   5   -0.51    0.67
   0   6   5    1.05    3.66
   0  -6   6 3363.51   60.53
   0   6   7    0.48    1.98
   0  -6   7    2.32    1.33
   0   6   8   94.13   10.08
   0  -6   8   89.12   10.02
   0   6   9    2.62    3.09
   0  -6   9   -0.19    1.75
   0   6  10  579.45   24.22
   0  -6  10  561.76   25.42
   0  -6  11    1.93    2.92
   0   6  11    2.57    2.65
   0  -6  12  543.71   25.55
   0  -6  13   -1.16    2.98
   0  -6  14   13.99    4.75
   0  -6  15    3.18    3.47
   0  -6  15    0.36    2.39
   0  -6  16  455.98   24.79
   0  -6  16  453.46   26.16
   0  -6  17    1.47    1.92
   0  -6  17    1.96    3.47
   0  -6  18    8.05    4.31
   0  -6  18   15.02    5.39
   0  -6  19    5.10    3.93
   0  -6  19   -2.47    2.71
   0  -6  20  160.49   15.40
   0  -6  20  178.37   17.04
   0  -6  21    6.32    3.61
   0  -6  21   -0.23    2.15
   0  -6  22  520.43   30.45
   0  -6  23   -3.06    3.13
   0  -6  24   75.11   13.10
   0  -6  25   -2.97    5.50
   0   7 -24   -2.71    2.99
   0   7 -23   17.02    6.41
   0   7 -22    2.73    3.43
   0   7 -21   36.17    8.51
   0   7 -20    2.40    3.02
   0   7 -19   35.63    7.82
   0   7 -18   -0.15    2.32
   0   7 -17    6.18    3.54
   0   7 -16   -0.90    3.73
   0   7 -15   75.61   10.07
   0   7 -14   -1.61    1.77
   0   7 -13   70.18    9.67
   0   7 -12    2.57    3.19
   0  -7 -12   -0.15    1.30
   0  -7 -11   25.19    6.56
   0   7 -11   29.21    6.13
   0  -7 -10    0.13    1.63
   0   7 -10    0.21    2.61
   0   7  -9  389.34   21.69
   0   7  -9  380.74   24.56
   0   7  -8   -0.67    2.35
   0  -7  -8    1.83    1.55
   0   7  -8    2.53    3.01
   0   7  -7 1134.72   35.44
   0   7  -7 1186.99   41.98
   0  -7  -7 1157.31   37.40
   0  -7  -6   -0.40    2.46
   0   7  -6    4.80    3.41
   0   7  -6   -1.75    2.45
   0   7  -5  626.71   29.90
   0   7  -5  663.61   26.07
   0  -7  -5  637.00   28.13
   0  -7  -4    0.71    2.52
   0   7  -4    4.26    2.68
   0   7  -4    0.52    2.76
   0   7  -3   54.47    7.01
   0   7  -3   81.05   10.54
   0  -7  -3   61.89    8.46
   0   7  -2    1.89    3.40
   0   7  -2    2.80    2.94
   0  -7  -2   -0.02    3.13
   0   7  -1 2114.28   39.81
   0  -7  -1 2091.48   50.66
   0   7  -1 2036.34   52.65
   0   7   0    3.19    3.63
   0  -7   0   -0.64    1.72
   0   7   0    0.37    1.85
   0  -7   1 2130.13   51.20
   0   7   1 2294.44   55.02
   0  -7   2    3.71    2.86
   0   7   2    4.13    3.45
   0  -7   3   72.93    9.60
   0   7   3   68.24    9.88
   0  -7   4    3.33    3.12
   0   7   4    3.51    2.59
   0  -7   5  693.82   29.30
   0   7   5  566.56   27.70
   0  -7   6   -0.75    2.19
   0   7   6    0.04    2.18
   0  -7   7 1202.49   38.90
   0   7   7 1093.75   37.95
   0   7   8    1.06    1.37
   0  -7   8    2.52    3.69
   0   7   9  348.61   20.67
   0  -7   9  340.41   20.92
   0  -7  10    1.06    2.72
   0   7  10   -0.45    2.44
   0  -7  11   24.09    5.79
   0  -7  12    3.15    3.58
   0  -7  13   63.96    9.79
   0  -7  14    3.60    2.32
   0  -7  15   99.53   12.47
   0  -7  15   69.35   10.81
   0  -7  16    0.50    2.74
   0  -7  16   -0.83    1.94
   0  -7  17    4.18    3.81
   0  -7  17    7.34    2.79
   0  -7  18    6.89    5.00
   0  -7  18   -0.74    3.67
   0  -7  19   36.73    6.53
   0  -7  19   49.15    9.32
   0  -7  20    3.00    2.27
   0  -7  20    5.45    4.21
   0  -7  21    9.50    3.53
   0  -7  21   31.37    8.28
   0  -7  22   -0.88    2.35
   0  -7  23   18.83    6.03
   0  -7  24   -2.03    4.75
   0   8 -22   64.38   10.92
   0   8 -21    1.19    2.67
   0   8 -20   87.75   12.69
   0   8 -19    3.06    2.99
   0   8 -18    0.95    3.63
   0   8 -17    2.02    2.86
   0   8 -16  126.93   14.39
   0   8 -15   -1.50    2.63
   0   8 -14    9.90    4.40
   0   8 -13    6.77    3.65
   0   8 -12   46.98    8.91
   0  -8 -12   47.92    9.27
   0   8 -11    0.83    1.83
   0  -8 -11   -0.61    1.68
   0   8 -10  124.23   12.99
   0  -8 -10  102.92   12.52
   0   8  -9   -2.17    3.12
   0  -8  -9   -0.97    2.58
   0   8  -8    8.27    5.55
   0   8  -8    9.06    5.00
   0  -8  -8    0.46    1.59
   0   8  -7    1.07    2.62
   0   8  -7   -1.88    3.37
   0  -8  -7    6.20    4.31
   0   8  -6  273.91   20.79
   0  -8  -6  303.71   20.29
   0   8  -6  304.80   18.82
   0  -8  -5   -0.49    1.95
   0   8  -5   -1.73    1.85
   0   8  -5    3.42    3.46
   0   8  -4  111.54   11.32
   0   8  -4  129.27   14.43
   0  -8  -4  145.61   14.34
   0  -8  -3   -2.24    1.91
   0   8  -3    0.97    1.92
   0   8  -2  119.17   13.27
   0  -8  -2  177.37   15.81
   0  -8  -1    2.59    1.44
   0   8  -1    0.82    2.02
   0   8   0  292.83   21.02
   0  -8   0  270.32   19.49
   0  -8   1   -0.88    1.38
   0   8   1    1.13    2.29
   0  -8   2  154.54   14.51
   0   8   2  169.02   15.80
   0   8   3    0.14    2.50
   0  -8   3   -1.97    1.65
   0   8   4  153.64   15.07
   0  -8   4  145.19   14.44
   0   8   5   -0.21    2.96
   0  -8   5   -0.34    3.13
   0   8   6  305.03   21.65
   0  -8   6  319.81   21.01
   0   8   7   -3.99    4.54
   0  -8   7    0.89    1.56
   0   8   8   -0.31    3.65
   0  -8   8    7.12    3.67
   0   8   9   -0.44    3.01
   0  -8   9    6.53    3.34
   0  -8  10  128.22   13.87
   0  -8  11    4.26    3.18
   0  -8  12   35.79    7.48
   0  -8  13    4.84    3.38
   0  -8  14   10.48    4.65
   0  -8  14    6.40    3.32
   0  -8  15    1.92    3.39
   0  -8  15    1.50    3.25
   0  -8  16  146.47   15.71
   0  -8  16  103.26   12.44
   0  -8  17   -5.71    4.63
   0  -8  17    0.78    2.46
   0  -8  18    1.08    2.77
   0  -8  18    4.91    4.32
   0  -8  19   -2.35    3.55
   0  -8  19   -2.73    4.93
   0  -8  20  117.65   14.54
   0  -8  20   94.02   13.28
   0  -8  21   -2.18    2.97
   0  -8  21    1.10    2.56
   0  -8  22   63.33   11.25
   0   9 -19   19.24    7.37
   0   9 -18    0.38    4.02
   0   9 -17   46.22    9.59
   0   9 -16    1.85    3.28
   0   9 -15   -3.65    4.89
   0   9 -14    4.13    5.69
   0   9 -13    8.49    4.61
   0   9 -12    3.51    3.70
   0   9 -11   71.33   10.30
   0  -9 -11   79.76   11.42
   0   9 -10   -0.17    3.02
   0  -9 -10   -3.40    3.13
   0  -9  -9   37.60    8.05
   0  -9  -8   -1.45    2.30
   0  -9  -7   18.21    6.34
   0  -9  -6    4.99    3.41
   0   9  -5    4.45    4.79
   0  -9  -5    3.33    3.23
   0   9  -4    1.72    2.83
   0  -9  -4   -4.45    3.63
   0   9  -3   58.64    9.89
   0  -9  -3   49.64    8.49
   0  -9  -2    2.34    3.41
   0   9  -2   -3.45    3.46
   0   9  -1   23.72    6.79
   0  -9  -1   28.76    6.95
   0   9   0    1.99    1.94
   0  -9   0   -1.66    2.87
   0   9   1   32.91    8.36
   0  -9   1   17.81    5.63
   0   9   2    0.22    2.38
   0  -9   2   -0.80    2.98
   0   9   3   52.26    9.31
   0  -9   3   67.76   10.30
   0  -9   4   -2.73    2.28
   0   9   4    3.04    3.27
   0   9   5    8.41    4.36
   0  -9   5    4.99    4.37
   0   9   6   -3.47    4.67
   0  -9   6   -2.45    3.62
   0   9   7   27.84    8.29
   0  -9   7   34.01    8.46
   0   9   8    6.20    5.96
   0  -9   8   -1.53    3.15
   0  -9   9   50.30    8.77
   0  -9  10    1.64    3.07
   0  -9  11   68.65   11.06
   0  -9  12   -5.20    3.60
   0  -9  13   -1.00    3.71
   0  -9  13    6.95    3.08
   0  -9  14   -7.16    4.57
   0  -9  14    0.50    1.94
   0  -9  15    8.07    5.04
   0  -9  15    3.18    3.23
   0  -9  16    2.77    3.50
   0  -9  16   -0.03    3.93
   0  -9  17   45.41    9.11
   0  -9  17   59.65   10.66
   0  -9  18   -2.97    4.64
   0  -9  18    2.19    4.52
   0  -9  19   21.48    6.84
   0  -9  19   29.53    9.52
   0 -10 -10  171.33   17.75
   0 -10  -9    2.05    3.79
   0 -10  -8   14.35    6.69
   0 -10  -7   -4.76    3.36
   0 -10  -6  174.43   17.44
   0 -10  -5    0.74    2.55
   0 -10  -4   91.18   12.33
   0 -10  -3    0.96    2.16
   0 -10  -2   49.68    9.11
   0  10  -1    8.08    6.53
   0 -10  -1   -3.15    3.90
   0 -10   0  283.98   22.09
   0  10   0  252.08   21.29
   0  10   1    3.84    2.41
   0 -10   1    4.83    3.52
   0  10   2   44.16    9.31
   0 -10   2   53.95   10.03
   0 -10   3   -2.39    3.15
   0  10   3    2.15    4.51
   0  10   4  108.86   13.97
   0 -10   4  112.31   13.46
   0 -10   5    0.01    2.28
   0  10   5    2.45    2.64
   0  10   6  202.47   20.37
   0 -10   6  199.41   17.82
   0 -10   7    1.99    2.17
   0 -10   8   -0.87    3.54
   0 -10   9   -1.39    2.77
   0 -10  10  156.74   16.34
   0 -10  11    7.06    4.51
   0 -10  12   57.73   10.56
   0 -10  12   38.07    8.54
   0 -10  13    1.63    4.17
   0 -10  13   -1.61    2.93
   0 -10  14   16.40    7.78
   0 -10  14    9.91    4.80
   0 -10  15    1.86    1.73
   0 -10  15   -1.39    3.87
   0 -10  16   77.95   12.41
   0 -10  16   72.41   11.71
   0 -11  -9   16.43    4.27
   0 -11  -8   -2.52    4.88
   0 -11  -7    7.79    2.66
   0 -11  -6   -2.72    4.99
   0 -11  -5    2.38    3.53
   0 -11  -4    4.06    4.43
   0 -11  -3   10.64    4.79
   0 -11  -2    3.46    4.49
   0 -11  -1    4.69    1.73
   0 -11   0   10.81    4.99
   0 -11   1   12.13    6.01
   0 -11   2   -2.34    4.29
   0 -11   3   24.74    7.10
   0 -11   4   -2.45    2.06
   0 -11   5    0.40    4.41
   0 -11   6   -1.48    2.94
   0 -11   7    7.20    2.48
   0 -11   8    0.78    3.34
   0 -11   9   26.10    8.14
   0 -11   9   17.18    6.51
   0 -11  10   -0.92    3.13
   0 -11  10    1.74    2.67
  -1   0 -31   -5.42    4.49
  -1   0 -30    5.97    5.08
  -1   0 -29   -4.04    4.19
  -1   0 -28   -1.17    4.44
  -1   0 -27    2.73    3.68
  -1   0 -26    0.41    1.81
   1   0 -26    1.98    3.24
   1   0 -25   -1.22    3.71
  -1   0 -25    2.31    2.09
  -1   0 -24   -0.91    2.08
   1   0 -24   -1.78    2.75
   1   0 -23    2.24    2.38
  -1   0 -23    0.73    2.45
  -1   0 -22   -4.81    3.49
   1   0 -22   -1.55    2.28
  -1   0 -21    0.33    1.51
   1   0 -21    0.96    1.74
   1   0 -20   -0.17    1.81
  -1   0 -20    0.10    2.21
   1   0 -19    0.77    1.50
  -1   0 -19    1.24    1.59
  -1   0 -18   -0.60    1.80
   1   0 -18   -1.84    1.58
  -1   0 -17   -0.21    1.12
   1   0 -17    0.09    2.61
  -1   0 -16    0.92    1.77
   1   0 -16    0.74    1.72
  -1   0 -15    0.31    1.36
   1   0 -15    0.28    1.23
   1   0 -14   -1.04    2.25
  -1   0 -14    0.39    1.79
   1   0 -13    3.18    2.36
  -1   0 -13    1.14    2.06
  -1   0 -12    0.32    1.21
   1   0 -12    1.96    2.05
   1   0 -11    1.68    1.47
  -1   0 -11    2.10    1.71
   1   0 -10   -0.61    0.97
  -1   0 -10   -0.76    1.02
  -1   0  -9    0.64    1.22
   1   0  -9    6.81    1.85
   1   0  -8    2.58    1.42
  -1   0  -8   -0.03    0.80
   1   0  -7    0.35    0.69
  -1   0  -7    1.61    1.25
   1   0  -6    0.40    0.88
  -1   0  -6   -0.06    0.84
  -1   0  -6   -0.14    0.65
  -1   0  -5    0.67    0.53
   1   0  -5   -0.03    0.93
  -1   0  -5    0.04    0.41
  -1   0  -4    0.85    0.50
   1   0  -4    1.65    1.01
  -1   0  -4   -0.09    0.69
   1   0  -3    0.09    0.32
  -1   0  -3    0.18    0.28
  -1   0  -3   -0.19    0.54
  -1   0  -2    0.02    0.31
  -1   0  -2    0.08    0.29
  -1   0  -1    0.10    0.26
  -1   0   1    0.13    0.29
  -1   0   2    0.00    0.18
  -1   0   3   -0.10    0.38
  -1   0   4   -0.03    0.26
  -1   0   5    0.23    0.31
  -1   0   6   -0.17    0.34
  -1   0   7    0.02    0.46
  -1   0   8    0.56    0.59
   1   0   8    0.63    0.61
  -1   0   8   -0.10    0.24
   1   0   9    0.95    0.93
  -1   0   9    1.13    0.92
  -1   0   9    0.20    0.29
  -1   0  10    1.46    1.41
  -1   0  10    0.55    0.39
   1   0  10   -0.05    0.88
  -1   0  11   -0.31    1.10
  -1   0  11    0.15    0.39
   1   0  11   -0.63    0.93
   1   0  12    0.54    1.24
  -1   0  12   -0.56    0.93
  -1   0  12    0.06    0.36
   1   0  13    0.58    0.66
  -1   0  13   -0.70    1.29
  -1   0  13    0.02    0.30
   1   0  14   -0.21    0.86
  -1   0  14   -0.47    0.57
  -1   0  14   -0.40    0.81
  -1   0  15   -0.25    1.23
  -1   0  15    0.70    0.61
   1   0  15   -0.43    0.91
  -1   0  16    0.65    0.84
   1   0  16   -0.06    0.91
  -1   0  16   -0.42    0.52
   1   0  17    0.67    1.32
  -1   0  17   -1.59    2.00
  -1   0  18    1.00    2.72
   1   0  18   -0.16    1.19
  -1   0  19   -0.98    2.00
  -1   1 -30   77.19   11.26
   1   1 -29  160.91   16.28
  -1   1 -29  156.06   16.92
  -1   1 -28   82.00   11.72
  -1  -1 -28   80.58   11.78
   1   1 -27    1.76    2.17
  -1   1 -27   10.63    4.33
  -1  -1 -27    7.35    5.41
  -1   1 -26  177.24   16.72
   1   1 -26  202.93   18.09
  -1   1 -25  268.15   19.97
  -1  -1 -25  270.56   20.48
   1   1 -25  237.10   19.34
   1   1 -24   12.93    5.16
  -1   1 -24   15.42    5.27
  -1  -1 -24   10.28    4.19
  -1   1 -23  106.05   12.16
  -1  -1 -23  134.84   13.46
   1   1 -23  128.98   13.87
  -1   1 -22  141.36   13.79
   1  -1 -22  135.96   13.78
  -1  -1 -22  121.80   12.98
   1   1 -22  130.53   13.74
   1   1 -21   28.49    6.16
  -1   1 -21   16.82    4.65
   1  -1 -21   17.43    5.42
  -1  -1 -21   30.29    6.43
  -1  -1 -20  172.53   14.31
   1  -1 -20  170.79   14.41
  -1   1 -20  178.83   14.92
   1   1 -20  167.63   14.39
  -1   1 -19  266.91   17.40
  -1  -1 -19  236.96   16.47
   1   1 -19  239.33   17.09
   1  -1 -19  258.82   17.27
   1   1 -18   82.85    9.84
   1  -1 -18   92.24   10.01
  -1  -1 -18   62.80    8.01
  -1   1 -18   90.30   10.04
   1  -1 -17  207.87   14.60
  -1  -1 -17  191.59   13.67
  -1   1 -17  202.65   14.66
   1   1 -17  189.33   14.21
   1   1 -16  370.72   19.36
   1  -1 -16  395.68   19.43
  -1  -1 -16  382.22   18.18
   1   1 -15   31.09    5.61
  -1   1 -15   25.43    5.54
   1  -1 -15   32.58    5.45
  -1  -1 -15   24.17    4.44
  -1  -1 -14  139.71   10.26
  -1   1 -14  149.04   11.87
   1   1 -14  139.35   11.13
   1  -1 -14  151.44   11.24
   1  -1 -13  712.05   23.30
  -1   1 -13  762.01   25.75
  -1  -1 -13  701.86   22.44
  -1  -1 -12 1477.40   31.31
   1   1 -12 1493.29   33.99
   1  -1 -12 1531.39   32.79
   1   1 -11  564.83   20.00
  -1  -1 -11  509.08   13.65
   1  -1 -11  540.01   19.06
  -1  -1 -11  513.31   17.45
  -1   1 -11  509.77   19.93
  -1  -1 -10  808.31   16.32
  -1   1 -10  833.13   24.55
   1  -1 -10  799.64   21.46
  -1  -1 -10  847.13   21.09
  -1  -1  -9 1118.34   23.08
  -1   1  -9 1131.82   24.24
  -1  -1  -9 1125.59   18.71
   1  -1  -9 1124.00   24.43
   1   1  -9 1071.58   25.82
  -1  -1  -8  872.95   19.05
  -1   1  -8  862.47   20.29
   1   1  -8  936.67   22.49
  -1   1  -8  969.08   23.55
  -1  -1  -8  911.59   16.39
   1  -1  -8  884.73   20.40
  -1  -1  -7 1135.13   20.20
  -1  -1  -7 1172.63   18.40
  -1   1  -7 1174.62   25.26
  -1  -1  -6 1811.69   22.05
  -1  -1  -6 1862.72   23.03
  -1   1  -6 1839.69   29.53
  -1   1  -6 1859.11   27.71
   1   1  -5 1013.96   19.40
  -1   1  -5 1070.46   20.36
  -1  -1  -5  999.39   15.93
  -1  -1  -5 1024.24   15.31
  -1   1  -5 1018.64   20.72
  -1   1  -4 2804.07   32.18
  -1  -1  -4 2903.25   22.05
  -1   1  -4 2779.77   31.84
   1  -1  -4 2916.57   18.58
  -1  -1  -4 2899.72   25.72
  -1   1  -3 2280.19   27.29
   1   1  -3 2250.27   24.02
  -1  -1  -3 2250.37   22.43
   1  -1  -3 2268.49   17.63
  -1  -1  -2   56.46    3.58
   1   1  -2   55.82    3.29
  -1  -1  -2   64.79    2.75
  -1   1  -2   60.99    3.95
   1   1  -1 3607.79   22.29
  -1   1  -1 3526.67   30.72
  -1  -1  -1 3538.76   23.15
  -1  -1  -1 3554.15   27.19
  -1   1  -1 3519.81   28.04
  -1   1   0 9999.00   45.16
  -1  -1   1 3535.26   27.32
  -1  -1   1 3467.89   28.16
  -1   1   1 3481.78   28.92
  -1  -1   2   58.50    3.52
  -1  -1   2   62.62    4.03
  -1   1   3 2307.52   23.34
  -1  -1   3 2273.48   26.16
  -1  -1   3 2312.92   22.40
  -1  -1   4 2914.61   25.64
  -1   1   4 2834.44   25.81
  -1  -1   5 1064.41   15.88
  -1  -1   5 1039.31   19.46
  -1   1   5 1000.76   16.05
  -1  -1   6 1896.37   27.21
  -1   1   6 1852.04   22.03
  -1  -1   6 1806.82   21.73
  -1  -1   7 1186.85   22.54
  -1  -1   7 1211.55   18.13
  -1   1   7 1209.78   18.38
  -1   1   8  886.70   16.48
  -1  -1   8  945.07   20.91
  -1  -1   8  919.54   16.52
  -1   1   9 1141.61   19.64
  -1  -1   9 1184.75   18.73
  -1  -1   9 1109.14   24.04
  -1  -1  10  816.96   20.92
   1   1  10  794.51   10.50
  -1  -1  10  822.15   16.16
  -1   1  11  532.24   14.57
  -1  -1  11  552.08   13.53
  -1  -1  11  517.70   17.22
   1  -1  12 1559.23   29.28
   1   1  12 1460.68   17.61
  -1  -1  12 1517.25   30.30
  -1   1  12 1529.61   25.94
   1   1  13  700.49   13.06
  -1   1  13  759.16   18.92
  -1  -1  13  699.21   21.49
   1  -1  13  751.75   21.00
  -1  -1  14  134.87    9.55
   1   1  14  124.36    5.87
   1  -1  14  126.97    8.86
  -1  -1  14  129.36    7.26
  -1   1  14  137.04    8.44
  -1   1  15   33.80    4.46
   1  -1  15   28.75    4.35
  -1  -1  15   34.99    4.99
   1   1  15   25.62    2.79
   1   1  16  361.01   10.99
  -1   1  16  372.31   15.14
   1  -1  16  385.55   16.35
  -1  -1  16  376.65   17.06
  -1   1  17  171.38   10.57
  -1  -1  17  200.86   12.93
   1  -1  17  201.14   12.24
  -1  -1  17  159.07    8.46
  -1   1  18   70.88    6.88
  -1  -1  18   78.59    8.28
   1  -1  18   75.51    7.79
   1  -1  19  237.40   13.99
  -1  -1  19  268.40   15.73
  -1  -1  20  168.46   12.91
   1  -1  20  171.14   12.10
  -1  -1  21   17.08    5.08
   1   2 -30   32.40    8.49
  -1   2 -30   33.70    8.36
  -1   2 -29   27.17    7.89
   1   2 -29   34.52    7.97
   1   2 -28   44.61    8.40
  -1   2 -28   39.88    7.95
   1   2 -27   23.62    6.63
  -1   2 -27    4.42    4.14
   1   2 -26   11.73    4.82
  -1   2 -26    3.86    2.31
  -1   2 -25   67.12   10.70
   1   2 -25   46.56    8.96
   1   2 -24   46.59    8.81
  -1   2 -24   50.83    8.03
  -1  -2 -24   54.80    8.82
  -1   2 -23   20.48    4.93
   1   2 -23   34.32    7.11
  -1  -2 -23   18.03    6.03
  -1   2 -22   25.56    6.44
  -1  -2 -22   30.14    6.55
   1   2 -22   24.33    6.26
   1   2 -21   11.35    4.51
  -1  -2 -21   21.76    5.44
  -1   2 -21   12.46    3.85
   1   2 -20  108.20   11.64
  -1   2 -20  110.94   12.35
  -1  -2 -20   98.82   10.80
   1   2 -19   50.35    8.09
  -1  -2 -19   59.28    8.05
  -1   2 -19   61.77    8.59
   1   2 -18   23.01    5.65
  -1  -2 -18   25.14    5.51
  -1   2 -18   25.40    5.65
   1   2 -17   65.70    8.45
  -1  -2 -17   64.94    7.89
  -1   2 -17   46.59    7.72
  -1  -2 -16   77.60    8.48
  -1   2 -16   89.20    9.78
   1   2 -16   85.63    9.68
  -1  -2 -15   10.58    2.12
   1   2 -15    7.90    3.15
  -1  -2 -15   14.13    3.41
  -1   2 -15    8.54    2.56
  -1  -2 -14  141.00    8.20
  -1   2 -14  158.52   12.67
  -1  -2 -14  144.41   10.30
   1   2 -14  156.90   12.29
  -1  -2 -13   47.05    5.70
   1  -2 -13   35.61    2.81
   1   2 -13   58.22    7.11
  -1  -2 -13   52.33    4.90
  -1   2 -13   49.48    7.34
  -1  -2 -12   21.98    3.09
  -1  -2 -12   23.23    3.44
   1   2 -12   23.78    4.44
  -1   2 -12   25.04    4.64
   1  -2 -12   17.84    2.18
  -1   2 -11    4.72    1.62
   1   2 -11    5.71    1.83
  -1   2 -11    1.72    1.30
  -1  -2 -11    6.89    2.09
   1  -2 -11    4.12    1.19
  -1  -2 -11    2.95    1.17
  -1   2 -10   51.12    6.45
  -1  -2 -10   45.44    4.73
  -1  -2 -10   53.01    4.69
  -1   2 -10   37.93    5.28
   1   2 -10   47.98    5.84
   1  -2 -10   50.19    3.58
  -1   2  -9  167.30   10.86
  -1  -2  -9  183.53    8.57
   1   2  -9  148.79    9.96
  -1  -2  -9  197.52    8.95
   1  -2  -9  204.66    7.15
  -1   2  -9  162.45   10.82
  -1  -2  -8  131.92    6.72
   1   2  -8  131.10    9.01
  -1  -2  -8  115.97    6.95
  -1   2  -8  105.07    8.74
   1  -2  -8  129.95    5.89
   1  -2  -7  221.37    7.77
  -1   2  -7  208.81   11.43
  -1  -2  -7  215.15    7.87
  -1   2  -7  215.44   11.84
   1   2  -7  233.08   11.65
  -1  -2  -7  229.13    9.43
  -1  -2  -6  315.92    8.26
  -1   2  -6  301.22   13.82
  -1   2  -6  319.67   13.71
   1  -2  -6  312.79    9.49
  -1  -2  -6  311.76   10.87
   1   2  -6  295.19   12.55
  -1  -2  -5   43.62    4.00
   1   2  -5   54.99    4.98
   1  -2  -5   40.06    3.47
  -1   2  -5   52.04    5.28
  -1   2  -5   50.71    5.50
   1  -2  -4  187.77    7.53
  -1   2  -4  208.18   10.76
  -1   2  -4  209.21    9.95
   1   2  -4  211.60    9.11
  -1  -2  -4  198.16    8.62
  -1   2  -3 1495.42   25.10
   1   2  -3 1549.97   22.95
   1  -2  -3 1546.77   22.12
  -1  -2  -3 1532.35   23.82
  -1   2  -3 1526.12   28.38
   1  -2  -2 5096.57   41.22
  -1   2  -2 5188.85   50.28
   1   2  -2 4980.37   36.89
   1   2  -2 5051.95   48.07
  -1  -2  -2 5243.66   43.63
  -1   2  -1 4966.81   39.80
   1   2  -1 4937.80   32.64
  -1   2  -1 4950.25   48.72
   1   2  -1 4947.11   45.71
  -1  -2  -1 4968.91   43.04
   1  -2  -1 4934.29   41.70
   1  -2   0 9040.33   57.02
  -1   2   0 9058.99   50.68
  -1   2   0 8525.15   62.90
   1   2   0 8903.09   59.04
  -1  -2   0 8704.12   57.71
   1   2   1 5018.07   41.32
  -1   2   1 4918.49   45.81
  -1  -2   1 4865.64   43.54
  -1   2   1 4932.36   36.36
  -1   2   2 5085.44   36.15
   1   2   2 5214.60   39.83
  -1   2   3 1573.26   25.22
   1   2   3 1524.06   20.72
  -1  -2   3 1502.61   24.52
  -1   2   4  207.38    8.73
  -1  -2   4  194.73    8.87
   1   2   4  204.57    7.03
  -1   2   5   40.75    3.77
   1   2   5   42.13    3.08
   1   2   6  303.22    7.48
  -1   2   6  290.38   10.34
  -1  -2   6  315.17   11.68
   1   2   7  212.44    5.64
  -1  -2   7  220.74   11.32
  -1   2   7  223.74    8.95
  -1  -2   7  201.80    9.54
  -1  -2   8  121.11    7.62
  -1  -2   8  126.42    8.79
  -1   2   8  128.70    6.97
  -1  -2   9  206.49   11.45
  -1   2   9  190.31    8.61
  -1  -2   9  185.35    9.48
  -1  -2  10   43.41    4.92
  -1  -2  10   49.70    5.73
  -1   2  10   42.54    4.12
  -1  -2  11    3.84    1.62
  -1  -2  11    1.70    1.34
  -1   2  11    3.93    1.42
  -1  -2  12   21.65    3.74
  -1  -2  12   14.53    3.40
  -1   2  12   18.60    2.94
  -1   2  13   48.18    4.83
  -1  -2  13   54.70    6.62
  -1  -2  14  161.92    9.72
  -1   2  14  144.37    8.41
  -1  -2  14  150.88   11.05
   1  -2  14  150.83   10.96
  -1  -2  15   21.19    3.86
   1  -2  15   13.65    3.10
  -1   2  15    9.92    1.78
  -1  -2  15   18.62    3.79
  -1   2  16   83.41    6.63
  -1  -2  16   83.93    7.17
   1  -2  16   92.56    9.11
  -1  -2  16   79.91    8.44
  -1  -2  17   49.04    6.85
  -1  -2  17   55.05    6.15
   1  -2  17   45.81    6.54
   1  -2  18   28.64    4.40
   1  -2  18   27.53    5.50
  -1  -2  18   27.11    4.53
  -1  -2  18   28.03    5.28
   1  -2  19   65.60    7.69
  -1  -2  19   47.17    6.86
   1  -2  19   60.86    8.25
   1  -2  20   90.59    9.49
  -1  -2  20  117.66   11.33
  -1  -2  21   15.11    3.76
   1  -2  21   21.39    4.80
  -1  -2  22   38.10    6.51
  -1   3 -30   53.79   10.32
   1   3 -30   57.94   10.55
  -1   3 -29  126.17   14.48
   1   3 -29   88.47   12.68
  -1   3 -28   45.59    9.71
   1   3 -28   29.20    7.52
   1   3 -27    9.65    3.69
  -1   3 -27   15.84    5.69
   1   3 -26  152.34   15.96
  -1   3 -26  174.45   16.46
   1   3 -25   99.67   12.30
  -1   3 -25   90.40   12.12
   1   3 -24   47.31    8.78
  -1   3 -24   55.79    9.61
   1   3 -23  128.55   14.26
  -1   3 -23   88.76   11.33
   1   3 -22  275.75   19.81
  -1   3 -22  258.53   19.34
   1   3 -21   55.00    9.08
  -1   3 -21   59.78    9.51
   1   3 -20  272.78   19.22
  -1   3 -20  262.93   18.93
   1   3 -19  270.76   18.46
  -1   3 -19  246.90   18.08
  -1   3 -18  107.30   11.99
   1   3 -18  123.27   12.26
   1   3 -17  267.14   17.88
  -1   3 -17  277.06   18.45
  -1   3 -16 1255.68   38.36
   1   3 -16 1313.76   38.45
  -1   3 -15  147.48   12.99
   1   3 -15  139.12   11.91
  -1   3 -14  770.16   28.92
   1   3 -14  796.39   28.86
  -1  -3 -14  740.84   20.84
   1  -3 -13 1205.84   22.25
  -1   3 -13 1304.15   36.47
  -1  -3 -13 1245.47   27.35
   1   3 -13 1239.47   34.82
  -1   3 -12  545.51   23.26
  -1   3 -12  580.49   24.24
  -1  -3 -12  530.12   17.36
   1  -3 -12  546.33   15.26
   1   3 -12  538.61   22.75
  -1   3 -11  309.83   17.10
   1  -3 -11  324.80   11.84
  -1  -3 -11  291.66   13.13
   1   3 -11  318.48   16.77
  -1   3 -11  307.75   17.28
  -1   3 -10 1858.92   39.92
   1   3 -10 1757.00   38.28
  -1  -3 -10 1770.56   31.50
   1  -3 -10 1760.55   27.96
  -1  -3  -9  405.53   14.96
   1   3  -9  448.32   18.57
  -1   3  -9  460.97   19.22
  -1   3  -9  423.70   19.40
   1  -3  -9  422.92   13.77
   1   3  -8  244.13   13.12
   1  -3  -8  229.07   10.09
  -1   3  -8  239.28   13.64
  -1   3  -8  239.10   14.27
  -1  -3  -8  242.41   11.55
  -1   3  -7  705.41   24.60
   1   3  -7  801.29   22.84
  -1  -3  -7  775.86   20.40
  -1   3  -7  732.16   22.96
   1  -3  -7  747.61   18.79
   1   3  -6  109.30    8.18
  -1   3  -6  128.76    9.32
  -1   3  -6  124.88   10.14
  -1  -3  -6  116.51    8.01
   1  -3  -6  131.73    7.97
   1  -3  -5  323.98   12.56
  -1   3  -5  298.30   15.43
  -1   3  -5  321.64   14.16
  -1  -3  -5  323.40   13.12
   1   3  -5  326.04   15.56
   1   3  -4 1244.48   24.70
  -1  -3  -4 1138.99   24.84
  -1   3  -4 1177.57   25.86
   1  -3  -4 1136.59   23.91
  -1   3  -4 1255.11   30.50
   1   3  -4 1217.64   29.50
   1   3  -3  271.30   10.85
  -1   3  -3  301.11   14.75
  -1   3  -3  292.82   12.42
   1   3  -3  289.36   14.00
  -1  -3  -3  301.49   12.72
   1  -3  -3  296.93   12.19
  -1   3  -2  263.84   11.39
   1   3  -2  317.36   14.29
   1  -3  -2  288.89   12.49
  -1  -3  -2  280.46   12.47
   1   3  -2  301.10   10.61
  -1   3  -2  333.29   15.19
   1  -3  -1 1186.97   24.88
  -1   3  -1 1207.22   28.23
   1   3  -1 1147.47   18.43
   1   3  -1 1202.21   26.91
  -1  -3  -1 1244.09   26.33
   1   3   0 2240.51   36.14
   1  -3   0 2236.12   34.90
  -1  -3   0 2332.99   35.89
   1   3   0 2219.44   22.74
  -1   3   0 2152.21   36.98
  -1   3   0 2350.89   30.16
  -1   3   1 1247.43   27.93
   1  -3   1 1204.32   25.83
   1   3   1 1232.42   25.77
  -1  -3   1 1221.90   25.85
  -1   3   1 1174.01   20.56
   1   3   2  325.31    6.07
  -1  -3   2  339.86   13.83
   1  -3   2  320.96   13.36
   1   3   2  329.77   12.84
  -1   3   2  324.46   10.58
   1  -3   3  286.87   12.87
  -1  -3   3  278.42   12.54
  -1   3   3  296.48    9.87
  -1   3   3  268.18   12.51
  -1   3   4 1169.44   25.16
   1  -3   4 1155.22   26.09
  -1  -3   4 1176.63   26.18
  -1   3   4 1166.61   19.64
   1   3   4 1143.90   23.09
   1   3   5  334.74   11.88
   1  -3   5  332.64   14.18
  -1  -3   5  311.88   13.43
  -1  -3   6  125.23    8.68
   1   3   6  119.81    6.87
  -1   3   6  112.31    7.83
  -1   3   7  796.68   20.04
   1   3   7  769.19   16.57
  -1   3   8  221.98   10.66
   1   3   8  239.88    8.85
  -1  -3   8  231.21   12.16
  -1  -3   9  463.35   17.49
  -1  -3  10 1693.87   34.15
  -1   3  10 1693.75   29.02
  -1  -3  10 1682.94   37.82
  -1  -3  11  306.40   16.47
  -1   3  11  324.36   12.92
   1   3  11  271.30    7.21
  -1  -3  11  295.54   14.40
   1  -3  12  573.88   21.11
  -1   3  12  545.50   16.75
  -1  -3  12  569.82   22.75
  -1  -3  12  575.02   20.54
  -1   3  13 1263.59   25.81
  -1  -3  13 1232.75   34.13
  -1  -3  13 1238.90   30.67
   1  -3  13 1237.13   31.47
  -1  -3  14  804.67   27.75
  -1  -3  14  705.65   23.64
   1  -3  14  706.08   24.25
  -1   3  14  783.13   19.99
   1  -3  15  131.76   10.69
  -1  -3  15  156.18   11.26
  -1   3  15  135.09    8.27
  -1  -3  15  129.52   11.31
  -1  -3  16 1195.23   35.20
  -1  -3  16 1129.89   30.79
   1  -3  16 1179.71   33.12
   1  -3  16 1177.05   34.92
  -1  -3  17  227.09   15.65
   1  -3  17  287.85   17.80
   1  -3  17  277.62   16.21
  -1  -3  17  278.85   15.43
   1  -3  18   93.31    9.62
   1  -3  18  107.32   10.88
  -1  -3  18  106.28   10.98
  -1  -3  18  106.64   10.09
   1  -3  19  302.28   18.90
  -1  -3  19  269.84   15.86
  -1  -3  19  248.44   17.17
   1  -3  19  258.97   16.51
   1  -3  20  296.54   19.00
  -1  -3  20  301.51   19.27
   1  -3  20  274.68   17.08
  -1  -3  21   61.76    9.27
   1  -3  21   53.04    8.62
   1  -3  22  307.52   20.41
  -1  -3  22  253.33   18.23
  -1  -3  23  124.33   13.33
   1   4 -29   18.11    5.16
  -1   4 -29    4.17    4.52
   1   4 -28    7.86    4.95
  -1   4 -28   15.15    6.30
  -1   4 -27    5.40    3.63
   1   4 -27    6.52    1.83
  -1   4 -26   18.51    5.29
   1   4 -26   13.32    5.23
   1   4 -25    9.02    3.20
  -1   4 -25   11.82    3.87
  -1   4 -24   24.76    5.98
   1   4 -24   12.28    4.28
   1   4 -23   86.24   11.50
  -1   4 -23   61.94   10.18
  -1   4 -22   53.07    9.87
   1   4 -22   61.96   10.30
   1   4 -21   99.15   12.09
  -1   4 -21   76.32   10.67
  -1   4 -20    3.03    1.40
   1   4 -20   18.27    6.18
   1   4 -19   13.47    4.77
  -1   4 -19    8.67    3.55
  -1   4 -18   38.58    7.34
   1   4 -18   42.08    7.41
  -1   4 -17   63.43    8.92
   1   4 -17   68.86    9.38
  -1   4 -16   26.57    6.31
   1   4 -16   28.41    6.24
   1   4 -15   39.23    6.95
  -1   4 -15   44.99    7.54
  -1  -4 -14   10.40    2.82
   1   4 -14   19.36    4.28
  -1   4 -14   23.04    5.88
   1   4 -13   12.42    3.60
  -1  -4 -13    9.31    2.93
  -1   4 -13   10.54    3.81
  -1   4 -13   12.77    3.87
   1  -4 -13   10.82    2.82
  -1  -4 -12  240.69   13.20
   1  -4 -12  227.21   12.31
  -1   4 -12  225.91   15.69
  -1   4 -12  216.31   16.10
   1   4 -12  203.97   14.45
  -1   4 -11  103.34   10.33
  -1  -4 -11   96.34    8.60
  -1   4 -11   81.22    9.90
   1  -4 -11   82.45    7.28
   1   4 -11   84.43    9.25
  -1  -4 -10  332.21   15.61
   1  -4 -10  348.91   14.99
  -1   4 -10  330.74   19.12
   1   4 -10  341.72   17.88
  -1   4 -10  369.58   18.59
   1   4  -9  572.32   22.28
   1  -4  -9  545.33   18.77
  -1   4  -9  533.22   24.12
  -1  -4  -9  550.57   20.04
  -1   4  -9  581.61   22.98
   1   4  -8  232.07   13.58
   1  -4  -8  243.37   12.57
  -1  -4  -8  213.69   12.45
  -1   4  -8  234.97   15.76
  -1   4  -8  221.25   13.73
  -1   4  -7    8.15    2.32
   1   4  -7    9.90    2.51
   1  -4  -7    9.67    2.43
  -1   4  -7    5.01    3.21
  -1  -4  -7    7.76    2.73
  -1   4  -6  139.98   10.56
   1   4  -6  117.78   10.76
   1   4  -6  148.37   10.06
  -1  -4  -6  125.11    9.51
   1  -4  -6  106.69    8.39
  -1   4  -6  124.85   11.16
   1  -4  -5  151.86    9.90
   1   4  -5  128.97    9.12
  -1   4  -5  150.85   10.46
  -1   4  -5  152.30   12.11
   1   4  -5  145.80   11.69
  -1  -4  -5  137.90    9.82
   1  -4  -4   97.87    8.09
  -1  -4  -4   79.04    7.65
  -1   4  -4   98.38    7.87
   1   4  -4  103.07    7.68
  -1   4  -4   88.94    9.16
  -1  -4  -3  140.27    9.96
   1   4  -3  120.81    7.84
  -1   4  -3  161.62   10.03
  -1   4  -3  108.68    9.90
   1   4  -3  136.07   10.91
   1  -4  -3  162.48   10.50
   1   4  -2  458.59   14.56
   1  -4  -2  426.19   17.38
  -1  -4  -2  437.97   17.79
  -1   4  -2  455.82   19.98
   1   4  -2  427.67   18.72
  -1   4  -2  456.35   16.48
   1  -4  -1  867.17   24.74
  -1   4  -1  892.40   22.09
  -1  -4  -1  795.64   24.05
  -1   4  -1  876.01   27.32
   1   4  -1  747.48   17.35
   1   4  -1  902.69   26.59
  -1   4   0 2089.58   31.79
  -1   4   0 2041.98   40.80
   1  -4   0 1867.78   36.39
  -1  -4   0 1876.37   36.97
   1   4   0 1953.65   38.66
   1   4   0 1858.35   24.88
   1   4   1  834.48   14.81
   1  -4   1  844.64   24.75
  -1  -4   1  831.98   24.69
  -1   4   1  793.61   19.09
  -1   4   1  822.19   25.91
   1   4   1  850.13   25.02
  -1   4   2  478.03   19.31
   1   4   2  420.49    9.27
   1   4   2  409.51   17.22
   1  -4   2  445.51   17.98
  -1   4   2  440.22   13.52
  -1  -4   2  452.66   18.28
  -1  -4   3  146.71   10.43
   1  -4   3  141.22   10.28
  -1   4   3  155.28    7.96
   1   4   3  130.73    4.41
  -1   4   3  133.82   10.07
   1   4   3  145.31   10.16
  -1  -4   4  101.71    8.75
   1  -4   4   99.07    8.79
  -1   4   4  103.08    8.80
  -1   4   4  102.44    6.45
   1   4   4  102.88    8.05
  -1   4   5  122.05    9.50
  -1   4   5  152.54    7.85
  -1  -4   5  145.37   10.44
   1   4   5  130.81    9.19
   1  -4   5  148.81   10.84
  -1  -4   6  128.99   10.06
   1   4   6  113.19    8.21
  -1   4   6  135.96    9.91
  -1   4   6  131.26    7.50
   1  -4   6  111.25    9.28
  -1   4   7    2.64    1.43
   1   4   7    4.81    1.00
  -1  -4   7    7.71    2.99
   1  -4   7    4.34    2.22
   1   4   7    6.12    1.70
   1  -4   8  229.14   13.88
   1   4   8  212.87   10.70
  -1   4   8  248.57   13.09
  -1  -4   8  231.25   13.56
   1   4   9  581.17   16.86
   1  -4   9  555.15   21.93
  -1   4   9  524.17   18.87
  -1  -4   9  530.33   20.90
  -1  -4  10  309.96   16.17
  -1   4  10  363.70   15.75
   1   4  10  326.48   12.12
   1  -4  10  361.65   17.85
  -1   4  11   97.31    7.95
   1  -4  11   94.09    9.14
  -1  -4  11   98.18   10.08
   1   4  11   92.18    6.16
  -1  -4  11   89.90    8.73
   1  -4  12  228.57   14.58
  -1  -4  12  237.84   14.43
   1   4  12  213.00    8.69
  -1  -4  12  256.82   16.56
  -1  -4  13   11.41    3.10
  -1   4  13    4.47    2.51
  -1  -4  13    5.78    3.19
   1  -4  13    8.80    2.96
  -1  -4  14   21.19    4.61
  -1   4  14   17.31    3.48
  -1  -4  14   13.06    4.60
   1  -4  14   19.53    4.15
  -1  -4  15   42.52    7.00
   1  -4  15   41.11    6.53
  -1  -4  15   35.14    6.07
  -1  -4  16   22.16    4.58
  -1  -4  16   19.87    5.59
   1  -4  16   24.55    5.10
   1  -4  17   48.29    7.95
   1  -4  17   41.99    7.00
  -1  -4  17   51.35    7.54
  -1  -4  17   43.32    6.76
   1  -4  18   44.89    7.29
  -1  -4  18   38.23    6.91
   1  -4  18   49.51    8.39
  -1  -4  18   45.55    7.33
   1  -4  19   15.29    4.31
  -1  -4  19   16.06    4.30
  -1  -4  19    8.20    3.08
   1  -4  19   12.37    4.66
   1  -4  20    8.90    3.82
   1  -4  20    8.29    2.87
  -1  -4  20   11.00    4.59
  -1  -4  21   84.19   11.17
   1  -4  21   96.53   11.98
  -1  -4  22   72.38   10.44
   1  -4  22   60.76    9.95
   1  -4  23   52.10    9.06
  -1  -4  23   52.45    8.77
  -1  -4  24   17.95    4.84
   1   5 -28   40.40    9.49
  -1   5 -28   19.52    5.70
  -1   5 -27    1.22    2.16
   1   5 -27    8.27    2.91
  -1   5 -26   42.87    9.53
   1   5 -26   60.25   10.56
   1   5 -25   52.92    9.70
  -1   5 -25   29.93    6.56
   1   5 -24    3.86    4.71
  -1   5 -24    6.24    2.62
  -1   5 -23   45.08    8.68
   1   5 -23   75.29   11.22
  -1   5 -22  190.83   17.60
   1   5 -22  192.61   17.26
   1   5 -21   50.18    8.47
  -1   5 -21   50.88    9.38
   1   5 -20   68.78    9.98
  -1   5 -20   53.48    9.34
   1   5 -19  160.55   14.84
  -1   5 -19  170.52   16.01
   1   5 -18   91.03   11.32
  -1   5 -18   86.46   11.19
  -1   5 -17   35.49    6.89
   1   5 -17   37.36    7.30
  -1   5 -16  489.25   25.81
   1   5 -16  478.94   25.16
   1   5 -15  139.42   13.41
  -1   5 -15  121.32   12.80
   1   5 -14   86.35   10.37
  -1  -5 -14   72.42    8.62
  -1   5 -14   87.46   10.97
  -1  -5 -13  330.42   17.71
  -1   5 -13  344.26   21.81
  -1   5 -13  346.36   20.45
   1  -5 -13  382.03   18.06
   1   5 -13  373.61   20.97
  -1   5 -12  312.25   20.47
  -1  -5 -12  294.12   16.47
   1   5 -12  318.03   18.84
  -1   5 -12  280.73   18.17
   1  -5 -12  314.65   16.45
   1  -5 -11   54.22    6.84
  -1   5 -11   44.12    7.34
  -1  -5 -11   55.54    7.19
  -1   5 -11   56.70    8.91
   1   5 -11   52.11    7.68
  -1  -5 -10  654.58   24.24
   1   5 -10  687.75   26.26
  -1   5 -10  662.04   26.21
   1  -5 -10  689.61   24.18
  -1   5 -10  669.70   29.21
  -1   5  -9  413.18   20.20
   1   5  -9  421.81   20.24
   1  -5  -9  396.07   18.29
  -1   5  -9  373.21   21.37
  -1  -5  -9  398.38   18.74
   1   5  -8   89.24    9.06
  -1   5  -8   67.59    8.27
   1  -5  -8   85.19    8.55
  -1  -5  -8   88.59    8.70
  -1   5  -7  410.38   19.38
  -1  -5  -7  391.35   18.26
  -1   5  -7  381.73   21.51
   1  -5  -7  385.84   18.06
   1   5  -7  406.69   18.74
  -1   5  -6  392.90   21.62
   1   5  -6  395.18   17.71
  -1   5  -6  377.44   18.23
   1  -5  -6  402.02   18.38
  -1  -5  -6  378.45   18.11
   1   5  -6  402.48   21.72
  -1   5  -5   98.56   10.61
  -1  -5  -5   88.75    8.75
   1   5  -5   70.63    7.30
  -1   5  -5   76.96    8.03
   1  -5  -5   71.08    7.77
   1   5  -5   86.66    9.29
  -1   5  -4  448.60   22.68
   1   5  -4  450.00   17.86
   1  -5  -4  444.85   19.47
  -1  -5  -4  465.78   20.35
   1   5  -4  477.59   22.78
   1   5  -3  660.87   26.20
  -1  -5  -3  630.74   23.53
  -1   5  -3  675.13   26.99
  -1   5  -3  648.59   21.53
   1  -5  -3  627.42   22.97
   1   5  -3  624.71   19.73
   1  -5  -2  125.14   10.33
   1   5  -2  132.00   11.60
  -1   5  -2  109.30   10.90
  -1   5  -2  123.94    9.22
  -1  -5  -2  116.33    9.93
   1   5  -2  144.42    9.03
   1   5  -1   53.52    7.45
   1  -5  -1   51.70    6.76
  -1   5  -1   71.62    6.86
  -1  -5  -1   44.81    6.17
   1   5  -1   54.71    5.09
  -1   5  -1   43.73    6.81
  -1   5   0  330.36   18.39
  -1  -5   0  342.19   17.43
   1   5   0  389.90   12.92
  -1   5   0  341.72   14.41
   1   5   0  348.49   18.01
   1  -5   0  389.04   18.45
  -1   5   1   58.91    7.64
  -1   5   1   71.47    6.35
   1  -5   1   61.20    7.74
   1   5   1   64.29    7.70
  -1  -5   1   56.36    6.83
   1   5   1   71.26    4.99
  -1   5   2  131.48   11.29
  -1   5   2  132.86    8.31
   1   5   2  141.10   11.20
   1  -5   2  146.73   11.54
   1   5   2  144.84    6.47
  -1  -5   2  136.93   11.27
  -1  -5   3  635.17   24.09
   1   5   3  665.45   24.20
  -1   5   3  630.43   24.28
  -1   5   3  689.16   18.52
   1   5   3  640.56   11.90
   1  -5   3  609.79   23.79
   1  -5   4  497.09   21.50
   1   5   4  490.26   20.44
  -1   5   4  449.35   20.29
  -1  -5   4  518.04   21.92
   1   5   4  421.22    8.17
  -1   5   4  464.82   14.68
  -1   5   5   84.46    6.49
   1  -5   5   75.79    8.61
  -1  -5   5   97.09    9.44
  -1   5   5   77.71    8.49
   1  -5   6  354.33   18.25
   1   5   6  368.79   17.34
  -1   5   6  380.20   13.58
  -1  -5   6  374.42   19.00
  -1   5   6  384.05   18.63
  -1   5   7  342.01   17.35
   1   5   7  325.51   16.34
   1  -5   7  359.69   18.68
   1  -5   8   76.43    8.81
   1   5   8   80.20    7.83
  -1   5   8   85.18    8.64
  -1  -5   8   82.19    9.06
  -1   5   8   80.59    6.49
   1   5   9  374.22   16.69
   1  -5   9  417.53   20.15
  -1   5   9  416.83   18.98
  -1   5   9  417.97   14.96
  -1  -5   9  396.54   20.30
   1   5  10  650.00   20.99
   1  -5  10  675.04   25.84
  -1  -5  10  687.35   26.35
  -1   5  10  645.60   24.10
   1  -5  11   59.64    7.84
   1   5  11   57.40    6.01
  -1  -5  11   44.39    6.51
  -1   5  11   47.09    6.59
  -1   5  12  302.91   16.00
  -1  -5  12  350.49   19.35
   1   5  12  297.59   13.26
   1  -5  12  288.19   18.37
  -1  -5  12  319.77   19.56
  -1   5  13  365.18   17.60
  -1  -5  13  321.64   18.99
   1  -5  13  345.95   19.53
  -1  -5  13  362.58   21.18
  -1  -5  14  107.28   11.39
   1  -5  14   94.02   10.00
  -1  -5  14   90.98   10.19
  -1  -5  15  163.23   13.65
  -1  -5  15  138.84   13.49
  -1  -5  16  468.66   23.44
  -1  -5  16  455.53   24.81
  -1  -5  17   18.75    5.63
   1  -5  17   32.68    6.73
   1  -5  17   36.01    6.80
  -1  -5  17   33.78    6.56
  -1  -5  18   69.13    9.34
   1  -5  18   63.15    9.98
  -1  -5  18   70.42    9.79
   1  -5  18   80.06   10.85
   1  -5  19  153.46   15.72
  -1  -5  19  182.10   15.00
  -1  -5  19  148.44   14.70
   1  -5  19  169.13   15.21
  -1  -5  20   44.34    8.02
   1  -5  20   60.34    9.85
   1  -5  20   74.85   10.00
  -1  -5  20   75.37    9.92
   1  -5  21   34.64    7.85
  -1  -5  21   51.90    8.81
   1  -5  21   52.69    9.72
  -1  -5  22  177.28   16.87
   1  -5  22  227.32   19.58
  -1  -5  23   62.47   10.96
   1  -5  23   56.83   10.37
  -1  -5  24   12.23    4.44
   1  -5  24    4.77    3.96
  -1  -5  25   39.22    8.08
  -1   6 -26   12.86    5.63
   1   6 -26    5.69    4.68
   1   6 -25   12.67    6.80
  -1   6 -25    9.69    5.32
   1   6 -24    6.94    3.81
  -1   6 -24   11.71    5.07
   1   6 -23   10.69    4.57
  -1   6 -23    0.99    1.99
  -1   6 -22   15.43    4.76
   1   6 -22   23.58    6.13
  -1   6 -21   21.74    6.55
   1   6 -21   13.05    4.99
   1   6 -20    4.73    2.59
  -1   6 -20    7.67    4.07
   1   6 -19    5.79    4.09
  -1   6 -19   19.80    5.19
   1   6 -18    6.30    3.93
  -1   6 -18    8.84    3.09
   1   6 -17   17.04    5.03
  -1   6 -17   22.72    6.19
  -1   6 -16   -0.55    2.86
   1   6 -16   10.35    3.69
  -1   6 -15   32.67    7.92
   1   6 -15   22.62    5.78
  -1   6 -14   26.12    5.59
   1   6 -14   13.46    4.03
  -1   6 -13   30.90    6.39
  -1  -6 -13   28.85    5.86
   1   6 -13   26.99    6.30
  -1   6 -13   27.91    7.19
  -1  -6 -12   58.12    8.27
   1   6 -12   68.24    8.91
   1  -6 -12   61.25    7.96
  -1   6 -12   77.25   11.10
  -1   6 -12   66.93    8.61
   1   6 -11   52.54    7.76
  -1   6 -11   45.44    7.63
   1  -6 -11   36.98    6.60
  -1   6 -11   43.37    8.37
  -1  -6 -11   40.18    6.89
  -1   6 -10   24.02    6.69
  -1  -6 -10   22.15    5.07
   1  -6 -10   25.54    5.34
   1   6 -10   27.74    5.71
  -1   6 -10   13.72    3.63
  -1   6  -9    6.69    3.18
   1  -6  -9    5.32    2.59
  -1  -6  -9    4.46    1.98
   1   6  -9    7.47    1.75
  -1   6  -9    9.32    3.94
  -1   6  -8   -0.90    1.50
  -1  -6  -8    3.97    2.48
   1  -6  -8    3.11    2.63
   1   6  -8    4.07    1.73
  -1   6  -8    3.11    3.66
  -1   6  -7   85.62   10.98
   1   6  -7   78.84    8.59
   1  -6  -7   85.13    9.41
  -1  -6  -7   74.86    8.56
  -1   6  -7   90.13    9.32
   1  -6  -6  199.95   14.35
  -1  -6  -6  182.84   13.88
  -1   6  -6  192.57   13.65
   1   6  -6  179.12   15.37
   1   6  -6  205.82   13.59
  -1   6  -6  189.63   15.96
   1  -6  -5  141.94   12.23
   1   6  -5  160.71   14.29
  -1  -6  -5  146.35   12.52
   1   6  -5  169.15   11.92
  -1   6  -5  142.93   13.62
  -1   6  -5  141.50   11.46
  -1   6  -4  144.15   11.33
   1  -6  -4  163.06   13.02
   1   6  -4  155.55   14.21
  -1  -6  -4  166.73   13.10
  -1   6  -4  178.13   15.25
   1   6  -4  165.46   11.33
   1   6  -3  182.76   14.85
   1   6  -3  190.90   11.59
  -1   6  -3  202.48   16.21
  -1   6  -3  194.30   12.69
  -1  -6  -3  142.74   12.36
   1  -6  -3  169.10   13.49
  -1   6  -2  152.42   11.06
   1   6  -2  168.35   10.62
   1   6  -2  155.79   13.28
  -1  -6  -2  162.52   13.11
   1  -6  -2  180.58   13.63
  -1   6  -2  174.65   14.71
  -1   6  -1   27.23    4.84
   1  -6  -1   21.72    5.04
   1   6  -1   22.37    5.60
  -1  -6  -1   36.60    6.43
   1   6  -1   25.91    4.03
  -1   6  -1   27.25    5.43
   1   6   0   58.87    8.12
  -1   6   0   43.98    7.40
   1   6   0   43.76    4.91
  -1  -6   0   43.75    6.99
   1  -6   0   46.03    6.44
  -1   6   0   49.99    6.07
   1   6   1   33.22    6.38
   1   6   1   34.94    3.99
  -1   6   1   39.45    6.93
  -1  -6   1   29.97    6.14
   1  -6   1   34.89    5.73
  -1   6   1   27.77    4.22
   1   6   2  188.13    8.52
  -1   6   2  186.72   10.88
  -1   6   2  149.50   13.55
  -1  -6   2  172.22   13.79
   1   6   2  158.77   12.89
   1  -6   2  183.09   13.58
   1   6   3  174.45    7.47
  -1   6   3  217.18   15.74
  -1   6   3  176.84   10.46
   1  -6   3  190.05   14.06
  -1  -6   3  162.70   13.40
   1   6   3  204.27   14.53
   1  -6   4  176.01   13.74
  -1   6   4  184.12   14.37
  -1  -6   4  142.44   12.54
  -1   6   4  170.62   10.01
   1   6   4  154.67   12.57
  -1  -6   5  143.69   12.72
  -1   6   5  144.77    8.94
   1   6   5  156.90   12.56
   1  -6   5  160.77   13.43
  -1   6   5  147.17   12.69
   1   6   6  194.39   13.96
  -1   6   6  188.73   14.48
  -1   6   6  197.15    9.91
  -1  -6   6  169.92   13.44
   1  -6   6  216.14   15.74
   1   6   7   68.49    8.26
  -1  -6   7   68.41    8.75
   1  -6   7   89.03   10.03
  -1   6   7   68.10    6.27
  -1   6   7   81.97    9.82
   1   6   8    1.39    1.08
  -1  -6   8    4.30    1.90
  -1   6   8    4.61    1.41
  -1   6   9    9.38    2.57
   1  -6   9    3.59    2.10
  -1  -6   9    5.95    3.31
   1   6   9    7.10    2.88
  -1   6  10   21.33    5.08
  -1  -6  10   27.60    5.94
   1   6  10   19.94    4.11
   1  -6  10   16.39    5.85
   1  -6  11   32.08    7.90
   1   6  11   51.92    6.88
  -1  -6  11   53.97    8.20
  -1   6  11   50.52    7.06
  -1   6  12   62.28    7.94
   1  -6  12   69.25    8.92
  -1  -6  12   47.13    7.45
   1  -6  13   41.00    7.32
  -1  -6  13   27.70    5.94
  -1  -6  13   32.40    6.92
   1  -6  14   23.68    5.35
  -1  -6  14   26.87    6.90
  -1  -6  14   25.45    5.39
  -1  -6  15   21.74    5.54
  -1  -6  15   16.56    4.71
  -1  -6  16    2.45    2.60
   1  -6  16    3.67    1.77
  -1  -6  16    6.13    3.07
  -1  -6  17   13.69    4.44
  -1  -6  17   13.45    5.89
   1  -6  17   22.68    6.29
  -1  -6  18    0.35    1.71
   1  -6  18   -3.14    4.19
  -1  -6  18    4.04    3.78
   1  -6  19   19.86    4.30
   1  -6  19   13.25    4.76
  -1  -6  19   27.89    6.51
  -1  -6  19   13.14    5.78
  -1  -6  20   -0.34    2.20
   1  -6  20   10.88    5.43
  -1  -6  20    3.79    4.79
   1  -6  20    7.09    3.86
   1  -6  21    6.96    3.94
  -1  -6  21   13.07    5.23
   1  -6  21   13.34    5.64
  -1  -6  22   19.15    5.93
   1  -6  22   25.14    6.31
  -1  -6  23   14.63    5.78
   1  -6  23   11.08    5.16
  -1  -6  24    2.03    4.17
   1  -6  24    1.08    4.98
   1  -6  25   -2.69    3.80
  -1  -6  25    4.48    4.34
  -1  -6  26   11.85    6.49
  -1   7 -24   16.65    6.87
   1   7 -24   24.71    7.04
  -1   7 -23  110.35   13.67
   1   7 -23  103.51   13.77
  -1   7 -22   92.51   12.73
   1   7 -22  110.61   13.67
  -1   7 -21   13.82    5.06
   1   7 -21   13.62    5.36
  -1   7 -20   60.09   10.38
   1   7 -20   62.58   10.37
   1   7 -19   71.94   11.32
  -1   7 -19   58.04    9.49
  -1   7 -18    5.54    3.17
   1   7 -18   10.17    4.75
  -1   7 -17   35.76    7.41
   1   7 -17   45.66    8.40
  -1   7 -16  109.91   12.96
   1   7 -16  122.92   12.98
   1   7 -15   14.35    4.31
  -1   7 -15   12.70    5.13
  -1   7 -14   22.44    5.88
   1   7 -14   35.14    7.77
   1   7 -13   60.16    9.06
  -1  -7 -13   47.13    8.05
  -1   7 -13   38.39    7.04
  -1   7 -12   44.75    9.15
   1   7 -12   34.46    6.97
  -1  -7 -12   44.03    7.97
  -1   7 -12   53.79    8.97
   1  -7 -12   54.20    8.82
   1   7 -11    7.85    2.82
  -1  -7 -11    4.99    2.25
  -1   7 -11    8.35    2.74
   1  -7 -11    1.08    2.89
  -1   7 -10  230.34   19.16
   1  -7 -10  221.01   16.60
  -1  -7 -10  229.38   16.95
   1   7 -10  234.44   16.99
   1   7  -9  165.45   13.88
  -1   7  -9  106.58   11.50
  -1  -7  -9  113.09   12.08
  -1   7  -9  152.70   15.14
   1  -7  -9  128.45   12.65
   1  -7  -8    5.35    3.76
  -1   7  -8    6.01    3.38
  -1  -7  -8   10.08    3.99
   1   7  -8    4.98    3.04
  -1   7  -8    4.27    4.35
   1  -7  -7  178.89   14.57
   1   7  -7  157.45   13.11
  -1   7  -7  155.67   15.06
  -1  -7  -7  164.82   14.11
  -1   7  -7  171.95   13.89
   1   7  -6  430.82   20.96
  -1  -7  -6  420.29   22.64
  -1   7  -6  455.94   22.13
  -1   7  -6  397.08   24.47
   1  -7  -6  443.13   23.27
  -1   7  -5   76.77   10.69
   1   7  -5   75.93   10.53
  -1  -7  -5   78.54    9.89
   1  -7  -5   83.41   10.06
  -1   7  -5   77.51    9.15
   1   7  -5   83.99    9.12
   1  -7  -4  214.83   16.36
  -1  -7  -4  198.53   15.39
   1   7  -4  231.57   17.98
  -1   7  -4  159.98   12.65
  -1   7  -4  194.88   16.41
   1   7  -4  182.76   12.75
  -1   7  -3  494.98   26.34
  -1  -7  -3  524.68   25.52
   1  -7  -3  572.46   26.11
   1   7  -3  540.32   21.18
   1   7  -3  563.02   27.60
  -1   7  -3  495.45   21.53
  -1   7  -2  246.88   14.81
   1   7  -2  247.46   13.84
  -1   7  -2  237.43   18.52
  -1  -7  -2  248.60   17.71
   1  -7  -2  258.82   17.61
   1   7  -2  241.67   18.31
   1   7  -1    4.75    2.84
  -1   7  -1    3.25    3.45
   1   7  -1    3.11    1.50
  -1  -7  -1    5.91    3.69
   1  -7  -1    5.73    3.43
  -1   7  -1    3.20    1.88
   1   7   0  102.82   11.86
  -1  -7   0   90.95   10.75
  -1   7   0  101.52   11.79
   1   7   0   96.96    8.06
   1  -7   0  105.76   11.32
  -1   7   0   96.63    9.01
  -1   7   1   -0.29    2.63
  -1   7   1    2.05    1.18
   1  -7   1    4.63    3.12
  -1  -7   1    7.56    4.55
   1   7   1    0.93    2.91
   1   7   2  252.57   18.13
  -1  -7   2  256.17   17.96
  -1   7   2  219.27   17.43
   1  -7   2  229.50   16.91
  -1   7   2  251.82   13.22
   1  -7   3  517.39   25.02
  -1  -7   3  544.67   26.59
  -1   7   3  561.83   27.14
   1   7   3  520.97   25.62
  -1  -7   4  178.28   15.30
  -1   7   4  195.58   16.34
   1  -7   4  198.23   15.80
   1   7   4  210.43   16.51
  -1  -7   5   88.47   10.86
   1   7   5   86.70   10.43
  -1   7   5   61.22    9.71
   1  -7   5   84.33   10.45
  -1   7   6  427.18   23.92
  -1  -7   6  428.70   23.48
   1   7   6  409.84   22.47
   1  -7   6  448.61   23.56
  -1  -7   7  174.08   14.84
   1  -7   7  163.13   14.39
   1   7   7  159.07   14.23
  -1  -7   8    1.55    1.63
   1   7   8    3.15    1.85
   1  -7   8    3.73    1.85
  -1   7   8    3.99    2.80
  -1   7   9  140.57   13.98
  -1  -7   9  176.74   15.15
   1   7   9  161.60   13.87
   1  -7   9  157.44   14.39
   1  -7  10  212.96   16.30
  -1  -7  10  238.58   17.47
  -1   7  10  230.06   17.63
   1   7  10  255.80   17.08
  -1   7  11    5.52    3.40
   1  -7  11    9.51    3.33
  -1  -7  11   15.22    4.60
   1  -7  12   52.69    8.31
  -1  -7  12   61.48    9.39
  -1  -7  13   48.15    8.28
   1  -7  13   46.31    8.46
  -1  -7  13   50.39    9.01
   1  -7  14   25.89    6.29
  -1  -7  14   19.97    5.06
  -1  -7  14   15.75    5.83
  -1  -7  15   11.28    3.71
   1  -7  15   17.00    4.68
  -1  -7  15   23.95    6.05
  -1  -7  16   88.11   11.69
  -1  -7  16  114.05   14.02
   1  -7  16   98.51   12.16
   1  -7  17   41.39    7.95
   1  -7  17   28.34    7.17
  -1  -7  17   57.86   10.48
  -1  -7  17   32.54    7.60
  -1  -7  18    9.69    4.11
  -1  -7  18   13.99    4.99
   1  -7  18   15.90    5.16
   1  -7  18    7.43    4.19
   1  -7  19   69.56   11.03
   1  -7  19   60.08    9.88
  -1  -7  19   77.95   11.13
  -1  -7  19   73.20   10.51
  -1  -7  20   53.83    9.62
   1  -7  20   61.58   10.31
   1  -7  20   66.22   10.88
  -1  -7  20   60.87   10.43
  -1  -7  21    9.63    3.80
   1  -7  21    8.61    4.67
   1  -7  21   11.92    6.14
  -1  -7  21    4.83    3.76
   1  -7  22   97.82   14.24
  -1  -7  22   97.35   13.60
   1  -7  23  174.39   18.76
  -1  -7  23  119.45   15.11
  -1  -7  24   24.10    8.01
   1  -7  24   30.31    8.77
  -1   8 -22   16.25    7.23
   1   8 -22   18.11    5.53
  -1   8 -21    5.11    4.09
   1   8 -21   -2.98    3.22
  -1   8 -20    6.97    4.81
   1   8 -20    8.07    4.72
  -1   8 -19    2.81    2.71
   1   8 -19    2.91    3.53
  -1   8 -18    9.22    5.35
   1   8 -18    3.71    4.59
  -1   8 -17    2.52    2.39
   1   8 -17    7.35    3.61
   1   8 -16   11.23    5.42
  -1   8 -16    6.97    4.38
  -1   8 -15    2.29    4.25
   1   8 -15   -0.80    2.19
   1   8 -14    7.13    5.06
  -1   8 -14    2.03    1.94
   1   8 -13    5.16    3.01
  -1   8 -13   10.38    3.80
  -1  -8 -12   10.00    4.77
   1   8 -12    5.18    3.95
  -1   8 -12    9.96    4.73
   1   8 -11   26.97    6.46
  -1   8 -11   27.90    6.76
   1  -8 -11   29.08    6.05
  -1  -8 -11   31.51    6.93
  -1   8 -11   13.55    5.08
  -1  -8 -10    3.71    2.82
  -1   8 -10   -2.45    1.77
   1  -8 -10    5.53    5.12
  -1   8 -10    4.54    3.96
   1   8 -10   -2.58    2.79
   1  -8  -9    1.96    2.36
  -1  -8  -9   -0.49    2.81
  -1   8  -9    4.04    4.29
   1   8  -9    1.93    2.89
  -1   8  -9    2.66    2.38
  -1   8  -8   13.93    4.46
   1  -8  -8   21.16    6.02
   1   8  -8   15.53    4.38
  -1   8  -8   10.64    3.43
  -1  -8  -8   13.07    4.24
   1   8  -7   11.07    4.12
   1  -8  -7    3.73    2.76
  -1  -8  -7    6.64    3.59
  -1   8  -7    2.67    3.99
  -1   8  -7    6.67    3.07
  -1  -8  -6  145.50   13.98
   1  -8  -6  120.80   12.98
   1   8  -6  123.15   11.58
  -1   8  -6  157.26   15.86
  -1   8  -5   37.66    7.88
   1  -8  -5   36.10    7.61
  -1   8  -5   44.33    8.34
  -1  -8  -5   38.06    6.66
   1   8  -5   29.78    6.11
  -1  -8  -4   30.82    7.15
  -1   8  -4   21.60    7.01
  -1   8  -4   34.72    6.35
   1  -8  -4   31.95    7.16
  -1  -8  -3   53.83    8.30
  -1   8  -3   52.60    7.73
   1   8  -3   53.95    9.42
   1  -8  -3   59.44    8.96
  -1   8  -3   50.97    9.06
   1  -8  -2  145.03   14.01
  -1   8  -2  153.76   15.88
  -1  -8  -2  162.27   14.89
   1   8  -2  154.63   15.45
  -1   8  -1   17.84    5.68
  -1  -8  -1   23.60    6.17
   1  -8  -1   12.97    4.39
   1   8  -1   10.45    3.44
  -1  -8   0   31.88    7.42
   1   8   0   18.00    6.73
  -1   8   0   33.34    7.30
   1  -8   0   41.96    7.51
   1   8   1   19.30    5.12
  -1  -8   1   18.34    6.25
   1  -8   1   21.82    6.01
  -1   8   1   19.21    5.30
   1  -8   2  138.48   14.26
  -1   8   2  145.65   14.83
   1   8   2  143.26   14.59
  -1  -8   2  158.57   14.96
   1  -8   3   58.68    9.14
  -1  -8   3   60.46    9.38
   1   8   3   65.10    9.68
  -1   8   3   37.97    7.21
  -1   8   4   29.51    6.56
   1  -8   4   34.03    7.65
   1   8   4   34.76    7.68
  -1  -8   4   35.46    6.75
   1   8   5   39.09    6.93
   1  -8   5   46.43    8.13
  -1   8   5   57.05    9.72
  -1  -8   5   24.50    6.29
   1  -8   6  147.61   14.41
   1   8   6  159.93   15.59
  -1   8   6  128.05   14.73
  -1  -8   6  151.09   14.85
  -1  -8   7    2.70    2.81
  -1   8   7   -0.75    1.92
   1   8   7   -1.42    4.01
   1   8   8   12.21    3.69
   1  -8   8   16.44    5.03
  -1  -8   8   14.47    5.20
  -1   8   8   15.40    6.39
   1  -8   9    0.97    2.56
  -1  -8   9    0.81    2.02
   1   8   9    1.90    3.66
  -1   8   9    3.83    3.25
  -1   8  10    5.36    2.57
  -1  -8  10    5.86    4.46
   1  -8  10    3.84    3.42
  -1  -8  11   19.00    5.82
   1  -8  11   25.82    5.75
  -1  -8  12    8.77    4.86
  -1  -8  12   -1.66    3.11
   1  -8  12    6.32    2.64
   1  -8  13    6.21    4.15
  -1  -8  13   14.94    4.68
  -1  -8  13   12.16    5.00
  -1  -8  14    9.82    4.00
   1  -8  14    1.76    2.52
  -1  -8  14    7.72    4.32
   1  -8  15   -5.20    4.08
  -1  -8  15   -1.83    1.81
  -1  -8  15   -0.20    2.65
   1  -8  16    5.25    4.77
  -1  -8  16    3.55    2.28
  -1  -8  16    7.70    4.49
  -1  -8  17    3.20    2.71
   1  -8  17    8.33    5.48
  -1  -8  17   -0.47    2.16
   1  -8  17    7.11    4.04
  -1  -8  18    1.53    2.46
  -1  -8  18    0.27    2.40
   1  -8  18   -1.88    2.87
   1  -8  18    6.31    4.46
  -1  -8  19   10.38    4.82
   1  -8  19    7.63    3.97
   1  -8  19   15.34    6.57
  -1  -8  19   11.58    4.62
  -1  -8  20   -3.03    4.61
   1  -8  20   10.06    4.48
   1  -8  20    4.07    4.28
  -1  -8  20    2.22    3.74
   1  -8  21    3.28    2.10
  -1  -8  21    3.22    3.59
   1  -8  21    3.27    3.82
  -1  -8  21    1.02    2.75
  -1  -8  22   13.89    5.14
   1  -8  22    6.33    3.08
   1  -8  22   14.48    5.34
  -1   9 -19   54.88   10.36
   1   9 -19   56.17   10.78
  -1   9 -18   16.86    5.75
   1   9 -18   14.15    4.95
  -1   9 -17   63.37   11.11
   1   9 -17   72.60   11.03
   1   9 -16   99.59   13.52
  -1   9 -16  112.61   13.76
   1   9 -15   16.47    6.18
  -1   9 -15   31.45    7.53
   1   9 -14   28.37    5.67
  -1   9 -14   19.61    6.18
   1   9 -13   62.10    9.90
  -1   9 -13  105.84   13.67
  -1   9 -12   41.22    9.53
   1   9 -12   42.52    8.62
   1   9 -11   35.40    6.71
  -1   9 -11   24.61    6.03
  -1  -9 -11   23.46    6.29
  -1  -9 -10  140.42   15.33
  -1   9 -10  142.55   14.97
   1  -9 -10  153.12   16.04
  -1  -9  -9   49.03    8.58
  -1   9  -9   53.47    9.52
   1  -9  -9   37.93    7.55
  -1   9  -9   52.85    9.61
  -1   9  -8   21.46    5.86
  -1  -9  -8   11.04    4.59
   1  -9  -8    9.18    3.60
  -1   9  -8   17.32    6.53
  -1   9  -7  125.38   15.04
   1  -9  -7   99.42   12.42
  -1  -9  -7  108.91   12.98
  -1  -9  -6  265.46   20.40
   1  -9  -6  208.82   18.48
  -1   9  -6  234.69   20.37
  -1   9  -5    8.26    4.36
   1  -9  -5    4.46    3.92
  -1  -9  -5    5.94    3.76
   1  -9  -4  108.64   13.16
  -1  -9  -4  139.05   14.60
  -1   9  -4  143.60   15.82
   1  -9  -3  167.00   15.93
  -1  -9  -3  178.46   16.41
  -1   9  -3  143.92   15.72
  -1   9  -2  108.76   13.94
   1  -9  -2   86.09   11.51
  -1  -9  -2  110.88   12.46
  -1   9  -1   12.13    4.82
  -1  -9  -1    9.26    4.11
   1  -9  -1   20.34    5.90
   1  -9   0  116.11   13.04
  -1  -9   0   99.08   12.16
  -1   9   0   93.65   12.61
  -1  -9   1    9.83    4.19
  -1   9   1   20.45    6.52
   1  -9   1   12.40    4.51
  -1  -9   2  103.66   12.81
   1  -9   2  103.52   12.63
  -1   9   2  103.54   13.40
  -1   9   3  188.74   17.71
   1  -9   3  201.32   17.92
  -1  -9   3  171.10   16.16
  -1   9   4  114.40   14.20
   1  -9   4  157.78   15.36
  -1  -9   4  137.30   14.48
  -1  -9   5   10.73    4.90
   1  -9   5    7.52    3.74
  -1   9   5    3.48    2.83
   1  -9   6  219.30   18.07
  -1   9   6  213.37   19.28
  -1  -9   6  215.45   18.25
  -1  -9   7  143.14   14.67
   1  -9   7  126.96   14.87
  -1   9   7   92.66   12.83
  -1  -9   8   11.42    5.08
   1  -9   8    5.57    3.58
  -1   9   8    9.34    4.28
   1  -9   9   63.08    9.96
  -1  -9   9   46.79    9.12
  -1  -9  10  144.93   15.85
   1  -9  10  148.45   15.06
  -1  -9  10  167.56   16.35
  -1  -9  11   26.08    6.15
  -1  -9  11   44.13    9.35
   1  -9  11   37.99    8.35
   1  -9  12   44.52    7.63
  -1  -9  12   27.46    7.94
  -1  -9  12   41.37    9.24
   1  -9  13   95.54   12.62
  -1  -9  13  101.50   13.21
  -1  -9  13  102.97   13.46
  -1  -9  14   30.28    8.28
   1  -9  14   40.90    8.51
  -1  -9  14   41.51    8.55
  -1  -9  15   29.39    6.82
   1  -9  15   17.77    6.13
  -1  -9  15   33.55    8.23
  -1  -9  16  106.39   14.14
   1  -9  16  116.77   14.88
  -1  -9  16   94.65   13.50
   1  -9  16   94.32   13.10
  -1  -9  17   69.93   11.90
   1  -9  17   56.22    9.99
   1  -9  17   73.69   11.46
  -1  -9  17   71.71   11.77
   1  -9  18   12.28    5.86
  -1  -9  18    8.58    4.73
   1  -9  18   10.62    5.70
  -1  -9  18   28.45    8.76
   1  -9  19   89.31   13.38
  -1  -9  19   67.85   11.67
   1  -9  19   65.43   11.97
  -1  -9  19   68.68   11.98
  -1  10 -16   -0.06    3.31
  -1 -10 -10   33.01    7.91
   1 -10 -10   37.47    9.41
  -1 -10  -9   28.45    7.13
   1 -10  -9   23.47    6.77
   1 -10  -8    3.75    3.38
  -1 -10  -8    3.31    3.44
  -1 -10  -7   28.11    8.07
  -1  10  -7   18.03    5.24
   1 -10  -7   32.19    7.97
   1 -10  -6   60.72   10.20
  -1  10  -6   65.13   10.92
  -1 -10  -6   92.14   12.72
  -1  10  -5   13.99    6.07
  -1 -10  -5   21.57    6.00
   1 -10  -5   12.63    5.62
   1 -10  -4   67.79   10.96
  -1 -10  -4   59.60   10.13
  -1  10  -4   58.43   10.01
  -1  10  -3   20.11    6.27
  -1 -10  -3   36.42    8.38
   1 -10  -3   25.88    6.92
   1 -10  -2   20.43    5.46
  -1  10  -2   18.80    6.37
  -1 -10  -2   26.50    6.70
   1 -10  -1   10.22    5.65
  -1 -10  -1   24.23    7.02
  -1  10  -1   16.10    6.07
  -1 -10   0   33.02    7.03
   1 -10   0   34.93    8.49
  -1  10   0   31.25    7.76
  -1  10   1   23.95    7.03
   1 -10   1   15.62    5.02
  -1 -10   1   19.10    5.50
   1 -10   2   17.92    5.85
  -1 -10   2   15.35    5.32
  -1  10   2   16.36    6.39
  -1  10   3   27.09    6.62
   1 -10   3   20.28    5.70
  -1 -10   3   18.23    5.49
   1 -10   4   61.38    9.87
  -1  10   4   59.22   11.91
  -1  10   5   16.83    5.57
   1 -10   5   15.01    5.54
  -1 -10   5   21.44    5.74
   1 -10   6  100.25   12.82
  -1 -10   6   74.10   11.12
   1 -10   7   27.72    6.64
  -1  10   7   30.93    8.32
  -1 -10   7   36.92    8.46
  -1 -10   8    8.30    4.17
   1 -10   8   -2.81    3.92
  -1 -10   8    0.48    3.02
   1 -10   9   29.71    6.63
  -1 -10   9   14.64    5.89
   1 -10  10   28.78    6.52
  -1 -10  10   38.35    8.29
  -1 -10  10   42.72    8.94
   1 -10  11   17.77    5.65
  -1 -10  11    8.03    4.61
  -1 -10  11   15.61    5.32
  -1 -10  12   33.97    8.12
   1 -10  12   42.95    8.22
  -1 -10  12   54.37    9.84
   1 -10  13   21.62    7.23
  -1 -10  13   41.19    8.84
  -1 -10  13   27.27    7.16
   1 -10  14   21.60    6.46
  -1 -10  14   14.38    3.53
   1 -10  14   12.21    6.00
  -1 -10  14   19.67    6.99
   1 -10  15   15.98    6.68
  -1 -10  15   23.71    6.18
  -1 -10  15   10.51    5.05
   1 -10  15   22.82    6.82
  -1 -10  16    5.48    3.89
  -1 -10  16   11.42    6.27
   1 -10  16    5.14    4.00
   1 -10  16   10.66    6.12
  -1 -11 -10   38.28   11.14
   1 -11  -9   57.50   12.47
  -1 -11  -9   31.39    8.68
  -1 -11  -8   11.75    5.91
   1 -11  -8    9.74    5.75
  -1 -11  -7   74.46   12.02
   1 -11  -7   66.04   11.81
  -1 -11  -6   62.53   11.04
   1 -11  -6   58.77   10.36
  -1 -11  -5    6.50    4.75
   1 -11  -5    6.56    2.23
   1 -11  -4   41.20    8.57
  -1 -11  -4   44.46    9.36
  -1 -11  -3   40.41    8.50
   1 -11  -3   25.98    7.54
   1 -11  -2   23.97    6.54
  -1 -11  -2   19.45    5.64
  -1  11  -2   15.39    6.76
  -1  11  -1   50.51   10.42
   1 -11  -1   31.53    8.34
  -1 -11  -1   24.61    7.12
  -1 -11   0   45.37    8.99
  -1  11   0   51.95   10.06
   1 -11   0   52.19   10.46
  -1 -11   1   29.53    6.95
   1 -11   1   18.48    5.69
  -1  11   1   38.69    9.66
  -1 -11   2   25.72    7.32
  -1  11   2   30.68    8.19
   1 -11   2   20.22    6.55
  -1 -11   3   40.74    8.88
  -1 -11   3   33.78    8.00
  -1  11   3   39.12    9.20
  -1 -11   4   51.67   10.70
  -1 -11   4   40.94    8.88
   1 -11   4   38.77    8.35
  -1  11   4   45.19   10.78
  -1  11   5    4.81    3.39
  -1 -11   5   10.71    5.12
   1 -11   5    5.65    2.75
  -1 -11   5   12.10    5.01
   1 -11   6   53.61   10.53
  -1 -11   6   74.63   11.56
  -1 -11   6   81.56   11.88
  -1 -11   7   39.14    9.55
  -1 -11   7   40.79    9.24
   1 -11   7   45.35    8.70
   1 -11   8    6.00    5.01
  -1 -11   8   10.21    5.57
  -1 -11   8    0.78    2.88
  -1 -11   9   35.07    7.39
  -1 -11   9   31.47    8.46
   1 -11   9   42.35    8.13
  -1 -11  10   61.73   11.09
  -1 -11  10   53.53   10.48
   1 -11  10   45.94   10.04
  -2   0 -30   98.17   13.91
  -2   0 -29   77.74   11.77
  -2   0 -28   88.51   12.72
  -2   0 -27   15.45    5.87
  -2   0 -26    1.48    1.76
  -2   0 -25  249.84   19.57
  -2   0 -24  159.82   15.27
   2   0 -23  362.96   22.85
  -2   0 -23  382.80   22.63
  -2   0 -22   95.39   10.98
   2   0 -22   96.69   11.60
   2   0 -21  363.25   21.69
  -2   0 -21  394.24   22.21
  -2   0 -20   63.46    9.06
   2   0 -20   72.87    9.59
  -2   0 -19 1249.25   38.08
   2   0 -19 1215.91   38.09
   2   0 -18   30.92    6.01
  -2   0 -18   32.85    5.93
   2   0 -17  447.98   21.92
  -2   0 -17  407.03   20.43
   2   0 -16   64.02    8.14
  -2   0 -16   53.62    7.57
   2   0 -15 1006.23   30.74
  -2   0 -15 1044.63   31.37
   2   0 -14   78.99    8.20
  -2   0 -14   71.94    7.97
  -2   0 -13 6749.04   73.62
   2   0 -13 6781.80   75.62
   2   0 -12  121.14    9.69
  -2   0 -12  111.57    9.07
   2   0 -11  445.80   17.75
  -2   0 -11  421.98   17.22
  -2   0 -10 3395.35   45.96
   2   0 -10 3369.89   46.78
  -2   0  -9 2680.94   28.20
  -2   0  -9 2679.46   39.14
   2   0  -9 2696.67   40.01
  -2   0  -8  606.46   18.00
   2   0  -8  579.15   17.76
  -2   0  -8  610.59   13.09
  -2   0  -7 9656.06   68.31
  -2   0  -6  986.11   15.49
  -2   0  -6  985.58   20.39
  -2   0  -5 2675.06   29.00
  -2   0  -5 2614.14   30.98
  -2   0  -3 8080.00   47.59
  -2   0  -1  577.34   11.50
  -2   0  -1  615.48   11.39
  -2   0  -1  586.67   11.38
  -2   0   0    6.46    1.18
  -2   0   0    2.91    1.32
  -2   0   1  569.28   11.84
  -2   0   1  613.56   10.56
  -2   0   5 2607.99   29.90
  -2   0   6  983.46   19.05
  -2   0   7 9910.51   63.01
  -2   0   8  579.81   16.10
  -2   0   9 2464.73   34.81
  -2   0  10 3337.05   41.87
  -2   0  11  460.39   15.80
  -2   0  12  136.69    9.04
   2   0  12  131.11    6.72
  -2   0  13 6763.35   65.67
   2   0  13 6804.43   50.41
  -2   0  14   68.38    6.89
   2   0  14   63.73    5.14
   2   0  15 1025.46   21.47
  -2   0  15 1071.60   28.00
   2   0  16   51.59    4.94
  -2   0  16   84.45    8.19
  -2   0  17  428.64   18.86
   2   0  17  428.50   14.77
  -2   0  18   42.77    6.34
  -2   0  19 1184.07   33.74
  -2   0  20   66.36    8.50
  -2   1 -30   -0.08    2.48
  -2   1 -29    7.25    4.95
  -2   1 -28   13.17    4.65
  -2  -1 -28    6.10    2.98
  -2   1 -27    1.41    3.03
  -2  -1 -27   -5.05    4.88
  -2  -1 -26    3.67    4.44
   2   1 -26   -2.44    4.05
  -2   1 -26    0.09    2.50
   2   1 -25   -0.50    2.82
  -2  -1 -25   -0.44    3.30
  -2   1 -25   -3.54    4.15
   2   1 -24    7.01    5.11
  -2  -1 -24   15.63    3.98
  -2   1 -24    7.70    3.76
   2   1 -23   -0.63    4.10
  -2  -1 -23    8.30    4.44
  -2   1 -23    4.12    1.98
   2   1 -22   48.83    8.92
  -2   1 -22   31.73    6.90
  -2  -1 -22   43.63    7.47
  -2  -1 -21   29.01    6.30
   2   1 -21   24.22    6.47
  -2   1 -21   17.26    4.99
  -2  -1 -20   44.77    7.02
  -2   1 -20   46.36    7.61
   2   1 -20   45.50    7.46
   2   1 -19    7.22    2.80
  -2  -1 -19   12.04    4.48
  -2   1 -19   13.51    3.78
   2   1 -18   66.97    8.74
  -2   1 -18   72.40    9.10
  -2  -1 -18   70.58    8.61
  -2   1 -17   11.69    4.33
   2   1 -17   20.62    5.18
  -2  -1 -17   16.74    3.99
  -2  -1 -16   65.22    7.69
   2   1 -16   82.44    9.30
  -2   1 -16   73.32    9.08
   2   1 -15   82.52    8.99
  -2  -1 -15   80.94    8.13
  -2   1 -15   96.16    9.87
  -2   1 -14  208.22   13.87
   2   1 -14  209.00   13.82
  -2  -1 -14  197.82   12.51
   2   1 -13   57.46    7.24
  -2   1 -13   60.01    7.46
  -2  -1 -13   62.80    6.80
  -2  -1 -12  794.11   19.83
  -2   1 -12  737.88   24.57
   2   1 -12  733.98   24.20
  -2  -1 -12  775.57   22.95
   2   1 -11   45.00    5.67
  -2   1 -11   44.86    5.06
  -2  -1 -11   50.89    5.68
  -2  -1 -11   61.51    5.23
  -2   1 -11   49.54    6.21
  -2  -1 -10   58.13    5.17
   2   1 -10   69.97    7.10
  -2   1 -10   57.13    6.62
  -2  -1 -10   71.71    6.31
  -2   1 -10   77.39    6.35
  -2   1  -9   97.94    7.50
  -2  -1  -9  111.38    7.55
   2   1  -9  110.48    8.40
  -2   1  -9  113.49    8.68
  -2  -1  -9  115.40    6.97
   2   1  -8  247.70   11.85
  -2  -1  -8  236.21    9.93
  -2  -1  -8  236.12   10.00
  -2   1  -8  248.67   11.46
  -2   1  -8  218.93   11.56
  -2  -1  -7  133.60    6.91
  -2   1  -7  140.62    8.88
   2   1  -7  131.72    8.35
  -2   1  -7  119.54    7.62
  -2  -1  -7  130.62    7.02
  -2  -1  -6 1137.30   20.08
  -2   1  -6 1090.74   22.20
  -2  -1  -6 1158.67   18.86
   2   1  -6 1106.87   22.52
  -2   1  -6 1052.40   23.57
  -2  -1  -5   29.21    3.23
  -2   1  -5   38.93    4.07
  -2  -1  -5   27.23    2.58
  -2   1  -5   30.47    3.67
   2   1  -5   36.88    4.03
   2   1  -4  163.36    7.69
  -2   1  -4  157.83    7.88
  -2  -1  -4  154.74    5.71
  -2  -1  -4  152.33    6.95
  -2   1  -4  165.10    8.27
  -2  -1  -3 1346.32   14.25
  -2   1  -3 1343.80   22.32
  -2  -1  -3 1317.56   20.22
  -2  -1  -3 1336.33   14.99
  -2  -1  -2  173.62    5.35
  -2   1  -2  189.61    8.20
  -2  -1  -2  167.26    5.43
  -2  -1  -2  176.88    7.19
  -2   1  -2  178.02    7.77
  -2   1  -1   41.87    3.71
  -2   1  -1   45.61    3.95
  -2  -1  -1   40.17    2.83
  -2  -1  -1   45.91    3.70
  -2  -1   0   -0.57    0.72
  -2   1   0    0.47    0.62
  -2  -1   0   -0.11    0.28
  -2   1   0    0.50    0.50
  -2  -1   1   42.46    3.47
  -2  -1   1   43.33    3.43
  -2   1   1   43.09    3.86
  -2   1   2  173.50    7.64
  -2  -1   2  187.13    7.05
  -2  -1   2  171.72    7.27
  -2  -1   3 1272.53   18.26
  -2  -1   3 1309.51   21.55
  -2  -1   4  144.10    7.62
  -2  -1   4  166.23    6.61
  -2   1   4  148.43    7.17
  -2  -1   5   33.16    3.01
  -2   1   5   30.64    3.32
  -2  -1   5   30.73    3.42
  -2  -1   6 1085.80   21.98
  -2  -1   6 1098.37   17.67
  -2   1   6 1131.89   20.49
  -2   1   7  132.19    7.22
  -2  -1   7  138.93    6.28
  -2  -1   7  143.07    8.33
  -2  -1   8  245.76   11.21
  -2  -1   8  220.96    7.94
  -2   1   8  258.72   10.29
  -2  -1   9  106.79    7.65
  -2   1   9  114.95    7.21
  -2  -1   9  114.99    5.81
  -2  -1  10   69.50    6.30
  -2   1  10   75.42    5.92
  -2  -1  10   69.02    4.61
  -2   1  11   54.65    5.36
  -2  -1  11   60.73    6.25
  -2  -1  11   44.97    3.80
  -2  -1  12  757.95   16.07
  -2  -1  12  767.42   22.44
  -2  -1  13   72.61    7.12
  -2  -1  13   71.25    4.97
  -2   1  13   65.99    6.25
   2  -1  14  211.76   11.52
  -2  -1  14  205.98    8.67
  -2   1  14  191.88   11.06
  -2  -1  14  211.80   12.53
  -2   1  15   81.55    7.35
   2   1  15   54.82    3.14
   2  -1  15   75.61    6.97
  -2  -1  15   76.55    7.67
  -2  -1  15   75.44    5.39
  -2  -1  16   66.97    5.00
   2  -1  16   79.88    7.25
  -2  -1  16   79.72    8.32
  -2   1  16   79.80    7.75
  -2   1  17    9.05    2.39
  -2  -1  17   10.36    2.81
  -2  -1  18   69.11    7.99
  -2   1  18   59.63    6.76
   2  -1  18   55.08    6.55
  -2  -1  19    6.66    3.50
   2  -1  19   13.54    3.24
  -2  -1  20   50.68    7.38
  -2  -1  21   16.10    3.97
  -2   2 -30    5.35    5.21
  -2   2 -29  215.41   19.22
   2   2 -29  183.70   18.57
   2   2 -28   44.87    8.22
  -2   2 -28   64.25   11.05
  -2   2 -27    8.36    3.13
   2   2 -27   20.48    7.01
  -2   2 -26   23.30    6.40
   2   2 -26    6.46    4.50
  -2   2 -25  313.58   21.98
   2   2 -25  316.36   22.07
   2   2 -24   19.77    4.98
  -2   2 -24   16.11    4.57
  -2  -2 -24   31.62    8.49
   2   2 -23  386.26   23.91
  -2  -2 -23  418.82   24.24
  -2   2 -23  379.05   23.19
   2   2 -22   12.48    4.64
  -2   2 -22    9.18    3.47
  -2  -2 -22    5.43    2.81
  -2   2 -21   21.13    5.25
  -2  -2 -21   25.97    6.28
   2   2 -21   31.85    6.38
  -2   2 -20   29.86    6.49
  -2  -2 -20   33.54    6.30
   2   2 -20   33.32    7.13
   2   2 -19  469.50   24.55
  -2  -2 -19  468.88   22.59
  -2   2 -19  498.83   25.03
  -2   2 -18   92.28   10.60
  -2  -2 -18  102.24   10.19
   2   2 -18   90.14   10.53
   2   2 -17  405.23   21.48
  -2  -2 -17  413.22   20.00
  -2   2 -17  390.63   21.55
  -2   2 -16    5.70    3.73
  -2  -2 -16   12.03    3.52
  -2  -2 -16   13.05    4.30
   2   2 -16    9.17    2.35
   2   2 -15   96.90    9.88
  -2  -2 -15   98.04    7.66
  -2  -2 -15  103.54    9.19
  -2   2 -15  113.95   11.13
  -2  -2 -14   17.88    3.16
   2   2 -14    7.95    2.99
  -2   2 -14   10.40    3.79
  -2  -2 -14    9.43    2.32
   2   2 -13 1339.38   34.26
  -2  -2 -13 1362.28   29.41
  -2  -2 -13 1386.32   27.85
  -2   2 -13 1322.60   33.68
   2   2 -12  275.94   15.44
  -2   2 -12  283.45   15.94
  -2  -2 -12  277.33   12.58
  -2   2 -12  262.12   14.66
  -2  -2 -12  292.98   12.68
  -2   2 -11    4.26    1.82
   2  -2 -11    3.43    0.69
  -2  -2 -11    1.85    0.82
  -2   2 -11    5.40    2.56
  -2  -2 -11    8.60    2.48
   2   2 -11    8.59    2.76
  -2  -2 -10  181.75    9.78
  -2  -2 -10  198.04    9.52
  -2   2 -10  206.05   12.71
   2  -2 -10  188.30    6.13
  -2   2 -10  182.47   11.77
   2   2 -10  194.51   11.84
  -2   2  -9 1028.55   27.85
   2   2  -9  971.85   25.08
   2  -2  -9  982.15   14.80
  -2  -2  -9  989.64   19.88
  -2  -2  -9  980.07   22.20
  -2   2  -8   86.86    7.92
  -2   2  -8   90.72    7.89
   2  -2  -8   90.78    4.68
  -2  -2  -8   85.32    6.32
  -2  -2  -8   73.08    4.94
   2   2  -8   76.93    6.71
  -2  -2  -7  769.00   18.80
   2   2  -7  765.07   20.32
  -2  -2  -7  768.06   14.50
  -2   2  -7  759.40   22.90
   2  -2  -7  778.60   14.05
  -2   2  -6   80.65    7.07
  -2  -2  -6   59.63    5.21
  -2  -2  -6   76.49    3.99
   2   2  -6   62.51    5.50
  -2  -2  -6   70.52    3.45
   2  -2  -6   76.33    4.62
  -2   2  -6   70.24    6.67
  -2  -2  -5  115.28    4.77
  -2  -2  -5  115.52    7.01
  -2   2  -5  123.42    8.38
  -2  -2  -5  117.58    4.13
   2   2  -5   97.23    6.43
   2  -2  -5  113.36    5.82
  -2   2  -5  117.08    8.53
  -2  -2  -4  295.67    8.45
  -2   2  -4  297.21   12.63
  -2  -2  -4  268.00   10.73
   2   2  -4  253.53    9.89
  -2   2  -4  277.98   12.86
   2  -2  -4  277.72    9.44
  -2   2  -3 3744.78   46.90
   2   2  -3 3795.93   36.20
  -2  -2  -3 3827.95   32.94
  -2  -2  -3 3768.71   40.02
   2   2  -2  415.77   11.15
  -2  -2  -2  434.33   11.65
  -2   2  -2  440.40   15.65
  -2  -2  -2  443.38   13.70
  -2   2  -1 1265.23   22.87
  -2  -2  -1 1288.31   23.10
  -2   2  -1 1222.25   25.24
  -2  -2  -1 1246.35   20.68
   2   2  -1 1203.11   16.92
  -2  -2   0  262.31   10.43
  -2   2   0  256.69   10.04
  -2  -2   0  248.77    9.64
  -2  -2   1 1246.11   22.73
  -2  -2   1 1209.23   22.49
  -2   2   1 1176.37   24.05
  -2   2   1 1242.09   21.62
  -2  -2   2  413.98   13.21
  -2   2   2  472.94   14.73
  -2   2   2  402.99   12.30
  -2  -2   2  463.28   14.44
  -2  -2   3 3899.65   43.16
  -2  -2   3 4008.63   41.64
  -2   2   4  300.39   11.69
  -2  -2   4  272.30   11.82
  -2  -2   4  276.50   10.86
  -2   2   5  111.69    7.27
  -2  -2   5  111.99    7.06
  -2  -2   6   79.51    6.83
  -2   2   6   70.74    5.79
  -2  -2   6   80.35    6.05
  -2  -2   7  797.65   21.95
  -2  -2   7  819.95   19.29
  -2   2   7  798.24   19.67
  -2  -2   8   77.46    6.18
  -2  -2   8   86.28    7.41
  -2   2   8   85.32    6.41
  -2  -2   9  961.40   21.56
  -2  -2   9  997.70   26.05
  -2   2   9  974.92   22.16
  -2  -2  10  196.60    9.98
  -2   2  10  205.60   10.21
  -2  -2  10  185.35   11.54
  -2  -2  11    2.52    1.64
  -2   2  11    6.18    2.07
  -2  -2  11    4.21    1.45
  -2  -2  12  286.82   14.95
  -2   2  12  286.19   12.72
  -2  -2  12  269.79   12.15
  -2  -2  13 1328.98   33.43
  -2   2  13 1427.54   28.60
  -2  -2  13 1397.01   27.38
  -2   2  14    8.23    2.66
  -2  -2  14    7.84    2.30
  -2  -2  14    7.67    2.77
  -2   2  15  110.99    8.39
  -2  -2  15  106.81    8.02
  -2  -2  15  118.69   10.13
  -2  -2  16   11.27    2.49
  -2   2  16    8.44    2.59
   2  -2  16    7.51    2.76
  -2  -2  16   11.05    3.81
  -2  -2  17  414.55   20.12
  -2   2  17  408.81   17.45
   2  -2  17  434.88   19.97
  -2  -2  17  399.85   16.06
   2  -2  18   83.92    9.10
  -2  -2  18   98.68   10.16
   2  -2  19  469.62   21.71
  -2  -2  19  463.92   22.41
   2  -2  20   27.48    5.67
  -2  -2  20   43.58    7.40
  -2  -2  21   23.89    5.53
  -2  -2  22   10.94    3.15
  -2   3 -29   42.27    8.47
   2   3 -29   49.84    9.80
   2   3 -28    1.41    3.77
  -2   3 -28    7.42    2.66
  -2   3 -27   -2.10    3.47
   2   3 -27   -1.30    1.59
   2   3 -26    6.05    4.14
  -2   3 -26    3.24    2.37
   2   3 -25   46.33    9.47
  -2   3 -25   44.18    8.53
   2   3 -24    0.04    2.43
  -2   3 -24    2.81    2.01
   2   3 -23    3.17    2.07
  -2   3 -23    5.44    4.05
   2   3 -22    5.60    2.43
  -2   3 -22    4.99    3.50
   2   3 -21   29.43    6.62
  -2   3 -21   40.34    8.19
   2   3 -20   12.63    4.96
  -2   3 -20    8.82    3.86
  -2   3 -19    1.12    2.42
   2   3 -19   -0.42    2.36
  -2  -3 -19   -2.90    1.80
   2   3 -18    3.10    1.28
  -2  -3 -18    4.08    1.67
  -2  -3 -17   -0.60    2.17
   2   3 -17   -0.43    2.17
  -2   3 -17    4.45    3.67
   2   3 -16    9.55    3.92
  -2  -3 -16   10.25    3.25
  -2   3 -16   14.19    4.46
  -2  -3 -15   21.87    4.25
   2   3 -15   20.81    5.12
  -2  -3 -15   16.57    3.46
  -2   3 -15   26.67    5.75
  -2  -3 -14   26.87    4.35
   2   3 -14   29.55    5.15
  -2   3 -14   23.03    5.33
  -2  -3 -14   25.56    4.08
  -2   3 -14   24.92    5.03
  -2   3 -13    3.88    2.67
   2   3 -13    4.00    1.41
  -2   3 -13    6.95    3.40
  -2  -3 -13    3.77    1.09
  -2  -3 -13    3.83    1.78
  -2  -3 -12   50.00    5.26
  -2   3 -12   55.01    7.26
   2   3 -12   51.00    6.77
  -2   3 -12   57.85    7.52
   2  -3 -12   55.33    4.59
  -2  -3 -12   47.22    5.47
  -2  -3 -11   66.77    5.59
  -2  -3 -11   66.01    6.56
   2  -3 -11   77.02    5.50
   2   3 -11   69.39    7.78
  -2   3 -11   81.50    9.01
  -2   3 -11   90.13    8.92
  -2   3 -10   80.89    8.50
  -2  -3 -10   90.80    6.03
  -2   3 -10   71.10    8.31
   2   3 -10   94.99    8.57
  -2  -3 -10   87.47    7.29
   2  -3 -10   88.68    6.04
  -2  -3  -9   76.43    7.12
   2  -3  -9   89.63    6.19
  -2   3  -9   88.98    8.80
   2   3  -9   83.45    7.86
  -2   3  -9   96.66    9.57
  -2  -3  -9   74.45    4.10
  -2  -3  -8   29.60    4.33
   2  -3  -8   31.92    3.88
  -2   3  -8   28.86    5.12
   2   3  -8   26.40    4.26
  -2   3  -8   20.59    4.14
  -2  -3  -8   25.94    2.58
   2  -3  -7   67.64    5.46
  -2   3  -7   69.39    7.59
  -2   3  -7   65.70    7.01
   2   3  -7   61.87    6.23
  -2  -3  -7   67.15    6.21
   2   3  -6    1.78    1.53
   2  -3  -6    5.05    1.75
  -2   3  -6    4.41    2.47
  -2  -3  -6    3.40    1.89
  -2   3  -6    1.06    1.21
   2  -3  -5  257.85   11.24
  -2  -3  -5  264.11   12.30
   2   3  -5  238.39   11.38
  -2   3  -5  277.42   15.00
  -2   3  -4   39.18    5.54
   2   3  -4   33.41    3.87
  -2   3  -4   40.86    5.16
  -2  -3  -4   42.39    5.01
   2  -3  -4   34.45    4.23
  -2   3  -3   40.30    5.65
  -2  -3  -3   34.14    4.60
   2  -3  -3   33.25    4.31
  -2   3  -3   35.14    4.66
   2   3  -3   27.03    3.34
   2   3  -2   48.66    4.05
   2  -3  -2   47.83    5.15
  -2  -3  -2   55.67    5.71
  -2   3  -2   43.75    4.76
  -2   3  -2   40.44    5.50
  -2  -3  -1 2041.64   34.13
   2  -3  -1 2047.17   32.74
  -2  -3   0  230.85   11.51
  -2   3   0  217.07   10.27
   2   3   0  202.98    6.80
   2   3   1 2103.21   19.07
  -2   3   1 2053.76   31.50
  -2   3   2   54.50    5.02
  -2   3   2   39.02    5.08
  -2  -3   2   41.14    5.15
  -2  -3   3   24.27    3.84
  -2   3   3   37.06    4.88
  -2   3   3   28.53    3.54
  -2  -3   4   41.76    4.95
  -2   3   4   38.55    4.94
  -2   3   4   35.68    4.14
  -2  -3   4   45.54    5.27
  -2   3   5  288.66   13.43
  -2  -3   5  294.11   14.11
  -2  -3   5  262.90   12.75
  -2  -3   6    2.48    1.28
  -2   3   6    4.64    0.98
  -2  -3   6    2.03    1.56
  -2  -3   7   79.85    7.84
  -2  -3   7   59.56    6.22
  -2   3   7   69.74    6.50
  -2  -3   8   31.86    5.14
  -2   3   8   20.08    3.36
  -2  -3   8   27.40    4.52
  -2   3   9   90.77    7.48
  -2  -3   9   81.19    7.39
  -2  -3   9   94.56    8.75
  -2  -3  10   80.49    7.27
  -2  -3  10   73.26    8.11
  -2   3  10   76.60    6.81
  -2  -3  11   70.33    7.88
  -2  -3  11   85.05    7.72
  -2   3  11   69.31    6.74
  -2  -3  12   50.63    7.05
  -2  -3  12   48.94    5.75
  -2   3  12   42.06    5.32
  -2   3  13    4.50    1.59
  -2  -3  13    2.72    0.80
  -2  -3  14   25.81    4.91
  -2  -3  14   16.68    4.06
  -2   3  14   20.09    3.59
  -2  -3  15   14.29    3.80
  -2   3  15   17.10    3.25
  -2  -3  15   14.29    3.68
  -2  -3  16   15.39    3.74
  -2   3  16    8.78    2.06
  -2  -3  16   13.70    3.83
  -2  -3  17    2.06    1.58
  -2  -3  17    4.10    3.15
   2  -3  18    4.74    1.30
  -2  -3  18    3.94    1.68
  -2  -3  19    3.19    3.00
   2  -3  19    1.49    2.99
   2  -3  19    1.39    3.55
   2  -3  20   13.34    4.31
   2  -3  20    5.66    2.26
  -2  -3  20   10.89    4.29
  -2  -3  21   42.15    7.80
   2  -3  21   37.55    6.86
  -2  -3  22    8.77    3.16
   2  -3  22   -0.66    2.47
  -2  -3  23    8.08    4.13
  -2  -3  24    1.01    1.89
  -2   4 -29  151.00   16.69
   2   4 -29  200.17   19.09
   2   4 -28   22.12    6.64
  -2   4 -28   28.41    7.91
  -2   4 -27    5.28    2.64
   2   4 -27    2.17    3.30
   2   4 -26   10.00    3.80
  -2   4 -26    8.50    4.77
  -2   4 -25  281.26   21.45
   2   4 -25  237.50   19.76
  -2   4 -24   -1.81    2.25
   2   4 -24   -0.24    1.76
   2   4 -23  121.89   13.97
  -2   4 -23  144.25   14.86
   2   4 -22    2.95    2.27
  -2   4 -22    9.44    3.71
   2   4 -21   -0.82    3.07
  -2   4 -21    3.26    3.09
   2   4 -20   23.98    6.03
  -2   4 -20   15.87    4.60
   2   4 -19  480.34   25.45
  -2   4 -19  529.82   27.60
   2   4 -18   96.06   10.93
  -2   4 -18  129.79   13.22
   2   4 -17  346.44   20.99
  -2   4 -17  304.69   20.11
   2   4 -16   19.22    5.06
  -2   4 -16   15.92    5.13
  -2  -4 -15  112.06   10.12
   2   4 -15  128.30   12.14
  -2   4 -15  146.32   13.31
  -2   4 -15  141.98   13.73
  -2  -4 -14  181.88   12.11
  -2   4 -14  185.16   14.88
  -2   4 -14  179.18   15.03
   2   4 -14  183.42   14.49
  -2  -4 -13  931.50   27.73
   2   4 -13  923.19   30.89
  -2   4 -13  934.42   34.05
  -2   4 -13  974.44   32.98
  -2   4 -12  277.73   17.05
   2  -4 -12  281.53   12.85
  -2  -4 -12  271.91   14.82
   2   4 -12  266.45   16.09
  -2   4 -12  277.64   18.05
  -2   4 -11   79.47    9.00
  -2   4 -11   61.87    8.44
  -2  -4 -11   58.78    7.15
   2  -4 -11   64.84    6.39
   2   4 -11   77.91    8.84
  -2  -4 -10   13.74    2.25
   2  -4 -10   13.62    3.28
  -2  -4 -10   14.34    3.25
  -2   4 -10   17.89    4.47
  -2   4 -10   10.38    4.52
   2   4 -10   18.84    4.40
  -2   4  -9 1005.24   33.71
  -2   4  -9 1016.13   31.10
   2   4  -9 1026.96   29.51
   2  -4  -9 1040.05   25.67
  -2  -4  -9 1016.19   28.10
  -2  -4  -8   87.44    8.02
  -2   4  -8   86.78    9.57
   2   4  -8   88.24    8.29
  -2   4  -8   99.48    9.30
   2  -4  -8   92.92    7.81
   2   4  -7  239.78   13.07
  -2   4  -7  258.58   16.51
  -2   4  -7  282.13   15.52
   2  -4  -7  245.27   12.60
  -2  -4  -7  237.66   13.38
   2   4  -6  139.54    9.79
  -2   4  -6  139.22   11.91
  -2   4  -6  151.59   11.14
   2  -4  -6  140.95    9.51
  -2  -4  -6  130.61    9.88
   2  -4  -5   86.84    7.52
  -2   4  -5   96.23    8.56
   2   4  -5   77.20    6.92
  -2  -4  -5   85.30    7.94
  -2   4  -5   82.42    8.98
   2  -4  -4  299.70   14.20
   2   4  -4  273.96   12.26
  -2   4  -4  270.46   16.17
  -2   4  -4  271.81   14.11
  -2  -4  -4  248.44   13.63
  -2  -4  -3  697.83   22.69
   2   4  -3  690.03   18.16
  -2   4  -3  658.23   25.09
   2  -4  -3  666.93   21.39
  -2   4  -3  627.55   21.01
  -2  -4  -2   41.75    5.55
  -2   4  -2   42.99    5.36
   2   4  -2   50.96    4.63
   2  -4  -2   38.95    5.28
  -2   4  -2   46.62    6.57
  -2   4  -1 3468.87   55.05
  -2   4  -1 3252.75   44.92
  -2  -4  -1 3208.58   48.67
   2  -4  -1 3289.76   47.76
   2   4  -1 3518.97   34.88
   2  -4   0  322.56   15.21
  -2   4   0  324.80   16.76
   2   4   0  331.59    9.80
  -2   4   0  368.04   14.61
   2  -4   1 3268.16   48.94
  -2  -4   1 3223.94   49.22
  -2   4   1 3214.29   42.24
   2   4   1 3212.55   27.14
   2   4   2   49.46    5.76
   2   4   2   49.40    2.85
  -2  -4   2   53.56    6.42
   2  -4   2   38.27    5.46
  -2   4   2   54.69    6.77
  -2   4   2   55.62    5.33
   2  -4   3  702.13   23.00
   2   4   3  651.69   20.40
  -2   4   3  653.02   22.99
  -2   4   3  643.47   18.94
   2  -4   4  293.59   15.02
   2   4   4  279.24   13.14
  -2  -4   4  280.69   14.74
  -2   4   4  268.99   12.02
  -2  -4   5   94.75    8.79
   2   4   5   84.04    7.09
  -2   4   5   90.52    6.88
   2  -4   5   90.77    8.60
  -2   4   6  113.10   10.71
  -2   4   6  128.34    8.34
  -2  -4   7  233.20   13.76
  -2   4   7  242.56   13.70
  -2  -4   7  262.93   15.53
  -2  -4   8   94.76    9.74
  -2  -4   8   91.64    8.56
  -2   4   8   84.01    8.01
  -2  -4   9  999.73   31.79
  -2  -4   9 1042.51   29.44
  -2   4   9  980.04   27.38
  -2  -4  10   16.01    4.07
  -2  -4  10   13.64    3.31
  -2   4  10    9.05    2.68
  -2  -4  11   61.16    8.24
  -2  -4  11   63.86    7.41
  -2   4  11   81.56    7.78
  -2  -4  12  274.26   15.69
  -2  -4  12  227.32   15.43
  -2  -4  13  894.47   31.27
  -2  -4  13  963.58   29.92
  -2   4  13  926.07   27.14
   2  -4  13  907.75   29.94
  -2  -4  14  159.91   12.52
   2  -4  14  175.97   13.26
  -2  -4  14  197.77   15.01
  -2   4  14  155.01   11.08
  -2  -4  15  129.31   12.43
  -2   4  15  126.07   10.13
   2  -4  15  140.53   12.08
  -2  -4  15  129.35   11.21
   2  -4  16   16.78    4.78
  -2  -4  16   15.25    3.92
  -2  -4  16   26.97    6.21
  -2  -4  17  326.91   18.46
  -2  -4  17  327.23   20.17
   2  -4  17  310.66   18.81
  -2  -4  18  114.95   12.06
  -2  -4  18  117.78   11.38
   2  -4  18  115.05   11.50
   2  -4  19  536.33   25.72
  -2  -4  19  533.80   24.40
   2  -4  19  515.18   27.01
  -2  -4  19  481.72   25.43
  -2  -4  20   14.65    4.92
   2  -4  20   13.38    4.65
   2  -4  20    8.00    3.85
  -2  -4  21    5.40    4.04
   2  -4  21    3.31    3.32
   2  -4  21    7.11    3.58
   2  -4  22   10.85    4.47
  -2  -4  22    5.63    2.96
  -2  -4  23  122.29   14.13
   2  -4  23  137.02   15.11
  -2  -4  24    1.33    2.83
  -2  -4  25  216.99   19.13
  -2   5 -27   33.94    8.04
   2   5 -27   28.87    7.62
   2   5 -26   -0.95    3.96
  -2   5 -26    2.66    2.32
   2   5 -25   22.25    6.86
  -2   5 -25   23.34    6.46
  -2   5 -24   16.61    5.35
   2   5 -24    9.60    3.81
   2   5 -23   17.76    6.21
  -2   5 -23    6.28    3.68
   2   5 -22   39.52    7.83
  -2   5 -22   27.05    7.40
  -2   5 -21    2.93    3.16
   2   5 -21    6.15    4.42
   2   5 -20    5.16    4.37
  -2   5 -20    0.76    3.47
  -2   5 -19   36.68    7.10
   2   5 -19   36.60    7.87
   2   5 -18    7.02    4.80
  -2   5 -18    4.98    1.86
   2   5 -17   11.31    4.47
  -2   5 -17   18.48    5.06
  -2   5 -16   27.40    5.79
   2   5 -16   24.21    5.20
  -2   5 -15    7.83    3.31
   2   5 -15   11.43    2.73
  -2   5 -14   22.55    5.71
   2   5 -14   22.77    5.21
  -2   5 -14   16.49    4.45
  -2  -5 -14   21.98    4.43
  -2   5 -13  237.86   16.80
   2   5 -13  243.29   16.59
  -2  -5 -13  214.17   14.59
  -2   5 -13  225.50   17.71
  -2  -5 -12  117.86   10.64
  -2   5 -12  122.79   11.71
   2   5 -12  100.71   10.49
   2  -5 -12  103.60    9.42
  -2   5 -12  116.50   12.39
   2  -5 -11    7.24    2.37
   2   5 -11   10.06    3.86
  -2  -5 -11   13.24    3.69
  -2   5 -11    8.93    3.96
  -2   5 -11    6.73    3.29
   2   5 -10   42.69    6.42
   2  -5 -10   51.48    6.79
  -2   5 -10   47.89    7.79
  -2   5 -10   41.63    7.05
  -2  -5 -10   46.59    6.51
  -2  -5  -9   37.58    5.65
   2   5  -9   37.64    5.91
   2  -5  -9   51.40    6.73
  -2   5  -9   31.27    6.61
  -2   5  -9   49.57    7.28
  -2   5  -8   -3.05    2.03
   2   5  -8    1.86    2.33
  -2   5  -8    2.08    2.65
   2  -5  -8   -0.82    1.37
  -2  -5  -8    0.39    1.61
  -2  -5  -7   -0.46    1.66
  -2   5  -7    3.08    2.31
  -2   5  -7    2.17    1.36
   2  -5  -7   -0.46    1.80
   2   5  -7    0.04    1.21
  -2  -5  -6   32.30    5.10
   2  -5  -6   25.14    4.58
   2   5  -6   22.10    4.04
  -2   5  -6   20.40    5.29
  -2   5  -6   26.64    4.75
  -2   5  -5   37.27    5.88
  -2  -5  -5   41.25    6.08
   2   5  -5   39.86    5.32
   2  -5  -5   40.12    5.74
  -2   5  -5   35.82    6.16
  -2   5  -4  185.07   12.44
  -2  -5  -4  187.08   12.95
   2  -5  -4  178.21   12.29
  -2   5  -4  216.21   15.65
   2   5  -4  194.02   11.01
   2  -5  -3  206.86   13.42
   2   5  -3  193.43   10.66
  -2   5  -3  213.44   13.06
  -2   5  -3  175.87   14.21
  -2  -5  -3  181.81   12.66
  -2   5  -2   42.95    6.58
   2  -5  -2   47.69    6.54
  -2   5  -2   49.49    6.33
   2   5  -2   42.60    4.71
  -2  -5  -2   51.67    6.73
  -2   5  -1  789.20   24.24
  -2  -5  -1  890.20   28.61
   2   5  -1  775.13   18.34
  -2   5  -1  831.94   29.54
   2  -5  -1  874.05   27.73
   2   5   0   66.35    8.03
  -2   5   0   70.72    8.24
   2   5   0   66.56    5.04
   2  -5   0   68.43    7.66
  -2   5   0   68.85    6.65
  -2  -5   0   62.57    7.65
   2   5   1  854.35   15.59
  -2  -5   1  919.17   29.08
   2  -5   1  869.52   27.69
  -2   5   1  842.00   23.48
   2   5   1  860.36   27.69
  -2   5   2   54.22    5.85
  -2   5   2   45.60    6.65
  -2  -5   2   47.01    6.53
   2   5   2   47.90    6.35
   2  -5   2   47.84    6.74
   2   5   2   47.16    3.29
  -2  -5   3  200.38   13.74
  -2   5   3  191.10   11.10
   2  -5   3  192.98   13.39
   2   5   3  210.73   13.52
  -2   5   3  197.84   13.82
  -2   5   4  186.54   13.46
  -2  -5   4  198.87   13.71
   2   5   4  186.38   12.49
  -2   5   4  208.89   11.33
   2  -5   4  209.68   14.06
   2  -5   5   41.04    6.45
   2   5   5   56.34    6.81
  -2   5   5   46.00    6.73
  -2   5   5   43.36    5.29
  -2  -5   5   41.96    6.33
   2  -5   6   29.59    5.33
  -2   5   6   18.16    3.55
   2   5   6   21.64    4.29
  -2   5   6   16.67    4.56
  -2  -5   6   22.75    4.96
  -2  -5   7    4.38    2.78
  -2   5   7    1.15    1.28
   2  -5   7    1.66    2.23
  -2   5   7    1.63    1.82
  -2  -5   8    2.41    2.36
  -2   5   8    1.10    2.16
  -2   5   8    0.80    1.46
   2  -5   8   -1.51    3.41
  -2  -5   8    0.05    1.82
  -2   5   9   35.52    6.08
   2  -5   9   44.70    7.13
  -2  -5   9   37.14    6.32
  -2  -5   9   44.20    6.82
  -2   5   9   32.58    4.68
  -2   5  10   43.19    6.97
  -2  -5  10   38.90    6.25
   2  -5  10   45.11    7.08
  -2  -5  10   44.73    7.20
  -2   5  11   13.04    3.55
   2  -5  11   10.50    3.88
  -2  -5  11    9.57    3.78
  -2  -5  11    2.17    2.88
  -2  -5  12  115.41   11.78
  -2  -5  12  107.26   11.11
   2  -5  12  107.15   10.64
  -2   5  12  122.36   11.11
  -2  -5  13  221.06   16.33
  -2  -5  13  260.05   16.68
  -2   5  13  237.97   15.38
   2  -5  13  236.00   16.42
   2  -5  14    8.44    2.52
  -2  -5  14   22.65    5.18
  -2  -5  14   18.18    5.10
   2  -5  15    8.73    3.77
  -2  -5  15    3.75    2.40
  -2  -5  16   21.68    5.08
  -2  -5  16   20.55    4.99
   2  -5  16   27.50    5.87
  -2  -5  17   19.48    5.17
   2  -5  17   13.40    4.17
  -2  -5  17   18.76    5.39
  -2  -5  18    4.28    2.93
   2  -5  18    9.25    5.11
  -2  -5  18   12.90    4.70
  -2  -5  19   41.55    8.27
   2  -5  19   47.64    8.21
  -2  -5  19   35.05    6.82
   2  -5  19   33.59    7.29
  -2  -5  20    5.69    3.84
   2  -5  20    0.33    2.45
  -2  -5  21    0.14    2.92
   2  -5  21    4.51    3.81
   2  -5  21    2.28    3.61
  -2  -5  22   58.45    9.94
   2  -5  22   40.39    8.72
  -2  -5  23   32.50    7.06
   2  -5  23   19.49    4.26
   2  -5  24   -1.12    2.25
  -2  -5  24    7.11    4.55
  -2  -5  25   42.95    9.33
  -2   6 -26    6.35    2.98
   2   6 -26    4.14    3.21
  -2   6 -25  149.78   16.14
   2   6 -25  118.89   14.90
   2   6 -24   42.99    9.19
  -2   6 -24   71.63   12.06
  -2   6 -23   57.07    9.63
   2   6 -23   70.63   11.29
   2   6 -22   65.59   10.21
  -2   6 -22   74.10   11.56
  -2   6 -21   54.32    9.58
   2   6 -21   44.26    9.60
   2   6 -20   38.30    7.98
  -2   6 -20   30.45    7.67
  -2   6 -19  525.12   28.68
   2   6 -19  455.95   26.18
  -2   6 -18   13.82    5.61
   2   6 -18   19.54    5.85
   2   6 -17  167.51   15.39
  -2   6 -17  144.29   14.92
   2   6 -16   28.92    6.26
  -2   6 -16   40.69    8.04
  -2   6 -15  305.81   22.37
   2   6 -15  372.50   22.14
  -2   6 -15  313.61   21.32
  -2   6 -14   71.56   10.02
  -2  -6 -14   58.80    9.12
   2   6 -14   60.54    9.22
  -2   6 -14   67.31   10.52
  -2   6 -13 1208.89   43.36
  -2  -6 -13 1210.92   37.63
   2   6 -13 1152.80   37.56
  -2   6 -13 1118.90   38.39
   2  -6 -12   35.84    6.50
  -2  -6 -12   40.14    6.98
  -2   6 -12   30.48    6.09
  -2   6 -12   33.51    7.23
   2   6 -12   41.19    6.68
   2  -6 -11  148.17   12.42
  -2  -6 -11  179.71   14.18
  -2   6 -11  141.23   14.26
  -2   6 -11  153.10   13.84
   2   6 -11  188.41   14.45
  -2   6 -10   73.19   10.38
  -2  -6 -10   69.14    8.73
   2  -6 -10   66.36    8.21
  -2   6 -10   72.51    9.55
  -2   6  -9  880.15   31.74
  -2  -6  -9  924.61   31.73
  -2   6  -9  892.19   35.46
   2  -6  -9  932.16   31.18
  -2   6  -8  496.65   23.60
   2  -6  -8  463.90   22.09
   2   6  -8  505.12   22.38
  -2   6  -8  493.35   26.31
  -2  -6  -8  473.58   22.67
  -2  -6  -7  811.87   29.49
   2  -6  -7  768.17   28.16
   2   6  -7  812.40   27.29
  -2   6  -7  828.07   29.65
  -2   6  -7  806.83   33.48
  -2   6  -6   16.37    4.03
   2   6  -6   29.41    5.28
  -2  -6  -6   19.59    4.93
   2  -6  -6   20.84    4.63
  -2   6  -6   16.98    5.21
  -2   6  -5   60.26    8.65
  -2  -6  -5   59.97    7.99
   2  -6  -5   74.72    9.19
  -2   6  -5   74.32    8.40
   2   6  -5   60.27    7.09
   2   6  -4  955.47   26.55
  -2   6  -4  865.07   34.07
   2  -6  -4  908.94   30.44
  -2  -6  -4  865.49   30.44
  -2   6  -4  839.63   27.91
   2  -6  -3  624.04   25.29
  -2   6  -3  601.70   27.70
  -2   6  -3  580.52   22.95
  -2  -6  -3  629.06   25.91
   2   6  -3  618.58   20.71
  -2   6  -2  304.06   19.40
  -2  -6  -2  279.63   17.26
   2  -6  -2  291.91   17.25
  -2   6  -2  285.34   15.84
   2   6  -2  299.12   13.45
  -2   6  -1  841.07   26.43
   2  -6  -1  769.67   28.17
   2   6  -1  817.90   20.98
  -2   6  -1  730.53   30.03
  -2  -6  -1  762.67   28.56
  -2   6   0   51.93    7.57
   2  -6   0   70.66    8.71
  -2  -6   0   62.50    8.18
  -2   6   0   74.89    7.78
   2   6   0   65.12    5.59
  -2   6   1  736.28   23.78
   2   6   1  757.71   29.11
   2  -6   1  740.42   28.17
  -2  -6   1  722.80   28.18
  -2   6   1  760.58   30.25
   2   6   1  660.48   16.13
  -2  -6   2  245.67   16.30
   2  -6   2  266.34   16.93
  -2   6   2  312.00   15.44
   2   6   2  271.77   16.85
  -2   6   2  260.40   17.69
   2  -6   3  537.67   24.32
   2   6   3  670.72   26.60
  -2  -6   3  650.51   26.85
  -2   6   3  598.43   20.66
  -2   6   3  571.60   25.94
  -2   6   4  851.43   23.96
  -2  -6   4  954.61   33.09
  -2   6   4  959.42   33.37
   2  -6   4  855.50   30.46
   2   6   4  919.73   30.71
  -2   6   5   62.49    6.70
  -2   6   5   72.68    9.03
   2   6   5   66.58    8.13
   2  -6   5   83.82   10.05
  -2  -6   5   63.64    8.74
  -2   6   6   21.25    4.02
  -2  -6   6   22.77    5.71
  -2   6   6   16.60    4.71
   2  -6   6   32.69    6.48
   2  -6   7  814.76   30.18
  -2  -6   7  804.81   30.77
  -2   6   7  832.15   31.08
  -2  -6   8  493.22   24.26
  -2   6   8  539.43   24.70
   2  -6   8  494.90   23.48
  -2   6   9  804.27   30.80
  -2  -6   9  867.55   33.55
   2  -6   9  850.45   31.35
   2  -6  10   87.48   10.44
  -2   6  10   87.73   10.20
  -2  -6  10   80.03    9.61
  -2  -6  10   99.85   11.77
  -2   6  11  150.73   13.50
  -2  -6  11  166.62   14.98
   2  -6  11  171.97   14.14
  -2  -6  11  177.47   14.63
   2  -6  12   45.38    7.69
  -2  -6  12   50.12    8.00
  -2   6  12   36.13    6.54
  -2  -6  12   32.23    7.31
  -2  -6  13 1162.75   38.26
  -2  -6  13 1202.61   40.68
   2  -6  13 1192.99   38.65
   2  -6  14   75.45   10.06
  -2  -6  14   88.87   11.17
  -2  -6  14   78.36   10.13
  -2  -6  15  307.21   20.42
  -2  -6  15  305.64   21.42
   2  -6  15  327.53   21.18
  -2  -6  16   19.50    4.96
   2  -6  16   18.51    5.53
  -2  -6  16   20.65    5.62
  -2  -6  17  164.13   15.53
   2  -6  17  156.18   15.36
  -2  -6  17  176.34   16.37
  -2  -6  18   19.61    5.25
  -2  -6  18   14.49    4.52
   2  -6  18   23.25    4.73
   2  -6  19  416.72   25.35
   2  -6  19  435.20   26.86
  -2  -6  19  438.62   26.32
  -2  -6  19  434.76   25.55
   2  -6  20   35.99    7.93
   2  -6  20   45.90    9.58
  -2  -6  20   29.08    6.70
  -2  -6  20   38.98    7.05
   2  -6  21   32.35    6.60
   2  -6  21   35.06    8.21
  -2  -6  21   35.71    9.35
  -2  -6  22   66.43   10.88
   2  -6  22   61.39   11.00
   2  -6  22   46.38    8.96
  -2  -6  23   79.14   11.39
   2  -6  23   52.44   10.45
  -2  -6  24   40.54    8.02
   2  -6  24   50.19    9.95
   2  -6  25  113.33   15.98
  -2  -6  25  157.36   16.98
  -2  -6  26   -7.97    7.27
   2   7 -24    2.27    3.23
  -2   7 -24   -7.14    4.92
   2   7 -23    8.79    2.41
  -2   7 -23    8.14    4.90
  -2   7 -22   -4.01    3.32
   2   7 -22    2.05    2.83
  -2   7 -21   14.73    4.28
   2   7 -21   17.85    4.31
  -2   7 -20  140.69   15.15
   2   7 -20  136.69   14.86
   2   7 -19   25.51    6.71
  -2   7 -19   18.59    6.20
  -2   7 -18   43.48    7.70
   2   7 -18   44.27    8.17
   2   7 -17    4.77    3.46
  -2   7 -17    9.98    5.38
   2   7 -16   49.65    8.64
  -2   7 -16   28.70    6.28
   2   7 -15    1.09    2.50
  -2   7 -15    2.27    2.69
   2   7 -14  139.93   14.15
  -2   7 -14  158.35   15.54
  -2   7 -14  178.33   17.61
  -2   7 -13   53.10    9.85
  -2  -7 -13   51.88    8.24
  -2   7 -13   57.21    8.66
   2   7 -13   67.02    9.36
   2   7 -12  125.21   12.64
  -2  -7 -12  114.32   12.29
  -2   7 -12  141.64   13.69
  -2   7 -12  102.67   12.97
  -2   7 -11   88.80   12.00
   2  -7 -11  106.86   11.74
  -2   7 -11  137.19   13.66
   2   7 -11  109.92   11.58
  -2  -7 -11   93.92   11.07
  -2   7 -10  118.99   13.71
  -2  -7 -10  115.46   12.09
  -2   7 -10  148.96   13.98
   2   7 -10  151.50   13.33
   2  -7 -10  124.13   12.66
  -2  -7  -9  112.47   12.00
  -2   7  -9  147.03   15.17
   2  -7  -9  131.76   13.12
   2   7  -9  107.70   11.09
  -2   7  -9  135.25   13.26
   2   7  -8  300.73   18.49
   2  -7  -8  297.71   19.05
  -2   7  -8  285.36   18.58
  -2   7  -8  303.39   21.39
  -2  -7  -8  279.04   18.81
  -2  -7  -7   -0.09    3.37
   2  -7  -7   -1.00    1.57
   2   7  -7    1.32    1.79
  -2   7  -7    3.52    3.74
  -2   7  -7    2.38    1.52
  -2   7  -6  272.11   17.71
  -2   7  -6  257.44   20.53
  -2  -7  -6  276.88   18.52
   2  -7  -6  292.40   18.87
   2   7  -6  254.11   15.58
  -2   7  -5  245.91   16.45
   2  -7  -5  222.54   16.46
  -2  -7  -5  254.78   17.73
  -2   7  -5  269.72   19.91
   2   7  -5  237.71   14.68
   2  -7  -4    7.35    2.75
   2   7  -4    8.96    3.07
  -2  -7  -4   13.42    3.91
  -2   7  -4    7.00    3.38
  -2   7  -4    1.13    3.06
   2  -7  -3  499.78   24.18
   2   7  -3  556.81   20.97
  -2   7  -3  471.39   21.92
  -2   7  -3  585.49   29.32
  -2  -7  -3  523.74   25.39
  -2  -7  -2   87.13   10.39
   2   7  -2   65.24    7.15
  -2   7  -2   65.62    9.85
  -2   7  -2   77.27    8.85
   2  -7  -2   86.17   10.26
  -2  -7  -1   41.06    6.93
   2  -7  -1   41.35    7.18
   2   7  -1   37.70    4.83
  -2   7  -1   41.14    8.03
  -2   7  -1   40.46    6.25
  -2   7   0    6.16    4.14
  -2  -7   0    3.24    1.59
  -2   7   0    5.21    2.21
   2  -7   0    3.81    2.59
  -2   7   1   41.73    6.40
  -2  -7   1   35.28    6.83
  -2   7   1   33.26    7.43
   2  -7   1   30.84    6.09
  -2  -7   2   63.87    9.35
   2  -7   2   85.15   10.52
  -2   7   2   63.44    9.23
  -2   7   2   64.69    7.60
  -2   7   3  487.61   26.07
  -2  -7   3  560.08   26.41
   2  -7   3  587.29   26.59
  -2   7   3  462.56   19.53
  -2   7   4   10.33    4.56
  -2  -7   4    6.57    2.54
   2  -7   4    4.87    3.61
  -2  -7   5  271.84   18.57
   2  -7   5  244.92   17.79
  -2   7   5  248.22   18.81
  -2  -7   6  280.40   18.88
  -2   7   6  253.81   18.91
   2  -7   6  273.24   19.04
   2  -7   7    1.36    1.75
  -2  -7   7   -0.81    3.16
  -2   7   7   -1.94    3.28
  -2  -7   8  311.92   20.20
   2  -7   8  322.74   20.53
  -2   7   8  308.54   20.72
   2  -7   9  101.90   11.97
  -2  -7   9  103.02   11.98
  -2   7   9  121.85   12.29
  -2  -7   9  136.79   13.99
  -2  -7  10  140.84   14.47
  -2   7  10  126.52   12.89
  -2  -7  10   99.49   11.62
  -2   7  11  104.14   12.31
  -2  -7  11  117.02   13.11
  -2  -7  11  100.57   12.21
   2  -7  12   98.47   11.73
  -2  -7  12  111.52   12.86
  -2  -7  12  124.46   13.18
   2  -7  13   48.11    8.13
  -2  -7  13   50.44    8.99
  -2  -7  13   62.70    9.64
  -2  -7  14  185.57   16.53
  -2  -7  14  154.33   15.50
   2  -7  14  171.49   16.10
   2  -7  15    1.18    2.11
  -2  -7  15    0.98    1.99
  -2  -7  15    1.74    2.56
  -2  -7  16   34.60    7.50
   2  -7  16   43.16    8.49
  -2  -7  16   26.16    6.33
  -2  -7  17    6.25    3.58
   2  -7  17    7.05    2.94
  -2  -7  17   16.04    5.45
   2  -7  18   51.57    9.28
  -2  -7  18   47.73    8.46
  -2  -7  18   49.68    9.64
   2  -7  19   25.60    7.21
   2  -7  19   19.91    6.47
  -2  -7  19   18.76    6.39
  -2  -7  19   23.38    5.54
  -2  -7  20  139.33   15.54
   2  -7  20  139.14   16.18
   2  -7  20  124.63   15.03
  -2  -7  20  142.65   15.83
   2  -7  21    5.97    5.25
   2  -7  21   14.95    5.91
  -2  -7  21   24.89    8.15
  -2  -7  22    5.09    4.40
   2  -7  22   -0.20    3.01
   2  -7  22    2.65    4.11
   2  -7  23   -1.63    3.66
  -2  -7  23    2.96    3.86
   2  -7  24    1.26    2.58
  -2  -7  24   -0.21    4.03
   2   8 -22   32.52    7.74
  -2   8 -22   60.55    9.81
  -2   8 -21   10.30    4.66
   2   8 -21    9.48    4.51
   2   8 -20   28.02    6.94
  -2   8 -20   18.27    4.78
   2   8 -19   88.32   12.27
  -2   8 -19   78.87   11.47
  -2   8 -18    5.77    4.34
   2   8 -18    1.33    2.39
   2   8 -17   60.19    9.15
  -2   8 -17   74.28   11.23
   2   8 -16   63.39   10.39
  -2   8 -16   54.41    8.97
  -2   8 -15    6.67    4.05
   2   8 -15    3.64    3.07
  -2   8 -14   14.10    5.21
   2   8 -14   20.86    6.39
  -2   8 -13   63.41   10.43
   2   8 -13   51.98    8.60
  -2   8 -13   44.07    8.66
  -2  -8 -13   63.76   10.89
  -2  -8 -12    4.41    4.90
  -2   8 -12   10.37    4.42
   2   8 -12    2.49    1.72
  -2   8 -12   11.97    5.25
  -2   8 -11    6.33    4.22
   2  -8 -11   21.04    7.38
  -2   8 -11   10.39    4.74
   2   8 -11   13.89    5.37
  -2  -8 -11    5.93    3.63
  -2   8 -10   20.82    5.12
   2  -8 -10   21.53    5.05
  -2   8 -10   22.75    6.54
   2   8 -10   31.24    6.68
  -2  -8 -10   30.29    6.53
  -2   8  -9   97.72   12.40
  -2  -8  -9  100.27   11.49
   2   8  -9  102.32   11.67
  -2   8  -9   86.93   11.15
   2  -8  -9   81.09   11.02
   2   8  -8   16.07    4.83
  -2  -8  -8   23.91    5.89
  -2   8  -8   19.17    5.27
   2  -8  -8   15.00    4.60
  -2   8  -8   24.58    7.07
  -2   8  -7  149.04   13.87
  -2   8  -7  110.91   13.91
   2  -8  -7  142.45   14.36
   2   8  -7  128.83   12.11
  -2  -8  -7  129.53   13.37
   2  -8  -6   32.77    6.75
  -2   8  -6   18.64    6.02
   2   8  -6   16.71    4.18
  -2  -8  -6   39.45    7.47
  -2   8  -6   42.56    7.21
  -2  -8  -5   45.58    8.28
   2  -8  -5   52.96    8.94
  -2   8  -5   43.29    7.94
  -2   8  -5   49.59    8.84
  -2   8  -4  154.38   15.80
   2  -8  -4  146.92   14.41
  -2  -8  -4  121.97   13.30
  -2   8  -4  142.24   13.58
  -2   8  -3  441.24   26.64
   2  -8  -3  418.46   23.88
  -2  -8  -3  497.13   26.25
  -2   8  -3  526.43   24.52
  -2   8  -2   10.67    4.48
  -2  -8  -2    3.41    2.23
   2  -8  -2   12.88    5.07
  -2   8  -2   10.93    3.69
  -2  -8  -1    3.93    2.57
   2  -8  -1   11.81    3.32
  -2   8  -1    9.64    2.58
   2  -8   0   23.26    6.02
  -2   8   0   23.69    7.60
  -2  -8   0   30.57    6.98
  -2   8   1   22.84    6.68
  -2  -8   1    9.68    3.28
   2  -8   1   14.79    4.35
  -2   8   2   21.77    6.89
  -2  -8   2   13.41    3.83
   2  -8   2   14.94    4.41
   2  -8   3  429.01   24.28
  -2  -8   3  517.81   27.29
  -2   8   3  464.48   27.02
   2  -8   4  141.92   14.36
  -2  -8   4  136.95   14.17
  -2   8   4  147.72   15.48
  -2  -8   5   48.92    8.79
   2  -8   5   65.86    9.71
  -2   8   5   40.56    8.10
   2  -8   6   28.54    6.46
  -2  -8   6   34.51    7.06
  -2   8   6   21.65    5.26
  -2  -8   7  135.98   14.15
  -2   8   7  136.98   15.43
   2  -8   7  132.62   14.13
  -2  -8   7  113.73   13.10
  -2  -8   8   21.16    6.56
  -2  -8   8    9.63    3.41
  -2   8   8   15.28    5.24
   2  -8   8   25.24    5.98
  -2  -8   9   86.98   11.20
   2  -8   9  111.16   12.44
  -2  -8   9   86.29   11.51
  -2   8   9  105.21   13.08
  -2  -8  10   29.79    7.22
   2  -8  10   29.91    6.80
  -2  -8  10   37.85    7.22
  -2  -8  11    2.81    2.44
   2  -8  11    6.68    3.02
  -2  -8  11    8.71    4.98
  -2  -8  12    5.60    4.04
  -2  -8  12   18.31    5.67
   2  -8  12   11.58    5.31
  -2  -8  13   66.36   10.40
  -2  -8  13   68.37   10.42
   2  -8  13   62.81    9.58
   2  -8  14   20.03    6.04
  -2  -8  14   15.35    4.01
  -2  -8  14   19.85    5.93
   2  -8  15    4.74    3.04
  -2  -8  15    9.89    4.32
  -2  -8  15    3.84    4.39
  -2  -8  16   56.21    9.91
   2  -8  16   53.63    9.64
  -2  -8  16   45.32    8.84
   2  -8  17   78.13   11.30
  -2  -8  17   86.86   12.28
  -2  -8  17   87.66   12.50
  -2  -8  18    2.49    3.09
   2  -8  18   -1.18    3.09
   2  -8  19   70.85   11.68
  -2  -8  19   86.77   12.53
  -2  -8  19   83.67   12.98
   2  -8  19   57.80   10.33
  -2  -8  20   17.68    6.67
  -2  -8  20    9.54    4.92
   2  -8  20   14.46    4.71
   2  -8  20    4.61    5.51
   2  -8  21    7.82    3.94
  -2  -8  21   -0.15    4.03
   2  -8  22   49.07   10.02
  -2  -8  22   39.71    8.94
   2  -8  22   26.30    8.22
  -2   9 -19    0.82    2.88
   2   9 -19    2.19    4.57
   2   9 -18   11.69    4.76
  -2   9 -18   11.47    5.18
  -2   9 -17   -0.36    3.43
   2   9 -17    5.10    3.89
  -2   9 -16   23.02    6.98
   2   9 -16   13.01    4.57
  -2   9 -15   -2.04    3.01
   2   9 -15    3.40    5.65
   2   9 -14   18.00    6.63
  -2   9 -14   10.79    4.19
   2   9 -13    5.98    4.81
  -2   9 -13   14.00    5.20
  -2   9 -12    0.43    3.33
   2   9 -12    3.12    2.60
  -2  -9 -12    1.68    3.09
  -2   9 -12    2.91    3.07
  -2   9 -11    6.73    3.70
  -2  -9 -11    2.40    4.59
  -2   9 -11    4.00    2.87
  -2   9 -10   35.43    7.57
  -2  -9 -10   17.01    4.52
   2  -9 -10   27.72    7.14
  -2   9 -10   30.71    7.67
  -2   9  -9   -1.00    3.51
  -2   9  -9    3.00    2.33
   2  -9  -9    0.99    2.32
  -2  -9  -9   -3.75    4.35
  -2   9  -8    5.50    3.93
   2  -9  -8    4.12    3.10
  -2  -9  -8    4.75    4.59
  -2   9  -8    7.08    3.94
  -2  -9  -7    3.99    2.46
  -2   9  -7    3.52    3.35
   2  -9  -7    8.11    4.16
  -2   9  -7    8.52    4.84
  -2   9  -6   36.49    7.85
  -2  -9  -6   37.70    8.36
   2  -9  -6   32.25    6.87
  -2  -9  -5   30.61    7.37
   2  -9  -5   29.55    6.73
  -2   9  -5   41.76    8.68
   2  -9  -4   14.48    5.24
  -2  -9  -4   12.26    5.20
  -2   9  -4   19.79    6.01
  -2   9  -3   73.08   10.31
   2  -9  -3   78.23   11.15
  -2  -9  -3   84.97   11.95
   2  -9  -2   24.07    5.27
  -2  -9  -2   25.31    6.04
  -2   9  -2   11.09    5.06
   2  -9  -1   21.51    5.64
  -2  -9  -1   26.69    6.82
  -2   9  -1   19.69    5.47
  -2  -9   0   21.22    5.65
   2  -9   0   22.00    6.61
  -2   9   0    6.68    4.32
  -2   9   1   14.43    5.46
  -2  -9   1   20.18    6.00
   2  -9   1   10.83    3.84
  -2  -9   2   17.86    5.44
  -2   9   2   20.76    5.39
   2  -9   2   25.19    6.89
  -2  -9   3   89.51   12.23
  -2   9   3   60.35   10.75
   2  -9   3   58.45    9.29
  -2  -9   4   18.35    6.26
  -2   9   4   22.16    7.10
   2  -9   4   30.39    6.91
   2  -9   5   30.71    7.19
  -2  -9   5   42.56    8.76
  -2   9   5   37.56    8.88
  -2  -9   5   32.83    7.06
  -2  -9   6   50.88    9.47
  -2   9   6   35.58    8.83
   2  -9   6   45.14    8.20
  -2  -9   6   40.23    8.69
  -2  -9   7   16.95    4.82
  -2   9   7    9.64    4.34
   2  -9   7    5.68    3.34
  -2  -9   7    4.92    3.75
  -2  -9   8    5.86    4.42
   2  -9   8    8.80    3.89
  -2   9   8    3.44    3.30
  -2  -9   8    0.09    2.95
  -2  -9   9    7.01    4.07
  -2   9   9    1.62    3.56
  -2  -9   9   -4.76    3.23
   2  -9   9   10.75    4.11
  -2  -9  10   39.12    8.64
   2  -9  10   20.60    5.49
  -2  -9  10   31.56    7.95
  -2  -9  11   12.41    5.54
  -2  -9  11   11.45    4.51
   2  -9  11    9.73    4.06
   2  -9  12    2.10    4.01
  -2  -9  12    6.07    4.26
  -2  -9  12    8.40    4.09
  -2  -9  13   11.53    5.72
   2  -9  13    5.27    5.16
  -2  -9  13   22.38    7.02
   2  -9  14   13.32    5.47
  -2  -9  14   10.11    5.66
  -2  -9  15    0.16    3.30
  -2  -9  15   -1.95    3.45
   2  -9  15    5.93    4.16
   2  -9  16   14.14    5.62
  -2  -9  16    9.32    4.00
  -2  -9  16   20.73    6.26
   2  -9  17   -3.43    3.87
  -2  -9  17   -2.33    2.64
  -2  -9  17    1.74    4.10
  -2  -9  18    4.92    3.59
   2  -9  18   -0.20    2.41
   2  -9  18    6.31    4.75
   2  -9  19   -2.78    4.78
   2  -9  19   -1.12    4.20
  -2  -9  19    1.07    3.07
  -2  -9  19    1.56    2.99
  -2  10 -15   43.38    9.48
  -2 -10 -11   60.31   10.17
  -2 -10 -10   12.48    3.70
  -2  10 -10   14.65    7.01
   2 -10  -9   34.75    8.50
  -2  10  -9   43.66    9.84
  -2 -10  -9   36.54    7.80
   2 -10  -8   17.94    5.27
  -2 -10  -8    6.77    4.11
  -2  10  -8   18.09    5.35
   2 -10  -7  245.56   20.51
  -2  10  -7  215.24   20.55
  -2 -10  -7  225.96   19.67
  -2  10  -6   42.05    9.73
   2 -10  -6   26.76    6.06
  -2 -10  -6   20.73    7.03
  -2  10  -5    5.83    3.10
   2 -10  -5   17.20    6.22
  -2 -10  -5   24.53    7.16
  -2 -10  -4   44.08    9.90
  -2 -10  -4   31.84    7.05
   2 -10  -4   50.04    9.77
  -2  10  -4   38.55    8.62
  -2 -10  -3   86.31   12.14
   2 -10  -3  116.81   13.32
  -2 -10  -3  102.85   13.03
  -2 -10  -2   52.89    9.56
  -2  10  -2   58.79   10.12
  -2 -10  -2   47.82    8.94
   2 -10  -2   47.71    9.30
  -2  10  -1    4.10    3.98
  -2 -10  -1    9.06    4.74
   2 -10  -1   10.27    4.95
  -2 -10  -1   -0.74    4.66
  -2 -10   0   20.41    6.74
  -2 -10   0   13.55    5.59
   2 -10   0   13.66    4.70
  -2  10   0   12.88    2.96
   2 -10   1    0.06    3.05
  -2  10   1   -2.81    4.41
  -2 -10   1    3.69    4.67
  -2 -10   1    4.43    4.58
  -2 -10   2   69.80   11.27
  -2 -10   2   42.02    8.69
   2 -10   2   42.97    8.33
  -2  10   2   38.15    8.61
   2 -10   3  126.10   14.57
  -2 -10   3  140.76   15.17
  -2  10   3  124.31   15.23
  -2 -10   3  109.63   13.92
  -2 -10   4   17.24    4.74
  -2 -10   4   38.84    8.51
  -2  10   4   24.75    7.07
   2 -10   4   25.63    7.63
  -2 -10   5   19.71    6.10
  -2  10   5    2.73    3.38
  -2 -10   5   19.29    5.47
   2 -10   5   10.87    3.93
  -2 -10   6   29.79    7.86
   2 -10   6   34.43    7.62
  -2  10   6   27.62    7.39
  -2 -10   6   38.47    8.69
  -2  10   7  244.35   22.56
  -2 -10   7  246.29   20.62
   2 -10   7  216.61   19.07
  -2 -10   7  258.43   21.80
  -2 -10   8   17.23    6.13
   2 -10   8   22.43    7.58
  -2 -10   8    9.58    5.03
  -2 -10   9   36.97    8.00
   2 -10   9   38.96    8.36
  -2 -10   9   43.41    8.51
   2 -10  10    0.54    2.08
  -2 -10  10    5.19    3.36
  -2 -10  11   73.28   11.38
   2 -10  11   47.81    8.89
  -2 -10  11   57.97   10.23
   2 -10  12    4.28    3.33
  -2 -10  12    5.01    1.79
   2 -10  13  106.16   13.96
  -2 -10  13   75.68   11.60
  -2 -10  13   86.08   12.00
  -2 -10  14   44.24    9.59
   2 -10  14   27.07    7.16
  -2 -10  14   39.35    8.62
  -2 -10  15   30.72    7.68
   2 -10  15   40.42    8.13
  -2 -10  15   33.65    8.10
  -2 -11 -10    3.99    3.80
  -2 -11  -9    1.50    2.75
   2 -11  -8    6.18    5.29
  -2 -11  -8    0.43    2.00
  -2 -11  -7   13.59    5.89
   2 -11  -7   -2.17    4.34
  -2  11  -7    7.47    6.22
  -2  11  -6   12.19    4.34
   2 -11  -6   21.05    5.93
  -2 -11  -6   22.42    6.81
   2 -11  -5   -1.13    3.99
  -2  11  -5   -4.55    4.87
  -2 -11  -5    4.99    4.67
   2 -11  -4   -0.81    2.43
  -2 -11  -4    1.93    3.44
  -2  11  -4    0.61    2.48
  -2 -11  -3   24.85    7.72
  -2  11  -3   17.39    6.16
   2 -11  -3   20.60    7.24
   2 -11  -2    7.98    5.23
  -2 -11  -2   12.08    5.25
  -2 -11  -2    4.39    3.67
  -2  11  -2   10.70    5.85
  -2 -11  -1   20.96    6.60
  -2 -11  -1    4.78    3.10
  -2  11  -1   17.81    6.81
   2 -11  -1    9.66    5.42
  -2 -11   0    2.25    2.88
   2 -11   0   -2.80    2.45
  -2 -11   0   -0.05    2.53
  -2  11   0   -5.76    3.75
   2 -11   1   10.39    3.79
  -2 -11   1   19.38    5.80
  -2  11   1   11.58    7.10
  -2 -11   1   15.10    5.82
  -2  11   2   -4.03    6.39
  -2 -11   2    0.46    2.99
   2 -11   2    1.60    2.50
   2 -11   3   13.30    6.06
  -2 -11   3    7.03    3.97
  -2 -11   3   22.48    7.66
  -2  11   3   13.95    5.43
  -2 -11   4   -3.06    4.04
   2 -11   4   -0.57    2.17
  -2 -11   4    1.59    1.93
  -2  11   4    2.76    2.60
  -2 -11   5   -2.37    3.63
   2 -11   5    3.10    4.51
  -2 -11   5   -0.59    3.71
  -2  11   5    2.00    5.38
  -2 -11   6   17.37    6.06
   2 -11   6   14.40    5.80
  -2 -11   6   13.86    4.91
   2 -11   7   -2.60    2.15
  -2 -11   7    0.81    2.47
  -2 -11   7    3.77    1.99
  -2 -11   8   -0.59    3.60
  -2 -11   8    5.24    4.80
   2 -11   8   -0.71    3.03
  -2 -11   9    5.26    3.53
  -2 -11   9    4.03    4.11
   2 -11   9    4.76    4.86
   2 -11  10    8.57    4.80
  -2 -11  10    8.11    4.19
  -2 -11  10    1.34    1.65
  -3   0 -30   -5.15    4.06
  -3   0 -29    0.99    2.83
  -3   0 -28   -1.14    2.76
  -3   0 -27    0.43    1.89
  -3   0 -26   -3.41    2.82
  -3   0 -25    4.26    3.75
  -3   0 -24   -4.46    3.43
  -3   0 -23    0.12    1.83
  -3   0 -22   -1.91    3.37
  -3   0 -21    2.25    2.10
  -3   0 -20    2.12    3.25
  -3   0 -19    1.23    2.18
  -3   0 -18   -2.30    3.02
  -3   0 -17   -2.09    2.22
  -3   0 -16   -0.92    1.06
  -3   0 -15   -0.83    2.26
  -3   0 -14    3.11    2.38
  -3   0 -13    0.93    1.69
  -3   0 -12   -0.16    1.18
  -3   0 -12    0.44    0.75
  -3   0 -11   -1.18    1.46
  -3   0 -11    0.10    0.94
  -3   0 -10    1.22    0.89
  -3   0 -10    1.19    1.98
  -3   0  -9    0.07    0.74
  -3   0  -9    0.52    1.17
  -3   0  -8    0.47    0.59
  -3   0  -8   -0.06    1.36
  -3   0  -7   -0.46    0.83
  -3   0  -7    0.82    0.62
  -3   0  -6    0.46    0.50
  -3   0  -6    0.45    0.88
  -3   0  -6    0.63    1.01
  -3   0  -5    0.30    1.07
  -3   0  -5    0.90    0.78
  -3   0  -5   -0.08    0.58
  -3   0  -4    0.56    0.86
  -3   0  -4    0.54    0.85
  -3   0  -4    0.95    0.84
  -3   0  -3   -0.82    1.02
  -3   0  -3    0.84    1.15
  -3   0  -3    0.46    0.61
  -3   0  -2    0.15    0.52
  -3   0  -2   -0.43    0.69
  -3   0  -2   -0.28    0.59
  -3   0  -1   -0.02    0.36
  -3   0  -1    0.69    1.06
  -3   0  -1    0.00    0.52
  -3   0   0    0.07    0.55
  -3   0   0   -0.93    0.85
  -3   0   1    0.18    0.92
  -3   0   1    0.63    0.83
  -3   0   2    0.74    0.76
  -3   0   2   -0.20    0.36
  -3   0   3    0.69    0.98
  -3   0   3    0.17    0.51
  -3   0   4   -0.13    0.56
  -3   0   4    0.30    1.03
  -3   0   5    0.14    0.43
  -3   0   5    0.35    1.34
  -3   0   6   -0.47    0.56
  -3   0   6    0.59    0.93
  -3   0   7    1.77    0.98
  -3   0   7    0.25    0.35
  -3   0   8   -0.29    0.30
  -3   0   8    0.55    0.85
  -3   0   9   -0.11    1.41
  -3   0   9    0.60    0.24
  -3   0  10   -0.32    0.68
  -3   0  11   -0.54    0.67
  -3   0  12   -0.14    1.12
  -3   0  13    0.12    1.60
  -3   0  14   -0.16    1.28
   3   0  14    0.02    0.76
  -3   0  15    0.56    1.60
   3   0  15   -0.43    1.30
   3   0  16    1.24    0.92
  -3   0  16   -0.04    1.69
   3   0  17   -0.30    0.79
  -3   0  17   -0.96    2.15
  -3   0  18    0.56    1.66
  -3   0  19    0.91    1.53
  -3   0  20   -0.49    2.02
  -3   1 -30    1.68    2.61
  -3   1 -29  120.72   14.21
  -3   1 -28   76.80   11.50
  -3  -1 -27   35.24    7.30
  -3   1 -27   45.26    8.64
  -3   1 -26   16.41    6.02
  -3  -1 -26   14.15    5.92
  -3   1 -25  106.45   12.60
  -3  -1 -25   95.27   12.68
  -3  -1 -24   58.16    9.36
  -3   1 -24   36.39    7.30
  -3  -1 -23  229.69   17.49
  -3   1 -23  294.20   20.48
   3   1 -22   78.23   10.65
  -3  -1 -22   78.12   10.13
  -3   1 -22   84.36   10.56
  -3  -1 -21    6.28    2.80
  -3   1 -21   13.10    4.79
   3   1 -21   17.61    5.16
  -3  -1 -20  123.20   11.84
  -3   1 -20  119.39   12.13
   3   1 -20  121.42   12.88
   3   1 -19  207.24   16.37
  -3  -1 -19  247.87   16.80
  -3   1 -19  252.26   17.44
   3   1 -18   25.11    5.49
  -3   1 -18   28.04    5.61
  -3  -1 -18   29.94    5.75
   3   1 -17  242.95   16.70
  -3   1 -17  243.95   16.41
  -3  -1 -17  233.98   15.35
   3   1 -16   94.96   10.02
  -3  -1 -16   78.93    8.19
   3   1 -15   54.74    7.46
  -3   1 -15   56.65    7.75
  -3  -1 -15   62.40    7.28
  -3   1 -14  177.69   12.89
   3   1 -14  157.51   12.45
  -3  -1 -14  153.36   11.30
  -3   1 -14  147.90   10.10
   3   1 -13  636.94   24.07
  -3  -1 -13  617.94   21.95
  -3   1 -13  628.03   23.86
  -3   1 -13  676.78   21.05
  -3   1 -12  580.45   19.44
  -3  -1 -12  601.31   20.41
   3   1 -12  578.78   22.42
  -3  -1 -12  571.57   18.64
  -3   1 -12  530.77   21.32
  -3   1 -11  183.75   12.08
  -3   1 -11  158.17    9.92
  -3  -1 -11  180.66   10.10
   3   1 -11  167.85   11.45
  -3  -1 -11  167.43   10.22
   3   1 -10  252.17   13.48
  -3  -1 -10  221.52   11.11
  -3   1 -10  245.93   12.15
  -3  -1 -10  231.75   11.46
  -3   1 -10  256.77   13.78
   3   1  -9  928.88   25.13
  -3  -1  -9  918.95   22.41
  -3   1  -9  921.55   23.12
  -3   1  -9  925.78   25.64
  -3  -1  -8  330.41   12.32
  -3   1  -8  334.31   13.75
  -3   1  -8  368.09   15.62
   3   1  -8  337.23   14.44
  -3  -1  -8  358.76   13.43
  -3  -1  -7  497.30   14.54
  -3   1  -7  489.06   16.09
  -3  -1  -7  482.29    8.80
  -3  -1  -7  462.47   15.22
  -3   1  -7  442.21   16.55
  -3  -1  -6 1457.03   23.45
  -3  -1  -6 1534.00   16.94
  -3   1  -6 1490.07   29.81
  -3   1  -6 1484.49   27.44
  -3  -1  -5  117.51    7.11
  -3   1  -5  116.28    7.48
  -3  -1  -5  113.35    4.86
  -3   1  -5  128.93    8.36
  -3  -1  -5  122.60    6.38
  -3   1  -4  785.82   19.28
  -3  -1  -4  883.62   16.20
  -3  -1  -4  811.81   18.59
  -3   1  -4  840.82   20.42
  -3  -1  -4  838.27   13.76
  -3  -1  -3 4665.65   34.13
  -3   1  -3 4750.78   45.68
  -3   1  -3 4564.04   46.81
  -3  -1  -3 4768.37   43.28
  -3  -1  -3 4537.12   36.57
  -3  -1  -2 1679.61   25.30
  -3  -1  -2 1648.46   21.13
  -3  -1  -2 1667.61   20.76
  -3   1  -2 1628.48   27.17
  -3  -1  -1  914.83   19.26
  -3   1  -1  947.98   20.11
  -3  -1  -1  936.96   16.94
  -3  -1   0  935.66   17.75
  -3  -1   0  962.74   18.43
  -3   1   0  943.13   19.55
  -3   1   1  956.18   20.24
  -3  -1   1  958.69   18.58
  -3  -1   2 1567.15   24.78
  -3  -1   2 1551.78   22.78
  -3   1   2 1608.75   26.70
  -3  -1   3 4743.34   39.05
  -3   1   3 4714.62   45.94
  -3  -1   3 4815.71   44.43
  -3  -1   4  879.97   19.93
  -3   1   4  825.95   19.50
  -3  -1   4  845.67   16.43
  -3  -1   5  109.60    6.05
  -3  -1   5  122.63    7.71
  -3   1   5  123.58    7.72
  -3  -1   6 1502.81   21.72
  -3  -1   6 1486.36   27.67
  -3   1   6 1453.67   26.47
  -3   1   7  452.42   15.19
  -3  -1   7  474.87   12.20
  -3  -1   7  473.93   16.12
  -3  -1   8  326.28   13.72
  -3   1   8  325.74   12.95
  -3  -1   8  329.70   10.34
  -3  -1   9 1005.13   17.85
  -3  -1   9  911.19   24.06
  -3  -1  10  236.85   12.27
  -3  -1  10  233.21    8.61
  -3   1  10  243.25   11.94
  -3   1  11  190.37   10.97
  -3  -1  11  193.60   11.41
  -3  -1  11  179.29    7.67
  -3  -1  12  574.06   20.54
  -3   1  12  573.87   19.55
  -3  -1  12  552.68   13.59
  -3  -1  13  679.09   22.89
  -3   1  13  652.47   21.10
  -3  -1  13  627.05   14.48
  -3  -1  14  146.47    7.14
  -3  -1  14  161.04   11.29
  -3   1  14  162.81   10.96
  -3  -1  15   75.06    8.06
  -3  -1  15   56.61    4.46
  -3   1  15   62.45    7.06
  -3  -1  16   78.98    5.34
  -3   1  16  100.49    9.31
  -3  -1  16  116.75   10.28
   3  -1  16   98.84    8.26
   3  -1  17  228.67   12.86
  -3  -1  17  256.19   15.59
  -3   1  17  215.12   13.79
   3  -1  18   35.25    5.19
  -3   1  18   24.65    4.24
  -3  -1  18   27.14    5.16
  -3  -1  19  224.25   15.64
  -3   1  19  243.41   15.34
  -3  -1  20  121.29   11.69
  -3  -1  21   11.92    3.98
  -3  -1  22   77.21   10.10
  -3   2 -30    0.36    3.70
  -3   2 -29   47.26    8.44
  -3   2 -28   20.15    6.27
  -3   2 -27   37.30    8.06
  -3   2 -26   18.00    5.17
   3   2 -26   18.40    6.26
  -3   2 -25    7.16    3.40
   3   2 -25    6.61    4.35
  -3   2 -24   -0.51    2.59
   3   2 -24   14.18    4.34
   3   2 -23   56.75    9.22
  -3  -2 -23   68.64   11.51
  -3   2 -22    4.97    4.37
  -3  -2 -22    3.35    2.61
   3   2 -22    6.22    4.13
  -3   2 -21   65.07   10.11
  -3  -2 -21   60.56    8.40
  -3   2 -20   33.60    6.49
   3   2 -20   26.78    6.50
  -3  -2 -20   33.54    6.75
  -3   2 -19   44.25    7.38
  -3  -2 -19   50.84    7.77
   3   2 -19   31.85    6.46
   3   2 -18   16.53    5.35
  -3  -2 -18   18.40    4.41
  -3  -2 -17   11.41    3.43
   3   2 -17    9.13    3.66
  -3   2 -17    1.43    2.54
  -3   2 -16   18.07    5.06
  -3  -2 -16   18.40    3.82
  -3  -2 -16   16.85    3.43
   3   2 -16   15.05    4.73
   3   2 -15   82.91    9.43
  -3  -2 -15   82.82    8.18
  -3   2 -15   69.49    8.18
  -3   2 -15   55.09    7.87
  -3  -2 -15   68.44    7.29
  -3  -2 -14    4.71    1.73
  -3  -2 -14    5.22    2.48
   3   2 -14    5.08    1.70
  -3   2 -14    9.70    3.84
  -3   2 -14    3.33    1.33
  -3  -2 -13    4.15    1.89
   3   2 -13    2.01    2.30
  -3   2 -13    4.10    2.29
  -3   2 -13    0.82    1.45
  -3  -2 -13    6.18    2.39
  -3  -2 -12   48.59    5.55
  -3   2 -12   46.43    6.30
   3   2 -12   46.56    6.50
  -3   2 -12   44.66    6.64
  -3  -2 -12   45.16    5.39
  -3  -2 -11  354.46   13.95
   3   2 -11  380.24   17.74
  -3   2 -11  346.78   17.52
  -3  -2 -11  339.42   14.59
  -3   2 -11  331.52   17.09
  -3   2 -10  125.30   10.06
   3  -2 -10   97.25    4.41
   3   2 -10  121.05    9.68
  -3  -2 -10  109.91    8.31
  -3   2 -10  111.12    9.76
  -3  -2 -10  106.83    7.44
  -3   2  -9   16.33    3.89
   3   2  -9   16.69    3.21
  -3  -2  -9   23.92    3.81
  -3   2  -9   23.85    4.36
  -3  -2  -9   21.80    2.83
   3  -2  -9   21.49    2.21
  -3   2  -8  107.71    8.90
   3  -2  -8  104.96    5.18
  -3  -2  -8   96.93    5.96
  -3  -2  -8  100.54    7.50
  -3   2  -8  109.64    9.24
   3   2  -8  106.71    8.39
  -3  -2  -7   66.41    6.18
  -3  -2  -7   55.24    3.08
  -3  -2  -7   67.93    4.63
   3  -2  -7   60.61    4.10
  -3   2  -7   63.73    6.81
   3   2  -7   57.73    6.01
  -3   2  -7   56.90    6.47
  -3  -2  -6  250.11    7.32
   3   2  -6  259.24   12.03
  -3  -2  -6  254.16    8.04
  -3  -2  -6  250.46   11.50
  -3   2  -6  240.02   13.31
  -3   2  -6  275.51   13.69
  -3  -2  -5  340.82   13.25
  -3  -2  -5  351.03    8.73
  -3  -2  -5  352.09    9.45
  -3   2  -5  346.75   14.84
  -3   2  -5  361.26   15.78
   3   2  -5  366.02   13.60
   3   2  -4   64.61    5.54
  -3   2  -4   64.67    6.67
  -3  -2  -4   63.51    3.45
  -3   2  -4   73.08    6.59
  -3  -2  -4   63.92    4.24
  -3  -2  -3 2061.01   25.67
  -3   2  -3 1893.68   34.62
  -3   2  -3 1994.56   33.57
  -3  -2  -3 1950.31   19.53
  -3  -2  -3 1980.28   31.18
  -3   2  -2 1103.06   26.21
  -3  -2  -2 1111.70   23.21
  -3   2  -2 1100.88   24.37
  -3  -2  -2 1136.46   20.44
  -3   2  -1  442.74   16.13
  -3  -2  -1  441.57   13.31
  -3  -2  -1  432.07   14.30
  -3   2  -1  451.86   15.35
  -3  -2   0  369.54   12.64
  -3   2   0  344.71   13.14
  -3   2   0  370.58   14.51
  -3   2   1  416.03   15.42
  -3  -2   1  412.49   13.96
  -3   2   1  449.86   14.61
  -3   2   2 1143.01   25.73
  -3  -2   2 1092.69   23.40
  -3  -2   2 1146.25   23.18
  -3   2   2 1144.66   23.26
  -3   2   3 2017.02   33.67
  -3  -2   3 2035.95   31.01
  -3  -2   3 2023.68   32.79
  -3   2   4   74.42    6.58
  -3  -2   4   70.29    5.65
  -3  -2   4   70.86    6.29
  -3  -2   5  349.01   12.80
  -3   2   5  380.56   14.67
  -3  -2   5  374.70   15.02
  -3  -2   6  237.94   10.56
  -3   2   6  253.56   12.07
  -3  -2   6  251.45   12.52
  -3  -2   7   68.66    6.69
  -3   2   7   56.88    5.83
  -3   2   8   88.71    7.40
  -3  -2   8  107.89    7.27
  -3  -2   8  105.35    8.50
  -3  -2   9   18.58    3.70
  -3  -2   9   22.53    3.45
  -3   2   9   16.88    3.25
  -3   2  10  118.20    8.76
  -3  -2  10  113.15    7.63
  -3  -2  10  112.52    9.17
  -3   2  11  326.91   14.60
  -3  -2  11  334.11   13.38
  -3  -2  12   44.75    4.94
  -3   2  12   46.45    5.66
  -3  -2  12   34.66    5.04
  -3   2  13    3.85    2.04
  -3  -2  13    2.87    1.88
  -3  -2  13    6.06    2.78
  -3  -2  14    5.82    1.97
  -3   2  14    4.67    2.56
  -3  -2  14    5.68    2.12
  -3  -2  15   67.19    6.37
  -3   2  15   80.19    8.19
  -3  -2  15   61.16    7.58
  -3  -2  16   18.71    3.60
  -3  -2  16   20.99    4.79
  -3   2  16   15.42    3.71
  -3  -2  17    4.07    1.56
  -3  -2  17    6.71    3.14
  -3   2  17    8.65    2.15
   3  -2  18   26.99    5.68
  -3  -2  18   21.65    4.51
  -3   2  18   23.50    4.76
   3  -2  19   43.91    6.98
  -3  -2  19   47.45    7.79
  -3  -2  20   21.94    5.19
   3  -2  20   30.31    5.94
  -3  -2  21   70.21    8.89
  -3  -2  22    7.65    4.11
  -3  -2  23   62.74    9.47
  -3   3 -29  166.49   16.81
  -3   3 -28   63.20   10.01
   3   3 -28   83.09   12.62
   3   3 -27  135.97   15.04
  -3   3 -27  121.05   13.89
  -3   3 -26   81.83   11.30
   3   3 -26   97.91   12.88
   3   3 -25  123.56   14.03
  -3   3 -25  117.84   13.69
   3   3 -24    5.51    4.23
  -3   3 -24    7.68    4.42
  -3   3 -23  189.73   17.12
   3   3 -23  170.90   16.48
  -3   3 -22   34.76    7.17
   3   3 -22   35.71    7.34
   3   3 -21    3.71    3.91
  -3   3 -21   -2.88    1.94
   3   3 -20   14.71    5.60
  -3   3 -20   15.14    5.23
  -3   3 -19  160.63   14.55
   3   3 -19  137.41   13.91
   3   3 -18  171.49   14.77
  -3   3 -18  193.54   16.03
   3   3 -17   94.34   10.61
  -3  -3 -17  105.05   10.12
  -3   3 -17  119.56   12.49
  -3  -3 -16   63.03    7.32
  -3  -3 -16   86.88    8.71
   3   3 -16  107.64   11.26
  -3   3 -16   96.37   10.62
  -3   3 -16   92.61   10.84
  -3  -3 -15  190.18   11.95
  -3   3 -15  210.86   15.63
  -3  -3 -15  207.39   13.01
  -3   3 -15  200.62   15.18
   3   3 -15  213.53   15.49
  -3   3 -14   20.93    4.90
  -3   3 -14   28.30    6.09
  -3  -3 -14   36.89    4.87
   3   3 -14   26.96    5.19
  -3  -3 -14   36.24    5.41
  -3   3 -13  684.85   27.07
  -3  -3 -13  683.29   19.96
  -3   3 -13  638.77   26.72
  -3  -3 -13  711.66   23.13
  -3  -3 -12 1134.58   28.75
  -3  -3 -12 1068.43   23.57
   3  -3 -12 1035.53   19.06
   3   3 -12 1169.72   33.07
  -3   3 -12 1141.93   34.54
  -3   3 -12 1125.94   34.51
  -3  -3 -11  103.44    8.65
  -3   3 -11  110.28   10.37
  -3  -3 -11   94.37    6.42
   3   3 -11   94.89    9.02
   3  -3 -11  103.45    6.41
  -3   3 -11  110.82   10.58
  -3  -3 -10  345.47   11.01
   3  -3 -10  359.15   12.12
  -3   3 -10  347.08   18.63
  -3  -3 -10  355.06   16.15
   3   3 -10  316.15   16.19
  -3   3  -9 1621.03   39.60
   3  -3  -9 1649.49   26.52
  -3   3  -9 1685.64   39.10
  -3  -3  -9 1576.52   21.39
  -3  -3  -9 1685.55   33.78
   3   3  -9 1598.99   35.43
  -3  -3  -8   51.61    6.07
  -3   3  -8   47.56    6.62
   3  -3  -8   47.55    4.71
  -3   3  -8   36.05    5.95
   3   3  -8   41.52    5.40
  -3  -3  -8   48.77    3.66
  -3  -3  -8   41.87    3.10
  -3  -3  -7 1143.33   19.08
   3   3  -7 1103.00   26.80
  -3  -3  -7 1116.34   27.01
  -3   3  -7 1048.69   29.49
  -3   3  -7 1138.47   32.00
  -3  -3  -7 1024.32   13.34
   3  -3  -7 1092.18   22.50
  -3  -3  -6 1248.69   21.32
  -3   3  -6 1233.79   33.04
   3   3  -6 1300.41   27.78
  -3   3  -6 1303.84   31.86
   3  -3  -6 1308.58   24.70
  -3  -3  -6 1265.93   29.03
  -3   3  -5  159.41   10.93
  -3   3  -5  161.46   11.90
   3   3  -5  141.66    8.82
  -3  -3  -5  161.18   10.14
  -3  -3  -5  150.06    7.79
   3  -3  -5  159.13    8.81
   3   3  -4 2235.51   33.93
  -3  -3  -4 2328.27   38.38
  -3   3  -4 2277.66   43.51
  -3  -3  -4 2346.24   31.85
  -3  -3  -3 4270.04   44.41
  -3  -3  -3 4241.00   51.93
  -3   3  -3 4179.09   52.30
   3   3  -3 4268.64   43.67
  -3  -3  -2  839.05   20.54
  -3   3  -2  854.32   23.00
  -3  -3  -2  848.05   22.78
  -3  -3  -1 1071.19   25.60
  -3   3  -1 1081.45   25.62
  -3  -3  -1 1056.37   23.94
  -3   3  -1 1050.50   28.18
  -3  -3   0  793.71   21.93
  -3   3   0  761.78   23.65
  -3   3   0  756.80   21.31
  -3  -3   0  808.01   21.46
  -3  -3   1 1062.12   25.52
  -3   3   1 1023.58   24.21
  -3  -3   1 1064.39   25.31
  -3   3   2  868.72   25.20
  -3   3   2  851.32   21.99
  -3  -3   2  826.55   22.86
  -3   3   3 4294.61   55.01
  -3  -3   3 4307.38   51.48
  -3  -3   3 4226.14   52.73
  -3   3   3 4157.45   48.72
  -3  -3   4 2311.01   40.31
  -3   3   4 2231.81   39.53
  -3   3   4 2403.99   36.50
  -3  -3   4 2443.89   38.81
  -3   3   5  144.63    9.86
  -3  -3   5  176.75   10.53
  -3  -3   5  164.55   10.82
  -3   3   6 1224.62   29.30
  -3  -3   6 1226.87   27.98
  -3  -3   6 1250.97   30.78
  -3  -3   7 1070.35   26.44
  -3  -3   7 1089.25   29.25
  -3   3   7 1111.62   28.03
  -3  -3   8   42.87    5.32
  -3  -3   8   44.17    5.70
  -3   3   9 1593.52   34.29
  -3  -3   9 1617.56   33.34
  -3  -3   9 1620.95   36.90
  -3  -3  10  356.40   15.61
  -3  -3  10  352.38   17.74
  -3   3  11  104.23    8.93
  -3  -3  11  101.66    9.80
  -3  -3  11  106.64    8.64
  -3  -3  12 1091.63   32.15
  -3  -3  12 1123.46   28.54
  -3   3  12 1063.74   29.39
  -3  -3  13  682.93   25.87
  -3  -3  13  697.02   22.75
  -3   3  13  686.63   23.84
  -3  -3  14   27.41    5.14
  -3   3  14   28.73    5.21
  -3  -3  14   36.33    5.34
  -3  -3  15  200.55   14.57
  -3  -3  15  219.71   13.15
  -3   3  15  179.68   12.62
  -3  -3  16   93.70    8.65
  -3   3  16   90.99    8.92
  -3  -3  16   77.58    8.99
  -3  -3  17  131.50   12.09
  -3  -3  17   96.65    9.09
  -3  -3  18  137.98   12.54
  -3  -3  18  141.83   11.16
  -3  -3  19  134.54   12.63
   3  -3  20   14.84    4.61
  -3  -3  20   15.73    3.75
  -3  -3  21    4.10    1.83
   3  -3  21   -1.19    2.79
  -3  -3  22   42.09    7.77
  -3  -3  23  201.37   17.18
  -3  -3  24    5.23    4.17
  -3   4 -28   12.47    5.55
   3   4 -28   10.28    5.63
  -3   4 -27   75.33   11.51
   3   4 -27   74.92   12.19
  -3   4 -26   11.03    5.51
   3   4 -26   16.43    5.89
  -3   4 -25   77.30   11.39
   3   4 -25   73.59   11.31
  -3   4 -24   12.38    5.46
   3   4 -24    7.20    3.64
  -3   4 -23    8.95    4.60
   3   4 -23    8.00    3.07
   3   4 -22   29.57    7.14
  -3   4 -22   22.12    6.09
  -3   4 -21   53.51    8.97
   3   4 -21   52.80    9.01
   3   4 -20   13.68    4.91
  -3   4 -20    8.90    4.68
  -3   4 -19   87.72   11.03
   3   4 -19   90.67   11.29
   3   4 -18   21.85    5.25
  -3   4 -18   28.01    6.59
  -3   4 -17    0.43    1.39
   3   4 -17    3.87    3.18
  -3   4 -17    2.71    2.63
   3   4 -16   20.26    5.09
  -3   4 -16   16.05    5.01
  -3   4 -16   17.38    4.42
  -3  -4 -15   42.43    6.44
  -3   4 -15   51.23    8.51
  -3   4 -15   54.49    8.28
   3   4 -15   47.36    8.00
  -3  -4 -14   -0.78    2.39
   3   4 -14   -0.31    1.80
  -3   4 -14   -0.64    1.68
  -3   4 -14   -0.30    1.52
   3   4 -13   58.69    7.85
  -3  -4 -13   53.72    7.22
  -3   4 -13   57.63    8.02
  -3   4 -13   66.92    8.89
  -3  -4 -12   19.69    4.11
  -3   4 -12   11.74    3.92
   3  -4 -12   18.46    3.55
   3   4 -12   17.33    4.15
  -3   4 -12   17.17    4.37
  -3   4 -11  121.55   12.30
   3  -4 -11  102.76    8.04
  -3   4 -11  105.60   11.06
  -3  -4 -11  101.91   10.14
   3   4 -11  105.95    9.84
   3   4 -10  151.67   11.57
  -3  -4 -10  150.43    7.63
  -3   4 -10  185.59   14.83
   3  -4 -10  183.24   10.71
  -3   4 -10  161.33   12.80
  -3  -4 -10  170.53   12.06
   3   4  -9  115.75    9.68
  -3  -4  -9   93.94    6.31
   3  -4  -9  121.92    8.53
  -3  -4  -9   91.79    8.75
  -3   4  -9   97.96   10.90
  -3   4  -9   84.17    9.30
   3  -4  -8   61.82    6.40
  -3  -4  -8   61.77    5.37
  -3  -4  -8   53.83    6.61
   3   4  -8   60.94    6.79
  -3   4  -8   57.51    8.14
  -3   4  -8   58.36    7.49
   3   4  -7   73.39    7.22
   3  -4  -7   59.10    6.50
  -3  -4  -7   62.76    6.88
  -3   4  -7   71.61    8.02
  -3  -4  -7   74.33    6.18
   3   4  -6  102.05    8.08
  -3  -4  -6   97.16    8.76
  -3  -4  -6   91.03    7.13
   3  -4  -6   80.78    7.21
  -3   4  -6  114.01   11.16
  -3   4  -6   96.15    9.27
  -3   4  -5  417.48   20.77
   3   4  -5  397.24   15.72
  -3  -4  -5  440.50   15.79
  -3  -4  -5  451.39   18.69
  -3   4  -5  411.85   18.70
   3  -4  -4  288.29   13.95
  -3   4  -4  274.33   14.89
   3   4  -4  310.59   13.16
  -3  -4  -4  322.98   13.90
  -3  -4  -4  309.28   15.47
  -3   4  -4  283.41   16.90
   3   4  -3  226.70   10.66
  -3  -4  -3  207.38   12.53
   3  -4  -3  212.57   11.99
  -3   4  -3  221.87   15.02
  -3   4  -3  214.83   12.66
  -3  -4  -3  196.23   11.29
   3   4  -2  371.29   12.81
  -3  -4  -2  356.04   16.61
   3  -4  -2  393.57   16.59
  -3  -4  -2  397.37   16.31
  -3   4  -2  408.27   17.23
  -3   4  -1  588.48   23.90
   3   4  -1  586.81   15.22
  -3   4  -1  596.05   20.47
  -3  -4  -1  559.49   19.85
  -3  -4  -1  566.46   20.71
   3  -4  -1  580.32   20.15
  -3  -4   0  220.86   12.98
  -3  -4   0  221.49   12.72
  -3   4   0  222.88   14.28
  -3   4   0  234.91   12.54
  -3   4   1  599.80   23.46
  -3  -4   1  562.25   20.89
  -3  -4   1  603.24   21.44
  -3   4   1  606.93   20.16
  -3   4   2  404.14   16.33
  -3  -4   2  376.40   17.03
  -3  -4   2  390.83   17.39
  -3   4   2  360.47   19.02
  -3   4   3  203.14   13.33
  -3  -4   3  207.96   12.70
  -3   4   3  192.30   11.17
  -3  -4   3  236.14   13.95
  -3  -4   4  294.01   15.15
  -3   4   4  294.97   13.86
  -3   4   4  280.87   15.29
  -3  -4   4  288.95   15.68
  -3  -4   5  464.97   19.40
  -3   4   5  439.20   16.88
  -3   4   5  445.71   19.57
  -3  -4   5  449.71   19.91
  -3   4   6   91.97    8.92
  -3  -4   6  100.87    9.00
  -3   4   6  101.51    8.22
  -3  -4   6  108.46    9.87
  -3  -4   7   69.29    7.75
  -3   4   7   70.07    7.69
  -3  -4   7   68.89    8.23
  -3  -4   8   43.24    6.20
  -3  -4   8   59.19    7.01
  -3   4   8   59.23    7.34
  -3  -4   9  107.63    9.61
  -3  -4   9  109.20   10.28
  -3   4   9   97.18    9.39
  -3  -4  10  180.95   12.59
  -3  -4  10  193.98   13.96
  -3   4  10  174.67   12.22
  -3  -4  11   97.71    9.29
  -3  -4  11   90.04    9.64
  -3   4  11   84.65    8.86
  -3  -4  12   17.04    3.86
  -3  -4  12   15.10    4.50
  -3   4  12   17.54    4.05
  -3   4  13   51.74    6.78
  -3  -4  13   58.80    7.99
  -3  -4  13   64.61    7.92
  -3  -4  14   -0.42    2.22
  -3  -4  14    0.17    1.14
  -3   4  14   -1.66    2.31
  -3  -4  15   46.81    6.43
  -3   4  15   52.09    7.08
  -3  -4  16   22.35    5.34
  -3  -4  16   22.25    4.93
  -3  -4  17    3.53    1.87
  -3  -4  17    8.84    2.77
  -3  -4  18   18.14    4.36
  -3  -4  18   14.87    4.89
   3  -4  19   88.65   10.77
  -3  -4  19   95.97   11.61
  -3  -4  20    4.03    2.54
   3  -4  20   11.88    4.58
   3  -4  20    8.01    3.92
   3  -4  21   37.54    7.53
   3  -4  21   59.20    9.03
  -3  -4  21   43.82    8.45
   3  -4  22   28.44    7.61
  -3  -4  22   19.38    5.71
  -3  -4  23   14.30    5.71
  -3  -4  24   11.60    5.69
  -3  -4  25   71.07   10.98
   3   5 -27   30.79    7.80
  -3   5 -27   34.30    7.72
   3   5 -26   49.74    9.72
  -3   5 -26   34.80    8.23
  -3   5 -25  114.58   13.86
   3   5 -25  119.49   13.90
  -3   5 -24   27.57    7.38
   3   5 -24   41.60    9.01
  -3   5 -23   36.99    7.63
   3   5 -23   28.49    7.16
  -3   5 -22   36.57    7.63
   3   5 -22   33.49    7.79
   3   5 -21   22.01    6.19
  -3   5 -21   12.55    6.85
  -3   5 -20   56.61    9.77
   3   5 -20   70.86   10.63
  -3   5 -19  163.98   16.04
   3   5 -19  162.28   15.69
  -3   5 -18   53.51    8.81
   3   5 -18   47.70    8.02
  -3   5 -17  116.28   12.91
   3   5 -17  125.76   13.17
  -3   5 -17  112.47   13.36
  -3   5 -16  106.06   12.71
   3   5 -16   87.66   11.22
  -3   5 -16  105.13   12.17
   3   5 -15  154.23   14.15
  -3   5 -15  157.39   14.31
  -3   5 -15  115.72   13.18
  -3  -5 -15  150.10   13.19
  -3   5 -14   95.77   11.76
  -3  -5 -14  113.60   10.90
   3   5 -14   99.30   11.02
  -3   5 -14  122.89   12.99
  -3   5 -13  461.28   25.55
  -3  -5 -13  441.94   21.61
  -3   5 -13  510.44   25.05
   3   5 -13  480.86   23.57
   3   5 -12  192.08   14.33
   3  -5 -12  201.04   13.12
  -3   5 -12  216.39   17.70
  -3   5 -12  189.60   15.07
  -3  -5 -12  209.15   14.69
  -3   5 -11   95.83   10.40
   3  -5 -11   81.83    8.14
  -3   5 -11   73.21    9.65
   3   5 -11   68.33    8.30
  -3  -5 -11   85.23    9.35
  -3  -5 -10  104.43    9.97
   3   5 -10  109.12   10.34
  -3   5 -10   93.08   10.49
   3  -5 -10  105.94    9.39
  -3   5 -10   93.40   11.57
  -3  -5  -9  417.62   16.22
   3  -5  -9  416.90   18.77
  -3   5  -9  351.69   19.32
  -3   5  -9  435.72   23.95
   3   5  -9  405.72   19.07
  -3  -5  -9  431.61   20.64
  -3   5  -8   19.45    5.63
  -3   5  -8   15.37    4.33
  -3  -5  -8   18.41    4.13
   3  -5  -8   20.03    4.00
   3   5  -8   29.08    4.81
  -3  -5  -8   23.21    3.89
  -3   5  -7  203.79   16.02
   3  -5  -7  191.38   12.65
   3   5  -7  179.70   11.95
  -3  -5  -7  185.53   11.32
  -3   5  -7  180.79   13.35
  -3  -5  -7  198.79   13.64
  -3   5  -6  130.38   11.37
  -3  -5  -6  141.43   11.53
  -3  -5  -6  132.14    9.76
  -3   5  -6  132.71   13.00
   3  -5  -6  136.93   10.73
   3   5  -6  151.59   10.56
  -3   5  -5    9.43    3.46
   3  -5  -5    8.37    3.03
  -3  -5  -5    8.84    2.99
  -3  -5  -5   11.22    3.00
  -3   5  -5    8.23    2.98
   3   5  -5   13.03    3.12
   3  -5  -4   91.56    8.82
   3   5  -4  114.22    8.40
  -3  -5  -4  104.08    9.84
  -3  -5  -4   94.35    8.64
  -3   5  -4   97.37   10.88
  -3   5  -4   85.01    8.96
  -3   5  -3  365.42   18.00
  -3  -5  -3  326.85   17.40
  -3   5  -3  342.99   19.69
  -3  -5  -3  361.80   17.18
   3   5  -3  355.90   14.40
   3  -5  -3  359.25   17.56
   3   5  -2    9.59    2.47
  -3  -5  -2    9.47    3.16
  -3  -5  -2    6.81    2.37
  -3   5  -2    7.01    2.72
  -3   5  -2   11.92    3.95
   3  -5  -2    4.96    2.60
   3  -5  -1  470.47   20.23
  -3  -5  -1  429.48   19.88
   3   5  -1  422.96   14.43
  -3   5  -1  478.98   19.61
  -3  -5  -1  448.78   19.36
  -3   5  -1  425.25   21.80
  -3   5   0  184.35   14.11
   3   5   0  226.40    9.41
  -3  -5   0  222.97   14.33
   3  -5   0  198.04   13.33
  -3  -5   0  196.84   13.05
  -3   5   0  201.22   12.59
  -3  -5   1  436.63   20.01
   3  -5   1  426.66   19.72
  -3  -5   1  406.21   19.38
  -3   5   1  423.51   18.06
  -3   5   1  450.38   22.12
  -3  -5   2    8.82    2.77
  -3   5   2    7.01    3.25
  -3   5   2    8.70    2.48
  -3  -5   2    6.69    2.51
   3  -5   2    7.55    2.58
  -3  -5   3  339.17   18.10
   3  -5   3  371.66   18.58
  -3   5   3  391.59   16.97
  -3   5   3  386.31   20.32
  -3  -5   3  360.52   18.93
  -3  -5   4  102.90    9.63
  -3   5   4  100.59   10.10
  -3  -5   4  128.31   11.29
  -3   5   4   99.24    8.58
   3  -5   4  100.74   10.06
  -3  -5   5    4.90    1.78
  -3  -5   5    5.50    2.97
   3  -5   5    7.44    2.77
  -3   5   5   11.32    2.78
  -3   5   5    8.32    3.66
  -3  -5   6  149.61   12.79
  -3  -5   6  146.48   11.98
  -3   5   6  138.92   10.22
   3  -5   6  149.43   12.07
  -3   5   6  143.42   12.11
  -3   5   7  173.10   11.44
  -3  -5   7  212.35   14.32
  -3  -5   7  205.03   14.84
   3  -5   7  155.84   12.19
  -3   5   7  181.18   13.46
  -3   5   8   21.99    4.66
  -3  -5   8   24.66    5.38
  -3  -5   8   14.96    4.07
  -3   5   8   19.23    3.74
   3  -5   8   18.85    4.21
  -3  -5   9  435.08   22.15
  -3  -5   9  439.63   21.19
  -3   5   9  395.13   17.91
   3  -5  10   90.98    9.91
  -3  -5  10   87.40    9.56
  -3  -5  10   97.98   10.58
  -3  -5  11   67.75    8.79
  -3  -5  11   77.37    8.88
   3  -5  11   90.72   10.21
  -3   5  11   70.65    8.81
  -3   5  12  181.31   13.90
  -3  -5  12  197.12   14.69
   3  -5  12  205.77   15.39
  -3  -5  12  214.98   16.17
  -3  -5  13  469.66   24.24
   3  -5  13  431.14   22.62
  -3  -5  13  439.30   22.07
  -3  -5  14  129.82   13.16
   3  -5  14  129.05   12.98
  -3  -5  14  138.88   12.94
  -3  -5  15  161.44   13.49
  -3  -5  15  137.71   13.84
   3  -5  15  152.10   13.79
   3  -5  16   94.75   11.09
  -3  -5  16  100.11   11.36
  -3  -5  16   97.67   11.73
  -3  -5  17  111.08   11.82
  -3  -5  17  120.67   13.33
   3  -5  17  112.89   12.95
  -3  -5  18   39.97    7.20
  -3  -5  18   56.89    9.06
   3  -5  18   64.48    9.67
  -3  -5  19  170.05   15.76
  -3  -5  19  134.46   14.37
  -3  -5  20   78.55   10.93
   3  -5  20   94.41   12.36
   3  -5  21   17.30    6.00
   3  -5  21   14.53    5.68
  -3  -5  21   13.32    4.93
  -3  -5  22   24.40    5.98
   3  -5  22   43.17    8.82
   3  -5  22   33.68    8.54
   3  -5  23   37.58    8.17
  -3  -5  23   27.90    7.26
  -3  -5  24   25.54    7.11
  -3  -5  25  114.77   14.61
  -3  -5  26   22.18    6.70
   3   6 -26    2.54    2.97
  -3   6 -26   -0.34    2.50
   3   6 -25   29.44    7.18
  -3   6 -25   19.41    5.75
   3   6 -24   12.28    2.29
  -3   6 -24    8.63    3.31
   3   6 -23    5.68    3.70
  -3   6 -23   15.72    6.13
   3   6 -22   19.35    6.09
  -3   6 -22    1.84    3.67
   3   6 -21   43.47    8.43
  -3   6 -21   39.45    7.79
   3   6 -20   11.82    4.95
  -3   6 -20    9.68    4.25
  -3   6 -19  161.53   16.20
   3   6 -19  145.26   15.25
   3   6 -18   43.53    8.42
  -3   6 -18   67.22   10.91
   3   6 -17   19.65    5.20
  -3   6 -17   13.73    4.68
  -3   6 -17   16.33    5.40
   3   6 -16   60.44    9.43
  -3   6 -16   76.10   11.25
  -3   6 -16   83.17   11.86
   3   6 -15  145.05   14.11
  -3   6 -15  154.17   16.10
  -3   6 -15  169.94   15.65
  -3  -6 -14   53.27    8.27
   3   6 -14   48.52    8.00
  -3   6 -14   49.28    8.68
  -3   6 -14   52.05    8.46
  -3   6 -13  368.15   23.92
   3   6 -13  354.87   20.96
  -3   6 -13  394.91   22.80
  -3  -6 -13  397.53   21.88
   3   6 -12   39.65    7.17
  -3   6 -12   38.88    8.17
  -3  -6 -12   26.70    5.76
  -3   6 -12   22.15    5.35
   3   6 -11  140.72   12.84
  -3  -6 -11  128.59   12.23
   3  -6 -11  130.00   12.04
  -3   6 -11  125.22   12.73
  -3   6 -11  121.77   14.06
   3  -6 -10   72.33    8.67
   3   6 -10   75.80    8.98
  -3  -6 -10   93.21   10.22
  -3   6 -10   83.45   10.04
  -3   6 -10   98.71   11.91
  -3   6  -9   91.91   10.60
  -3  -6  -9   88.27   10.10
  -3   6  -9   80.45   11.40
   3  -6  -9   90.20    9.98
   3   6  -9   71.18    8.36
  -3  -6  -8   40.88    5.76
   3  -6  -8   59.37    7.70
   3   6  -8   40.43    6.60
  -3   6  -8   55.49    8.28
  -3   6  -8   36.51    7.38
  -3  -6  -8   54.54    7.80
   3  -6  -7  232.24   15.39
  -3   6  -7  237.38   18.40
   3   6  -7  226.37   14.26
  -3   6  -7  233.96   16.16
  -3  -6  -7  195.52   13.48
  -3  -6  -7  225.87   15.74
  -3  -6  -6   33.85    5.97
  -3   6  -6   32.38    6.04
  -3  -6  -6   35.63    6.20
   3  -6  -6   34.01    6.07
   3   6  -6   30.36    5.50
  -3   6  -6   40.14    7.36
  -3  -6  -5  124.06   11.33
  -3   6  -5  144.09   12.15
  -3  -6  -5  121.45   10.80
   3  -6  -5  125.41   11.36
   3   6  -5  119.30    9.56
  -3   6  -5  111.13   12.57
   3  -6  -4   18.38    4.48
   3   6  -4   24.73    4.68
  -3   6  -4   25.20    4.42
  -3   6  -4   31.85    6.49
  -3  -6  -4   19.93    4.85
   3   6  -3  157.45   10.36
  -3   6  -3  149.60   12.34
   3  -6  -3  136.03   12.07
  -3   6  -3  167.95   14.60
  -3  -6  -3  151.01   12.91
  -3   6  -2  214.11   14.35
   3   6  -2  195.17   10.94
  -3  -6  -2  199.89   14.53
   3  -6  -2  169.43   13.14
  -3   6  -2  186.08   15.48
   3  -6  -1  207.39   14.77
  -3  -6  -1  247.25   16.40
  -3   6  -1  209.69   16.44
  -3   6  -1  214.30   14.25
  -3   6   0    2.52    1.47
  -3  -6   0    2.02    1.45
   3  -6   0    0.80    2.12
   3   6   0    0.87    1.15
  -3   6   0    1.14    2.46
  -3   6   1  202.82   13.27
  -3  -6   1  229.96   15.89
   3  -6   1  215.03   15.11
  -3   6   1  215.74   16.41
  -3  -6   1  245.30   16.37
  -3  -6   2  185.17   14.42
  -3  -6   2  191.01   14.47
  -3   6   2  180.66   14.53
   3  -6   2  215.77   15.30
  -3   6   2  175.97   12.40
   3  -6   3  187.76   14.21
  -3  -6   3  160.43   13.61
  -3  -6   3  167.23   13.75
  -3   6   3  170.57   11.85
  -3   6   3  164.86   14.22
  -3   6   4   28.85    6.23
   3  -6   4   33.20    5.63
  -3   6   4   39.13    5.93
  -3  -6   4   23.07    5.37
  -3  -6   4   23.38    5.33
  -3   6   5  130.78   10.76
  -3  -6   5  128.11   12.19
   3  -6   5  132.13   12.16
  -3  -6   5  129.32   12.38
  -3   6   5  124.91   12.05
  -3  -6   6   27.14    6.47
  -3  -6   6   26.41    6.05
   3  -6   6   42.46    6.45
  -3   6   6   18.20    4.21
  -3   6   6   46.06    7.61
   3  -6   7  225.52   16.03
  -3  -6   7  245.23   16.90
  -3  -6   7  233.59   16.83
  -3   6   7  230.51   14.23
  -3   6   7  200.82   15.66
   3  -6   8   53.15    7.93
  -3   6   8   40.69    6.34
  -3  -6   8   41.68    7.32
  -3   6   8   52.93    8.21
  -3  -6   8   52.84    8.00
  -3  -6   9   77.32    9.80
  -3  -6   9   89.28   10.46
   3  -6   9   71.67    9.85
  -3   6   9   90.94   10.58
  -3   6   9   87.72    9.23
   3  -6  10   83.86    9.98
  -3  -6  10   87.67   10.81
  -3  -6  10   83.80   10.19
  -3   6  10   84.67    8.85
  -3   6  10   84.50   10.69
  -3  -6  11  154.81   13.81
   3  -6  11  138.06   13.40
  -3  -6  11  127.80   13.12
  -3   6  11  151.43   13.52
  -3  -6  12   20.25    5.30
  -3   6  12   35.27    6.92
   3  -6  12   26.45    6.16
  -3  -6  12   19.40    5.24
  -3  -6  13  397.73   22.49
  -3   6  13  397.97   23.08
  -3  -6  13  439.42   24.45
   3  -6  13  402.42   22.74
  -3  -6  14   45.65    8.13
   3  -6  14   51.20    8.18
  -3  -6  14   63.46    9.64
  -3  -6  15  138.94   13.77
   3  -6  15  185.10   16.09
  -3  -6  15  142.89   14.58
   3  -6  16   56.80    9.34
  -3  -6  16   65.25    9.55
  -3  -6  17   13.84    4.32
   3  -6  17    5.15    2.79
  -3  -6  17   10.73    3.64
   3  -6  18   70.50   10.34
  -3  -6  18   52.67    8.65
  -3  -6  18   57.24    9.36
  -3  -6  19  133.57   14.25
   3  -6  19  139.25   14.43
  -3  -6  19  125.09   14.16
  -3  -6  20    7.48    3.22
   3  -6  20    5.18    4.82
  -3  -6  21   42.02    8.34
   3  -6  21   42.31    9.72
   3  -6  21   48.93    9.18
   3  -6  22   10.72    3.20
   3  -6  22    3.63    4.39
  -3  -6  22    3.82    3.14
  -3  -6  23   16.69    6.17
   3  -6  23    7.35    4.75
   3  -6  24   18.93    7.25
  -3  -6  24    9.80    6.62
  -3  -6  25   24.09    7.82
  -3  -6  26   -3.84    5.67
   3   7 -24   52.10    9.47
  -3   7 -24   41.97    9.53
   3   7 -23   40.94    8.90
  -3   7 -23   29.13    7.48
  -3   7 -22   69.50   11.35
   3   7 -22   69.91   11.10
   3   7 -21   30.22    8.12
  -3   7 -21   36.22    7.88
   3   7 -20   36.52    7.81
  -3   7 -20   32.79    7.37
   3   7 -19  123.14   14.09
  -3   7 -19  118.45   13.79
   3   7 -18   12.64    5.06
  -3   7 -18    5.53    2.55
  -3   7 -17   84.40   11.21
   3   7 -17   72.54   11.18
  -3   7 -16  139.54   14.87
   3   7 -16  141.95   14.30
  -3   7 -16  131.40   15.00
  -3   7 -15   57.70    9.54
   3   7 -15   55.90    9.42
  -3   7 -15   49.33    9.09
   3   7 -14   38.38    7.61
  -3  -7 -14   44.39    8.22
  -3   7 -14   45.28    8.97
  -3   7 -14   39.67    8.25
   3   7 -13  144.17   14.09
  -3  -7 -13  147.16   14.66
  -3   7 -13  138.64   15.25
  -3   7 -13  131.46   13.33
  -3  -7 -12   55.08    8.85
  -3   7 -12   63.58    9.52
   3   7 -12   53.07    8.66
  -3   7 -12   68.24   10.88
   3   7 -11   -0.50    3.12
  -3   7 -11    5.48    3.57
  -3  -7 -11    3.93    2.02
   3  -7 -11    2.99    2.85
  -3   7 -11    2.29    2.18
  -3   7 -10   67.02   10.61
  -3  -7 -10   67.09    9.39
   3  -7 -10   64.25    9.46
   3   7 -10   65.74    8.83
  -3   7 -10   85.85   10.96
   3   7  -9  235.90   16.30
  -3   7  -9  244.80   19.92
  -3  -7  -9  240.97   17.67
   3  -7  -9  242.26   17.44
  -3   7  -9  238.25   17.69
  -3   7  -8   21.79    5.55
  -3   7  -8   30.08    7.77
   3   7  -8   29.23    5.99
  -3  -7  -8   27.37    5.88
   3  -7  -8   30.27    6.47
  -3  -7  -7   99.69   10.76
  -3   7  -7   84.09   10.03
  -3  -7  -7   91.54   10.75
   3  -7  -7   79.42    9.88
   3   7  -7   60.01    8.05
  -3   7  -7   79.00   11.74
  -3  -7  -6  130.21   12.66
   3   7  -6  141.81   11.82
   3  -7  -6  109.30   11.51
  -3   7  -6  101.79   11.01
  -3  -7  -6  136.44   12.34
  -3   7  -6  117.97   13.48
  -3   7  -5   58.55    8.61
  -3  -7  -5   59.17    8.86
  -3   7  -5   56.35    9.66
   3  -7  -5   52.54    8.01
  -3  -7  -5   58.24    8.78
   3   7  -5   59.21    7.59
  -3  -7  -4  275.04   17.88
  -3  -7  -4  301.01   19.45
   3  -7  -4  274.99   18.12
  -3   7  -4  246.31   16.68
   3   7  -4  239.75   14.80
  -3   7  -4  255.51   19.54
  -3  -7  -3  226.20   17.07
  -3   7  -3  236.50   16.11
   3   7  -3  260.15   13.99
  -3  -7  -3  254.47   17.47
   3  -7  -3  274.46   17.87
  -3  -7  -2  153.76   14.06
  -3   7  -2  139.00   12.00
   3   7  -2  117.55    9.42
  -3  -7  -2  128.30   12.41
   3  -7  -2  144.72   13.11
  -3   7  -2  131.09   14.13
   3  -7  -1  547.13   25.54
  -3  -7  -1  595.10   26.95
  -3   7  -1  568.79   29.00
  -3   7  -1  621.21   25.81
  -3  -7  -1  593.52   27.38
   3  -7   0  395.69   22.21
  -3   7   0  317.30   17.95
  -3  -7   0  337.05   20.51
  -3  -7   0  355.44   21.12
  -3   7   0  319.70   21.27
  -3   7   1  553.94   23.73
  -3   7   1  540.72   27.64
   3  -7   1  537.10   25.90
  -3  -7   1  603.88   27.33
  -3  -7   1  495.33   24.79
   3  -7   2  125.70   12.58
  -3   7   2  128.60   11.10
  -3  -7   2  146.67   13.93
  -3  -7   2  140.76   13.30
  -3   7   2  119.37   13.05
  -3  -7   3  251.71   17.68
  -3   7   3  225.96   14.89
   3  -7   3  247.71   17.19
  -3   7   3  254.34   18.80
  -3  -7   3  255.55   18.27
  -3  -7   4  301.28   19.88
  -3   7   4  235.00   15.06
  -3   7   4  314.89   20.68
   3  -7   4  244.10   17.33
  -3  -7   4  286.16   19.60
  -3  -7   5   69.01   10.20
   3  -7   5   68.02    9.38
  -3  -7   5   60.66    8.78
  -3   7   5   55.27    9.18
  -3   7   5   58.29    7.47
  -3   7   6  122.02   13.33
  -3  -7   6  146.30   13.66
  -3  -7   6  131.43   13.34
   3  -7   6   95.63   11.14
   3  -7   7   85.22   10.44
  -3  -7   7   92.54   11.37
  -3   7   7   88.85   11.44
  -3  -7   7   82.09   10.54
   3  -7   8   19.47    4.93
  -3  -7   8   16.13    5.49
  -3   7   8   25.18    6.17
  -3  -7   8   13.31    4.43
  -3  -7   9  269.94   19.55
  -3  -7   9  235.08   17.90
  -3   7   9  297.04   20.56
   3  -7   9  273.31   18.92
  -3  -7  10   96.36   11.99
  -3  -7  10   93.37   11.40
   3  -7  10   55.93    8.67
  -3   7  10   65.35   10.09
  -3  -7  11    3.75    3.30
  -3  -7  11    4.21    2.94
   3  -7  11    4.85    3.47
  -3   7  11    6.00    3.20
  -3   7  12   57.91   10.41
   3  -7  12   47.15    7.74
  -3  -7  12   51.34    9.50
  -3  -7  12   41.62    7.49
  -3  -7  13  134.35   14.59
   3  -7  13  139.19   13.51
  -3  -7  13  123.58   13.17
  -3  -7  14   59.12    9.63
   3  -7  14   43.03    8.51
  -3  -7  14   53.06    9.29
  -3  -7  15   59.06    9.47
  -3  -7  15   52.32    8.97
   3  -7  15   44.67    8.72
  -3  -7  16  151.99   15.74
  -3  -7  16  135.17   14.57
   3  -7  16  146.05   15.65
  -3  -7  17  103.61   13.09
  -3  -7  17  101.46   12.87
   3  -7  17   77.15   11.53
  -3  -7  18   -0.04    1.88
   3  -7  18    8.30    5.09
  -3  -7  18    6.23    4.41
  -3  -7  19  119.27   13.89
   3  -7  19  117.95   14.51
  -3  -7  19  121.82   14.67
  -3  -7  20   35.09    7.29
  -3  -7  20   24.35    6.22
   3  -7  20   23.04    6.84
   3  -7  21   22.08    7.76
   3  -7  21   25.51    7.93
  -3  -7  21   37.05    7.73
   3  -7  22   68.47   12.66
   3  -7  22   84.72   12.98
  -3  -7  22   55.95   10.18
   3  -7  23   50.08   10.40
  -3  -7  23   28.69    6.65
  -3  -7  24   65.11   10.65
   3  -7  24   37.53    9.49
   3   8 -22   14.26    5.49
  -3   8 -22   14.65    4.82
  -3   8 -21    9.80    5.20
   3   8 -21    4.01    4.89
   3   8 -20    6.44    4.21
  -3   8 -20    8.41    3.71
  -3   8 -19   19.25    5.96
   3   8 -19   26.34    7.72
  -3   8 -18    1.39    3.12
   3   8 -18    4.69    4.65
  -3   8 -17   33.09    7.87
   3   8 -17   43.80    8.60
  -3   8 -16   20.28    6.02
   3   8 -16   33.27    7.24
   3   8 -15   74.53   10.69
  -3   8 -15   63.07   10.46
  -3   8 -15   60.68   11.31
  -3   8 -14   48.91    8.67
   3   8 -14   46.69    8.67
  -3   8 -14   36.80    9.58
  -3  -8 -13  146.13   15.12
  -3   8 -13  133.85   15.49
   3   8 -13  154.47   15.50
   3   8 -12   50.62    8.42
  -3   8 -12   40.50    9.20
  -3  -8 -12   41.70    8.34
  -3   8 -12   55.39    9.90
   3   8 -11   11.90    4.25
  -3   8 -11    8.53    3.50
  -3   8 -11    3.10    2.39
  -3  -8 -11   -1.34    2.13
   3  -8 -10   32.36    7.42
  -3   8 -10   32.47    7.23
  -3   8 -10   30.36    6.44
  -3  -8 -10   20.72    5.48
   3   8 -10   32.95    7.45
  -3  -8  -9   80.51   10.78
   3   8  -9   88.75   10.82
   3  -8  -9   81.83   10.85
  -3   8  -9   81.49   10.95
  -3   8  -9   90.52   12.96
  -3  -8  -8   34.04    6.69
   3  -8  -8   17.75    5.59
   3   8  -8   16.62    5.30
  -3   8  -8   22.07    7.24
  -3   8  -8   17.41    5.07
   3   8  -7   36.41    7.31
   3  -8  -7   44.21    8.12
  -3   8  -7   26.14    6.58
  -3  -8  -7   39.91    7.42
  -3   8  -7   26.91    5.96
  -3   8  -6    9.77    6.07
  -3   8  -6   14.92    4.77
  -3  -8  -6    2.29    1.45
  -3  -8  -6    6.40    2.87
   3  -8  -6    8.00    4.35
  -3   8  -5   23.47    6.17
  -3   8  -5   18.29    5.71
  -3  -8  -5   22.72    6.21
   3  -8  -5   28.96    6.46
  -3  -8  -5   24.46    5.74
  -3  -8  -4   83.45   10.91
  -3   8  -4   60.00    8.80
   3  -8  -4   70.96   10.11
  -3   8  -4   81.22   12.23
  -3  -8  -4   80.66   10.38
  -3  -8  -3   56.09    8.43
   3  -8  -3   75.30    9.76
  -3   8  -3   64.11   10.99
  -3  -8  -3   64.34    9.68
  -3   8  -3   68.18    9.12
  -3   8  -2   11.07    3.97
  -3  -8  -2   14.60    5.09
  -3   8  -2   10.39    3.73
  -3  -8  -2   22.20    5.87
   3  -8  -2   22.53    5.56
  -3   8  -1   99.74   13.10
  -3  -8  -1  118.94   13.18
  -3  -8  -1  104.63   12.33
   3  -8  -1  101.84   11.69
  -3   8  -1   89.96    9.77
  -3   8   0   20.97    5.40
  -3  -8   0   23.16    6.09
  -3  -8   0   17.49    5.57
   3  -8   0   22.66    5.81
  -3   8   0   16.30    5.34
  -3  -8   1  102.01   12.04
  -3   8   1  103.25   13.28
  -3  -8   1  113.18   12.95
   3  -8   1  100.28   11.78
  -3  -8   2   14.87    4.76
   3  -8   2   18.91    4.94
  -3  -8   2   15.67    4.80
  -3   8   2   20.83    5.79
  -3  -8   3   66.36    9.70
  -3  -8   3   65.23    9.65
  -3   8   3   95.51   12.58
   3  -8   3   73.56   10.14
  -3  -8   4   80.69   10.52
   3  -8   4   80.42   10.87
  -3   8   4   71.11   10.54
  -3  -8   4   64.01    9.98
  -3  -8   5   27.09    6.62
  -3   8   5   27.62    7.28
  -3  -8   5   15.48    4.41
   3  -8   5    6.55    3.51
  -3  -8   6   15.61    5.01
   3  -8   6    9.98    3.70
  -3  -8   6   11.09    4.71
  -3   8   6   10.93    5.25
  -3  -8   7   35.30    7.41
   3  -8   7   37.03    7.23
  -3   8   7   46.55    8.93
  -3  -8   7   24.92    6.19
  -3  -8   8   16.75    5.12
  -3  -8   8   16.55    5.02
   3  -8   8   14.94    5.10
  -3   8   8   26.38    6.38
  -3  -8   9  111.29   12.96
  -3  -8   9   95.19   12.47
   3  -8   9   89.95   11.13
  -3   8   9   71.01   10.65
  -3  -8  10   23.93    6.40
  -3  -8  10   32.34    7.35
  -3   8  10   36.34    8.37
   3  -8  10   38.30    7.96
  -3  -8  11   16.58    5.31
   3  -8  11    6.42    4.16
  -3  -8  11    5.50    3.69
  -3   8  11    6.88    2.55
  -3  -8  12   49.51    9.66
  -3  -8  12   41.27    8.24
   3  -8  12   60.26    9.50
  -3  -8  13  149.06   15.72
   3  -8  13  155.64   15.90
  -3  -8  13  170.95   17.32
  -3  -8  14   55.95   10.30
   3  -8  14   48.83    8.30
  -3  -8  14   35.80    8.47
  -3  -8  15   80.27   10.64
   3  -8  15   53.90    9.39
  -3  -8  15   56.13    9.81
  -3  -8  16   36.06    7.80
   3  -8  16   33.75    7.44
  -3  -8  16   42.73    8.84
  -3  -8  17   29.92    7.27
  -3  -8  17   18.69    6.13
   3  -8  17   17.29    6.36
   3  -8  18   -6.25    4.31
  -3  -8  18    3.23    3.00
  -3  -8  18    0.58    2.96
   3  -8  19   21.57    7.52
  -3  -8  19   27.59    7.16
  -3  -8  19   11.80    3.49
   3  -8  20   12.73    5.68
  -3  -8  20    1.10    3.23
  -3  -8  20   10.09    5.47
   3  -8  20    1.89    2.26
   3  -8  21    6.84    4.81
  -3  -8  21    8.49    4.01
   3  -8  21   17.97    6.15
  -3  -8  22   13.19    5.60
   3  -8  22   11.14    4.00
   3  -8  22   16.91    5.16
   3   9 -19  101.50   13.90
  -3   9 -19   85.92   12.79
  -3   9 -18   14.27    2.79
   3   9 -18   17.35    6.60
   3   9 -17    4.88    4.50
  -3   9 -17    8.20    4.13
   3   9 -16   16.78    6.92
  -3   9 -16   34.14    8.81
   3   9 -15   28.78    7.90
  -3   9 -15   31.19    7.69
   3   9 -14   17.08    6.03
  -3   9 -14   20.29    6.49
  -3   9 -13   55.56    9.93
  -3   9 -13   46.21    9.96
  -3   9 -12    1.50    3.51
  -3   9 -12    6.44    3.98
  -3  -9 -12   -1.36    3.43
  -3  -9 -11   11.01    4.12
  -3   9 -11   15.21    5.13
  -3   9 -11    5.78    4.22
  -3   9 -10   68.94   11.20
  -3   9 -10   49.66    8.96
  -3  -9 -10   70.29   10.65
  -3  -9  -9  206.17   18.13
   3  -9  -9  196.51   17.52
  -3   9  -9  168.22   16.37
  -3   9  -9  211.97   19.64
  -3   9  -8   71.43   10.79
  -3  -9  -8   77.96   11.06
  -3   9  -8   83.76   12.39
   3  -9  -8   56.90    9.57
   3  -9  -7  181.97   16.74
  -3   9  -7  184.77   18.46
  -3  -9  -7  157.64   15.99
  -3   9  -7  143.45   14.36
  -3  -9  -6  122.30   13.76
   3  -9  -6  119.60   14.01
  -3   9  -6  113.18   12.87
  -3   9  -6  130.40   15.31
   3  -9  -5  149.25   15.25
  -3  -9  -5  133.00   14.34
  -3   9  -5  144.69   16.41
  -3  -9  -5  162.04   16.43
   3  -9  -4  200.27   17.34
  -3   9  -4  203.67   19.09
  -3  -9  -4  160.32   15.79
  -3  -9  -4  209.57   18.29
  -3   9  -3  231.34   20.17
   3  -9  -3  251.94   19.50
  -3  -9  -3  254.72   20.10
  -3  -9  -3  232.19   19.35
  -3  -9  -2   31.64    7.36
  -3  -9  -2   38.87    8.39
   3  -9  -2   42.24    7.88
  -3   9  -2   49.54    9.85
  -3   9  -1  168.54   17.47
  -3  -9  -1  206.81   17.94
  -3  -9  -1  178.69   16.25
   3  -9  -1  162.81   15.99
  -3  -9   0  116.04   13.95
  -3  -9   0  103.73   12.60
   3  -9   0  100.72   12.04
  -3   9   0  103.56   13.43
  -3  -9   1  178.56   16.88
  -3  -9   1  141.25   14.81
  -3   9   1  183.93   17.87
   3  -9   1  184.51   16.69
  -3  -9   2   56.46    9.84
  -3  -9   2   37.07    7.78
  -3   9   2   44.35    9.26
   3  -9   2   41.30    7.96
  -3  -9   3  279.34   21.55
  -3  -9   3  256.46   19.83
  -3   9   3  320.69   23.70
   3  -9   3  258.41   19.70
  -3   9   4  156.52   16.99
   3  -9   4  182.39   16.80
  -3  -9   4  199.68   18.03
  -3  -9   4  149.09   14.98
  -3  -9   5  149.70   15.68
   3  -9   5  141.55   14.62
  -3  -9   5  158.23   16.04
  -3   9   5  140.53   16.76
  -3  -9   6  109.74   13.44
   3  -9   6  143.22   15.06
  -3   9   6  130.17   15.60
  -3  -9   6  152.14   15.99
  -3  -9   7  205.61   18.12
   3  -9   7  176.69   16.92
  -3  -9   7  201.38   18.70
  -3   9   7  156.76   16.95
  -3  -9   8   73.53   10.41
  -3  -9   8   66.36   10.90
   3  -9   8   73.93   11.13
  -3   9   8  104.39   14.13
  -3  -9   9  216.14   18.64
   3  -9   9  212.67   17.82
  -3  -9   9  210.52   19.16
  -3   9   9  214.37   20.10
  -3  -9  10   57.07    9.99
  -3  -9  10   56.83    9.77
   3  -9  10   66.09   10.27
   3  -9  11    9.31    3.41
  -3  -9  11   13.35    6.31
  -3  -9  11   13.38    4.43
  -3  -9  12    3.33    3.21
   3  -9  12    6.14    4.58
  -3  -9  12    9.54    4.81
  -3  -9  13   44.49    8.80
   3  -9  13   45.62    8.64
  -3  -9  13   41.71    8.56
   3  -9  14   27.42    7.58
  -3  -9  14   24.41    7.10
  -3  -9  14   27.99    7.45
  -3  -9  15   30.03    7.66
  -3  -9  15   32.42    8.07
   3  -9  15   30.43    8.15
   3  -9  16   22.04    5.33
  -3  -9  16   29.50    8.46
  -3  -9  16   38.26    8.60
   3  -9  17    1.34    3.62
  -3  -9  17    1.84    3.44
  -3  -9  17   -5.15    3.84
  -3  -9  18   21.51    6.64
  -3  -9  18   20.18    6.77
   3  -9  18   14.12    4.46
   3  -9  19   89.11   13.24
  -3  -9  19   89.38   12.81
  -3  -9  19   94.31   13.53
  -3  10 -15    4.73    3.10
  -3  10 -14    2.33    4.14
  -3  10 -13    4.40    5.18
  -3 -10 -12    1.23    1.95
  -3  10 -12   23.16    8.60
  -3  10 -11   87.40   13.78
  -3 -10 -11   82.38   12.64
  -3 -10 -10   27.80    6.46
  -3  10 -10   22.98    7.09
  -3 -10  -9   37.15    8.48
  -3  10  -9   50.51    9.73
  -3 -10  -8   55.89   10.03
   3 -10  -8   60.81    9.75
  -3  10  -8   54.60   10.50
   3 -10  -7    1.36    2.83
  -3 -10  -7    4.34    1.72
  -3  10  -7    3.94    4.74
  -3 -10  -6    9.76    3.30
  -3  10  -6    5.78    5.40
   3 -10  -6    7.22    4.79
  -3 -10  -5   86.02   11.79
  -3  10  -5   74.54   11.62
   3 -10  -5   71.74   11.48
  -3 -10  -4   83.44   12.17
   3 -10  -4  125.76   14.61
  -3  10  -4  100.26   13.87
  -3  10  -3  284.11   23.39
  -3 -10  -3  382.86   25.52
   3 -10  -3  340.93   23.79
  -3 -10  -3  352.81   25.29
  -3 -10  -2   25.58    7.23
   3 -10  -2   34.12    7.18
  -3  10  -2   38.67    8.87
  -3 -10  -2   43.10    8.65
  -3 -10  -1   18.16    6.20
  -3 -10  -1   22.55    5.68
   3 -10  -1   26.85    6.84
  -3  10  -1    9.34    3.88
  -3  10   0   33.53    7.40
   3 -10   0   19.03    6.35
  -3 -10   0   20.56    7.03
  -3 -10   0   28.15    6.43
   3 -10   1   21.28    6.89
  -3 -10   1   11.48    3.88
  -3  10   1   17.05    5.70
  -3 -10   1   21.60    5.50
  -3 -10   2   24.48    7.03
   3 -10   2   32.65    7.57
  -3 -10   2   41.16    8.82
  -3  10   2   38.71    9.02
  -3 -10   3  330.07   23.58
  -3  10   3  298.80   24.33
   3 -10   3  348.18   23.92
  -3 -10   3  331.33   24.55
  -3 -10   4   84.59   12.51
   3 -10   4   91.32   12.76
  -3  10   4   95.08   12.88
  -3 -10   4   98.16   13.27
  -3 -10   5   78.35   11.68
  -3 -10   5   82.97   12.27
   3 -10   5   82.02   11.34
  -3  10   5   92.69   13.18
  -3 -10   6    8.94    5.01
  -3 -10   6   12.93    5.73
  -3  10   6   14.79    4.72
   3 -10   6    6.64    3.62
   3 -10   7    1.70    3.25
  -3  10   7    5.98    2.92
  -3 -10   7    1.17    3.81
  -3 -10   7    1.33    4.27
   3 -10   8   34.37    7.23
  -3 -10   8   73.36   11.50
  -3 -10   8   47.32    9.06
  -3  10   8   60.58   11.62
   3 -10   9   34.13    7.69
  -3 -10   9   35.31    8.00
   3 -10  10   28.72    6.80
  -3 -10  10   30.37    7.86
  -3 -10  10   22.69    7.29
  -3 -10  11   89.88   12.98
   3 -10  11   97.54   12.81
  -3 -10  11   87.56   13.21
  -3 -10  12    6.83    3.20
  -3 -10  12   10.73    4.34
  -3 -10  13    2.16    3.60
  -3 -10  13    3.38    2.47
  -3 -10  14    4.16    4.33
   3 -10  14   -4.95    4.15
  -3 -10  14    5.26    3.38
  -3 -10  15    9.13    3.96
  -3 -10  15   -2.20    4.45
   3 -10  15   10.20    6.10
  -3 -11  -9   33.80    8.69
  -3  11  -9   30.83    9.23
   3 -11  -8   53.94   12.07
  -3  11  -8   92.36   13.64
  -3 -11  -8   83.74   13.01
   3 -11  -7   96.82   13.41
  -3 -11  -7   90.45   12.86
  -3  11  -7  102.49   14.58
   3 -11  -6   21.09    7.26
  -3  11  -6   19.51    6.73
  -3 -11  -6   38.06    9.16
  -3 -11  -5   22.72    6.82
   3 -11  -5   33.56    8.08
  -3  11  -5   14.42    5.60
  -3 -11  -4   25.78    6.93
   3 -11  -4   31.78    7.40
  -3  11  -4   33.61    8.55
  -3 -11  -3   11.00    5.24
   3 -11  -3   20.66    7.47
  -3  11  -3    7.44    2.92
  -3 -11  -2    0.05    1.12
  -3  11  -2    7.11    3.60
   3 -11  -2    7.89    2.31
  -3 -11  -2    6.93    4.02
  -3 -11  -1    7.06    3.64
   3 -11  -1   13.10    5.41
  -3 -11  -1   10.91    4.90
  -3  11  -1    8.18    5.97
  -3 -11   0    2.45    3.21
   3 -11   0   -1.52    2.18
  -3  11   0    3.12    4.15
  -3 -11   0   -2.81    2.22
  -3 -11   1    6.12    3.43
  -3 -11   1    4.98    3.10
   3 -11   1   17.56    6.88
  -3  11   1    9.29    6.43
  -3 -11   2    5.19    2.98
   3 -11   2    7.30    3.81
  -3 -11   2    5.14    2.68
  -3  11   2    9.67    4.96
  -3 -11   3   17.02    5.90
  -3 -11   3    3.88    4.17
  -3  11   3   10.47    5.12
   3 -11   3   15.89    5.62
  -3 -11   4   21.01    6.31
  -3 -11   4   31.37    7.23
   3 -11   4   44.05    9.17
  -3  11   4   31.66    9.10
  -3 -11   5   23.03    6.86
  -3  11   5    9.37    6.09
   3 -11   5   14.91    6.99
  -3 -11   5   21.89    6.23
  -3 -11   6   23.55    6.92
  -3  11   6   21.67    8.45
   3 -11   6   25.16    7.43
  -3 -11   6   17.72    6.30
  -3 -11   7  105.90   14.59
   3 -11   7   91.73   13.15
  -3 -11   7   98.77   13.84
  -3 -11   8  102.45   14.44
  -3 -11   8  119.07   14.98
   3 -11   8   77.30   11.28
   3 -11   9   34.99    8.42
  -3 -11   9   38.99    8.10
  -3 -11   9   23.51    8.34
  -4   0 -30   21.82    7.16
  -4   0 -29   15.74    6.42
  -4   0 -28   16.42    5.21
  -4   0 -27  130.38   14.61
  -4   0 -26  263.76   20.64
  -4   0 -25   46.36    8.07
  -4   0 -24   50.51    8.78
  -4   0 -23  144.00   14.77
  -4   0 -22  186.97   16.15
  -4   0 -21  223.30   17.24
  -4   0 -20  196.05   15.81
  -4   0 -19  202.15   15.67
  -4   0 -18  299.93   18.44
  -4   0 -17 1171.28   35.53
  -4   0 -16  230.72   15.24
  -4   0 -15  414.60   19.73
  -4   0 -14  299.48   16.52
  -4   0 -14  332.23   12.70
  -4   0 -13  245.27   14.33
  -4   0 -13  207.85    9.92
  -4   0 -12  188.02    9.29
  -4   0 -12  201.56   12.82
  -4   0 -11 1451.58   26.49
  -4   0 -11 1504.40   34.15
  -4   0 -10  124.10    9.56
  -4   0 -10  134.18    7.73
  -4   0  -9 1506.51   32.00
  -4   0  -9 1555.00   26.21
  -4   0  -8  453.01   17.11
  -4   0  -8  420.97   13.52
  -4   0  -7   59.25    6.03
  -4   0  -7   55.67    4.80
  -4   0  -7   52.01    5.25
  -4   0  -6  197.86    9.11
  -4   0  -6  206.52   10.66
  -4   0  -6  204.98   10.41
  -4   0  -5  374.40   12.52
  -4   0  -5  375.90   14.17
  -4   0  -5  373.97   13.58
  -4   0  -4  185.48    9.40
  -4   0  -4  202.15    9.15
  -4   0  -4  187.12    9.74
  -4   0  -3 1836.89   27.62
  -4   0  -3 1790.15   28.43
  -4   0  -3 1879.10   30.19
  -4   0  -2 1270.65   24.35
  -4   0  -2 1288.69   23.49
  -4   0  -1  707.72   17.22
  -4   0  -1  673.10   17.06
  -4   0   0  827.00   18.34
  -4   0   0  886.65   19.98
  -4   0   1  656.78   15.95
  -4   0   1  707.18   18.08
  -4   0   2 1331.93   21.96
  -4   0   2 1321.66   25.20
  -4   0   3 1760.72   29.93
  -4   0   3 1722.27   24.56
  -4   0   4  196.39   10.36
  -4   0   4  190.32    8.06
  -4   0   5  372.73   10.89
  -4   0   6  219.24   11.19
  -4   0   6  217.97    7.89
  -4   0   7   54.54    5.79
  -4   0   7   58.39    3.91
  -4   0   8  443.61   16.59
  -4   0   8  466.82   10.88
  -4   0   9 1477.45   18.70
  -4   0   9 1497.24   31.53
  -4   0  10  133.65    9.70
  -4   0  10  131.78    5.27
  -4   0  11 1632.72   34.63
  -4   0  11 1456.34   16.21
  -4   0  12  185.75   11.99
  -4   0  13  219.88   13.29
  -4   0  14  329.11   16.68
  -4   0  15  431.73   20.10
  -4   0  16  196.02   13.86
   4   0  16  203.63    9.90
  -4   0  17 1220.33   35.43
  -4   0  18  276.09   17.08
  -4   0  19  230.96   16.16
  -4   0  20  218.08   16.35
  -4   0  21  158.82   14.52
  -4   1 -30    1.75    3.25
  -4   1 -29    2.50    3.42
  -4   1 -28   14.34    5.88
  -4   1 -27   -4.98    3.01
  -4  -1 -26   15.19    6.36
  -4   1 -26    6.24    2.81
  -4  -1 -25   14.20    5.39
  -4   1 -25    9.36    4.91
  -4   1 -24  114.59   13.26
  -4  -1 -24   81.54   11.28
  -4  -1 -23   18.92    5.69
  -4   1 -23   12.03    5.12
  -4  -1 -22   13.60    4.50
  -4   1 -22   15.24    4.94
  -4  -1 -21   16.03    4.22
  -4   1 -21   15.41    5.09
  -4  -1 -20   11.15    4.49
  -4   1 -20    9.31    2.38
  -4  -1 -19  104.02   10.65
  -4   1 -19   95.82   11.15
  -4  -1 -18  108.94   10.82
  -4  -1 -17   29.58    5.76
  -4   1 -17   32.79    7.00
  -4  -1 -16  443.71   20.80
  -4   1 -16  468.78   22.58
  -4   1 -16  440.33   18.64
  -4   1 -15   18.23    3.77
  -4   1 -15   25.37    5.22
  -4  -1 -15   19.22    4.47
  -4   1 -14   36.82    5.98
  -4  -1 -14   42.93    6.37
  -4   1 -14   45.07    5.93
  -4  -1 -13   87.32    8.25
  -4   1 -13   92.92    9.41
  -4  -1 -13   81.09    7.82
  -4   1 -13   91.79    8.18
  -4   1 -12  115.41   10.28
  -4  -1 -12  117.41    9.31
  -4   1 -12  122.93    9.29
  -4  -1 -12  122.63    9.61
  -4  -1 -12   84.99    4.07
  -4   1 -11  143.86   11.07
  -4  -1 -11  132.78    9.32
  -4  -1 -11  136.53    9.64
  -4   1 -11  138.54    9.70
  -4   1 -10 1000.91   25.70
  -4  -1 -10  916.14   23.85
  -4  -1 -10  944.49   15.04
  -4   1 -10  961.26   27.91
  -4  -1 -10  906.87   24.32
  -4  -1  -9    4.20    2.11
  -4  -1  -9    4.15    0.84
  -4  -1  -9    7.44    2.43
  -4   1  -9    4.95    2.44
  -4   1  -9    7.92    2.20
  -4   1  -8  266.37   14.15
  -4  -1  -8  258.05   11.95
  -4  -1  -8  242.85   12.13
  -4  -1  -8  243.46    8.18
  -4   1  -8  284.22   13.33
  -4  -1  -7   98.75    7.59
  -4  -1  -7  100.38    5.41
  -4   1  -7  105.50    8.49
  -4  -1  -7   93.72    6.94
  -4   1  -7   91.36    7.38
  -4   1  -6  115.07    8.58
  -4  -1  -6  129.22    7.65
  -4  -1  -6  120.16    6.04
  -4   1  -6  140.20    9.04
  -4  -1  -6  134.46    8.72
  -4   1  -5  150.42    9.06
  -4  -1  -5  151.98    7.96
  -4  -1  -5  160.04    7.17
  -4   1  -5  140.09    9.23
  -4  -1  -5  149.71    8.95
  -4  -1  -4  556.17   15.04
  -4  -1  -4  499.43   13.26
  -4   1  -4  530.71   17.76
  -4   1  -4  551.77   17.40
  -4  -1  -4  544.01   16.62
  -4  -1  -3   64.14    5.69
  -4   1  -3   61.25    5.82
  -4  -1  -3   63.92    5.00
  -4   1  -3   58.02    5.78
  -4  -1  -3   66.21    4.83
  -4  -1  -2   96.43    6.15
  -4   1  -2  106.52    7.60
  -4  -1  -2  104.41    7.12
  -4  -1  -2  103.85    6.20
  -4   1  -2  101.78    7.57
  -4   1  -1   22.90    3.26
  -4   1  -1   19.82    3.27
  -4  -1  -1   22.12    3.08
  -4  -1  -1   19.35    2.81
  -4  -1   0  295.75   11.32
  -4   1   0  321.45   13.05
  -4  -1   0  325.85   11.83
  -4   1   0  303.80   12.45
  -4  -1   1   20.34    3.24
  -4   1   1   26.35    3.92
  -4  -1   1   30.12    3.60
  -4   1   2  111.32    7.81
  -4  -1   2  103.08    7.21
  -4  -1   2   97.45    6.24
  -4  -1   3   55.52    4.79
  -4  -1   3   54.08    5.26
  -4   1   3   56.52    5.55
  -4  -1   4  542.60   14.87
  -4   1   4  535.68   17.49
  -4  -1   4  494.38   16.79
  -4  -1   5  145.89    7.58
  -4  -1   5  150.88    9.40
  -4   1   5  146.31    9.28
  -4   1   6  131.03    8.79
  -4  -1   6  132.29    9.03
  -4  -1   6  130.53    6.97
  -4  -1   7   93.59    5.95
  -4  -1   7   90.15    7.47
  -4   1   7   99.76    7.79
  -4  -1   8  262.94    9.95
  -4  -1   8  279.96   13.60
  -4   1   8  256.55   12.66
  -4   1   9    4.62    2.11
  -4  -1   9    8.53    2.33
  -4  -1   9    3.64    1.59
  -4  -1  10 1040.78   19.41
  -4  -1  10  970.09   26.54
  -4   1  10  985.68   25.95
  -4  -1  11  153.57   10.84
  -4  -1  11  148.37    7.36
  -4   1  11  154.22   10.48
  -4  -1  12  120.72    6.53
  -4  -1  12  116.74    9.64
  -4   1  12  103.66    8.94
  -4  -1  13   78.01    5.39
  -4   1  13   94.03    8.77
  -4  -1  13   90.26    9.10
  -4  -1  14   38.52    6.10
  -4  -1  14   34.02    3.35
  -4   1  14   46.11    6.59
  -4  -1  15   17.82    4.48
  -4   1  15   29.44    5.24
  -4  -1  15   21.82    2.87
  -4  -1  16  452.03   20.98
  -4   1  16  472.81   21.13
  -4   1  17   27.91    5.56
  -4  -1  17   23.30    5.21
  -4  -1  18  116.35   11.49
   4  -1  18  107.30    9.31
  -4   1  18  125.89   11.26
  -4  -1  19   89.86   10.16
  -4   1  19   83.22    9.87
  -4   1  20   11.82    4.50
  -4  -1  20   10.21    4.20
  -4  -1  21   15.22    4.04
  -4  -1  22   13.85    4.50
  -4   2 -30   25.48    7.49
  -4   2 -29    9.74    5.06
  -4   2 -28   24.01    6.14
  -4   2 -27  137.36   15.48
  -4   2 -26  119.76   13.93
  -4   2 -25  138.24   14.63
  -4   2 -24   29.83    6.61
  -4   2 -23   11.00    5.29
  -4   2 -22   71.59    9.98
  -4   2 -21  122.35   13.18
  -4  -2 -21  126.54   12.54
   4   2 -21  122.16   13.40
  -4  -2 -20    7.46    2.93
  -4   2 -20    5.72    3.75
   4   2 -20    9.16    4.47
  -4  -2 -19  198.18   14.81
  -4   2 -19  175.92   16.52
   4   2 -19  210.85   16.74
  -4   2 -18   10.92    3.96
  -4  -2 -18   20.06    5.22
   4   2 -18   29.08    5.69
  -4   2 -17   34.48    6.60
  -4   2 -17   22.71    5.22
   4   2 -17   45.81    7.36
  -4  -2 -17   36.71    6.07
  -4  -2 -17   27.81    5.05
   4   2 -16  397.67   21.21
  -4  -2 -16  391.46   18.74
  -4   2 -16  335.74   19.97
  -4   2 -16  395.77   20.16
  -4  -2 -16  343.42   17.41
  -4  -2 -15  198.85   12.76
   4   2 -15  197.51   15.03
  -4   2 -15  219.89   15.79
  -4  -2 -15  199.05   12.84
  -4   2 -15  201.15   13.97
  -4  -2 -14   65.79    7.16
  -4   2 -14   49.74    7.16
   4   2 -14   48.82    7.14
  -4   2 -14   58.88    7.68
  -4  -2 -14   55.65    6.92
  -4   2 -13  193.38   14.26
   4   2 -13  194.98   13.86
  -4  -2 -13  196.77   11.80
  -4  -2 -13  176.60   11.66
  -4   2 -13  184.25   13.27
  -4   2 -12  320.72   17.85
  -4  -2 -12  346.19   14.89
  -4  -2 -12  342.85   16.11
  -4   2 -12  369.55   18.29
   4  -2 -11   57.47    3.24
  -4  -2 -11   68.68    6.24
   4   2 -11   78.03    8.10
  -4   2 -11   69.32    8.39
  -4   2 -11   56.56    7.40
  -4  -2 -11   76.21    7.42
  -4  -2 -10  308.04   12.66
  -4   2 -10  308.62   16.54
  -4   2 -10  338.28   17.49
  -4  -2 -10  315.01   14.75
   4  -2 -10  301.98    8.43
   4   2 -10  306.21   15.52
  -4   2  -9  118.13   10.43
  -4  -2  -9  124.62    7.59
   4  -2  -9  122.34    5.71
  -4   2  -9  115.84    9.68
   4   2  -9  129.39    9.79
  -4  -2  -9  125.49    4.65
  -4  -2  -9  107.67    8.50
  -4   2  -8   34.10    5.36
  -4  -2  -8   35.09    4.72
  -4  -2  -8   32.36    3.72
  -4   2  -8   32.22    4.85
  -4  -2  -8   30.49    2.72
  -4  -2  -7    5.32    1.29
  -4   2  -7    5.61    2.21
  -4  -2  -7    5.70    1.65
  -4   2  -7    3.91    2.00
  -4  -2  -7    6.12    1.98
  -4  -2  -6   10.60    1.76
  -4   2  -6   10.19    2.88
  -4  -2  -6    8.09    2.18
  -4  -2  -6    9.43    2.01
  -4   2  -6    9.54    3.11
  -4  -2  -5   56.53    4.37
  -4  -2  -5   51.58    5.55
  -4  -2  -5   65.24    4.56
  -4   2  -5   61.93    6.49
  -4   2  -5   62.90    6.65
  -4  -2  -4 1071.64   24.78
  -4   2  -4 1054.75   26.88
  -4  -2  -4 1048.20   19.81
  -4   2  -4 1050.95   27.73
  -4  -2  -3  307.81   13.23
  -4   2  -3  314.61   15.05
  -4  -2  -3  344.40   11.69
  -4   2  -3  345.22   15.09
  -4  -2  -3  351.31   10.39
  -4  -2  -2  143.27    8.85
  -4   2  -2  149.05   10.08
  -4   2  -2  136.92    9.60
  -4  -2  -2  137.21    7.75
  -4  -2  -1   80.93    6.65
  -4   2  -1   60.96    6.32
  -4   2  -1   78.51    7.00
  -4  -2  -1   78.73    6.11
  -4  -2   0  117.02    8.00
  -4   2   0  131.84    9.45
  -4   2   0  115.42    8.21
  -4  -2   0  126.65    7.89
  -4  -2   1   77.27    6.31
  -4   2   1   72.44    6.61
  -4   2   1   66.02    6.78
  -4  -2   1   74.23    6.24
  -4  -2   2  132.45    8.38
  -4   2   2  136.72    9.56
  -4  -2   2  136.79    8.65
  -4   2   2  125.12    8.56
  -4  -2   3  358.76   13.71
  -4   2   3  344.57   15.00
  -4  -2   3  324.07   13.72
  -4  -2   4 1076.39   25.63
  -4   2   4 1066.95   27.02
  -4  -2   4 1065.78   23.65
  -4  -2   5   52.71    5.75
  -4  -2   5   51.61    5.15
  -4   2   5   52.66    6.00
  -4  -2   6    3.53    1.10
  -4   2   6    6.94    2.06
  -4  -2   6    5.57    2.02
  -4  -2   7    4.66    1.67
  -4   2   7    3.73    2.01
  -4  -2   7    4.01    1.54
  -4  -2   8   33.03    4.95
  -4  -2   8   31.38    3.91
  -4   2   8   34.61    5.15
  -4  -2   9  135.99    8.52
  -4   2   9  125.26    9.79
  -4  -2   9  133.08   10.22
  -4  -2  10  341.67   13.50
  -4  -2  10  323.42   16.21
  -4   2  10  330.66   15.67
  -4  -2  11   79.08    6.53
  -4  -2  11   81.31    8.26
  -4   2  11   78.12    7.76
  -4   2  12  321.77   16.37
  -4  -2  12  332.46   17.01
  -4  -2  12  340.16   13.63
  -4  -2  13  167.94   12.43
  -4  -2  13  174.85    9.81
  -4   2  13  187.87   12.52
  -4  -2  14   57.25    5.99
  -4   2  14   62.36    7.57
  -4  -2  14   53.98    7.22
  -4  -2  15  192.36   10.65
  -4   2  15  211.78   14.07
  -4  -2  16  358.35   14.59
  -4  -2  16  369.14   19.66
  -4   2  16  363.79   18.99
  -4   2  17   27.00    4.84
  -4  -2  17   23.47    5.33
  -4  -2  18   23.85    4.92
  -4   2  18   30.65    5.82
  -4  -2  19  201.92   15.61
  -4  -2  20    5.05    3.11
  -4  -2  21  133.46   13.48
  -4  -2  22   82.78   11.01
  -4  -2  23   14.80    4.49
  -4   3 -29    6.57    4.81
  -4   3 -28    1.77    2.22
  -4   3 -27   16.68    5.61
  -4   3 -26    5.95    4.18
  -4   3 -25    7.02    4.24
   4   3 -24   12.10    4.67
  -4   3 -24   12.03    5.09
   4   3 -23    5.63    3.04
  -4   3 -23   12.53    4.39
   4   3 -22   14.01    4.70
  -4   3 -22    9.58    3.99
   4   3 -21    5.22    2.06
  -4   3 -21    3.84    2.05
  -4   3 -20   -1.07    1.70
   4   3 -20   -1.42    2.91
   4   3 -19    4.86    2.79
  -4   3 -19   10.38    2.66
   4   3 -18   18.02    5.44
  -4   3 -18   24.71    5.82
  -4   3 -18   30.06    6.16
  -4   3 -17   46.90    7.45
  -4   3 -17   53.79    8.13
   4   3 -17   53.09    8.56
  -4  -3 -16   34.82    5.90
  -4  -3 -16   35.27    5.73
   4   3 -16   26.07    5.43
  -4   3 -16   28.12    6.06
  -4   3 -16   27.13    5.66
   4   3 -15   97.83   10.74
  -4  -3 -15   84.89    8.12
  -4   3 -15   83.06    9.73
  -4   3 -15   85.98   10.37
  -4  -3 -15   89.82    9.21
  -4  -3 -14    5.68    1.66
  -4  -3 -14    5.60    2.14
  -4   3 -14    5.29    2.93
  -4   3 -14    1.35    1.75
  -4   3 -13   27.73    5.31
  -4   3 -13   39.27    6.46
   4   3 -13   45.34    6.75
  -4  -3 -13   48.55    5.41
  -4  -3 -13   44.55    6.18
  -4  -3 -12   69.44    7.57
  -4  -3 -12   54.43    5.34
   4   3 -12   75.68    8.32
  -4   3 -12   53.83    7.59
  -4   3 -12   65.88    8.57
   4  -3 -11   15.10    2.51
  -4   3 -11   23.04    5.34
   4   3 -11   19.68    4.38
  -4  -3 -11   13.80    3.87
  -4   3 -11   17.62    4.51
  -4  -3 -11   15.53    2.93
   4  -3 -10   36.21    3.98
   4   3 -10   34.46    5.32
  -4  -3 -10   32.01    3.62
  -4   3 -10   32.58    5.80
  -4  -3 -10   23.52    2.25
  -4  -3 -10   36.91    5.76
  -4   3 -10   33.58    5.60
  -4  -3  -9   55.98    6.50
   4   3  -9   55.91    6.59
   4  -3  -9   64.67    5.46
  -4  -3  -9   57.64    4.50
  -4   3  -9   65.30    8.35
  -4   3  -9   56.79    7.24
  -4  -3  -8    5.14    2.25
   4   3  -8    7.17    2.31
  -4  -3  -8    5.32    1.21
   4  -3  -8    5.65    1.86
  -4   3  -8    6.17    2.72
  -4   3  -8    3.99    1.28
  -4  -3  -8    6.56    1.33
   4  -3  -7   68.74    5.70
  -4   3  -7   61.91    7.50
  -4   3  -7   64.43    7.88
  -4  -3  -7   66.51    4.01
   4   3  -7   74.60    7.47
  -4  -3  -7   68.41    4.94
  -4  -3  -7   65.49    6.91
   4   3  -6  544.56   18.71
  -4  -3  -6  543.82   19.81
  -4   3  -6  501.51   20.44
  -4   3  -6  527.76   22.29
  -4  -3  -6  526.67   14.61
  -4  -3  -6  508.60   10.22
  -4  -3  -5   95.70    8.28
  -4   3  -5   92.35    8.48
  -4  -3  -5   86.97    6.24
  -4  -3  -5   97.57    4.22
  -4   3  -5   88.67    9.17
  -4  -3  -4   28.59    3.70
  -4   3  -4   21.46    4.37
  -4  -3  -4   29.68    4.60
  -4  -3  -4   25.34    2.26
  -4   3  -4   25.44    4.88
  -4  -3  -3   66.13    6.64
  -4  -3  -3   82.14    4.22
  -4   3  -3   90.43    8.20
  -4  -3  -3   85.22    6.65
  -4   3  -3   77.83    8.13
  -4   3  -2  105.39    9.41
  -4   3  -2   93.29    8.24
  -4  -3  -2   88.28    7.90
  -4  -3  -2   89.57    7.09
  -4   3  -1  197.35   12.76
  -4  -3  -1  198.75   11.68
  -4  -3  -1  187.34   10.69
  -4   3  -1  219.23   12.48
  -4   3   0  544.27   21.07
  -4  -3   0  568.37   19.63
  -4   3   0  527.37   19.09
  -4   3   1  215.87   12.98
  -4  -3   1  207.27   11.61
  -4   3   1  211.05   11.95
  -4  -3   2   98.17    8.13
  -4   3   2   71.86    7.58
  -4  -3   2   82.18    7.45
  -4   3   2   86.57    7.65
  -4  -3   3   82.77    7.42
  -4   3   3   87.03    8.06
  -4   3   3   75.99    7.04
  -4  -3   4   29.08    4.52
  -4  -3   4   16.42    3.50
  -4   3   4   27.48    4.33
  -4   3   4   25.94    4.85
  -4  -3   5   90.77    7.80
  -4  -3   5   96.33    8.76
  -4   3   5   86.35    8.24
  -4   3   6  559.86   21.02
  -4  -3   6  580.42   19.73
  -4  -3   7   65.44    7.60
  -4  -3   7   72.08    6.81
  -4  -3   8    5.42    2.50
  -4   3   8    9.40    3.58
  -4  -3   8    3.76    1.65
  -4   3   9   41.71    6.37
  -4  -3   9   50.89    5.84
  -4  -3  10   21.38    4.73
  -4  -3  10   19.48    3.60
  -4   3  10   26.16    4.53
  -4  -3  11   24.71    4.12
  -4  -3  11   16.87    4.20
  -4   3  11   14.09    3.73
  -4  -3  12   49.57    7.19
  -4  -3  12   65.66    6.93
  -4   3  12   56.36    7.55
  -4  -3  13   41.34    5.54
  -4   3  13   39.94    6.17
  -4  -3  13   43.15    6.76
  -4  -3  14    5.42    2.37
  -4  -3  14    7.18    3.12
  -4   3  14    2.30    1.28
  -4  -3  15   66.95    7.48
  -4   3  15   86.55    9.69
  -4  -3  15   80.02    9.23
  -4   3  16   37.34    6.39
  -4  -3  16   29.09    4.77
  -4  -3  16   31.98    6.11
  -4  -3  17   55.13    6.61
  -4   3  17   38.79    5.94
  -4  -3  17   59.85    8.27
  -4  -3  18   17.20    4.34
  -4  -3  19    5.79    2.19
  -4  -3  20   -0.43    2.17
  -4  -3  21    2.00    3.76
   4  -3  21    2.50    1.83
  -4  -3  22    8.18    3.73
  -4  -3  23    9.49    4.52
  -4  -3  24   14.06    6.06
  -4   4 -28   12.05    5.69
  -4   4 -27   40.93    9.21
  -4   4 -26   95.86   12.78
  -4   4 -25   46.50    8.99
   4   4 -25   55.78   10.09
   4   4 -24   15.47    5.10
  -4   4 -24   30.31    7.37
   4   4 -23   55.90    9.41
  -4   4 -23   62.38   10.50
  -4   4 -22   42.34    7.69
   4   4 -22   48.08    8.84
   4   4 -21  168.22   15.89
  -4   4 -21  141.57   14.96
   4   4 -20  101.17   11.91
  -4   4 -20  108.12   12.65
  -4   4 -19   15.51    5.62
   4   4 -19   15.16    5.63
   4   4 -18   12.88    3.51
  -4   4 -18   26.95    6.91
  -4   4 -18   22.02    5.87
  -4   4 -17   15.61    5.16
   4   4 -17   17.45    4.65
  -4   4 -17   17.53    4.73
   4   4 -16  294.82   18.85
  -4   4 -16  277.55   19.23
  -4  -4 -16  268.60   17.28
  -4   4 -16  313.29   20.64
  -4   4 -15 1035.50   36.29
  -4   4 -15  910.81   35.35
   4   4 -15  988.49   34.43
  -4  -4 -15  961.16   31.11
  -4  -4 -14  159.05   12.56
  -4   4 -14  164.19   14.43
  -4   4 -14  176.43   15.51
   4   4 -14  155.63   13.44
  -4   4 -13   91.10   11.48
  -4  -4 -13  100.53   10.14
   4   4 -13   86.33    9.53
  -4   4 -13   83.95   10.01
  -4  -4 -12  282.09   16.16
  -4   4 -12  266.70   17.82
   4   4 -12  277.49   16.90
  -4   4 -12  273.93   18.99
  -4  -4 -11  260.16   15.43
   4  -4 -11  236.00   12.19
   4   4 -11  238.30   15.32
  -4   4 -11  268.12   18.27
  -4   4 -11  263.11   17.09
  -4  -4 -10  236.91   14.57
   4  -4 -10  239.52   12.33
  -4   4 -10  223.63   15.66
   4   4 -10  236.29   14.85
  -4   4 -10  249.26   17.30
  -4  -4  -9  150.86   11.66
  -4   4  -9  163.05   13.86
   4   4  -9  154.62   11.62
   4  -4  -9  169.15   10.59
  -4   4  -9  172.26   13.47
  -4  -4  -9  151.52    8.12
  -4  -4  -8   27.96    3.61
  -4  -4  -8   27.69    5.06
   4   4  -8   18.58    4.03
  -4   4  -8   25.38    4.96
   4  -4  -8   28.80    4.46
  -4   4  -8   29.22    5.59
  -4  -4  -7  256.86   14.93
  -4   4  -7  268.02   16.20
  -4  -4  -7  247.77   11.63
   4  -4  -7  250.54   12.90
  -4   4  -7  269.68   17.34
   4   4  -7  241.45   13.51
  -4   4  -6   31.90    5.47
   4   4  -6   35.93    5.09
  -4  -4  -6   31.57    4.19
  -4  -4  -6   27.38    5.22
   4  -4  -6   29.39    4.63
  -4   4  -6   27.15    5.88
  -4  -4  -5  148.06    9.31
   4   4  -5  144.47    9.81
  -4  -4  -5  130.37   10.52
   4  -4  -5  143.74    9.77
  -4   4  -5  139.99   11.17
  -4   4  -5  123.93   11.45
   4   4  -4  531.01   18.15
  -4   4  -4  456.16   19.93
  -4  -4  -4  481.84   17.70
  -4   4  -4  477.95   22.60
  -4  -4  -4  471.43   19.72
  -4  -4  -3  186.93   12.46
  -4  -4  -3  162.70   10.23
  -4   4  -3  175.87   12.09
  -4   4  -3  177.84   13.75
  -4   4  -2   16.96    4.67
  -4  -4  -2   17.19    3.55
  -4   4  -2   14.37    3.74
  -4  -4  -2    9.28    2.72
  -4   4  -1   10.58    3.29
  -4  -4  -1   13.64    3.34
  -4  -4  -1   12.16    2.91
  -4   4  -1    9.14    3.11
  -4   4   0   12.87    3.65
  -4  -4   0   11.13    3.02
  -4   4   0   15.81    3.80
  -4  -4   0   16.38    3.92
  -4  -4   1   11.91    3.38
  -4   4   1    7.69    2.22
  -4  -4   1   12.74    3.01
  -4   4   1   12.75    3.69
  -4  -4   2   13.21    3.64
  -4   4   2    9.83    2.90
  -4  -4   2   15.61    4.09
  -4   4   2   15.17    3.74
  -4   4   3  188.24   13.56
  -4  -4   3  164.15   11.56
  -4   4   3  176.72   11.56
  -4  -4   3  178.34   12.26
  -4   4   4  528.48   22.27
  -4  -4   4  467.47   19.36
  -4   4   4  485.88   19.31
  -4  -4   4  490.35   20.60
  -4  -4   5  129.33   10.71
  -4   4   5  135.25   11.61
  -4   4   5  135.25   10.09
  -4  -4   5  145.64   10.82
  -4  -4   6   40.95    5.60
  -4   4   6   40.49    6.04
  -4  -4   6   35.97    5.93
  -4   4   6   41.85    5.54
  -4   4   7  224.33   14.59
  -4  -4   7  234.05   13.95
  -4  -4   7  261.08   15.68
  -4   4   8   39.43    6.02
  -4  -4   8   28.36    4.97
  -4  -4   8   31.50    5.40
  -4   4   9  171.27   12.78
  -4  -4   9  150.89   12.41
  -4  -4   9  157.61   11.88
  -4   4  10  244.17   15.41
  -4  -4  10  245.41   14.56
  -4  -4  10  255.00   16.56
  -4  -4  11  255.96   16.64
  -4   4  11  244.02   15.38
  -4  -4  11  219.04   13.87
  -4   4  12  249.51   15.79
  -4  -4  12  253.29   15.12
  -4  -4  12  253.91   16.93
  -4   4  13   96.36   10.07
  -4  -4  13   98.72    9.45
  -4  -4  13   90.95   10.36
  -4  -4  14  142.10   13.01
  -4  -4  14  146.02   11.94
  -4   4  14  148.78   12.94
  -4  -4  15  978.44   34.23
  -4  -4  15  977.30   31.13
  -4   4  15 1018.51   33.41
  -4   4  16  276.08   17.83
  -4  -4  16  276.66   16.86
  -4  -4  16  273.03   18.46
  -4  -4  17   18.78    5.31
  -4  -4  17   14.18    4.50
  -4  -4  18   20.37    5.04
  -4  -4  18   20.29    4.43
  -4  -4  19   13.74    4.98
  -4  -4  20   64.17    9.47
  -4  -4  21  138.58   14.28
   4  -4  22   50.01    8.58
  -4  -4  22   50.43    8.47
   4  -4  22   55.08    9.95
  -4  -4  23   55.40    9.23
  -4  -4  24   24.07    6.77
  -4  -4  25   41.02    8.33
  -4   5 -27   13.78    5.03
  -4   5 -26    2.87    2.00
   4   5 -26    2.48    3.30
  -4   5 -25   12.41    5.16
   4   5 -25    7.95    3.42
   4   5 -24   49.89    9.46
  -4   5 -24   63.13   10.17
   4   5 -23    6.27    5.98
  -4   5 -23   -1.56    1.83
   4   5 -22   28.03    7.02
  -4   5 -22   21.73    7.10
  -4   5 -21   10.98    3.49
   4   5 -21   10.62    3.32
  -4   5 -20   22.26    6.67
   4   5 -20   28.37    7.46
  -4   5 -19    8.32    4.36
   4   5 -19   10.04    3.23
  -4   5 -18   49.10    9.28
   4   5 -18   60.45    9.51
  -4   5 -18   47.09    8.73
   4   5 -17   96.57   11.82
  -4   5 -17  116.77   13.33
  -4   5 -17  140.57   14.61
   4   5 -16  150.69   14.14
  -4   5 -16  139.44   14.76
  -4  -5 -15  304.99   19.19
   4   5 -15  364.56   21.67
  -4   5 -15  337.05   21.37
  -4   5 -15  344.89   22.81
  -4  -5 -14   30.39    6.35
   4   5 -14   37.72    7.03
  -4   5 -14   41.73    8.01
  -4   5 -14   36.46    6.97
  -4  -5 -13  201.91   14.96
   4   5 -13  185.29   15.11
  -4   5 -13  212.36   16.92
  -4   5 -13  199.46   17.17
  -4   5 -12  247.46   17.39
   4   5 -12  266.51   16.99
  -4  -5 -12  285.85   17.68
  -4   5 -12  228.70   18.36
  -4   5 -11   -2.12    2.52
  -4   5 -11    4.90    3.67
  -4  -5 -11    5.74    2.22
   4   5 -11    5.90    2.24
   4  -5 -11    9.64    3.15
  -4   5 -10  118.75   12.37
  -4   5 -10  114.34   12.67
   4  -5 -10  108.46    9.82
  -4  -5 -10  120.59   11.38
   4   5 -10  134.46   11.53
   4   5  -9   51.97    6.93
  -4  -5  -9   31.60    5.80
  -4   5  -9   31.43    7.49
  -4  -5  -9   42.94    5.55
  -4   5  -9   52.21    7.79
   4  -5  -9   50.67    6.88
  -4  -5  -8   29.36    5.49
   4  -5  -8   27.64    4.82
  -4  -5  -8   31.13    4.47
  -4   5  -8   17.44    4.73
   4   5  -8   35.20    5.73
  -4   5  -8   26.05    5.40
  -4  -5  -7   51.81    7.23
  -4   5  -7   54.24    8.61
   4   5  -7   50.59    6.41
   4  -5  -7   42.32    6.00
  -4  -5  -7   43.79    5.46
  -4   5  -7   40.28    6.50
  -4  -5  -6   15.97    3.80
  -4  -5  -6   25.13    4.39
   4   5  -6   22.16    4.30
  -4   5  -6   15.84    4.58
   4  -5  -6   21.27    4.43
  -4   5  -6   23.88    5.07
  -4  -5  -5   37.16    6.23
  -4   5  -5   38.95    6.46
   4   5  -5   36.66    5.48
   4  -5  -5   38.66    5.73
  -4   5  -5   42.25    7.22
  -4  -5  -5   33.42    5.22
  -4   5  -4  192.04   15.27
  -4  -5  -4  158.33   12.22
  -4   5  -4  179.10   13.13
  -4  -5  -4  158.22   11.24
   4   5  -4  193.72   11.50
   4  -5  -4  178.07   12.36
  -4  -5  -3   52.55    7.33
   4  -5  -3   55.92    6.96
  -4  -5  -3   46.41    6.14
  -4   5  -3   49.46    7.72
  -4   5  -3   42.35    6.47
  -4  -5  -2    5.73    1.89
   4  -5  -2    7.52    3.05
  -4  -5  -2    4.85    0.93
  -4   5  -2    2.06    2.84
  -4   5  -2    7.65    2.60
  -4  -5  -1  112.21    9.94
  -4   5  -1  121.67   10.32
  -4  -5  -1  101.37    9.77
  -4   5  -1  101.37   10.75
   4  -5  -1  115.67   10.42
  -4   5   0   43.32    6.18
  -4  -5   0   30.66    5.64
  -4  -5   0   47.56    6.83
  -4   5   0   53.00    7.92
   4  -5   0   43.90    6.06
  -4  -5   1  112.62   10.34
  -4  -5   1   94.26    9.62
  -4   5   1   98.94    9.37
  -4   5   1  118.73   11.89
  -4   5   2    6.47    3.35
  -4  -5   2    6.79    3.16
  -4   5   2    7.45    2.95
  -4  -5   3   38.20    6.01
  -4   5   3   41.05    6.14
  -4  -5   4  164.79   12.67
  -4  -5   4  149.02   11.79
  -4   5   4  178.48   14.19
  -4   5   4  164.90   12.09
  -4  -5   5   42.42    6.68
  -4   5   5   39.50    6.37
  -4  -5   5   40.08    6.13
  -4   5   5   35.82    5.59
  -4   5   6   19.68    4.55
  -4  -5   6   12.14    3.63
  -4  -5   6   22.15    5.13
  -4   5   6   20.08    4.60
  -4  -5   7   35.42    5.95
  -4   5   7   36.68    5.74
  -4  -5   7   46.87    7.31
  -4   5   7   49.63    7.56
  -4   5   8   29.88    6.23
  -4  -5   8   32.34    5.18
  -4  -5   8   25.31    5.60
  -4   5   8   27.36    5.37
  -4   5   9   43.41    7.08
  -4   5   9   37.95    6.00
  -4  -5   9   38.01    6.52
  -4  -5   9   43.11    6.61
  -4  -5  10  133.18   11.90
  -4  -5  10  143.05   13.14
  -4   5  10  103.64   11.07
  -4  -5  11    9.20    3.77
  -4   5  11   10.03    3.58
  -4  -5  11    6.85    3.52
  -4  -5  12  233.43   15.85
  -4  -5  12  265.55   18.21
  -4   5  13  204.08   15.69
  -4  -5  13  210.13   15.12
  -4  -5  14   30.21    7.06
  -4   5  14   41.10    6.81
  -4  -5  14   40.43    7.06
  -4   5  15  325.70   20.74
  -4  -5  15  381.18   20.93
  -4  -5  15  355.14   21.68
  -4  -5  16  163.85   14.35
  -4  -5  16  165.00   14.84
  -4  -5  17  103.53   11.22
  -4  -5  17  101.36   12.26
  -4  -5  18   63.69    9.21
  -4  -5  18   54.16    8.72
   4  -5  18   43.76    8.04
  -4  -5  19   23.15    6.02
   4  -5  19    6.62    2.98
  -4  -5  20   38.74    7.42
   4  -5  20   26.04    6.92
   4  -5  21   16.11    6.64
  -4  -5  21    4.29    2.47
   4  -5  22   13.79    4.44
   4  -5  22   29.21    7.28
  -4  -5  22   26.45    6.91
   4  -5  23   -0.02    2.98
  -4  -5  23    7.78    4.44
  -4  -5  24   55.52    9.77
  -4  -5  25    8.08    5.29
  -4  -5  26    7.54    3.79
   4   6 -25   25.15    6.93
  -4   6 -25   13.62    4.83
  -4   6 -24   41.23    8.77
   4   6 -24   38.29    8.65
   4   6 -23   79.67   12.57
  -4   6 -23   67.86   10.85
  -4   6 -22   56.00   10.23
   4   6 -22   53.14   10.30
   4   6 -21  132.75   14.64
  -4   6 -21  131.59   15.06
  -4   6 -20  254.85   20.64
   4   6 -20  330.93   23.21
   4   6 -19   17.43    4.85
  -4   6 -19   35.87    7.83
  -4   6 -18   19.23    6.47
   4   6 -18   12.44    4.11
  -4   6 -18   10.51    3.41
  -4   6 -17  149.69   16.14
   4   6 -17  152.01   14.91
  -4   6 -17  156.17   15.29
  -4   6 -16   48.33    9.91
   4   6 -16   50.71    9.08
  -4   6 -16   35.02    7.32
  -4  -6 -15  708.40   30.70
  -4   6 -15  698.26   34.16
   4   6 -15  756.42   32.41
  -4   6 -15  719.48   32.14
  -4  -6 -14  216.62   16.93
   4   6 -14  198.68   16.41
  -4   6 -14  164.20   16.91
  -4   6 -14  186.74   16.21
   4   6 -13   47.80    8.27
  -4   6 -13   39.33    7.63
  -4  -6 -13   56.17    8.58
  -4   6 -13   44.29    8.74
  -4  -6 -12   50.23    8.00
  -4   6 -12   59.61    9.52
   4   6 -12   41.98    7.59
  -4   6 -12   61.42    9.53
  -4   6 -11  552.84   29.55
  -4  -6 -11  577.56   26.46
   4  -6 -11  554.09   24.95
   4   6 -11  555.69   25.57
  -4   6 -11  605.99   28.22
  -4  -6 -10  168.90   14.18
   4   6 -10  170.96   13.99
   4  -6 -10  162.71   13.21
  -4   6 -10  190.76   15.38
  -4   6 -10  170.78   16.27
   4  -6  -9  217.86   15.14
  -4  -6  -9  231.46   16.58
  -4   6  -9  194.39   15.55
   4   6  -9  207.96   14.97
  -4   6  -9  226.46   18.55
  -4   6  -8   83.53   10.96
  -4  -6  -8   72.54    8.36
  -4  -6  -8   69.44    8.77
  -4   6  -8   64.66    9.12
   4   6  -8   66.92    8.10
   4  -6  -8   59.99    7.96
  -4  -6  -7   44.03    6.31
  -4  -6  -7   38.57    6.98
  -4   6  -7   36.22    6.67
   4   6  -7   41.00    6.19
   4  -6  -7   37.92    6.61
  -4   6  -7   36.98    7.22
  -4   6  -6  329.49   21.67
  -4  -6  -6  326.21   19.00
   4   6  -6  348.93   17.59
   4  -6  -6  290.47   17.41
  -4   6  -6  327.97   19.78
  -4  -6  -6  290.78   16.58
  -4  -6  -5  441.63   22.24
  -4  -6  -5  393.04   19.53
   4   6  -5  416.76   18.56
   4  -6  -5  378.31   19.80
  -4   6  -5  439.25   24.80
  -4   6  -5  400.94   21.28
  -4  -6  -4   11.36    3.26
   4   6  -4   15.88    3.50
   4  -6  -4    5.16    2.86
  -4   6  -4    4.70    2.98
  -4  -6  -4   14.60    4.16
  -4   6  -4    3.06    1.58
  -4   6  -3  144.21   12.58
  -4  -6  -3  137.43   11.79
  -4  -6  -3  149.32   12.74
   4  -6  -3  124.07   11.48
   4   6  -3  122.13    9.16
  -4   6  -3  135.82   13.42
   4  -6  -2   29.83    5.53
  -4  -6  -2   35.08    6.20
  -4  -6  -2   29.08    5.75
  -4   6  -2   46.75    8.14
  -4   6  -2   35.26    5.98
  -4  -6  -1  219.78   15.46
  -4  -6  -1  206.55   14.66
   4  -6  -1  207.78   14.91
  -4   6  -1  200.48   16.13
  -4   6  -1  191.27   13.96
  -4  -6   0  302.47   18.34
  -4  -6   0  285.12   17.55
  -4   6   0  239.89   15.35
   4  -6   0  285.04   17.58
  -4   6   0  274.85   18.99
  -4   6   1  188.43   13.64
  -4  -6   1  206.97   15.02
  -4  -6   1  181.57   14.05
  -4   6   1  194.64   15.84
   4  -6   1  191.54   14.58
  -4   6   2   35.58    6.80
  -4  -6   2   42.42    6.83
  -4  -6   2   28.56    5.99
   4  -6   2   26.22    5.41
  -4   6   2   25.41    4.76
  -4   6   3  133.50   13.38
  -4  -6   3  130.45   12.28
  -4   6   3  128.01   11.00
  -4  -6   3  138.06   12.93
   4  -6   3  117.14   11.40
  -4  -6   4   13.77    4.15
  -4   6   4    7.51    3.65
  -4  -6   4   13.75    4.23
   4  -6   4   12.86    3.88
  -4   6   4   14.82    3.75
   4  -6   5  421.09   22.11
  -4  -6   5  399.75   21.91
  -4  -6   5  417.39   21.68
  -4   6   5  422.89   20.47
  -4   6   5  337.23   20.87
  -4  -6   6  333.42   20.28
  -4  -6   6  300.50   18.33
  -4   6   6  294.93   17.27
   4  -6   6  339.73   19.58
  -4   6   6  330.04   20.63
  -4  -6   7   38.58    7.06
   4  -6   7   32.88    7.11
  -4   6   7   33.50    6.45
  -4   6   7   24.26    5.29
  -4  -6   7   27.04    5.39
   4  -6   8   72.88    9.36
  -4   6   8   76.66   10.19
  -4  -6   8   58.52    7.85
  -4   6   8   67.87    8.33
  -4  -6   8   64.88    8.83
  -4  -6   9  218.42   16.10
  -4  -6   9  264.81   18.31
   4  -6   9  242.33   17.28
  -4   6   9  216.77   14.80
  -4   6   9  238.14   17.85
  -4  -6  10  152.68   13.47
  -4   6  10  182.29   16.06
  -4   6  10  144.63   12.25
  -4  -6  10  138.18   13.47
   4  -6  10  156.01   13.84
   4  -6  11  555.03   26.65
  -4   6  11  534.79   24.24
  -4  -6  11  544.82   27.14
  -4  -6  11  563.03   26.36
  -4   6  11  634.77   29.35
   4  -6  12   68.74    9.49
  -4  -6  12   54.19    8.07
  -4  -6  12   52.05    8.63
  -4   6  12   50.35    8.09
  -4   6  12   63.94    9.90
  -4  -6  13   39.75    7.48
  -4  -6  13   47.97    7.66
   4  -6  13   46.69    8.47
  -4   6  13   53.14    9.20
  -4  -6  14  195.88   15.97
  -4  -6  14  196.10   16.99
   4  -6  14  204.60   17.01
  -4   6  14  193.84   16.68
   4  -6  15  766.24   33.13
  -4  -6  15  748.18   31.54
  -4  -6  15  776.86   33.86
  -4  -6  16   52.45    8.63
   4  -6  16   47.36    8.62
  -4  -6  16   49.13    8.21
   4  -6  17  154.58   15.65
  -4  -6  17  151.55   14.74
  -4  -6  17  120.73   13.50
  -4  -6  18   23.19    6.22
   4  -6  18   21.69    6.20
  -4  -6  18   37.45    7.60
  -4  -6  19   45.76    8.53
  -4  -6  19   27.65    6.92
   4  -6  19   41.63    8.23
  -4  -6  20  327.83   23.19
   4  -6  20  324.20   23.17
  -4  -6  21  133.52   14.95
   4  -6  21  119.97   14.48
  -4  -6  22   67.08   10.98
   4  -6  22   61.17   10.93
   4  -6  22   47.52    9.62
  -4  -6  23   80.82   11.98
   4  -6  23   90.64   13.67
   4  -6  24   40.52   10.53
  -4  -6  24   37.79    8.20
  -4  -6  25   17.74    5.39
   4   7 -24    1.68    3.12
  -4   7 -24    7.09    4.61
  -4   7 -23   18.66    7.22
   4   7 -23   29.17    8.30
   4   7 -22   20.91    6.87
  -4   7 -22   14.11    5.20
   4   7 -21   -1.18    3.60
  -4   7 -21    2.12    3.97
   4   7 -20   48.40    8.65
  -4   7 -20   40.41    8.61
  -4   7 -19   77.51   10.80
   4   7 -19   64.33   10.45
  -4   7 -18   84.53   13.39
   4   7 -18  103.38   13.26
  -4   7 -18   96.27   12.59
  -4   7 -17   23.64    5.42
   4   7 -17   39.58    8.14
  -4   7 -17   32.89    7.68
  -4   7 -16   19.65    5.41
   4   7 -16   37.46    8.53
  -4   7 -16   40.61    8.81
   4   7 -15   29.30    6.05
  -4   7 -15   45.77    9.17
  -4   7 -15   45.10    8.36
   4   7 -14   29.30    6.79
  -4  -7 -14   35.63    8.06
  -4   7 -14   20.86    5.74
  -4   7 -14   25.99    6.95
  -4  -7 -13  115.27   12.89
  -4   7 -13  107.79   14.04
  -4   7 -13  102.16   12.70
   4   7 -13  143.86   14.20
  -4   7 -12   23.14    6.42
  -4  -7 -12   21.71    5.87
   4   7 -12   25.90    5.73
  -4   7 -12   27.39    7.50
  -4  -7 -11   68.34    9.13
  -4   7 -11   76.32   10.30
   4   7 -11   84.22   10.28
  -4   7 -11   64.60   10.03
  -4  -7 -10  123.11   12.70
   4  -7 -10  133.25   13.24
   4   7 -10  128.06   12.54
  -4   7 -10  118.70   14.27
  -4   7 -10  111.25   12.53
  -4  -7  -9   22.74    5.70
   4   7  -9   19.88    5.34
   4  -7  -9   10.77    3.60
  -4   7  -9   24.11    5.63
  -4  -7  -8  160.21   14.67
  -4   7  -8  154.87   16.09
   4  -7  -8  151.03   13.94
   4   7  -8  159.31   13.99
  -4   7  -8  150.86   13.80
  -4   7  -7   12.09    4.92
  -4   7  -7   15.19    5.97
  -4  -7  -7   17.05    4.80
   4  -7  -7    9.05    4.10
  -4  -7  -7    9.23    4.67
   4   7  -7   11.84    4.04
   4   7  -6   44.48    6.62
  -4  -7  -6   40.46    6.98
  -4  -7  -6   41.07    7.37
   4  -7  -6   33.18    6.45
  -4   7  -6   21.63    6.23
  -4   7  -6   34.13    6.95
  -4   7  -5   67.92   10.82
  -4  -7  -5   39.75    7.09
   4   7  -5   45.91    6.36
  -4  -7  -5   43.96    7.51
   4  -7  -5   40.30    7.08
  -4   7  -5   47.64    7.82
   4  -7  -4   11.89    4.01
   4   7  -4    9.80    3.32
  -4  -7  -4   13.67    4.26
  -4   7  -4   12.63    2.73
  -4  -7  -4   18.11    5.12
  -4   7  -4   13.00    4.85
  -4  -7  -3   38.03    7.29
  -4  -7  -3   41.52    7.11
   4  -7  -3   33.28    6.59
  -4   7  -3   18.49    4.45
  -4   7  -3   33.85    7.60
  -4  -7  -2   14.10    4.23
   4  -7  -2   12.29    4.54
  -4  -7  -2   12.40    4.48
  -4   7  -2   24.14    5.21
  -4   7  -2   12.89    4.43
  -4  -7  -1   15.75    5.06
  -4   7  -1    2.66    2.32
  -4  -7  -1   17.10    5.14
   4  -7  -1   13.58    3.94
  -4   7  -1   19.22    5.51
  -4   7   0  109.23   11.18
  -4  -7   0   88.37   10.41
  -4  -7   0   71.45    9.72
   4  -7   0  116.76   11.83
  -4   7   0   90.57   12.14
  -4  -7   1   15.24    4.70
  -4  -7   1   22.81    5.43
  -4   7   1   13.63    4.22
   4  -7   1   10.17    2.54
  -4   7   1   10.36    4.54
  -4  -7   2   11.72    4.40
   4  -7   2   17.40    4.29
  -4  -7   2   12.33    4.27
  -4   7   2   21.23    4.90
  -4   7   2   14.05    4.20
   4  -7   3   36.44    6.48
  -4  -7   3   27.27    6.07
  -4  -7   3   32.04    6.08
  -4   7   3   27.61    5.10
  -4   7   3   36.57    7.99
  -4  -7   4   17.70    5.21
  -4  -7   4   18.96    5.33
   4  -7   4   11.10    3.07
  -4   7   4   14.48    4.30
  -4   7   4   17.12    5.30
  -4  -7   5   56.63    8.95
  -4  -7   5   51.72    8.33
   4  -7   5   53.28    8.64
  -4   7   5   47.33    6.97
  -4   7   5   54.57    8.96
  -4   7   6   45.76    8.55
  -4  -7   6   41.30    7.36
  -4  -7   6   38.59    6.91
  -4   7   6   30.51    5.42
   4  -7   6   42.86    7.70
  -4   7   7    4.81    4.70
   4  -7   7    8.44    3.31
  -4  -7   7    7.92    3.25
  -4  -7   7    5.71    3.04
  -4  -7   8  166.97   15.34
  -4  -7   8  136.08   13.51
   4  -7   8  158.46   14.25
  -4   7   8  164.73   16.16
  -4   7   9   24.05    5.62
  -4  -7   9   12.83    5.05
  -4  -7   9   22.65    5.77
   4  -7   9   20.88    5.38
   4  -7  10  130.66   13.21
  -4  -7  10  130.40   13.31
  -4   7  10  141.48   14.53
  -4  -7  10  126.92   13.80
  -4   7  11   61.15   10.31
  -4  -7  11   98.79   11.48
   4  -7  11   85.62   11.00
  -4  -7  11   75.03   11.09
  -4   7  12   22.95    7.19
  -4  -7  12   17.44    5.79
   4  -7  12   26.50    6.35
  -4  -7  12   29.96    6.48
  -4  -7  13  125.10   13.04
  -4  -7  13  159.73   15.53
   4  -7  13  117.77   12.70
  -4  -7  14   32.70    7.39
   4  -7  14   26.05    5.69
  -4  -7  14   22.13    5.48
   4  -7  15   37.41    7.00
  -4  -7  15   37.96    8.40
  -4  -7  15   49.56    8.53
  -4  -7  16   33.64    6.97
  -4  -7  16   44.34    8.56
   4  -7  16   43.14    7.98
  -4  -7  17   34.33    7.15
   4  -7  17   37.79    7.71
  -4  -7  17   30.51    7.44
  -4  -7  18   98.12   12.84
  -4  -7  18   95.57   13.17
   4  -7  18  110.13   13.52
  -4  -7  19   67.04   10.80
   4  -7  19   58.98   10.62
  -4  -7  19   78.03   11.54
  -4  -7  20   33.92    8.38
   4  -7  20   35.36    8.53
  -4  -7  21   -1.61    3.36
   4  -7  21    4.47    3.88
  -4  -7  22   15.92    4.66
   4  -7  22   10.57    5.55
   4  -7  22   12.93    5.45
  -4  -7  23    4.16    3.87
   4  -7  23   24.92    8.42
   4  -7  23   17.85    7.16
   4  -7  24    0.76    3.17
  -4  -7  24    1.63    3.63
   4   8 -21   78.04   13.09
  -4   8 -21   86.75   12.84
   4   8 -20   55.56   10.55
  -4   8 -20   65.50   10.94
   4   8 -19   91.31   12.77
  -4   8 -19   69.52   12.18
  -4   8 -18  113.06   14.29
   4   8 -18   99.63   12.81
  -4   8 -17    1.56    2.93
   4   8 -17   -0.24    2.51
  -4   8 -17   -2.98    3.55
   4   8 -16   37.37    8.26
  -4   8 -16   26.23    5.97
  -4   8 -16   37.53    8.51
   4   8 -15    8.24    3.85
  -4   8 -15    6.92    4.35
  -4   8 -15    4.69    2.40
   4   8 -14   -1.06    2.45
  -4   8 -14    1.65    2.41
  -4   8 -14    2.47    2.33
  -4  -8 -13   46.60    8.44
  -4   8 -13   38.96    7.98
  -4   8 -13   39.03    8.79
   4   8 -13   53.72    9.30
  -4  -8 -12    9.99    4.50
   4   8 -12    7.16    4.35
  -4   8 -12   20.60    6.01
  -4   8 -12    9.22    4.86
  -4  -8 -11    8.92    4.33
   4   8 -11    7.14    3.64
  -4   8 -11    9.05    4.29
  -4   8 -11    8.48    5.44
  -4   8 -10  250.72   21.20
  -4  -8 -10  237.99   18.82
  -4   8 -10  254.62   19.88
   4  -8 -10  285.76   21.25
   4   8 -10  242.47   18.60
  -4  -8  -9   49.29    8.67
   4   8  -9   26.67    6.08
   4  -8  -9   49.18    8.35
  -4   8  -9   59.37   10.58
  -4   8  -9   40.92    7.84
  -4  -8  -8   11.76    4.27
   4   8  -8   18.39    5.83
   4  -8  -8   18.99    5.59
  -4   8  -8   11.23    3.25
  -4   8  -8   18.06    7.04
  -4  -8  -7  147.13   14.78
  -4   8  -7  147.48   14.46
   4  -8  -7  158.54   15.12
  -4   8  -7  140.98   15.95
   4  -8  -6  255.78   19.06
  -4   8  -6  288.66   21.92
  -4   8  -6  278.20   19.85
  -4  -8  -6  247.48   18.71
  -4  -8  -5   69.97   10.13
   4  -8  -5   58.35    9.32
  -4   8  -5   75.31   10.78
  -4   8  -5   74.17   11.04
  -4  -8  -5   69.34    9.66
   4  -8  -4   23.55    5.72
  -4   8  -4   36.89    6.87
  -4  -8  -4   34.92    7.00
  -4  -8  -4   31.18    7.24
  -4   8  -4   33.76    7.71
  -4  -8  -3   14.76    4.80
   4  -8  -3   13.31    4.00
  -4   8  -3   24.99    6.58
  -4   8  -3   26.15    7.02
  -4  -8  -3   30.85    6.26
  -4   8  -2   18.72    6.55
  -4  -8  -2   14.37    4.56
  -4  -8  -2   16.80    4.84
   4  -8  -2   12.83    4.86
  -4   8  -2   13.15    4.56
  -4  -8  -1  221.22   17.88
  -4  -8  -1  190.96   16.57
  -4   8  -1  197.68   15.72
   4  -8  -1  181.89   15.93
  -4   8  -1  212.34   18.52
  -4  -8   0  354.92   22.53
  -4   8   0  303.29   22.28
  -4  -8   0  354.50   22.33
   4  -8   0  279.19   19.89
  -4   8   0  281.13   18.71
  -4  -8   1  213.83   17.53
  -4  -8   1  202.65   17.24
   4  -8   1  208.42   17.37
  -4   8   1  180.13   15.27
  -4   8   1  161.66   16.26
  -4  -8   2   18.59    5.70
  -4  -8   2   11.11    3.92
   4  -8   2   26.16    6.63
  -4   8   2   22.28    6.16
  -4  -8   3   14.71    3.79
  -4  -8   3   17.91    5.15
   4  -8   3   19.93    5.87
  -4   8   3   17.31    5.07
  -4  -8   4   25.55    6.46
  -4  -8   4   21.87    6.12
   4  -8   4   11.19    4.54
  -4   8   4   14.74    5.72
  -4  -8   5   72.13   10.20
  -4  -8   5   50.94    8.46
   4  -8   5   73.86   10.48
  -4   8   5   63.22   10.63
  -4   8   6  301.62   22.52
  -4  -8   6  282.69   20.63
   4  -8   6  280.24   20.04
  -4  -8   6  299.21   20.95
  -4  -8   7  168.87   15.75
   4  -8   7  155.90   14.99
  -4  -8   7  163.28   15.78
  -4   8   7  150.00   15.67
  -4   8   8   16.63    6.13
  -4  -8   8    6.28    4.29
   4  -8   8   25.23    6.45
  -4  -8   8   14.04    5.18
   4  -8   9   53.56    8.51
  -4  -8   9   48.23    8.40
  -4  -8   9   42.28    8.05
  -4   8   9   55.24   10.47
   4  -8  10  235.51   18.64
  -4   8  10  269.76   21.88
  -4  -8  10  249.22   19.88
  -4  -8  10  237.89   18.85
  -4  -8  11   11.02    3.71
   4  -8  11    4.75    3.73
  -4  -8  11   11.67    4.50
  -4   8  11    7.00    4.97
  -4  -8  12   14.04    5.62
  -4  -8  12   10.09    4.99
   4  -8  12    7.37    2.02
  -4  -8  13   54.93    9.63
   4  -8  13   34.56    8.41
  -4  -8  13   39.65    8.21
  -4  -8  14    5.16    2.93
   4  -8  14    1.87    2.23
  -4  -8  14    1.23    1.98
  -4  -8  15   10.14    4.05
  -4  -8  15    7.98    3.60
   4  -8  15    1.29    3.27
  -4  -8  16   26.11    7.11
   4  -8  16   10.06    2.51
  -4  -8  16   22.37    6.30
   4  -8  17   -0.30    2.39
  -4  -8  17    4.17    5.24
  -4  -8  17    1.06    2.99
  -4  -8  18   97.83   14.01
  -4  -8  18  110.94   14.28
   4  -8  18  102.13   14.81
  -4  -8  19   77.92   11.83
  -4  -8  19   89.85   12.86
   4  -8  19   89.79   13.33
  -4  -8  20   71.58   11.55
   4  -8  20   72.23   12.99
  -4  -8  21   96.82   13.28
   4  -8  21   57.87   10.63
   4   9 -18    1.73    3.46
  -4   9 -18   -3.61    3.79
   4   9 -17   23.82    7.32
  -4   9 -17   26.18    7.69
  -4   9 -16    2.87    2.57
  -4   9 -16    4.93    5.20
   4   9 -15   18.95    6.88
  -4   9 -15   21.17    5.61
  -4   9 -15    5.49    4.23
  -4   9 -14    6.91    4.70
  -4   9 -14   18.88    6.31
  -4  -9 -13   22.39    6.42
  -4   9 -13   19.92    5.89
  -4   9 -13   28.92    8.39
  -4   9 -12   57.96   10.83
  -4  -9 -12   62.85   10.03
  -4   9 -12   66.28   10.45
  -4   9 -11    7.42    4.88
  -4  -9 -11   21.77    6.68
  -4   9 -11   14.84    6.26
  -4  -9 -10   -3.24    3.52
  -4   9 -10    0.74    2.16
  -4   9 -10   -2.47    4.12
  -4  -9  -9   30.38    6.20
   4  -9  -9   32.86    6.86
  -4   9  -9   13.27    5.06
  -4   9  -9   29.41    7.89
   4  -9  -8   60.85   10.17
  -4   9  -8   55.22    9.18
  -4  -9  -8   57.34    9.60
  -4   9  -8   43.25    9.00
  -4  -9  -7   38.80    7.90
  -4   9  -7   70.76   10.95
   4  -9  -7   47.16    8.95
  -4   9  -7   44.84    8.32
  -4  -9  -6   13.29    4.83
   4  -9  -6    9.49    4.07
  -4   9  -6   13.73    4.90
  -4   9  -6    5.90    4.60
   4  -9  -5   19.56    5.78
  -4   9  -5    5.23    3.04
  -4   9  -5    7.64    6.06
  -4  -9  -5    5.59    3.59
   4  -9  -4   31.65    7.44
  -4  -9  -4   33.09    7.28
  -4   9  -4   28.08    7.62
  -4  -9  -4   42.23    8.37
  -4  -9  -3   31.53    7.32
   4  -9  -3   31.53    7.48
  -4   9  -3   39.55    8.36
  -4  -9  -3   29.85    6.56
  -4   9  -2    8.52    4.00
  -4  -9  -2    3.45    2.45
   4  -9  -2    7.79    4.08
  -4  -9  -2    2.24    4.36
  -4  -9  -1   45.88    8.86
   4  -9  -1   51.28    9.15
  -4   9  -1   41.00    8.30
  -4  -9  -1   43.10    8.24
  -4  -9   0  152.61   15.56
  -4  -9   0  199.28   18.04
   4  -9   0  148.96   15.16
  -4   9   0  172.09   18.20
  -4  -9   1   53.91    9.80
  -4  -9   1   29.71    7.20
   4  -9   1   37.68    8.24
  -4   9   1   32.03    7.20
  -4  -9   2    1.02    2.14
   4  -9   2    4.59    3.41
  -4   9   2    0.58    3.34
  -4  -9   2    2.51    3.71
   4  -9   3   34.19    7.13
  -4  -9   3   44.40    7.77
  -4  -9   3   32.30    7.85
  -4   9   3   38.02    8.39
  -4  -9   4   34.25    6.32
  -4  -9   4   27.81    6.75
  -4   9   4   29.29    7.83
   4  -9   4   29.83    7.46
  -4   9   5    6.16    3.74
  -4  -9   5    5.76    4.89
   4  -9   5    3.82    4.05
  -4  -9   5    6.94    4.20
   4  -9   6   13.39    4.81
  -4  -9   6   20.50    6.71
  -4  -9   6   10.89    4.87
  -4   9   6    9.89    3.39
  -4  -9   7   45.06    8.54
  -4  -9   7   44.83    9.02
   4  -9   7   43.72    8.34
  -4   9   7   51.78   10.09
  -4  -9   8   53.08    9.57
  -4   9   8   74.29   12.33
   4  -9   8   46.64    8.15
  -4  -9   8   58.98   10.16
  -4  -9   9   41.37    8.41
   4  -9   9   38.98    8.47
  -4  -9   9   39.72    8.16
  -4   9   9   42.70    9.94
  -4  -9  10   -0.70    2.04
  -4  -9  10   -3.08    2.94
   4  -9  10   -3.81    3.81
  -4   9  10    0.44    4.26
   4  -9  11    9.02    3.33
  -4  -9  11   -0.19    3.41
  -4  -9  11    7.71    4.85
  -4  -9  12   58.18   10.27
   4  -9  12   51.71    9.66
  -4  -9  12   75.78   11.80
  -4  -9  13   37.62    8.44
  -4  -9  13   50.66    9.26
   4  -9  13   27.52    6.84
  -4  -9  14    9.63    5.69
  -4  -9  14   18.19    6.81
   4  -9  14    4.45    3.26
  -4  -9  15   11.11    5.16
  -4  -9  15   19.78    5.72
   4  -9  15    5.24    3.23
  -4  -9  16   -2.22    3.55
  -4  -9  16   -0.91    4.58
   4  -9  16    6.52    3.30
   4  -9  17   14.24    5.91
  -4  -9  17   32.43    8.50
  -4  -9  17   20.69    7.53
  -4  -9  18    6.58    4.84
   4  -9  18    7.61    5.39
  -4  -9  18    8.98    4.93
  -4  10 -14    4.64    3.76
  -4  10 -14   11.42    5.34
  -4  10 -13   12.69    4.80
  -4  10 -13   16.01    6.60
  -4 -10 -12    6.85    2.89
  -4  10 -12    8.43    5.21
  -4 -10 -11   47.44    9.50
  -4  10 -11   51.51   10.58
  -4  10 -10   63.44   10.32
  -4 -10 -10   61.35   10.34
  -4 -10  -9  157.46   16.82
  -4  10  -9  162.78   17.89
  -4  10  -8   33.82    8.37
   4 -10  -8   30.54    7.29
  -4 -10  -8   32.00    8.19
  -4 -10  -7   28.14    7.24
   4 -10  -7   50.59   10.17
  -4  10  -7   40.08    8.47
   4 -10  -6   71.30   11.24
  -4  10  -6   71.14   12.18
  -4 -10  -6   65.44   10.72
  -4  10  -5   84.97   12.86
  -4 -10  -5   99.03   12.92
   4 -10  -5   69.52   11.33
   4 -10  -4   35.87    7.47
  -4  10  -4   60.09   11.66
  -4 -10  -4   45.41    8.99
  -4 -10  -3   24.19    6.05
  -4  10  -3    4.83    2.46
   4 -10  -3   24.55    6.71
  -4 -10  -3   26.19    8.38
   4 -10  -2    7.94    4.68
  -4 -10  -2    6.17    3.19
  -4  10  -2    0.51    3.93
  -4 -10  -1   22.22    6.47
   4 -10  -1   36.59    7.74
  -4 -10  -1   27.35    7.08
  -4  10  -1   28.59    7.77
  -4 -10   0  140.96   16.00
  -4 -10   0  137.29   15.09
   4 -10   0  145.35   15.94
  -4  10   0  169.08   18.14
  -4 -10   1   23.94    6.52
  -4 -10   1   30.34    7.76
   4 -10   1   16.31    4.91
  -4  10   1   24.68    6.59
   4 -10   2    6.09    3.79
  -4 -10   2   10.79    4.95
  -4 -10   2    6.62    4.42
  -4  10   2    7.04    3.48
  -4  10   3   19.83    6.03
  -4 -10   3   19.00    5.70
   4 -10   3   15.66    6.32
  -4 -10   3   10.26    5.02
  -4 -10   4   46.95    9.05
  -4 -10   4   49.34    9.24
   4 -10   4   58.19   10.02
  -4  10   4   44.39   10.24
  -4 -10   5   91.90   12.79
   4 -10   5   76.39   11.28
  -4  10   5   84.46   13.35
  -4 -10   5   88.44   12.80
   4 -10   6   79.71   12.13
  -4 -10   6   78.01   11.58
  -4  10   6   71.12   12.84
  -4 -10   6   64.32   10.39
  -4 -10   7   35.56    8.25
   4 -10   7   34.19    7.26
  -4 -10   7   42.06    8.61
  -4  10   7   41.23    9.45
  -4 -10   8   32.30    8.12
  -4 -10   8   35.86    7.90
   4 -10   8   44.17    8.48
  -4  10   8   26.72    7.25
  -4 -10   9  157.93   16.09
   4 -10   9  164.69   16.96
  -4 -10   9  151.55   17.12
  -4 -10  10   45.14    8.63
   4 -10  10   51.83    9.82
   4 -10  11   54.19    8.63
  -4 -10  11   36.01    8.12
  -4 -10  11   45.58    9.11
  -4 -10  12   13.61    5.54
  -4 -10  12   17.18    5.91
   4 -10  12   19.81    5.68
  -4 -10  13   17.29    6.32
  -4 -10  13   22.16    6.36
   4 -10  13   23.04    7.09
  -4 -10  14    6.57    3.69
  -4 -10  14   13.57    5.56
   4 -10  14   13.61    4.40
  -4 -11  -8    1.72    4.00
  -4  11  -8   18.06    6.69
  -4 -11  -7   62.88   10.78
   4 -11  -7   56.01   10.83
  -4  11  -7   64.80   11.05
   4 -11  -6   26.01    7.73
  -4  11  -6   23.03    6.78
  -4 -11  -6   28.41    7.16
  -4 -11  -5    6.29    3.23
  -4  11  -5    2.85    2.95
   4 -11  -5    6.13    4.16
  -4 -11  -4   -4.19    4.03
   4 -11  -4    3.38    2.33
  -4  11  -4    1.03    3.40
   4 -11  -3    6.50    4.33
  -4 -11  -3    9.45    4.29
  -4  11  -3    1.65    2.48
  -4 -11  -2    2.29    2.00
   4 -11  -2    8.75    3.88
  -4  11  -2    2.51    4.13
  -4 -11  -1   43.57    9.45
  -4 -11  -1   64.57   10.74
   4 -11  -1   47.55    9.64
  -4  11  -1   67.00   12.09
  -4 -11   0   43.64    9.02
   4 -11   0   35.11    8.73
  -4  11   0   17.66    6.18
  -4 -11   0   20.41    7.28
  -4  11   1   36.88    9.38
  -4 -11   1   53.31    9.68
   4 -11   1   50.65    9.17
  -4 -11   1   37.44    8.75
  -4 -11   2   15.59    5.44
   4 -11   2   16.63    5.30
  -4  11   2   10.55    7.10
  -4 -11   2   -1.65    3.05
  -4  11   3    7.65    3.58
  -4 -11   3   12.90    4.65
  -4 -11   3    0.05    3.99
   4 -11   3    5.64    1.92
  -4 -11   4   -1.51    3.35
  -4 -11   4    2.34    2.11
  -4  11   4   -1.45    3.28
   4 -11   4    3.47    4.51
  -4 -11   5    0.38    4.41
   4 -11   5   -0.55    2.83
  -4 -11   5    5.09    3.11
  -4  11   5    6.10    5.95
  -4 -11   6   30.12    6.94
  -4 -11   6   24.71    7.18
   4 -11   6   28.09    7.42
  -4  11   6   28.68    9.25
  -4 -11   7   45.69    9.09
  -4 -11   7   50.16   10.42
   4 -11   7   59.22   10.13
  -4 -11   8   13.43    6.10
  -4 -11   8   10.85    5.34
   4 -11   8   18.28    5.98
  -5   0 -29    2.16    3.82
  -5   0 -28    4.64    3.84
  -5   0 -27    0.22    3.26
  -5   0 -26   -0.52    3.62
  -5   0 -25   -0.12    1.85
  -5   0 -24   -2.05    2.51
  -5   0 -23    3.62    4.38
  -5   0 -22   -1.13    2.42
  -5   0 -21   -0.42    2.70
  -5   0 -20    1.64    1.52
  -5   0 -19   -1.81    2.60
  -5   0 -18    0.28    1.52
  -5   0 -17    1.91    2.48
  -5   0 -16    0.72    2.51
  -5   0 -15   -1.77    2.44
  -5   0 -14    0.88    1.22
  -5   0 -14    1.39    1.81
  -5   0 -13   -0.09    1.47
  -5   0 -13    0.39    1.16
  -5   0 -12   -0.51    1.83
  -5   0 -12   -0.90    1.11
  -5   0 -11   -0.70    1.69
  -5   0 -11   -0.09    0.96
  -5   0 -10    0.10    0.77
  -5   0 -10    0.93    1.95
  -5   0  -9    2.04    2.05
  -5   0  -9   -0.11    0.81
  -5   0  -8    0.80    1.18
  -5   0  -8   -0.52    1.08
  -5   0  -8   -0.26    1.26
  -5   0  -7   -0.05    0.96
  -5   0  -7   -0.23    0.90
  -5   0  -7    0.30    0.93
  -5   0  -6    0.30    1.26
  -5   0  -6    0.05    0.82
  -5   0  -6    1.59    1.74
  -5   0  -5   -0.58    1.52
  -5   0  -5   -0.18    1.12
  -5   0  -5   -0.61    1.02
  -5   0  -4    1.49    1.53
  -5   0  -4    0.91    1.12
  -5   0  -4    0.97    0.97
  -5   0  -3   -0.20    0.86
  -5   0  -3   -0.80    1.34
  -5   0  -3   -0.35    0.63
  -5   0  -2   -0.25    1.09
  -5   0  -2   -0.15    1.02
  -5   0  -2   -0.64    1.20
  -5   0  -1    0.45    0.96
  -5   0  -1   -0.91    0.95
  -5   0  -1   -1.01    1.57
  -5   0   0   -0.52    0.62
  -5   0   0    0.15    1.22
  -5   0   1    0.56    0.85
  -5   0   1    0.08    0.73
  -5   0   2   -0.29    0.90
  -5   0   2    0.35    0.82
  -5   0   3    0.91    1.18
  -5   0   3    0.24    1.05
  -5   0   4    0.21    1.03
  -5   0   4   -0.05    1.84
  -5   0   5    0.35    0.69
  -5   0   5    0.66    1.83
  -5   0   6    0.09    0.55
  -5   0   6   -0.30    0.61
  -5   0   7    0.31    1.44
  -5   0   7    0.31    0.62
  -5   0   8   -0.03    0.75
  -5   0   8   -0.23    0.84
  -5   0   9    0.07    0.88
  -5   0   9    0.55    0.70
  -5   0  10    1.83    1.26
  -5   0  10   -0.55    1.00
  -5   0  11   -0.96    1.46
  -5   0  11   -0.33    0.39
  -5   0  12    0.90    2.20
  -5   0  12    0.35    0.32
  -5   0  13   -0.43    1.36
  -5   0  13    0.60    0.37
  -5   0  14    0.54    2.25
  -5   0  15    0.73    2.25
  -5   0  16    1.00    1.41
  -5   0  17   -1.20    1.34
  -5   0  18   -1.47    2.28
  -5   0  19   -1.82    1.96
  -5   0  20   -2.34    3.58
  -5   0  21    1.89    3.28
  -5   0  22   -0.02    2.52
  -5   1 -30    8.40    4.72
  -5   1 -29   53.47    9.94
  -5   1 -28   20.53    5.61
  -5   1 -27  107.22   13.41
  -5   1 -26  182.95   16.76
  -5  -1 -26    4.59    2.86
  -5   1 -25  144.06   15.10
  -5  -1 -25  138.62   15.37
  -5   1 -24   52.00    9.24
  -5  -1 -24   37.20    8.10
  -5  -1 -23   27.55    7.20
  -5   1 -23   12.50    4.35
  -5  -1 -22   60.42    8.88
  -5   1 -22   63.59    9.38
  -5   1 -21   91.50   11.56
  -5  -1 -21   77.00   10.17
  -5   1 -20    4.24    3.18
  -5  -1 -20    2.75    2.08
  -5   1 -19   65.64    9.35
  -5  -1 -19   51.68    7.81
  -5  -1 -18   70.31    9.18
  -5   1 -18   67.12    9.03
  -5   1 -17   58.90    7.92
  -5  -1 -16 1001.03   31.34
  -5   1 -16  959.86   33.23
  -5   1 -16  946.78   28.71
  -5  -1 -15  443.57   20.56
  -5   1 -15  397.76   18.38
  -5   1 -15  419.69   21.64
  -5   1 -14  273.74   17.04
  -5   1 -14  299.03   15.54
  -5  -1 -14  271.23   15.60
  -5  -1 -13  125.93   10.21
  -5   1 -13  130.72   11.57
  -5  -1 -13  104.97    9.37
  -5   1 -13  130.43   10.36
  -5   1 -12  229.24   13.24
  -5  -1 -12  226.00   13.29
  -5   1 -12  217.39   14.49
  -5  -1 -12  228.55   13.58
  -5  -1 -12  204.87    8.36
  -5   1 -11  287.34   14.68
  -5  -1 -11  295.72   14.74
  -5   1 -11  269.37   15.87
  -5  -1 -11  287.05   14.79
  -5   1 -10  697.16   24.80
  -5  -1 -10  713.36   23.01
  -5   1 -10  746.55   23.50
  -5  -1 -10  719.10   16.40
  -5  -1 -10  721.62   22.44
  -5  -1  -9   28.35    3.20
  -5  -1  -9   30.57    4.21
  -5   1  -9   27.51    4.76
  -5  -1  -9   30.69    4.83
  -5   1  -9   23.85    4.21
  -5   1  -8   34.96    5.19
  -5   1  -8   40.62    5.77
  -5  -1  -8   38.37    4.03
  -5  -1  -8   33.91    4.66
  -5  -1  -8   42.87    5.45
  -5  -1  -7    8.25    2.03
  -5   1  -7   15.42    3.46
  -5  -1  -7    8.20    2.15
  -5   1  -7   12.92    3.01
  -5  -1  -7   11.90    2.28
  -5   1  -6 1472.54   31.03
  -5  -1  -6 1423.15   30.79
  -5  -1  -6 1517.25   29.03
  -5   1  -6 1431.70   32.57
  -5  -1  -6 1469.55   25.44
  -5   1  -5  393.84   16.72
  -5  -1  -5  409.42   14.77
  -5  -1  -5  399.81   13.30
  -5  -1  -5  396.43   15.84
  -5   1  -5  365.13   15.62
  -5  -1  -4 2509.27   33.63
  -5   1  -4 2501.87   40.14
  -5   1  -4 2561.34   42.32
  -5  -1  -4 2556.38   36.64
  -5  -1  -4 2460.23   38.62
  -5   1  -3  261.31   13.45
  -5  -1  -3  273.16   11.76
  -5  -1  -3  262.73   11.17
  -5   1  -3  296.41   13.81
  -5  -1  -3  281.30   12.83
  -5  -1  -2   36.34    4.49
  -5  -1  -2   27.90    3.58
  -5  -1  -2   33.48    4.18
  -5   1  -2   35.00    4.80
  -5   1  -2   34.90    4.65
  -5  -1  -1   51.47    5.35
  -5   1  -1   59.11    6.05
  -5   1  -1   49.92    5.70
  -5  -1   0   51.17    5.29
  -5   1   0   43.45    5.45
  -5   1   0   37.42    4.86
  -5  -1   1   62.71    5.66
  -5  -1   1   60.24    5.71
  -5   1   1   44.51    5.31
  -5  -1   2   22.25    3.44
  -5   1   2   25.49    4.13
  -5  -1   2   27.46    3.80
  -5  -1   3  285.19   11.75
  -5  -1   3  286.97   13.19
  -5   1   3  271.90   13.63
  -5  -1   4 2409.73   34.55
  -5  -1   4 2474.24   39.73
  -5   1   4 2406.95   40.65
  -5  -1   5  407.69   13.84
  -5  -1   5  417.19   16.84
  -5   1   5  409.91   16.96
  -5  -1   6 1446.36   25.79
  -5  -1   6 1491.44   32.03
  -5   1   6 1499.92   32.38
  -5   1   7    7.85    2.44
  -5  -1   7   12.65    2.51
  -5  -1   7   12.13    3.06
  -5   1   8   40.88    5.56
  -5  -1   8   36.97    4.16
  -5  -1   8   37.43    5.38
  -5  -1   9   19.99    3.98
  -5  -1   9   27.23    3.50
  -5   1   9   27.71    4.77
  -5  -1  10  743.64   17.84
  -5  -1  10  725.86   24.46
  -5   1  10  777.43   24.62
  -5  -1  11  283.36   10.97
  -5  -1  11  260.25   14.95
  -5   1  11  265.71   14.81
  -5  -1  12  227.64    9.76
  -5  -1  12  236.61   14.35
  -5   1  12  222.06   13.77
  -5  -1  13  129.86    7.27
  -5  -1  13  151.56   11.98
  -5   1  13  134.21   10.83
  -5  -1  14  278.59   10.52
  -5  -1  14  258.11   16.01
  -5   1  14  290.29   16.45
  -5  -1  15  373.78   12.06
  -5  -1  15  425.01   20.78
  -5   1  15  396.54   19.79
  -5  -1  16 1076.27   33.89
  -5   1  16 1017.55   32.70
  -5  -1  17   88.11   10.04
  -5   1  17   77.21    9.63
  -5   1  18   58.05    8.27
  -5  -1  18   53.25    8.75
  -5  -1  19   62.60    9.04
  -5   1  19   52.88    8.09
  -5   1  20    5.12    3.05
  -5  -1  20    6.24    4.00
  -5  -1  21   80.22   10.26
  -5  -1  22   63.89    9.67
  -5  -1  23   18.39    5.28
  -5   2 -29    6.69    2.62
  -5   2 -28   15.78    5.56
  -5   2 -27    7.99    5.08
  -5   2 -26   58.76   10.21
  -5   2 -25   68.84   10.69
  -5   2 -24    8.39    4.21
  -5   2 -23   94.95   12.48
  -5   2 -22   37.32    7.51
  -5  -2 -21    4.50    4.23
  -5   2 -21   10.39    3.04
  -5  -2 -20   27.99    6.11
  -5   2 -20   34.64    7.41
  -5  -2 -19  286.40   18.49
  -5   2 -19  290.40   19.71
  -5  -2 -18   35.30    6.72
  -5   2 -18   38.38    7.60
  -5  -2 -17   59.94    7.52
  -5  -2 -17   66.93    7.99
  -5   2 -17   77.05   10.14
  -5   2 -17   53.75    7.83
  -5   2 -16  129.64   11.67
  -5  -2 -16  122.59   10.80
  -5  -2 -16  128.92   11.08
  -5   2 -16  128.74   12.62
  -5   2 -15 1298.99   38.76
  -5  -2 -15 1163.26   33.03
  -5   2 -15 1202.99   35.91
  -5  -2 -15 1238.84   32.96
  -5  -2 -14  170.23   11.85
  -5   2 -14  204.59   15.35
  -5  -2 -14  189.80   13.00
  -5   2 -14  177.68   13.96
  -5   2 -13  578.95   24.46
  -5  -2 -13  599.11   21.02
  -5   2 -13  597.83   25.29
  -5  -2 -13  571.89   22.20
  -5  -2 -12   17.70    3.71
  -5  -2 -12   12.69    3.24
  -5   2 -12   13.09    3.68
  -5   2 -12   10.03    3.43
  -5  -2 -11  108.11    8.29
   5  -2 -11  104.29    5.22
  -5   2 -11  119.34   10.63
  -5  -2 -11  118.39    9.87
  -5   2 -11  112.76   10.49
  -5   2 -10    7.00    3.28
  -5  -2 -10    3.23    2.27
  -5  -2 -10    4.98    2.25
  -5  -2 -10    3.10    1.18
  -5   2 -10    5.45    3.06
  -5  -2  -9   18.87    3.27
  -5   2  -9   20.01    4.61
  -5  -2  -9   17.63    3.87
  -5  -2  -9   18.04    2.45
  -5   2  -9   11.71    3.30
  -5  -2  -8  147.65    8.56
  -5  -2  -8  129.80    9.81
  -5   2  -8  141.64   11.33
  -5  -2  -8  134.22    6.83
  -5   2  -8  125.18   10.60
  -5  -2  -7  822.26   24.33
  -5   2  -7  787.83   25.78
  -5   2  -7  777.90   25.95
  -5  -2  -7  826.87   19.62
  -5  -2  -7  815.73   17.68
  -5   2  -6  394.06   18.08
  -5  -2  -6  414.26   17.15
  -5  -2  -6  423.00   13.86
  -5  -2  -6  410.88   13.25
  -5   2  -6  387.05   18.00
  -5   2  -5  152.36   11.34
  -5   2  -5  147.90   10.79
  -5  -2  -5  147.74    8.22
  -5  -2  -5  162.66    8.35
  -5  -2  -4   61.18    6.19
  -5   2  -4   67.16    7.34
  -5  -2  -4   58.84    5.23
  -5   2  -4   48.63    6.22
  -5  -2  -3  382.58   15.78
  -5  -2  -3  381.91   13.72
  -5  -2  -3  374.99   12.42
  -5   2  -3  404.87   17.55
  -5   2  -3  389.54   17.41
  -5  -2  -2  176.69   10.64
  -5   2  -2  178.42   11.71
  -5  -2  -2  193.78   10.11
  -5   2  -2  178.48   11.37
  -5  -2  -1   61.43    6.04
  -5   2  -1   49.23    6.07
  -5  -2  -1   61.72    5.86
  -5   2  -1   64.66    7.19
  -5  -2   0  526.37   17.84
  -5   2   0  576.74   20.81
  -5   2   0  577.60   20.13
  -5  -2   0  522.52   17.36
  -5   2   1   56.31    6.12
  -5  -2   1   54.49    5.74
  -5   2   1   60.27    6.67
  -5  -2   1   50.70    5.44
  -5  -2   2  178.32   10.69
  -5  -2   2  184.88   10.56
  -5   2   2  183.60   11.34
  -5  -2   3  372.60   15.70
  -5   2   3  409.63   17.62
  -5  -2   4   51.29    5.45
  -5   2   4   52.16    6.33
  -5  -2   4   59.73    6.29
  -5  -2   5  142.58    9.04
  -5   2   5  145.16   10.40
  -5  -2   5  146.10   10.16
  -5   2   6  378.86   17.04
  -5  -2   6  415.68   15.68
  -5  -2   6  413.07   17.40
  -5  -2   7  772.51   21.17
  -5   2   7  782.55   24.87
  -5  -2   7  756.72   24.58
  -5  -2   8  129.33    8.65
  -5   2   8  123.50   10.14
  -5  -2   8  122.42    9.82
  -5  -2   9   14.69    2.99
  -5  -2   9    9.96    3.01
  -5  -2  10    5.59    1.86
  -5  -2  10    3.88    2.17
  -5   2  10    0.67    1.33
  -5  -2  11  112.48    8.14
  -5  -2  11   98.67    9.55
  -5  -2  12    9.92    3.14
  -5  -2  12   14.69    2.99
  -5   2  12    7.46    2.63
  -5  -2  13  637.09   19.64
  -5   2  13  597.15   24.01
  -5  -2  13  597.86   24.04
  -5  -2  14  216.56   14.71
  -5   2  14  194.29   13.82
  -5  -2  14  192.28   10.77
  -5   2  15 1234.77   35.99
  -5  -2  15 1172.12   26.70
  -5  -2  16  113.44    8.44
  -5  -2  16  110.03   11.04
  -5   2  16  129.63   12.05
  -5   2  17   63.24    8.39
  -5  -2  17   63.41    9.03
  -5  -2  18   69.46    9.13
  -5   2  18   30.30    6.09
  -5  -2  19  260.01   18.06
  -5   2  19  248.13   17.81
  -5  -2  20   45.37    7.93
  -5  -2  21   -0.96    1.83
  -5  -2  22   45.43    8.74
  -5  -2  23   87.96   11.44
  -5  -2  24   16.89    6.07
  -5   3 -29   35.77    7.86
  -5   3 -28   69.32   11.42
  -5   3 -27  211.01   19.58
  -5   3 -26   62.66    9.76
  -5   3 -25  232.06   19.79
  -5   3 -24   16.66    4.39
  -5   3 -23    2.40    2.39
  -5   3 -22  259.65   19.54
  -5   3 -20  148.52   14.58
  -5   3 -19  261.44   19.31
  -5   3 -19  197.86   16.63
  -5   3 -18   39.19    7.46
  -5   3 -18   40.18    7.92
  -5   3 -17   27.22    6.84
  -5   3 -17   28.02    6.67
  -5  -3 -17   21.69    5.05
  -5   3 -16  257.43   18.42
  -5   3 -16  265.34   18.42
  -5  -3 -16  263.09   16.64
  -5   3 -15  745.64   30.59
  -5   3 -15  767.15   31.37
  -5  -3 -15  715.42   27.19
  -5   3 -14  128.85   12.61
  -5  -3 -14  130.61   10.03
  -5   3 -14  141.51   13.06
  -5  -3 -14  134.36   11.49
  -5  -3 -13   40.34    5.00
  -5   3 -13   48.17    7.35
  -5   3 -13   36.10    7.22
  -5  -3 -13   38.51    6.15
  -5   3 -12   74.88    9.21
  -5  -3 -12   70.80    6.57
  -5   3 -12   58.38    8.15
  -5  -3 -12   71.70    8.25
  -5  -3 -11  139.30   11.23
   5  -3 -11  139.78    7.82
  -5  -3 -11  139.62    8.60
  -5   3 -11  147.82   12.98
  -5  -3 -10  323.30   16.72
  -5  -3 -10  349.90   12.59
   5  -3 -10  364.69   13.12
  -5  -3 -10  318.75   10.04
  -5   3 -10  344.07   19.23
  -5   3 -10  350.93   19.28
  -5  -3  -9   74.20    7.71
  -5   3  -9   83.23    9.61
  -5  -3  -9   74.13    5.22
  -5  -3  -9   77.30    5.63
  -5   3  -9   91.55   10.10
  -5  -3  -8   27.74    3.32
  -5   3  -8   31.23    6.14
  -5   3  -8   34.17    6.35
  -5  -3  -8   32.47    5.34
  -5  -3  -8   36.29    3.62
  -5  -3  -7  169.97   11.71
  -5  -3  -7  152.79    8.16
  -5  -3  -7  152.10    7.18
  -5   3  -7  148.11   12.45
  -5   3  -7  171.95   12.74
  -5  -3  -6  810.54   16.05
  -5   3  -6  901.54   29.74
  -5   3  -6  799.92   26.82
  -5  -3  -6  853.18   20.58
  -5  -3  -6  896.03   26.35
  -5  -3  -5  616.36   14.34
  -5  -3  -5  619.45   17.91
  -5   3  -5  608.37   22.92
  -5  -3  -5  604.69   21.99
  -5   3  -5  632.36   24.79
  -5  -3  -4  352.78   13.85
  -5   3  -4  310.55   17.28
  -5  -3  -4  300.68   15.22
  -5   3  -4  324.70   16.60
  -5   3  -3  217.49   14.24
  -5  -3  -3  203.85   12.28
  -5   3  -3  223.27   13.64
  -5  -3  -3  210.78   11.15
  -5  -3  -3  207.17    8.46
  -5  -3  -2  506.94   19.44
  -5  -3  -2  473.60   17.15
  -5   3  -2  507.28   20.39
  -5  -3  -1 1667.60   35.22
  -5   3  -1 1702.15   37.12
  -5   3  -1 1736.59   39.66
  -5  -3  -1 1645.74   32.75
  -5  -3   0 1368.42   31.84
  -5  -3   0 1489.25   31.73
  -5   3   0 1391.77   35.44
  -5   3   0 1447.27   33.99
  -5  -3   1 1642.00   33.97
  -5  -3   1 1720.79   35.35
  -5   3   1 1671.47   36.22
  -5   3   2  505.74   19.82
  -5  -3   2  490.20   18.91
  -5  -3   2  530.52   19.47
  -5   3   2  516.67   21.33
  -5  -3   3  182.38   11.48
  -5  -3   3  210.65   12.58
  -5   3   3  223.55   14.10
  -5   3   3  192.48   12.29
  -5  -3   4  305.15   15.30
  -5  -3   4  305.35   14.87
  -5   3   4  321.65   16.71
  -5   3   4  319.36   15.62
  -5  -3   5  609.02   22.06
  -5  -3   5  594.92   20.82
  -5   3   5  632.24   23.98
  -5  -3   6  838.32   26.34
  -5   3   6  852.95   27.42
  -5  -3   6  862.75   25.04
  -5  -3   7  157.27   11.69
  -5  -3   7  168.52   11.08
  -5   3   7  160.70   11.90
  -5  -3   8   32.44    5.35
  -5  -3   8   39.98    5.66
  -5   3   8   27.92    5.08
  -5  -3   9   74.25    8.38
  -5  -3   9   69.95    7.19
  -5   3   9   71.56    8.04
  -5  -3  10  373.54   18.98
  -5  -3  10  370.17   16.50
  -5   3  10  347.28   18.23
  -5  -3  11  163.67   12.98
  -5  -3  11  171.16   11.26
  -5   3  11  150.04   12.28
  -5  -3  12   71.71    7.27
  -5  -3  12   62.60    8.11
  -5  -3  13   39.69    5.66
  -5   3  13   27.53    4.47
  -5  -3  13   42.56    7.10
  -5   3  14  148.43   12.81
  -5  -3  14  154.63   11.27
  -5  -3  14  143.68   12.45
  -5  -3  15  780.70   25.25
  -5   3  15  806.16   30.31
  -5  -3  15  722.58   28.75
  -5  -3  16  194.76   12.83
  -5   3  16  230.96   16.63
  -5  -3  16  242.80   16.86
  -5   3  17   32.76    6.73
  -5  -3  17   20.84    4.11
  -5  -3  17   31.59    6.34
  -5   3  18   57.03    8.51
  -5  -3  18   35.75    7.04
  -5  -3  19  245.86   17.72
  -5  -3  20  139.83   13.89
  -5  -3  21  180.71   16.10
  -5  -3  22  304.26   21.31
  -5  -3  23   20.82    5.60
  -5  -3  24    6.60    2.02
  -5  -3  25  222.67   19.38
  -5   4 -28   14.04    5.81
  -5   4 -27   -6.31    5.05
  -5   4 -26    5.44    5.23
  -5   4 -25   16.51    4.58
  -5   4 -24  107.05   13.59
  -5   4 -23   51.13    9.77
  -5   4 -22    6.08    1.70
  -5   4 -21   30.85    6.86
  -5   4 -20  146.39   14.83
   5   4 -20  112.26   13.67
  -5   4 -20  125.42   14.82
   5   4 -19   16.50    4.93
  -5   4 -19    7.52    4.84
  -5   4 -19   21.57    6.45
  -5   4 -18   19.50    5.87
  -5   4 -18   13.37    5.41
   5   4 -18    7.89    3.94
   5   4 -17  418.71   23.58
  -5   4 -17  505.29   26.52
  -5   4 -17  484.08   26.57
  -5  -4 -16  181.99   14.62
  -5   4 -16  203.89   16.85
   5   4 -16  174.20   14.76
  -5   4 -16  178.88   16.50
  -5   4 -15   93.09   11.79
   5   4 -15  103.83   11.05
  -5   4 -15   87.46   10.30
  -5  -4 -15  100.00   10.55
  -5   4 -14   26.32    5.79
   5   4 -14   36.98    7.01
  -5  -4 -14   39.50    6.48
  -5   4 -14   23.23    5.84
  -5  -4 -13  198.47   14.59
   5   4 -13  179.25   14.36
  -5   4 -13  206.22   15.99
  -5   4 -13  188.09   16.21
   5   4 -12  258.48   16.59
  -5   4 -12  289.43   18.92
  -5   4 -12  294.75   19.73
  -5  -4 -12  245.38   15.98
  -5   4 -11   76.44   10.03
   5   4 -11   82.69    9.35
  -5  -4 -11   68.30    8.68
   5  -4 -11   60.61    6.41
  -5   4 -11   70.47    9.09
   5   4 -10   32.52    5.36
  -5  -4 -10   23.41    4.82
  -5   4 -10   33.48    6.45
   5  -4 -10   24.07    4.19
  -5  -4  -9  181.89   13.20
  -5   4  -9  139.98   12.48
  -5   4  -9  198.54   15.68
  -5  -4  -9  159.21    8.92
   5  -4  -9  180.59   10.96
  -5   4  -8   39.77    6.89
  -5  -4  -8   30.20    5.40
  -5   4  -8   27.70    5.47
  -5  -4  -8   28.16    3.82
   5  -4  -8   28.16    4.43
  -5  -4  -7  104.52    9.89
  -5   4  -7  105.61   10.64
   5  -4  -7  104.38    8.40
  -5  -4  -7  103.15    7.74
  -5   4  -7  101.55   11.14
  -5   4  -6  305.90   17.36
  -5  -4  -6  321.44   17.05
  -5   4  -6  292.29   18.39
  -5  -4  -6  295.46   13.47
  -5  -4  -5   89.69    7.40
  -5  -4  -5   84.06    8.47
  -5   4  -5   91.47   10.19
  -5   4  -5   67.90    8.02
  -5  -4  -4  163.99   10.54
  -5  -4  -4  166.11   12.09
  -5   4  -4  174.72   12.85
  -5   4  -4  160.03   13.46
  -5   4  -3    5.17    2.71
  -5  -4  -3   12.19    2.81
  -5  -4  -3    6.48    2.35
  -5   4  -3    7.05    2.18
  -5  -4  -3    8.03    1.54
  -5  -4  -2   47.65    6.41
  -5  -4  -2   41.94    5.45
  -5   4  -2   49.93    6.69
  -5   4  -2   39.69    6.82
  -5  -4  -1    1.56    2.07
  -5   4  -1    4.55    3.16
  -5   4  -1    0.58    1.31
  -5  -4  -1    2.89    0.95
  -5   4   0  109.79   10.81
  -5  -4   0  114.79    9.62
  -5  -4   0  112.02    9.73
  -5   4   0  120.64   10.32
  -5   4   1    1.49    2.05
  -5  -4   1    4.83    2.87
  -5   4   1    0.15    1.73
  -5  -4   1    4.03    2.40
  -5   4   2   50.53    7.55
  -5   4   2   52.80    6.50
  -5  -4   2   58.00    6.98
  -5  -4   2   34.57    5.57
  -5   4   3   10.34    3.70
  -5  -4   3    7.73    3.37
  -5  -4   3    7.99    3.42
  -5   4   3    7.64    2.66
  -5   4   4  185.36   13.81
  -5  -4   4  179.05   12.33
  -5  -4   4  168.45   12.54
  -5   4   4  168.99   12.05
  -5   4   5   71.14    8.75
  -5  -4   5   77.28    8.15
  -5  -4   5   95.72    9.40
  -5   4   5   88.72    8.83
  -5   4   6  308.85   16.45
  -5   4   6  312.44   17.70
  -5  -4   6  316.61   16.60
  -5  -4   6  308.92   17.34
  -5   4   7   88.27    9.61
  -5  -4   7  100.48    9.22
  -5  -4   7  122.11   11.02
  -5  -4   8   28.08    5.22
  -5  -4   8   34.68    5.44
  -5   4   8   26.58    5.31
  -5   4   9  194.22   14.17
  -5  -4   9  169.13   12.23
  -5   4  10   30.24    5.29
  -5  -4  10   31.96    5.88
  -5  -4  10   21.01    4.75
  -5  -4  11   82.88    9.48
  -5  -4  11   66.37    7.71
  -5   4  11   67.79    8.57
  -5  -4  12  287.90   18.22
  -5   4  12  313.29   18.95
  -5  -4  12  308.57   16.84
  -5  -4  13  167.74   13.82
  -5   4  13  205.88   15.45
  -5  -4  13  185.25   13.51
  -5  -4  14   24.12    5.51
  -5  -4  14   24.75    5.43
  -5   4  14   40.68    7.01
  -5  -4  15  100.60   11.33
  -5   4  15   84.19   10.76
  -5  -4  15   91.61    9.59
  -5  -4  16  164.89   14.37
  -5   4  16  170.12   15.29
  -5  -4  16  168.05   12.97
  -5  -4  17  446.75   21.79
  -5  -4  17  451.27   24.64
  -5  -4  18   21.07    4.98
  -5  -4  19   11.97    4.29
  -5  -4  20  147.42   14.41
  -5  -4  21   44.42    8.62
  -5  -4  22   16.90    5.30
  -5  -4  23   47.63    9.30
  -5  -4  24  118.66   13.62
  -5  -4  25   15.21    6.12
  -5  -4  26   -0.47    4.63
  -5   5 -27   12.09    3.50
  -5   5 -26   13.72    4.49
  -5   5 -25   17.28    5.01
  -5   5 -24  136.58   15.82
  -5   5 -23   14.92    4.19
  -5   5 -22   18.07    5.80
   5   5 -21   87.59   11.21
  -5   5 -21   43.08    9.47
   5   5 -20  256.54   19.77
  -5   5 -20  273.84   20.73
  -5   5 -20  247.04   21.06
   5   5 -19   17.21    5.44
  -5   5 -19   32.90    7.64
  -5   5 -19   16.06    5.05
   5   5 -18   31.62    6.78
  -5   5 -18   24.06    5.93
  -5   5 -18   15.12    4.48
   5   5 -17  112.22   12.30
  -5   5 -17   82.51   11.36
  -5   5 -17  114.73   12.87
  -5  -5 -16    0.09    2.00
  -5   5 -16    2.53    3.22
   5   5 -16    5.74    4.17
  -5   5 -16    0.69    2.27
  -5  -5 -15  203.34   16.01
  -5   5 -15  216.09   18.47
   5   5 -15  193.43   15.85
  -5   5 -15  208.38   17.02
  -5   5 -14  121.07   12.59
  -5   5 -14   89.29   11.98
   5   5 -14  118.70   12.16
  -5  -5 -14   88.58   10.25
  -5  -5 -13   10.01    3.77
   5   5 -13    5.90    2.54
  -5   5 -13    6.98    3.81
  -5   5 -13    4.01    4.41
  -5  -5 -12   33.38    6.27
  -5   5 -12   25.28    6.12
   5   5 -12   20.47    5.60
  -5   5 -12   22.51    6.10
  -5  -5 -11  216.94   15.59
   5   5 -11  243.75   16.48
   5  -5 -11  238.50   14.68
  -5   5 -11  229.75   18.23
  -5   5 -11  263.81   18.19
  -5   5 -10   78.33   10.00
  -5  -5 -10   84.47   10.04
   5  -5 -10   83.98    8.79
   5   5 -10  104.29   10.67
  -5   5 -10   88.23   11.65
  -5  -5  -9  172.84   13.59
   5   5  -9  168.57   12.87
  -5   5  -9  146.53   13.24
  -5   5  -9  172.71   15.51
   5  -5  -9  143.72   11.27
  -5  -5  -8   32.80    5.62
   5   5  -8   43.12    6.57
   5  -5  -8   42.26    6.05
  -5   5  -8   29.23    6.16
  -5   5  -8   28.54    6.24
  -5  -5  -8   35.86    5.08
  -5   5  -7   34.78    6.59
  -5  -5  -7   39.71    5.41
  -5  -5  -7   29.80    5.71
   5  -5  -7   28.11    4.65
  -5   5  -7   31.84    6.32
  -5   5  -6  532.97   26.53
  -5   5  -6  543.13   24.65
   5  -5  -6  473.88   20.44
  -5  -5  -6  488.50   19.64
  -5  -5  -6  441.97   21.19
  -5   5  -5  242.05   15.99
  -5  -5  -5  213.71   14.60
  -5  -5  -5  244.31   14.23
   5  -5  -5  250.75   14.84
  -5   5  -5  250.37   18.11
  -5   5  -4   19.84    4.06
   5  -5  -4   21.17    4.67
  -5  -5  -4   20.18    4.60
  -5  -5  -4   11.42    3.67
  -5   5  -4   12.99    3.77
  -5  -5  -3   31.05    5.51
  -5  -5  -3   33.82    5.59
  -5   5  -3   31.12    5.51
  -5   5  -3   41.03    7.48
  -5  -5  -2   28.94    4.85
  -5   5  -2   31.32    6.05
  -5   5  -2   31.79    5.94
  -5  -5  -2   25.91    5.32
  -5  -5  -1   72.64    8.10
  -5  -5  -1   66.72    8.02
  -5   5  -1   70.20    8.59
  -5   5  -1   50.01    8.29
  -5  -5   0  294.56   17.16
  -5   5   0  292.06   17.04
  -5   5   0  305.39   19.50
  -5  -5   0  250.05   15.31
  -5   5   1   79.62    8.80
  -5  -5   1   62.24    8.12
  -5  -5   1   64.45    7.96
  -5   5   1   56.82    8.19
  -5  -5   2   30.71    5.39
  -5   5   2   42.98    6.63
  -5  -5   2   33.47    5.84
  -5   5   2   43.48    6.91
  -5  -5   3   45.94    6.28
  -5  -5   3   51.98    7.30
  -5   5   3   35.04    5.90
  -5   5   3   39.49    6.98
  -5  -5   4   33.73    5.82
  -5   5   4   24.22    5.92
  -5  -5   4   24.17    4.62
  -5   5   4   17.12    4.10
  -5   5   5  260.37   17.71
  -5  -5   5  207.24   14.48
  -5  -5   5  245.17   16.20
  -5   5   5  234.51   14.98
  -5   5   6  574.38   26.02
  -5  -5   6  529.49   22.96
  -5  -5   6  491.22   23.11
  -5   5   6  555.74   23.33
  -5   5   7   32.00    6.26
  -5  -5   7   45.68    7.27
  -5  -5   7   33.27    6.56
  -5   5   7   34.75    6.28
  -5  -5   8   33.57    6.03
  -5  -5   8   38.71    7.12
  -5   5   8   37.98    7.60
  -5   5   8   32.29    5.38
  -5   5   9  173.89   14.85
  -5  -5   9  144.62   11.99
  -5  -5   9  157.29   13.21
  -5   5   9  134.21   11.68
  -5   5  10  112.12   11.97
  -5  -5  10   86.40    9.12
  -5  -5  10   89.55   10.25
  -5   5  11  229.01   17.25
  -5  -5  11  247.20   16.27
  -5  -5  11  220.32   16.66
  -5   5  12   24.58    5.75
  -5  -5  12   21.83    5.35
  -5  -5  12   30.22    5.99
  -5   5  13   12.95    4.47
  -5  -5  13    8.13    3.76
  -5  -5  13    4.51    2.99
  -5   5  14  120.87   12.81
  -5  -5  14  102.54   11.56
  -5  -5  14   90.32   10.40
  -5   5  15  219.29   17.65
  -5  -5  15  197.37   16.63
  -5  -5  15  229.40   16.43
  -5  -5  16    1.74    1.98
  -5  -5  16    5.82    2.70
  -5  -5  17  108.48   12.33
  -5  -5  17   91.33   10.96
  -5  -5  18   20.04    5.72
  -5  -5  18   21.28    5.66
  -5  -5  19   13.91    4.90
  -5  -5  20  196.17   17.23
  -5  -5  21   55.19    8.86
   5  -5  21   72.79   11.05
   5  -5  22   32.92    8.31
  -5  -5  22   37.05    7.77
  -5  -5  23   26.09    6.38
   5  -5  23   14.74    4.65
  -5  -5  24  104.60   13.34
  -5  -5  25   27.00    7.16
  -5  -5  26   22.35    7.33
  -5   6 -25   10.26    4.51
  -5   6 -24   26.22    6.73
  -5   6 -23   -3.42    3.14
  -5   6 -22   24.93    6.73
   5   6 -22   28.13    7.14
  -5   6 -21    1.38    4.00
   5   6 -21    1.48    3.30
  -5   6 -20    1.01    5.17
   5   6 -20    9.47    4.72
  -5   6 -20    8.79    3.80
   5   6 -19    0.30    3.23
  -5   6 -19    0.53    3.65
  -5   6 -19    0.51    2.37
   5   6 -18    6.24    2.88
  -5   6 -18    0.42    2.08
  -5   6 -17   35.52    7.52
   5   6 -17   41.07    8.06
  -5   6 -17   35.54    8.31
   5   6 -16   98.23   11.88
  -5   6 -16  104.03   12.47
  -5   6 -16   94.84   13.05
  -5  -6 -15   69.96    9.92
  -5   6 -15   95.82   12.89
   5   6 -15   84.26   11.07
  -5   6 -15   69.01   10.42
  -5  -6 -14   21.36    5.65
   5   6 -14   29.80    7.21
  -5   6 -14   13.55    4.90
  -5   6 -14   15.53    4.90
  -5  -6 -13   22.58    6.28
   5   6 -13   26.42    5.95
  -5   6 -13   24.47    5.77
  -5   6 -13   30.86    8.14
  -5  -6 -12  140.06   13.53
   5   6 -12  161.62   14.12
  -5   6 -12  123.98   13.19
  -5   6 -12  135.86   14.93
  -5  -6 -11   14.21    4.11
   5   6 -11   17.33    4.70
  -5   6 -11   13.96    4.95
  -5   6 -11   23.71    6.68
  -5  -6 -10   12.38    3.95
   5   6 -10    8.30    2.85
   5  -6 -10    9.25    3.13
  -5   6 -10   11.83    4.25
  -5   6 -10    9.77    3.31
  -5  -6  -9   67.21    8.97
   5   6  -9   60.62    7.89
   5  -6  -9   55.55    8.12
  -5   6  -9   41.02    7.44
  -5   6  -9   38.39    7.93
  -5  -6  -8   53.37    7.93
   5  -6  -8   74.17    9.05
  -5   6  -8   60.63    9.20
   5   6  -8   47.01    6.98
  -5   6  -8   42.19    9.00
  -5  -6  -7  179.29   14.42
  -5  -6  -7  181.85   13.21
  -5   6  -7  180.22   16.37
   5  -6  -7  191.35   14.37
  -5   6  -7  232.22   17.02
  -5  -6  -6   12.94    4.06
  -5   6  -6    7.35    3.60
  -5   6  -6    5.20    2.59
   5  -6  -6   11.57    3.67
  -5  -6  -6   12.22    3.89
  -5  -6  -5   18.87    4.12
  -5  -6  -5   14.31    4.51
  -5   6  -5   14.54    4.65
   5  -6  -5   24.20    4.26
  -5   6  -5   30.16    6.60
  -5  -6  -4  242.40   15.62
  -5  -6  -4  268.19   17.57
   5  -6  -4  261.27   16.64
  -5   6  -4  225.09   16.72
  -5   6  -4  239.03   18.28
  -5   6  -3   50.02    7.61
  -5  -6  -3   49.39    7.18
   5  -6  -3   57.07    7.59
  -5  -6  -3   40.64    6.82
  -5   6  -3   32.19    6.94
  -5  -6  -2   93.21   10.03
  -5   6  -2   85.94   10.96
  -5  -6  -2   99.69   10.80
   5  -6  -2   95.40   10.33
  -5   6  -2   94.71   10.35
   5  -6  -1  161.19   13.39
  -5  -6  -1  126.00   12.13
  -5  -6  -1  119.30   11.35
  -5   6  -1  142.41   12.27
  -5   6  -1  136.66   14.23
   5  -6   0  122.12   11.87
  -5  -6   0  142.99   12.79
  -5   6   0  127.40   12.01
  -5  -6   0  117.91   11.34
  -5   6   0  148.88   14.54
  -5   6   1  120.01   11.49
  -5  -6   1  119.40   11.63
  -5  -6   1  134.28   12.13
  -5   6   1  151.63   14.51
   5  -6   1  139.25   12.59
  -5   6   2   82.95    9.46
  -5  -6   2   96.91   10.67
  -5  -6   2   96.68   10.57
   5  -6   2   86.11    9.90
  -5   6   2   95.99   11.07
  -5  -6   3   45.24    7.39
  -5   6   3   44.11    8.03
  -5   6   3   44.57    7.11
  -5  -6   3   49.81    7.84
   5  -6   3   45.17    7.52
  -5  -6   4  275.10   17.83
  -5   6   4  223.42   16.15
  -5  -6   4  257.35   17.41
  -5   6   4  231.11   17.88
  -5   6   5   10.63    5.07
  -5  -6   5   29.95    6.01
  -5  -6   5   28.87    5.85
  -5   6   5   22.66    5.54
  -5  -6   6    9.73    4.47
  -5  -6   6   15.39    3.65
  -5   6   6    7.29    2.03
  -5  -6   7  223.84   16.20
  -5  -6   7  171.94   14.64
  -5   6   7  172.54   13.94
  -5   6   7  205.85   16.89
  -5  -6   8   44.71    7.80
  -5  -6   8   71.51    9.10
  -5   6   8   48.03    7.36
  -5   6   8   48.98    8.89
  -5   6   9   55.53    8.02
  -5  -6   9   54.03    8.27
  -5  -6   9   50.26    8.18
  -5  -6  10   15.78    4.81
  -5   6  10   13.08    5.15
  -5   6  10   13.84    4.64
  -5  -6  10   15.17    4.63
  -5   6  11   14.76    5.35
  -5  -6  11   19.47    3.67
  -5   6  11   12.43    2.91
  -5  -6  11   27.27    6.17
  -5  -6  12  152.26   13.94
  -5  -6  12  149.97   14.42
  -5   6  12  140.65   13.38
  -5   6  12  162.65   15.97
  -5   6  13   23.24    6.46
  -5  -6  13   21.97    5.11
  -5  -6  13   17.42    5.12
  -5   6  13   26.07    5.86
  -5   6  14   25.82    7.46
  -5  -6  14   26.08    5.84
  -5  -6  14    8.95    3.32
  -5  -6  15   70.68    9.54
  -5  -6  15   74.77   10.24
   5  -6  15   93.25   11.31
  -5  -6  16  104.57   12.68
  -5  -6  16   93.09   11.18
   5  -6  16   89.49   11.73
  -5  -6  17   30.14    6.70
  -5  -6  17   36.03    7.70
   5  -6  17   41.17    8.46
  -5  -6  18   11.97    4.60
  -5  -6  18   20.62    6.11
   5  -6  18   29.12    6.71
  -5  -6  19    2.20    3.44
   5  -6  19   -8.00    5.10
   5  -6  20    9.68    6.44
  -5  -6  20    7.89    3.72
   5  -6  21   11.98    6.14
  -5  -6  21    5.59    4.54
  -5  -6  22   18.26    5.49
   5  -6  22   15.84    6.11
  -5  -6  23    2.15    4.01
   5  -6  23   -6.20    5.16
  -5  -6  24   19.76    5.57
  -5  -6  25   26.20    8.58
  -5   7 -23    0.55    2.73
  -5   7 -22   43.88    9.17
   5   7 -21  108.84   13.34
  -5   7 -21  131.69   15.38
   5   7 -20   48.67   10.18
  -5   7 -20   63.98   10.95
  -5   7 -19   78.84   12.53
  -5   7 -19   73.42   11.09
   5   7 -19   81.57   12.61
   5   7 -18  116.42   13.24
  -5   7 -18  104.05   14.17
  -5   7 -18   77.78   11.81
   5   7 -17   99.24   13.20
  -5   7 -17  101.36   13.02
  -5   7 -17  116.70   15.07
  -5   7 -16  109.87   14.16
  -5   7 -16  116.58   13.72
   5   7 -16  144.76   15.06
  -5  -7 -15    9.32    4.98
   5   7 -15   16.52    5.99
  -5   7 -15    5.27    4.28
  -5   7 -15    1.22    2.48
  -5  -7 -14   59.34    9.61
   5   7 -14   58.71   10.18
  -5   7 -14   71.38   10.71
  -5   7 -14   64.04   10.56
  -5  -7 -13   44.10    8.16
  -5   7 -13   56.44    9.23
  -5   7 -13   50.83    9.46
  -5  -7 -12   53.06    9.49
   5   7 -12   75.79   10.31
  -5   7 -12   77.56   10.94
  -5   7 -12   63.08   11.18
  -5  -7 -11  155.64   14.89
  -5   7 -11  175.64   17.17
   5   7 -11  172.80   15.39
  -5   7 -11  156.16   14.86
  -5   7 -10  295.22   20.80
  -5  -7 -10  290.08   19.97
  -5   7 -10  260.83   21.31
   5  -7 -10  265.59   18.47
   5   7 -10  272.39   18.47
  -5  -7  -9  137.83   13.94
   5  -7  -9  150.29   13.93
  -5   7  -9  139.93   14.02
  -5   7  -9  152.55   16.19
   5   7  -9  155.67   13.72
  -5  -7  -8  165.38   14.71
   5  -7  -8  176.88   14.77
  -5   7  -8  201.77   16.40
  -5   7  -8  164.02   16.23
  -5  -7  -7  179.50   15.45
   5  -7  -7  171.25   14.50
  -5   7  -7  154.91   15.99
  -5  -7  -6   97.68   11.25
   5  -7  -6  103.45   10.99
  -5   7  -6   93.18   11.37
  -5   7  -6   95.35   12.11
  -5  -7  -6   84.49   10.54
  -5  -7  -5  196.40   15.83
  -5   7  -5  171.57   16.42
   5  -7  -5  168.06   14.14
  -5   7  -5  201.64   16.61
  -5  -7  -5  184.76   14.76
  -5  -7  -4   45.16    7.38
  -5  -7  -4   61.08    8.93
   5  -7  -4   65.37    9.37
  -5   7  -4   48.58    7.83
  -5   7  -4   55.81    8.89
  -5   7  -3    1.26    2.62
  -5  -7  -3    4.30    3.46
  -5  -7  -3    2.72    2.91
   5  -7  -3    3.86    3.62
  -5   7  -3    0.15    2.73
  -5   7  -2   37.62    6.85
  -5  -7  -2   46.72    8.30
  -5  -7  -2   35.89    6.54
   5  -7  -2   56.28    8.47
  -5   7  -2   48.36    8.86
  -5   7  -1  153.07   14.02
  -5   7  -1  128.13   13.64
  -5  -7  -1  149.09   13.52
   5  -7  -1  128.50   12.36
  -5  -7  -1  138.73   13.30
  -5   7   0   30.06    6.87
  -5  -7   0   20.33    5.45
  -5  -7   0   26.20    5.65
  -5   7   0   38.95    6.94
   5  -7   0   28.98    5.21
  -5  -7   1  157.71   14.41
  -5   7   1  116.98   11.91
  -5  -7   1  142.50   13.38
   5  -7   1  151.98   13.54
  -5   7   1  125.99   13.67
  -5   7   2   42.81    7.24
  -5  -7   2   52.21    8.43
  -5  -7   2   38.80    7.18
  -5   7   2   51.36    8.61
   5  -7   2   36.88    7.02
  -5   7   3    4.86    4.67
   5  -7   3   -1.41    1.73
  -5  -7   3    2.38    3.00
  -5  -7   3    5.38    2.79
  -5   7   3    1.70    1.95
  -5   7   4   57.49    9.03
  -5  -7   4   55.15    8.66
   5  -7   4   53.62    7.89
  -5   7   4   55.78    8.22
  -5  -7   4   74.88   10.28
   5  -7   5  179.21   15.24
  -5  -7   5  183.24   15.63
  -5  -7   5  185.20   15.54
  -5   7   5  171.25   14.47
  -5   7   5  191.84   16.99
  -5  -7   6  102.22   11.60
   5  -7   6  103.82   11.61
  -5   7   6   83.31   10.06
  -5  -7   6   88.05   11.22
  -5   7   6   90.56   12.01
  -5  -7   7  194.03   16.75
  -5  -7   7  226.95   17.34
  -5   7   7  190.17   15.37
   5  -7   7  218.21   17.35
  -5   7   7  257.94   20.09
   5  -7   8  157.32   14.93
  -5  -7   8  138.34   13.64
  -5   7   8  160.03   16.23
  -5  -7   8  161.83   15.38
  -5  -7   9  168.49   15.89
  -5  -7   9  160.34   14.91
   5  -7   9  169.17   15.09
  -5   7   9  162.04   16.18
  -5  -7  10  288.27   20.74
  -5  -7  10  240.07   18.21
   5  -7  10  277.46   19.52
  -5   7  10  250.64   20.40
  -5  -7  11  140.91   14.15
   5  -7  11  162.14   15.87
  -5  -7  11  147.80   14.91
  -5   7  11  167.22   16.58
  -5  -7  12   68.59   10.09
  -5  -7  12   80.79   10.95
   5  -7  12   52.50    8.57
  -5   7  12   95.71   12.33
  -5  -7  13   81.23   10.83
  -5  -7  13   69.91   10.84
   5  -7  13   79.52   11.54
  -5   7  13   69.02   11.34
  -5  -7  14   55.83    9.02
  -5  -7  14   63.49   10.41
   5  -7  14   66.39   10.01
  -5  -7  15    1.97    2.94
   5  -7  15   10.26    4.75
  -5  -7  15    8.41    4.18
  -5  -7  16  115.65   13.16
  -5  -7  16  119.89   13.93
   5  -7  16  128.17   14.98
  -5  -7  17   97.98   13.06
  -5  -7  17  131.00   14.87
   5  -7  17  137.37   15.06
  -5  -7  18  144.53   15.13
   5  -7  18  119.16   13.80
  -5  -7  19   69.85   10.94
  -5  -7  19   74.79   11.49
   5  -7  19   93.72   13.03
   5  -7  20   70.44   11.49
  -5  -7  20   49.21    8.96
  -5  -7  21   98.91   13.08
   5  -7  21  118.23   14.51
   5  -7  22   36.64    9.23
  -5  -7  22   54.15    9.80
  -5  -7  23    7.08    5.81
   5  -7  23   -1.02    4.22
  -5   8 -21   10.31    6.14
  -5   8 -20    5.33    3.69
  -5   8 -19    4.94    4.42
   5   8 -19   -1.00    3.07
  -5   8 -19    4.28    5.24
  -5   8 -18   -0.48    3.71
  -5   8 -18    0.53    2.82
  -5   8 -17   23.19    8.12
   5   8 -17   22.34    6.45
  -5   8 -17   10.05    3.95
  -5   8 -16   11.22    5.75
   5   8 -16   13.26    4.82
  -5   8 -16   23.01    7.28
  -5   8 -15   73.20   10.91
  -5   8 -15   51.56   10.36
   5   8 -14   17.83    6.75
  -5   8 -14    0.09    3.40
  -5   8 -14   18.38    7.43
  -5  -8 -14   15.92    4.51
  -5  -8 -13    5.16    3.87
   5   8 -13    0.67    3.60
  -5   8 -13    1.28    3.46
  -5   8 -13    3.39    2.95
  -5  -8 -12   16.56    4.69
   5   8 -12   21.70    5.53
  -5   8 -12   14.43    5.40
  -5  -8 -11    3.72    3.30
   5   8 -11   -0.96    2.54
  -5   8 -11   -1.22    3.43
  -5   8 -11   -0.63    2.77
  -5  -8 -10   22.63    6.17
  -5   8 -10   19.01    5.43
  -5   8 -10   28.29    7.41
  -5  -8  -9    0.03    1.77
  -5   8  -9   -1.69    3.94
   5  -8  -9   -1.45    3.33
  -5   8  -9   -5.02    5.90
  -5  -8  -8   40.30    8.09
   5  -8  -8   38.85    7.23
  -5   8  -8   41.57    8.13
  -5   8  -8   34.02    8.38
  -5   8  -7   45.39    8.46
   5  -8  -7   44.83    8.20
  -5   8  -7   43.19    8.83
  -5  -8  -7   55.23    8.98
  -5  -8  -6   68.64    9.97
   5  -8  -6   82.98   10.76
  -5   8  -6   81.30   10.53
  -5   8  -6   67.00   11.09
  -5  -8  -5    0.24    3.16
  -5  -8  -5    0.54    1.48
   5  -8  -5    6.34    4.57
  -5   8  -5    1.87    2.07
  -5   8  -5    0.93    3.55
   5  -8  -4   39.47    7.51
  -5  -8  -4   49.73    8.32
  -5  -8  -4   37.71    7.10
  -5   8  -4   48.74    9.60
  -5   8  -4   43.19    8.03
  -5  -8  -3    6.01    3.25
   5  -8  -3    6.05    2.59
  -5   8  -3    9.23    3.96
  -5   8  -3    3.07    2.91
  -5  -8  -3   14.13    4.62
  -5  -8  -2   43.10    8.33
   5  -8  -2   34.58    7.01
  -5   8  -2   30.12    6.06
  -5  -8  -2   53.90    9.29
  -5   8  -2   16.47    5.07
  -5   8  -1    7.43    3.60
  -5  -8  -1   12.79    4.66
  -5  -8  -1   12.44    4.08
   5  -8  -1    7.56    2.70
  -5   8  -1   12.49    5.34
  -5  -8   0  169.92   15.83
   5  -8   0  209.58   17.18
  -5   8   0  204.38   16.95
  -5   8   0  171.01   17.10
  -5  -8   0  177.75   16.03
  -5  -8   1    9.88    5.52
  -5  -8   1    8.76    3.83
  -5   8   1    9.20    3.76
   5  -8   1   10.13    4.73
  -5   8   1   10.94    3.37
  -5  -8   2   30.57    6.99
   5  -8   2   24.47    6.07
  -5   8   2   44.56    8.52
  -5  -8   2   39.99    7.82
  -5   8   2   20.93    7.00
   5  -8   3   18.10    5.20
  -5  -8   3    0.09    2.86
  -5  -8   3   10.57    3.84
  -5   8   3   13.33    5.19
  -5  -8   4   36.73    6.82
   5  -8   4   40.10    7.48
  -5  -8   4   38.68    8.14
  -5   8   4   51.79    9.10
  -5  -8   5    4.72    4.21
  -5  -8   5    2.18    3.25
   5  -8   5   -0.86    2.01
  -5   8   5    1.81    2.33
  -5  -8   6   84.47   11.15
   5  -8   6   88.19   11.23
  -5   8   6  101.16   13.12
  -5  -8   6   77.43   11.02
  -5  -8   7   46.71    8.29
   5  -8   7   56.20    8.82
  -5  -8   7   47.78    8.45
  -5   8   7   74.74   11.69
  -5   8   8   35.52    8.26
   5  -8   8   32.98    6.82
  -5  -8   8   54.95    9.02
  -5  -8   8   40.25    8.39
  -5  -8   9   -0.69    2.69
   5  -8   9   -1.51    2.73
  -5   8   9   -2.11    3.24
  -5  -8   9    0.89    2.62
   5  -8  10   17.28    5.11
  -5  -8  10   20.15    6.15
  -5  -8  10   20.38    4.89
  -5   8  10   13.24    5.05
   5  -8  11    3.19    3.30
  -5  -8  11   -2.11    4.45
  -5  -8  11    3.45    3.38
  -5   8  11    2.23    2.49
  -5  -8  12   32.54    6.80
   5  -8  12   39.24    8.64
  -5  -8  12   28.86    6.98
  -5  -8  13   -0.08    3.51
   5  -8  13    6.47    4.07
  -5  -8  13    3.00    2.53
  -5  -8  14   12.52    4.65
   5  -8  14    9.90    4.01
  -5  -8  14    8.66    4.58
  -5  -8  15   67.86   10.46
  -5  -8  15   83.08   11.85
   5  -8  15   73.06   11.16
  -5  -8  16   33.13    7.48
  -5  -8  16   23.40    6.39
   5  -8  16   20.24    6.20
  -5  -8  17   35.87    8.35
  -5  -8  17   33.21    7.70
   5  -8  17   21.71    5.41
  -5  -8  18    2.21    3.45
  -5  -8  18    3.46    4.01
   5  -8  18   -0.77    4.67
  -5  -8  19    0.53    2.94
  -5  -8  19   -3.24    3.66
   5  -8  19   -3.26    2.58
  -5  -8  20    2.76    1.99
   5  -8  20    0.30    3.98
  -5  -8  21    1.40    4.49
   5  -8  21    7.59    6.55
  -5   9 -18   38.28    8.73
  -5   9 -18   55.20   11.21
  -5   9 -17   69.71   11.72
  -5   9 -17   60.36   11.96
  -5   9 -16  111.29   14.22
  -5   9 -16  123.54   16.79
  -5   9 -15   16.97    7.01
  -5   9 -15   21.73    7.76
  -5   9 -14   16.29    5.07
  -5   9 -14   23.77    6.83
  -5  -9 -13   22.34    6.63
  -5   9 -13   17.92    6.36
  -5   9 -13   30.22    7.14
  -5   9 -12   78.40   11.82
  -5   9 -12   91.35   12.38
  -5  -9 -12   92.81   12.64
  -5  -9 -11  106.93   13.65
  -5   9 -11   88.17   12.17
  -5   9 -11  103.26   14.29
  -5   9 -10   97.40   13.12
  -5  -9 -10   90.66   12.43
  -5   9 -10  116.71   15.28
  -5  -9  -9   82.32   10.93
  -5   9  -9   78.25   11.01
  -5   9  -9   88.29   12.62
  -5   9  -8   64.81   11.89
  -5   9  -8   47.76    8.59
  -5  -9  -8   62.79    9.96
   5  -9  -8   48.22    8.92
  -5  -9  -7  167.90   16.25
  -5   9  -7  196.40   20.21
   5  -9  -7  166.20   16.49
  -5   9  -7  159.74   16.88
  -5  -9  -6   31.41    7.38
   5  -9  -6   57.77   10.04
  -5   9  -6   44.34    9.25
  -5   9  -6   65.79   11.25
  -5   9  -5  217.34   18.11
  -5  -9  -5  223.25   18.73
   5  -9  -5  204.00   17.97
  -5   9  -5  183.76   18.35
  -5  -9  -4   83.15   11.54
   5  -9  -4   92.31   11.66
  -5   9  -4   87.91   12.17
  -5  -9  -4  113.42   14.46
  -5   9  -4   60.66   11.24
  -5  -9  -3    2.75    2.61
  -5  -9  -3    5.08    4.63
   5  -9  -3    0.09    1.54
  -5   9  -3    0.99    2.17
  -5  -9  -2   45.40    8.63
  -5  -9  -2   20.74    5.82
   5  -9  -2   38.85    7.79
  -5   9  -2   43.82    9.23
  -5  -9  -1  226.11   18.79
   5  -9  -1  236.72   18.85
  -5   9  -1  223.28   20.58
  -5  -9  -1  209.34   18.25
  -5  -9   0   76.99   11.21
   5  -9   0   77.20   10.58
  -5   9   0   68.46   11.44
  -5  -9   0   86.49   12.02
  -5  -9   1  248.19   19.71
   5  -9   1  224.65   18.88
  -5  -9   1  225.94   19.04
  -5   9   1  176.61   18.00
  -5   9   2   29.04    8.50
  -5  -9   2   47.90    8.82
  -5  -9   2   37.21    8.06
   5  -9   2   40.24    8.10
  -5  -9   3   -2.26    2.17
   5  -9   3    3.59    3.20
  -5  -9   3    5.53    3.56
  -5   9   3   -1.26    4.19
  -5  -9   4   92.52   12.07
   5  -9   4   81.00   11.90
  -5   9   4   97.02   13.40
  -5  -9   4   97.83   12.74
  -5  -9   5  187.09   17.28
   5  -9   5  202.35   17.85
  -5   9   5  181.94   19.01
  -5  -9   5  198.49   18.27
  -5  -9   6   47.61    9.22
   5  -9   6   49.99    8.51
  -5   9   6   50.35   10.14
  -5  -9   6   58.16    9.63
  -5  -9   7  165.27   16.37
   5  -9   7  180.69   16.84
  -5  -9   7  171.63   17.06
  -5   9   7  191.61   19.66
  -5  -9   8   52.38    9.64
  -5  -9   8   60.65   10.73
   5  -9   8   71.43   10.74
  -5   9   8   59.75   12.06
  -5  -9   9   83.31   11.70
   5  -9   9   71.13   11.43
  -5   9   9   84.75   13.04
  -5  -9   9   79.39   11.62
  -5  -9  10   93.48   11.97
   5  -9  10  116.00   13.97
  -5  -9  10  138.70   15.26
  -5   9  10  120.19   16.04
  -5  -9  11   92.28   13.02
  -5  -9  11   89.11   12.50
   5  -9  11  102.20   13.24
  -5  -9  12   91.39   12.51
   5  -9  12   86.48   12.79
  -5  -9  12   92.15   13.09
  -5  -9  13   26.23    7.72
   5  -9  13   43.12    8.68
  -5  -9  13   37.99    9.14
  -5  -9  14   17.57    5.32
   5  -9  14    7.30    2.90
  -5  -9  14   18.34    6.20
  -5  -9  15   24.43    6.07
  -5  -9  15   20.38    6.40
   5  -9  15   30.76    7.80
  -5  -9  16  107.51   13.52
  -5  -9  16  127.48   15.39
   5  -9  16  133.49   16.00
  -5  -9  17   86.38   12.87
  -5  -9  17   86.96   12.51
   5  -9  17   72.08   12.57
   5  -9  18   50.04    9.81
  -5  -9  18   38.89    9.09
  -5  -9  18   57.20   10.05
  -5  10 -14    4.61    4.55
  -5  10 -14    0.64    3.97
  -5  10 -13   -3.53    4.90
  -5  10 -13   -3.35    3.53
  -5 -10 -12    2.22    3.47
  -5  10 -12   -1.59    4.09
  -5  10 -11    5.34    6.05
  -5  10 -11    2.18    3.16
  -5 -10 -11    3.43    3.98
  -5 -10 -10   42.55    9.23
  -5  10 -10   62.88   11.72
  -5 -10  -9    4.57    4.32
  -5  10  -9   -1.15    3.48
  -5 -10  -8    0.54    3.81
   5 -10  -8   -2.75    5.03
  -5  10  -8    3.88    4.11
  -5 -10  -7    2.77    2.87
   5 -10  -7   17.12    6.35
  -5  10  -7   13.68    5.14
  -5 -10  -6    3.94    3.55
   5 -10  -6   -1.64    2.59
  -5  10  -6    0.40    2.67
  -5 -10  -5   15.87    6.65
   5 -10  -5   15.39    6.35
  -5  10  -5   13.85    6.53
   5 -10  -4   -1.04    3.12
  -5  10  -4    5.17    2.79
  -5 -10  -4    3.15    4.25
   5 -10  -3    3.27    2.94
  -5  10  -3    5.95    3.01
  -5 -10  -3   13.43    5.32
  -5 -10  -2   25.72    7.64
  -5 -10  -2   41.65    8.90
   5 -10  -2   33.51    7.80
  -5  10  -2   21.46    7.70
  -5 -10  -1   38.96    8.56
  -5 -10  -1   35.28    8.08
   5 -10  -1   32.98    7.81
  -5  10  -1   29.66    7.10
   5 -10   0    3.64    3.65
  -5 -10   0   -2.60    4.76
  -5 -10   0    1.40    3.21
  -5  10   0    1.24    4.42
  -5 -10   1   39.76    8.76
  -5 -10   1   25.58    6.96
   5 -10   1   24.66    7.46
  -5  10   1   18.61    6.12
  -5 -10   2   26.45    7.62
   5 -10   2   28.96    7.43
  -5 -10   2   26.60    6.97
  -5  10   2   21.09    7.09
   5 -10   3    7.17    3.01
  -5 -10   3    8.76    5.96
  -5 -10   3    4.91    2.55
  -5  10   3    8.09    2.97
  -5 -10   4    1.88    4.43
  -5 -10   4   -4.30    4.48
   5 -10   4   -2.27    2.01
  -5  10   4   -0.68    2.65
  -5 -10   5   20.14    6.24
  -5  10   5   15.21    5.88
  -5 -10   5   19.53    6.58
   5 -10   5   26.51    7.48
  -5 -10   6    3.25    4.40
  -5 -10   6    6.12    3.45
   5 -10   6    3.05    2.25
  -5  10   6   -3.05    2.87
   5 -10   7    9.28    2.93
  -5 -10   7   16.95    6.53
  -5 -10   7   14.90    5.20
  -5  10   7    9.67    7.53
   5 -10   8    8.80    4.25
  -5 -10   8    9.96    4.80
  -5 -10   8    1.40    4.03
  -5  10   8    5.63    5.79
  -5 -10   9   -0.11    3.28
  -5 -10   9   -0.29    2.49
   5 -10   9   -5.64    4.66
  -5 -10  10   62.12   10.81
   5 -10  10   82.49   11.47
  -5 -10  10   63.27   10.66
  -5 -10  11    2.26    2.35
  -5 -10  11    3.25    2.23
   5 -10  11    2.19    2.20
  -5 -10  12   15.05    6.71
  -5 -10  12   26.37    6.82
   5 -10  12   12.64    5.58
  -5 -10  13    4.86    2.74
   5 -10  13    2.01    3.04
  -5 -10  13   -3.87    2.97
   5 -10  14    3.70    5.07
  -5 -10  14   -1.84    2.59
  -5 -10  14   10.27    4.85
  -5 -11  -7    5.74    4.74
   5 -11  -7   16.36    5.79
  -5  11  -7    2.54    4.68
  -5 -11  -6   24.93    7.77
   5 -11  -6   15.02    2.27
  -5  11  -6   18.72    7.14
  -5 -11  -5   45.74    9.61
   5 -11  -5   52.40    9.67
  -5  11  -5   36.13    8.91
  -5 -11  -4    2.60    2.02
   5 -11  -4   18.21    6.78
  -5  11  -4   14.67    6.44
  -5 -11  -3   11.80    5.76
   5 -11  -3   15.81    6.06
  -5  11  -3    1.59    3.48
  -5 -11  -2    7.34    2.95
   5 -11  -2   17.80    5.18
  -5  11  -2    6.26    4.09
  -5 -11  -1    2.90    2.64
   5 -11  -1   15.15    6.88
  -5  11  -1    3.04    5.04
  -5 -11   0   72.94   11.00
   5 -11   0   74.17   11.31
  -5 -11   0   70.77   11.55
  -5  11   0   66.20   11.25
  -5 -11   1    4.49    4.15
  -5 -11   1    3.36    2.73
   5 -11   1    1.90    4.27
  -5  11   1    5.94    5.57
  -5 -11   2    9.60    5.02
  -5 -11   2   18.24    5.70
   5 -11   2   16.15    5.97
  -5  11   2    6.86    3.22
  -5 -11   3   -0.67    2.02
  -5 -11   3   -5.18    2.96
  -5  11   3   -5.18    5.69
  -5 -11   4    6.35    4.10
  -5 -11   4    3.23    2.94
   5 -11   4    1.22    1.87
  -5  11   4   -1.25    4.64
  -5 -11   5   41.11    8.59
  -5 -11   5   33.38    8.48
   5 -11   5   66.61   10.40
  -5  11   5   40.34    8.62
  -5 -11   6   18.11    5.55
  -5 -11   6   18.66    6.40
   5 -11   6   13.54    4.42
  -5  11   6   20.46    6.38
  -5 -11   7    0.12    2.55
   5 -11   7    3.34    4.39
  -5  11   7    0.99    3.10
  -5 -11   7   -5.75    3.01
  -6   0 -29    0.66    1.61
  -6   0 -28  401.26   27.18
  -6   0 -27  180.07   17.84
  -6   0 -26    9.74    4.75
  -6   0 -25   82.14   11.61
  -6   0 -24  293.77   21.90
  -6   0 -23   23.62    6.29
  -6   0 -22  250.94   19.00
  -6   0 -21   71.82    9.80
  -6   0 -20    8.15    2.95
  -6   0 -19   48.85    7.73
  -6   0 -18   18.60    4.30
  -6   0 -17  263.52   17.35
  -6   0 -16 2364.39   51.66
  -6   0 -15  593.87   25.58
  -6   0 -14 1383.76   30.52
  -6   0 -14 1427.15   38.59
  -6   0 -13  350.05   18.48
  -6   0 -13  340.54   15.16
  -6   0 -12  292.49   16.62
  -6   0 -12  275.73   13.92
  -6   0 -11  177.01   12.66
  -6   0 -11  168.58   10.68
  -6   0 -10  818.77   23.04
  -6   0 -10  810.10   26.95
  -6   0  -9  624.92   19.85
  -6   0  -9  646.68   23.27
  -6   0  -8  204.45   11.50
  -6   0  -8  198.52   12.78
  -6   0  -8  217.43   12.69
  -6   0  -7  143.59    9.57
  -6   0  -7  146.59   10.58
  -6   0  -7  124.69    9.56
  -6   0  -6  871.45   23.41
  -6   0  -6  843.57   25.36
  -6   0  -6  838.82   24.48
  -6   0  -5 2553.93   40.23
  -6   0  -5 2578.10   41.66
  -6   0  -4 1521.43   31.00
  -6   0  -4 1469.20   32.50
  -6   0  -4 1489.11   31.71
  -6   0  -3 1078.16   26.25
  -6   0  -3 1098.89   27.39
  -6   0  -3 1122.54   26.82
  -6   0  -2 6148.01   63.69
  -6   0  -2 6103.74   63.25
  -6   0  -2 6192.82   62.29
  -6   0  -1 2279.00   38.70
  -6   0  -1 2302.62   39.14
  -6   0   0  792.77   21.68
  -6   0   0  748.45   22.42
  -6   0   1 2256.62   39.06
  -6   0   1 2298.24   36.42
  -6   0   2 6180.46   64.72
  -6   0   2 6191.25   58.85
  -6   0   3 1095.42   27.67
  -6   0   3 1127.51   24.90
  -6   0   4 1561.47   33.72
  -6   0   4 1378.07   27.16
  -6   0   5 2641.78   36.53
  -6   0   5 2488.54   43.60
  -6   0   6  852.50   20.31
  -6   0   6  842.89   25.90
  -6   0   7  135.68   10.62
  -6   0   7  116.69    7.39
  -6   0   8  208.84   13.31
  -6   0   8  213.21    9.89
  -6   0   9  638.23   24.21
  -6   0   9  638.03   16.71
  -6   0  10  919.18   28.59
  -6   0  10  831.94   18.66
  -6   0  11  184.83   13.06
  -6   0  11  185.82    8.46
  -6   0  12  297.71   17.28
  -6   0  12  302.83   10.22
  -6   0  13  336.12   18.95
  -6   0  13  328.31    9.83
  -6   0  14 1396.43   38.59
  -6   0  15  710.57   27.80
  -6   0  16 2424.46   53.93
  -6   0  17  288.09   18.79
  -6   0  18   19.43    5.41
  -6   0  19   69.56   10.69
  -6   0  20    7.79    3.86
  -6   0  21   74.58   10.82
  -6   0  22  278.59   20.80
  -6   1 -29    9.10    3.29
  -6   1 -28   29.04    7.55
  -6   1 -27    2.83    3.53
  -6   1 -26   45.37    8.16
  -6  -1 -25   -2.05    2.05
  -6   1 -25   23.46    5.31
  -6   1 -24   24.43    5.63
  -6  -1 -24   24.22    6.76
  -6  -1 -23   85.17   11.48
  -6   1 -23  101.23   12.55
  -6  -1 -22   36.61    7.62
  -6   1 -22   42.06    8.45
  -6   1 -21   44.41    8.27
  -6  -1 -21   35.40    7.11
  -6  -1 -20  196.79   16.18
  -6   1 -20  212.94   17.35
  -6  -1 -19  102.04   11.33
  -6   1 -19   97.60   11.48
  -6   1 -18   30.35    6.37
  -6  -1 -18   34.25    6.26
  -6  -1 -17   44.14    6.95
  -6   1 -17   42.68    7.66
  -6   1 -16   35.11    6.28
  -6  -1 -16   41.60    7.10
  -6   1 -15  196.25   15.52
  -6  -1 -15  169.41   13.18
  -6   1 -15  199.94   13.81
  -6   1 -14  498.68   23.63
  -6  -1 -14  469.31   21.21
  -6  -1 -14  482.22   21.63
  -6   1 -14  507.33   21.67
  -6   1 -13   28.15    5.66
  -6  -1 -13   23.79    4.61
  -6   1 -13   41.10    6.21
  -6  -1 -13   28.64    5.46
  -6   1 -12  103.46   10.31
  -6  -1 -12  120.15   10.35
  -6   1 -12  122.53   10.27
  -6  -1 -12  116.24    9.98
  -6  -1 -11  162.84    8.80
  -6  -1 -11  145.50   11.12
  -6  -1 -11  166.86   12.07
  -6   1 -11  137.92   10.80
  -6   1 -10   12.01    3.10
  -6  -1 -10    7.22    2.28
  -6   1 -10   12.30    4.39
  -6  -1 -10    8.85    2.22
  -6  -1 -10   11.07    3.21
  -6   1  -9   86.22    8.80
  -6  -1  -9   84.89    6.55
  -6   1  -9   59.46    7.03
  -6  -1  -9   76.12    7.56
  -6  -1  -9   77.95    7.82
  -6   1  -8   71.73    7.49
  -6  -1  -8   67.41    5.92
  -6  -1  -8   69.20    7.30
  -6   1  -8   58.97    7.39
  -6  -1  -8   65.47    6.76
  -6   1  -7  452.98   18.36
  -6  -1  -7  450.74   15.48
  -6   1  -7  444.79   19.42
  -6  -1  -7  415.22   16.90
  -6  -1  -7  495.32   19.17
  -6   1  -6  649.65   22.33
  -6  -1  -6  716.54   19.71
  -6   1  -6  681.77   24.13
  -6  -1  -6  623.68   20.47
  -6  -1  -6  734.63   23.21
  -6   1  -5  791.33   24.46
  -6  -1  -5  852.45   21.84
  -6   1  -5  786.19   25.54
  -6  -1  -5  813.25   23.11
  -6  -1  -5  770.19   23.88
  -6  -1  -4  200.93   10.58
  -6   1  -4  199.71   12.25
  -6   1  -4  190.22   12.45
  -6  -1  -4  210.01   11.88
  -6  -1  -4  190.94   11.54
  -6   1  -3  140.47   10.21
  -6   1  -3  155.05   10.98
  -6  -1  -3  154.20    9.65
  -6  -1  -3  161.15    9.54
  -6  -1  -3  174.06   10.85
  -6   1  -2    1.29    1.19
  -6  -1  -2    4.71    1.74
  -6  -1  -2    5.62    1.34
  -6   1  -2    3.92    1.38
  -6  -1  -2    4.79    1.95
  -6   1  -1   24.82    4.28
  -6  -1  -1   23.03    3.64
  -6   1  -1   23.06    4.07
  -6  -1  -1   26.33    3.94
  -6  -1   0    0.46    0.80
  -6   1   0   -0.04    1.16
  -6  -1   0    3.12    1.82
  -6   1   0    0.84    1.27
  -6  -1   1   18.20    3.53
  -6  -1   1   15.48    3.53
  -6   1   1   23.24    4.09
  -6  -1   2    5.21    1.59
  -6  -1   2    3.19    2.07
  -6   1   2    5.23    2.63
  -6  -1   3  142.12    9.96
  -6   1   3  147.22   10.81
  -6  -1   4  198.88   10.73
  -6  -1   4  183.11   11.73
  -6   1   4  200.40   12.63
  -6  -1   5  830.95   24.92
  -6   1   5  845.42   26.13
  -6  -1   6  688.59   19.26
  -6  -1   6  636.87   22.53
  -6   1   6  696.39   23.65
  -6  -1   7  400.32   14.79
  -6  -1   7  439.76   18.78
  -6   1   7  398.35   18.19
  -6  -1   8   50.13    5.27
  -6   1   8   59.51    7.24
  -6  -1   8   57.39    6.82
  -6  -1   9   78.35    6.22
  -6  -1   9   68.18    7.85
  -6   1   9   86.02    8.74
  -6   1  10   11.39    3.08
  -6  -1  10    9.18    2.32
  -6  -1  10    7.51    2.44
  -6  -1  11  165.78    9.21
  -6  -1  11  178.41   13.01
  -6   1  11  157.76   12.16
  -6  -1  12  130.62    7.95
  -6   1  12  142.75   11.69
  -6  -1  13   32.02    3.98
  -6   1  13   20.93    4.89
  -6  -1  13   27.31    5.24
  -6  -1  14  512.31   15.62
  -6  -1  14  517.06   23.15
  -6   1  14  475.75   22.41
  -6  -1  15  170.08   13.84
  -6   1  15  201.99   15.32
  -6   1  16   32.51    5.89
  -6  -1  16   36.72    6.65
  -6  -1  17   39.34    7.27
  -6   1  17   51.91    8.11
  -6  -1  18   32.97    6.64
  -6   1  18   42.85    7.62
  -6  -1  19   93.69   11.41
  -6   1  19   75.35   10.45
  -6  -1  20  244.07   18.79
  -6   1  20  194.00   16.60
  -6   1  21   36.59    7.96
  -6  -1  21   43.95    8.07
  -6  -1  22   48.08    9.19
  -6  -1  23  119.62   13.74
  -6   2 -29   14.51    4.56
  -6   2 -28  139.93   15.84
  -6   2 -27   20.48    7.47
  -6   2 -26    7.62    3.63
  -6   2 -25    2.40    2.22
  -6   2 -24  104.85   12.81
  -6   2 -23   14.42    4.32
  -6   2 -22    6.93    4.58
  -6   2 -21    4.28    2.37
  -6   2 -20   60.27    9.03
  -6  -2 -20    9.64    3.49
  -6   2 -19   13.55    4.93
  -6  -2 -19   16.37    4.31
  -6  -2 -18   44.01    7.32
  -6   2 -18   26.98    6.58
  -6  -2 -17    2.86    2.48
  -6   2 -17   -2.94    2.60
  -6   2 -17    1.72    1.97
  -6  -2 -17    2.58    2.92
  -6  -2 -16  275.06   16.53
  -6   2 -16  261.85   18.42
  -6   2 -16  238.53   17.91
  -6  -2 -16  277.20   17.04
  -6  -2 -15  233.40   14.89
  -6   2 -15  230.35   16.89
  -6   2 -15  241.61   17.12
  -6  -2 -15  223.27   15.01
  -6   2 -14  766.42   29.23
  -6  -2 -14  741.52   25.77
  -6  -2 -14  702.74   26.68
  -6  -2 -13   85.32    8.31
  -6   2 -13   98.81   10.62
  -6   2 -13  101.12   10.43
  -6  -2 -13   90.59    9.14
  -6  -2 -12   92.86    9.24
  -6  -2 -12   91.63    8.51
  -6   2 -12   76.26    9.43
  -6   2 -12   92.88    9.97
  -6  -2 -11  109.29    6.38
  -6  -2 -11  122.66   10.56
  -6   2 -11  133.09   12.09
  -6   2 -11   93.38    9.95
  -6  -2 -11  108.52    8.77
  -6  -2 -10   61.98    5.21
  -6   2 -10   73.18    9.18
  -6  -2 -10   88.81    7.70
  -6   2 -10   77.81    8.63
  -6  -2 -10   60.05    7.13
  -6   2  -9   11.80    3.67
  -6  -2  -9   12.99    4.11
  -6   2  -9    7.87    3.43
  -6  -2  -9    9.69    3.00
  -6  -2  -9   10.72    2.42
  -6   2  -8   22.01    4.72
  -6  -2  -8   26.34    3.59
  -6  -2  -8   26.93    4.20
  -6   2  -8   27.00    5.20
  -6  -2  -8   37.29    5.89
  -6   2  -7   27.95    5.39
  -6   2  -7   26.38    4.74
  -6  -2  -7   25.32    3.44
  -6  -2  -7   20.84    3.53
  -6  -2  -7   27.43    4.77
  -6   2  -6  242.67   15.20
  -6  -2  -6  289.68   12.77
  -6   2  -6  262.62   15.28
  -6  -2  -6  248.36   14.11
  -6  -2  -6  262.71   11.69
  -6  -2  -5  115.41    7.93
  -6  -2  -5  110.28    9.32
  -6   2  -5   93.32    9.33
  -6   2  -5   90.82    8.87
  -6  -2  -5   98.77    7.46
  -6  -2  -4   13.76    3.37
  -6   2  -4    9.36    2.57
  -6  -2  -4   13.24    2.62
  -6   2  -4    8.27    2.70
  -6  -2  -4    9.06    2.57
  -6  -2  -3   56.23    6.47
  -6   2  -3   49.44    6.55
  -6  -2  -3   49.55    5.20
  -6   2  -3   60.77    7.43
  -6  -2  -3   49.79    5.00
  -6  -2  -2  464.19   18.35
  -6   2  -2  461.61   19.97
  -6  -2  -2  439.96   16.46
  -6   2  -2  459.43   19.64
  -6  -2  -1   90.53    8.35
  -6   2  -1   93.00    9.05
  -6  -2  -1   91.95    7.61
  -6   2  -1   63.91    7.10
  -6  -2   0    4.80    1.63
  -6  -2   0    9.88    2.84
  -6   2   0    5.31    2.28
  -6   2   0    5.98    1.96
  -6  -2   1   94.72    8.07
  -6   2   1   90.61    8.70
  -6  -2   1   95.14    8.15
  -6   2   1   92.19    8.66
  -6  -2   2  438.52   17.26
  -6   2   2  453.74   19.84
  -6  -2   2  431.18   17.77
  -6   2   2  416.21   18.36
  -6  -2   3   59.78    6.50
  -6   2   3   69.31    7.79
  -6  -2   3   65.55    7.10
  -6  -2   4   16.10    3.84
  -6  -2   4   16.26    3.41
  -6   2   4    9.31    3.07
  -6  -2   5  113.29    8.59
  -6   2   5  105.59    9.45
  -6  -2   5   93.97    8.75
  -6  -2   6  252.12   12.91
  -6  -2   6  242.12   14.11
  -6   2   6  247.28   14.66
  -6   2   7   23.61    4.39
  -6  -2   7   18.61    4.25
  -6  -2   7   21.78    3.59
  -6  -2   8   28.71    5.15
  -6  -2   8   34.31    4.80
  -6   2   8   31.49    5.74
  -6  -2   9   12.03    3.45
  -6  -2   9    6.80    2.11
  -6   2   9   10.37    3.36
  -6  -2  10   70.09    8.12
  -6  -2  10   80.41    7.13
  -6   2  10   70.89    8.34
  -6  -2  11  122.77    8.76
  -6  -2  11  107.44   10.18
  -6   2  11  102.45   10.09
  -6  -2  12   87.77    7.52
  -6  -2  12   74.37    8.82
  -6   2  12   78.12    9.25
  -6  -2  13   84.47    7.48
  -6  -2  13   73.32    8.52
  -6   2  13   97.59   10.27
  -6   2  14  764.26   29.30
  -6  -2  14  746.86   22.20
  -6  -2  14  807.74   29.87
  -6  -2  15  254.28   12.87
  -6  -2  15  227.04   16.38
  -6   2  15  261.89   17.62
  -6  -2  16  245.85   17.15
  -6   2  16  299.65   19.20
  -6  -2  17    2.76    1.52
  -6   2  17    4.92    3.47
  -6   2  18   35.11    6.87
  -6  -2  18   36.72    7.37
  -6  -2  19    1.97    1.94
  -6   2  19    8.71    4.40
  -6  -2  20   63.77    9.18
  -6   2  20   61.25    9.33
  -6  -2  21   12.76    4.93
  -6  -2  22    5.82    3.41
  -6  -2  23   12.24    3.96
  -6  -2  24  109.55   13.54
  -6   3 -28    0.66    2.33
  -6   3 -27   53.13   10.24
  -6   3 -26   54.40    9.23
  -6   3 -25  113.78   13.60
  -6   3 -24   20.06    5.06
  -6   3 -23    9.85    4.58
  -6   3 -22    3.05    4.78
  -6   3 -21   17.40    5.21
  -6   3 -20   69.64   10.11
  -6   3 -19  185.86   16.25
  -6   3 -18  128.53   13.85
  -6   3 -18  120.29   13.18
  -6  -3 -18  124.72   13.00
  -6   3 -17  276.12   19.73
  -6  -3 -17  255.44   17.02
  -6   3 -17  249.13   18.89
  -6  -3 -16   92.97   10.52
  -6   3 -16   98.85   11.53
  -6   3 -16  105.12   12.22
  -6   3 -15   82.09   10.46
  -6   3 -15   75.60    9.87
  -6  -3 -15   76.58    9.17
  -6   3 -14  332.13   20.54
  -6   3 -14  321.68   20.75
  -6  -3 -14  387.31   20.26
  -6  -3 -13   79.46    7.76
  -6   3 -13   63.04    9.08
  -6   3 -13   60.36    8.65
  -6  -3 -13   57.88    7.74
  -6  -3 -12  113.72    8.68
  -6   3 -12   93.77   11.06
  -6   3 -12  103.77   11.18
  -6  -3 -12  116.97   10.74
  -6  -3 -11  248.68   12.31
  -6   3 -11  271.36   17.60
   6  -3 -11  242.45   11.17
  -6   3 -11  239.00   16.75
  -6  -3 -11  220.09   14.59
  -6  -3 -10   29.77    5.05
  -6  -3 -10   27.73    4.10
  -6   3 -10   19.07    5.16
  -6  -3 -10   33.27    4.14
  -6   3 -10   31.48    6.33
  -6  -3  -9  107.09   10.14
  -6  -3  -9  102.39    7.10
  -6   3  -9   99.44   10.71
  -6   3  -9  116.17   11.53
  -6  -3  -8  110.76   10.03
  -6   3  -8  117.72   11.06
  -6   3  -8  109.74   11.06
  -6  -3  -8  107.60    7.50
  -6  -3  -7  457.71   20.66
  -6   3  -7  446.64   21.32
  -6  -3  -7  487.09   14.99
  -6   3  -7  440.01   22.00
  -6  -3  -6  465.81   20.08
  -6  -3  -6  453.59   14.63
  -6  -3  -6  464.40   16.35
  -6   3  -6  433.00   20.79
  -6   3  -6  447.85   21.85
  -6  -3  -5  553.17   15.81
  -6   3  -5  559.82   24.22
  -6  -3  -5  605.09   22.76
  -6  -3  -5  556.73   18.35
  -6   3  -5  571.56   23.31
  -6   3  -4  450.64   21.57
  -6  -3  -4  432.75   18.89
  -6  -3  -4  439.18   14.27
  -6  -3  -4  415.05   16.22
  -6   3  -4  425.68   20.00
  -6   3  -3  945.20   31.09
  -6  -3  -3  914.87   27.80
  -6   3  -3  941.96   30.39
  -6  -3  -3  979.48   25.59
  -6  -3  -3 1001.87   21.75
  -6  -3  -2  125.54   10.25
  -6   3  -2  122.58   11.29
  -6  -3  -2  119.68    9.11
  -6   3  -2  107.72    9.86
  -6   3  -1  103.78   10.22
  -6  -3  -1  102.05    8.51
  -6   3  -1   83.82    8.91
  -6   3   0   78.91    8.90
  -6   3   0   81.27    8.49
  -6  -3   0   96.42    8.54
  -6  -3   1  115.03    9.45
  -6   3   1   90.18    9.43
  -6  -3   1   88.57    8.24
  -6   3   1  110.64    9.79
  -6  -3   2  115.67    9.46
  -6  -3   2  109.96    9.31
  -6   3   2  128.32   11.00
  -6   3   2  111.07   10.00
  -6  -3   3  901.38   26.88
  -6   3   3  977.25   30.63
  -6  -3   3  953.68   28.00
  -6   3   3  943.76   28.67
  -6  -3   4  430.00   18.18
  -6   3   4  449.30   21.10
  -6   3   4  457.57   19.90
  -6  -3   4  415.53   18.79
  -6  -3   5  537.83   20.44
  -6   3   5  556.57   23.15
  -6  -3   5  554.63   22.19
  -6  -3   6  469.85   19.20
  -6   3   6  453.07   21.10
  -6  -3   6  440.83   20.17
  -6  -3   7  449.11   18.77
  -6   3   7  495.67   22.15
  -6  -3   7  445.93   20.38
  -6   3   8  110.05   10.55
  -6  -3   8  126.80   10.87
  -6  -3   8  117.35    9.70
  -6  -3   9  107.41    9.17
  -6   3   9   89.76    9.38
  -6  -3   9   90.39    9.86
  -6  -3  10   33.59    5.35
  -6   3  10   23.40    4.95
  -6  -3  10   23.91    4.70
  -6  -3  11  207.72   12.99
  -6   3  11  217.49   15.44
  -6  -3  11  237.85   15.61
  -6   3  12   98.79   10.45
  -6  -3  12  101.73   10.08
  -6  -3  12  111.89    9.70
  -6  -3  13   74.42    7.82
  -6   3  13   68.05    9.01
  -6  -3  13   70.75    9.11
  -6  -3  14  328.42   16.63
  -6   3  14  323.41   19.55
  -6  -3  14  336.87   19.72
  -6  -3  15   70.93    7.74
  -6   3  15   73.27    9.71
  -6  -3  15   79.03    9.94
  -6  -3  16   81.19    8.52
  -6   3  16   86.07   10.83
  -6  -3  16  106.94   11.60
  -6   3  17  259.74   18.54
  -6  -3  17  261.76   18.13
  -6  -3  18  131.11   13.27
  -6   3  18  162.58   15.08
  -6  -3  19  209.62   16.66
  -6  -3  20   79.60   10.81
  -6  -3  21   10.49    3.27
  -6  -3  22    8.22    6.26
  -6  -3  23   16.50    3.97
  -6  -3  24   27.94    8.44
  -6  -3  25  132.13   15.34
  -6   4 -27   10.00    5.44
  -6   4 -26   28.50    6.94
  -6   4 -25    9.09    4.73
  -6   4 -24  126.50   14.78
  -6   4 -23   79.93   11.56
  -6   4 -22   38.95    8.27
  -6   4 -21   68.85   10.91
  -6   4 -20   50.57    8.85
  -6   4 -19   -1.57    2.25
  -6   4 -19   -2.18    3.05
  -6   4 -18  330.80   22.19
  -6   4 -18  350.70   23.91
  -6   4 -17  160.58   15.27
  -6   4 -17  160.52   16.34
  -6  -4 -17  125.52   12.85
  -6   4 -16   97.07   11.67
  -6   4 -16  117.78   13.63
  -6  -4 -16   90.84   10.92
  -6   4 -15   90.26   11.71
  -6   4 -15   99.92   12.28
  -6  -4 -15   85.80   10.36
  -6  -4 -14    5.58    2.99
  -6   4 -14    1.62    2.22
  -6   4 -14    6.51    4.35
  -6   4 -13  125.51   12.90
  -6  -4 -13  133.86   12.29
  -6   4 -13  129.55   13.55
  -6  -4 -12  576.08   25.43
  -6   4 -12  618.79   29.20
  -6   4 -12  561.96   26.84
  -6  -4 -11  241.78   16.10
  -6   4 -11  272.94   18.29
   6  -4 -11  229.38   12.96
  -6   4 -11  263.22   18.74
  -6  -4 -10   41.60    6.77
  -6   4 -10   53.68    8.01
   6  -4 -10   47.16    6.00
  -6   4 -10   54.88    8.00
  -6  -4  -9  189.31   14.26
   6  -4  -9  202.04   12.14
  -6  -4  -9  169.89   10.10
  -6   4  -9  212.01   15.73
  -6   4  -9  165.11   14.47
  -6  -4  -8  735.22   27.27
  -6  -4  -8  686.49   21.04
  -6   4  -8  602.12   26.28
  -6   4  -8  623.10   28.46
  -6  -4  -7   63.59    8.04
  -6  -4  -7   45.21    5.67
  -6   4  -7   66.85    8.44
  -6   4  -7   53.05    8.19
  -6  -4  -6  101.22   10.01
  -6   4  -6  108.57   10.80
  -6  -4  -6  113.58    8.85
  -6   4  -6   90.60   10.81
  -6  -4  -5  633.47   24.84
  -6   4  -5  705.44   27.34
  -6  -4  -5  643.65   21.82
  -6   4  -5  688.45   29.04
  -6   4  -4    0.69    1.79
  -6  -4  -4    2.16    1.66
  -6  -4  -4    2.37    1.05
  -6   4  -4    1.09    1.60
  -6  -4  -4    4.91    1.78
  -6  -4  -3  298.69   16.70
  -6  -4  -3  285.07   15.04
  -6   4  -3  286.65   17.03
  -6  -4  -3  271.68   10.51
  -6   4  -3  259.36   17.20
  -6   4  -2  109.16   11.21
  -6  -4  -2  131.11   10.90
  -6   4  -2  103.66   10.22
  -6  -4  -2  124.22    9.83
  -6   4  -1   95.34   10.44
  -6  -4  -1   97.20    9.37
  -6   4  -1  105.87   10.38
  -6  -4  -1  105.54    9.25
  -6  -4   0  212.81   13.37
  -6   4   0  226.51   16.05
  -6  -4   0  201.77   13.35
  -6   4   0  203.94   14.21
  -6  -4   1  122.79   10.32
  -6   4   1  112.49   11.12
  -6  -4   1  116.54   10.26
  -6   4   1  100.75   10.00
  -6  -4   2  142.68   11.23
  -6   4   2  133.62   12.24
  -6  -4   2  127.36   10.78
  -6   4   2  115.52   10.49
  -6  -4   3  255.44   15.40
  -6   4   3  269.67   17.30
  -6  -4   3  223.67   14.21
  -6   4   3  251.18   15.59
  -6  -4   4    2.32    1.81
  -6   4   4    4.40    2.23
  -6  -4   4    3.36    2.11
  -6   4   4    5.07    2.81
  -6  -4   5  628.09   24.71
  -6   4   5  605.76   25.63
  -6  -4   5  639.45   24.12
  -6   4   5  694.08   25.94
  -6   4   6  116.08   11.45
  -6  -4   6  108.05    9.96
  -6  -4   6  111.24   10.62
  -6   4   6  111.48   10.62
  -6  -4   7   49.02    7.34
  -6   4   7   53.08    7.51
  -6  -4   7   40.25    6.34
  -6  -4   8  693.21   27.07
  -6   4   8  649.98   27.12
  -6  -4   8  676.66   25.13
  -6  -4   9  195.26   14.52
  -6  -4   9  201.28   13.71
  -6   4   9  209.38   15.44
  -6  -4  10   44.62    7.44
  -6  -4  10   57.22    7.28
  -6   4  10   41.82    7.31
  -6  -4  11  228.80   16.03
  -6  -4  11  262.29   15.84
  -6   4  11  229.74   16.63
  -6   4  12  616.35   27.58
  -6  -4  12  628.45   27.28
  -6  -4  13  133.63   11.71
  -6   4  13  143.30   13.39
  -6  -4  13  123.59   12.13
  -6  -4  14   10.15    3.39
  -6   4  14   12.60    4.32
  -6  -4  14    0.76    2.48
  -6  -4  15   82.88    9.19
  -6   4  15   96.69   11.13
  -6  -4  15   81.04   10.29
  -6  -4  16  125.66   11.77
  -6   4  16  101.65   11.91
  -6  -4  16  120.99   12.75
  -6  -4  17  167.06   13.52
  -6   4  17  139.68   14.21
  -6  -4  18  367.15   22.53
  -6  -4  19    7.76    4.44
  -6  -4  20   55.65    9.05
  -6  -4  21  104.40   12.52
  -6  -4  22   43.46    8.72
  -6  -4  23   62.86   10.38
  -6  -4  24  119.24   14.44
  -6  -4  25    9.09    5.70
  -6  -4  26   10.12    2.48
  -6   5 -26   39.54    9.20
  -6   5 -25   39.51    8.89
  -6   5 -24   16.64    6.69
  -6   5 -23   11.41    5.09
  -6   5 -22   62.03   10.13
  -6   5 -21   26.38    6.81
  -6   5 -20    4.84    3.13
  -6   5 -20    8.63    3.56
  -6   5 -19    2.84    3.59
  -6   5 -19    4.61    2.85
  -6   5 -18   12.71    4.39
  -6   5 -18   16.79    4.97
  -6   5 -17   44.74    8.56
  -6  -5 -17   25.25    7.17
  -6   5 -17   58.03   10.43
  -6  -5 -16   28.04    6.21
  -6   5 -16   37.17    8.04
  -6   5 -16   46.44    8.87
  -6  -5 -15   29.54    7.06
  -6   5 -15   29.73    6.86
  -6   5 -15   19.20    6.30
  -6  -5 -14   35.66    6.80
  -6   5 -14   33.95    7.05
  -6   5 -14   22.62    6.41
  -6  -5 -13  108.28   11.44
  -6   5 -13  106.01   13.04
  -6   5 -13  109.48   12.29
  -6  -5 -12   12.11    4.16
  -6   5 -12    7.89    2.29
  -6   5 -12    8.83    3.37
  -6  -5 -11   -0.78    2.17
  -6   5 -11   -1.54    2.51
  -6   5 -11    2.71    4.08
  -6  -5 -10   24.84    5.49
   6  -5 -10   27.87    5.00
  -6   5 -10   26.46    6.06
  -6   5 -10   23.15    6.24
  -6  -5  -9   70.86    8.99
   6  -5  -9   54.91    7.03
  -6   5  -9   52.75    8.32
  -6   5  -9   68.39    9.89
  -6  -5  -8   28.93    5.82
   6  -5  -8   35.01    6.03
  -6   5  -8   37.63    6.41
  -6   5  -8   33.13    7.55
  -6  -5  -8   22.53    4.46
   6  -5  -7   43.99    6.26
  -6   5  -7   35.89    6.70
  -6  -5  -7   46.79    7.38
  -6  -5  -7   41.10    5.41
  -6   5  -7   35.69    6.42
   6  -5  -6   10.92    3.42
  -6   5  -6   10.45    3.75
  -6  -5  -6   22.57    4.86
  -6   5  -6   14.60    4.02
  -6  -5  -6   17.20    4.03
  -6  -5  -5   56.64    7.15
  -6  -5  -5   47.41    6.94
  -6   5  -5   54.09    8.09
  -6   5  -5   68.73   10.09
  -6  -5  -4  150.97   11.48
  -6  -5  -4  156.34   13.21
  -6   5  -4  183.50   16.30
  -6   5  -4  172.83   13.84
  -6  -5  -3  134.85   11.06
  -6  -5  -3  127.07   11.34
  -6   5  -3  101.63   11.45
  -6   5  -3  120.16   11.52
  -6  -5  -2  103.38   10.39
  -6   5  -2   94.04   10.13
  -6  -5  -2  120.69   10.47
  -6  -5  -1   56.12    7.71
  -6  -5  -1   29.21    5.33
  -6   5  -1   42.58    6.95
  -6   5  -1   39.83    7.62
  -6   5   0   24.59    5.74
  -6  -5   0   33.84    5.77
  -6  -5   0   24.62    5.10
  -6   5   0   26.42    5.64
  -6  -5   1   58.88    7.88
  -6  -5   1   62.90    7.84
  -6   5   1   46.58    7.43
  -6   5   1   48.66    7.66
  -6   5   2  122.31   12.48
  -6  -5   2  110.48   10.58
  -6  -5   2  102.47   10.46
  -6   5   2   90.89   10.27
  -6   5   3  110.69   11.71
  -6   5   3  101.73   10.97
  -6  -5   3  128.44   11.45
  -6  -5   3  111.54   10.64
  -6  -5   4  154.02   12.57
  -6  -5   4  150.23   12.81
  -6   5   4  135.23   12.65
  -6   5   4  148.56   12.85
  -6   5   5   63.72    9.01
  -6  -5   5   58.69    7.82
  -6  -5   5   51.37    8.10
  -6   5   5   57.21    7.83
  -6   5   6   14.05    4.63
  -6   5   6   18.21    3.69
  -6  -5   6   19.26    4.96
  -6  -5   6   17.11    4.77
  -6   5   7   36.63    6.55
  -6  -5   7   44.28    7.01
  -6  -5   7   47.21    7.38
  -6   5   7   39.51    6.55
  -6  -5   8   39.89    6.97
  -6   5   8   33.86    6.31
  -6  -5   8   28.51    6.09
  -6   5   8   28.49    5.80
  -6   5   9   57.76    8.68
  -6  -5   9   74.64    9.43
  -6  -5   9   61.86    8.12
  -6   5   9   44.93    7.37
  -6  -5  10   27.98    5.75
  -6   5  10   25.80    5.33
  -6  -5  10   26.40    5.68
  -6   5  11   -0.31    3.04
  -6  -5  11    3.21    2.79
  -6  -5  11   -2.14    2.15
  -6  -5  12   14.31    4.84
  -6   5  12   13.95    5.59
  -6  -5  12   11.82    3.86
  -6  -5  13  128.47   13.05
  -6   5  13  114.09   12.78
  -6  -5  13  109.48   11.29
  -6   5  14   32.19    7.78
  -6  -5  14   28.50    5.87
  -6  -5  14   30.57    6.33
  -6  -5  15   30.78    5.51
  -6   5  15   30.59    8.00
  -6  -5  15   24.95    6.68
  -6  -5  16   28.11    6.48
  -6   5  16   29.68    8.13
  -6  -5  16   21.89    6.20
  -6  -5  17   55.00    8.25
  -6  -5  17   73.22   10.50
  -6  -5  18   19.38    5.31
  -6  -5  19    4.08    2.23
  -6  -5  20   17.85    6.22
  -6  -5  21   44.83    8.28
  -6  -5  22   56.06   10.09
  -6  -5  23    4.90    5.16
   6  -5  23    6.45    5.51
  -6  -5  24    8.07    2.36
  -6  -5  25   49.89   10.16
  -6  -5  26   28.42    8.22
  -6   6 -25   41.07    8.74
  -6   6 -24  111.56   14.46
  -6   6 -23   18.36    6.09
  -6   6 -22  214.61   19.34
  -6   6 -21   91.83   12.45
  -6   6 -21   86.18   14.30
  -6   6 -20    5.93    3.31
  -6   6 -20    3.60    3.89
  -6   6 -19   45.44    9.09
  -6   6 -19   31.64    7.56
  -6   6 -18  398.64   25.32
  -6   6 -18  373.65   26.12
  -6   6 -17   90.37   13.29
  -6   6 -17   68.92   10.03
  -6  -6 -16    5.50    4.90
  -6   6 -16   11.44    4.31
  -6   6 -16   10.37    4.06
  -6  -6 -15   16.18    4.92
  -6   6 -15   16.38    4.60
  -6   6 -15   14.16    4.26
  -6   6 -14   10.03    4.86
  -6  -6 -14   12.05    4.87
  -6   6 -14   14.08    6.87
  -6  -6 -13   23.47    5.65
  -6   6 -13   32.85    7.73
  -6   6 -13   28.15    7.37
  -6  -6 -12  253.60   18.49
  -6   6 -12  250.52   19.02
  -6   6 -12  254.01   20.56
  -6  -6 -11   77.91   10.11
  -6   6 -11   71.70   10.02
  -6   6 -11   58.96    9.58
  -6  -6 -10    8.24    4.74
   6  -6 -10   16.39    5.05
  -6   6 -10    8.96    4.27
  -6   6 -10   -0.19    2.67
  -6  -6  -9   54.61    8.59
   6  -6  -9   57.23    8.08
  -6   6  -9   50.54    8.42
  -6   6  -9   56.17    9.26
  -6  -6  -8  639.97   28.22
   6  -6  -8  561.40   25.14
  -6   6  -8  601.67   30.77
  -6   6  -8  575.47   27.83
  -6  -6  -7  101.99   10.62
  -6  -6  -7  155.91   13.78
   6  -6  -7  127.02   12.10
  -6   6  -7  139.66   13.87
  -6   6  -7  113.89   13.33
  -6   6  -6    3.63    3.56
  -6  -6  -6    1.80    2.46
  -6  -6  -6    2.43    1.40
   6  -6  -6    3.85    2.50
  -6   6  -6    0.92    1.78
  -6  -6  -5   62.02    8.08
  -6  -6  -5   74.82    9.41
   6  -6  -5   77.99    9.28
  -6   6  -5   74.15   10.00
  -6   6  -5   74.23   11.29
  -6  -6  -4  255.94   17.20
  -6  -6  -4  239.67   15.82
   6  -6  -4  237.08   16.22
  -6   6  -4  261.16   18.02
  -6   6  -4  285.26   20.60
  -6   6  -3    4.25    1.45
  -6   6  -3    5.99    3.43
  -6  -6  -3    4.99    2.91
  -6  -6  -3    1.00    1.68
   6  -6  -3    1.50    2.34
  -6   6  -2  462.94   23.61
  -6  -6  -2  479.10   23.79
  -6  -6  -2  434.16   21.86
  -6   6  -2  493.66   27.24
  -6  -6  -1  105.76   11.05
  -6  -6  -1  131.22   12.43
  -6   6  -1  123.81   11.61
  -6   6  -1  138.33   14.69
  -6   6   0    1.56    2.00
  -6  -6   0    2.91    1.64
  -6  -6   0   11.11    4.33
  -6   6   0    6.24    4.02
  -6  -6   1  124.98   11.86
  -6  -6   1  125.17   12.01
  -6   6   1  114.13   11.59
  -6   6   1  112.98   13.25
  -6  -6   2  457.79   23.05
  -6  -6   2  437.65   22.77
  -6   6   2  441.55   22.92
  -6   6   2  450.41   25.83
  -6   6   3    7.30    5.28
  -6  -6   3    4.25    3.31
  -6   6   3    1.88    3.87
  -6  -6   3    5.63    2.00
  -6  -6   4  236.02   16.87
  -6  -6   4  276.89   18.31
  -6   6   4  249.66   17.40
  -6   6   4  212.39   17.75
  -6  -6   5   66.94    9.15
  -6  -6   5   67.34    9.17
  -6   6   5   82.42   10.38
  -6   6   5   72.76   10.60
  -6  -6   6    0.59    1.33
  -6   6   6    3.55    4.27
  -6  -6   6   -1.99    1.91
  -6   6   6    1.76    2.06
  -6   6   7  103.74   12.74
  -6  -6   7  126.43   12.49
  -6  -6   7  150.73   13.85
  -6   6   7  116.12   12.09
  -6  -6   8  561.37   26.11
  -6  -6   8  625.12   28.91
  -6   6   8  552.83   26.19
  -6   6   8  556.04   28.22
  -6   6   9   51.15    8.51
  -6  -6   9   58.04    8.69
  -6  -6   9   69.40    9.65
  -6   6   9   48.00    7.64
  -6   6  10    7.12    4.88
  -6  -6  10    7.11    2.23
  -6  -6  10    8.97    4.25
  -6   6  10   10.77    2.83
  -6   6  11   64.03    9.84
  -6  -6  11   80.06    9.76
  -6  -6  11   61.72    9.25
  -6   6  11   72.51    9.60
  -6   6  12  273.22   20.95
  -6  -6  12  228.89   18.07
  -6  -6  12  252.75   18.07
  -6   6  12  273.93   19.30
  -6   6  13   27.79    7.29
  -6  -6  13   34.06    7.06
  -6  -6  13   38.73    7.05
  -6   6  13   26.68    5.76
  -6   6  14    9.99    6.28
  -6  -6  14    8.34    4.56
  -6  -6  14   13.63    4.70
  -6  -6  15   19.03    5.96
  -6   6  15   28.09    7.82
  -6  -6  15   23.60    5.09
  -6  -6  16    5.52    3.59
  -6  -6  16    3.93    3.46
  -6  -6  17   60.12    9.78
  -6  -6  17   78.65   10.52
  -6  -6  18  357.99   23.02
  -6  -6  18  385.11   24.66
   6  -6  19   21.69    6.78
  -6  -6  19   43.71    8.89
   6  -6  20    3.23    4.45
  -6  -6  20    9.05    3.60
   6  -6  21   82.65   12.90
  -6  -6  21   85.42   11.35
   6  -6  22  186.17   18.49
  -6  -6  22  201.29   18.83
  -6  -6  23   15.45    5.36
   6  -6  23   22.64    7.74
  -6  -6  24  115.01   14.57
  -6  -6  25   36.01    8.90
  -6   7 -23    9.76    3.98
  -6   7 -22   22.89    6.90
  -6   7 -21   73.36   12.52
  -6   7 -21   67.53   12.72
  -6   7 -20   65.96   10.67
  -6   7 -20   54.41   11.33
  -6   7 -19   43.08    8.92
  -6   7 -19   38.53    7.88
  -6   7 -18  115.73   13.96
  -6   7 -18  102.04   13.84
  -6   7 -17   15.42    5.13
  -6   7 -17   35.44    8.37
  -6   7 -16   33.25    7.46
  -6   7 -16   31.44    9.33
  -6  -7 -15   31.34    7.44
  -6   7 -15   38.17    7.47
  -6   7 -15   40.66    9.02
  -6  -7 -14   16.94    5.61
  -6   7 -14   24.73    7.41
  -6   7 -14   17.92    6.70
  -6  -7 -13   66.98   10.17
  -6   7 -13   80.26   11.02
  -6   7 -13   94.92   13.69
  -6   7 -12   36.45    7.76
  -6  -7 -12   41.10    7.45
  -6   7 -12   28.46    8.00
  -6   7 -11   28.95    7.84
  -6  -7 -11   28.01    6.37
  -6   7 -11   25.64    6.52
  -6  -7 -10  105.84   12.43
  -6   7 -10  108.96   12.69
  -6   7 -10  124.79   15.19
  -6   7  -9    8.88    4.07
  -6  -7  -9   17.84    4.43
  -6   7  -9    9.26    4.07
   6  -7  -9   15.49    5.05
  -6  -7  -8  145.17   13.83
   6  -7  -8  169.05   14.94
  -6   7  -8  186.35   16.63
  -6   7  -8  142.05   15.72
  -6  -7  -7   48.88    8.12
   6  -7  -7   44.25    7.71
  -6   7  -7   37.07    7.37
  -6   7  -7   35.85    7.26
  -6   7  -6   11.56    3.35
  -6  -7  -6   17.51    4.69
  -6  -7  -6   13.54    5.65
   6  -7  -6    7.00    3.88
  -6   7  -6   19.42    5.22
  -6  -7  -5   44.06    8.12
  -6  -7  -5   26.19    6.14
  -6   7  -5   35.93    8.19
   6  -7  -5   24.55    5.75
  -6   7  -5   44.65    8.83
   6  -7  -4  154.78   14.00
  -6  -7  -4  172.32   14.75
  -6  -7  -4  177.42   14.74
  -6   7  -4  160.54   15.18
  -6   7  -4  185.10   17.29
  -6   7  -3   51.56    9.18
  -6  -7  -3   54.57    9.11
  -6  -7  -3   44.44    7.52
   6  -7  -3   47.67    7.62
  -6   7  -3   54.93    8.95
  -6  -7  -2  206.10   16.38
  -6  -7  -2  212.24   16.19
   6  -7  -2  204.83   16.41
  -6   7  -2  219.42   18.76
  -6   7  -2  226.75   17.43
  -6  -7  -1   54.04    8.64
  -6  -7  -1   42.41    7.39
   6  -7  -1   46.49    7.60
  -6   7  -1   37.16    7.66
  -6   7  -1   58.17    9.09
   6  -7   0    7.26    3.39
  -6  -7   0    2.22    3.86
  -6   7   0    4.07    3.16
  -6  -7   0    2.52    1.97
  -6   7   0    6.28    3.25
  -6   7   1   35.61    7.09
  -6  -7   1   39.66    7.23
  -6  -7   1   38.16    7.27
   6  -7   1   32.12    7.13
  -6   7   1   31.36    7.07
  -6  -7   2  201.39   16.14
  -6  -7   2  195.37   16.54
   6  -7   2  199.67   15.78
  -6   7   2  235.18   19.83
  -6   7   2  227.06   17.27
  -6   7   3   48.77    9.08
  -6  -7   3   52.21    8.54
  -6  -7   3   51.09    8.50
   6  -7   3   46.38    8.57
  -6   7   3   55.71    9.30
   6  -7   4  146.19   13.90
  -6  -7   4  149.40   13.95
  -6  -7   4  162.59   14.76
  -6   7   4  140.14   13.45
  -6   7   4  142.94   15.04
  -6  -7   5   36.78    7.31
  -6  -7   5   44.37    8.32
  -6   7   5   30.49    5.86
  -6   7   5   34.43    8.32
   6  -7   5   33.26    7.05
  -6   7   6   14.84    4.94
  -6  -7   6   12.02    4.25
   6  -7   6   12.54    3.67
  -6   7   6    5.46    3.19
  -6  -7   6   14.10    5.43
  -6   7   7   44.25    8.60
  -6  -7   7   46.60    7.53
  -6  -7   7   44.37    8.37
  -6   7   7   36.21    6.78
   6  -7   7   61.46    9.40
  -6  -7   8  171.22   15.40
  -6  -7   8  155.58   15.11
   6  -7   8  156.24   14.61
  -6   7   8  156.24   14.43
  -6   7   8  135.36   15.32
  -6   7   9    6.17    3.89
  -6  -7   9   20.24    4.89
  -6  -7   9   18.46    4.98
   6  -7   9   15.62    5.35
  -6   7   9    7.09    2.87
  -6  -7  10   78.53   10.65
  -6  -7  10  111.55   12.86
   6  -7  10   96.75   12.11
  -6   7  10   80.09   12.28
  -6   7  11   40.37    8.72
  -6  -7  11   36.74    8.39
  -6  -7  11   34.93    6.95
   6  -7  11   30.46    7.03
  -6   7  12   27.55    7.46
  -6  -7  12   31.13    6.57
  -6  -7  12   21.32    5.82
   6  -7  12   44.62    8.75
  -6  -7  13   81.68   10.70
  -6  -7  13   71.96   10.60
   6  -7  13   73.53   11.07
  -6   7  13   91.56   13.05
  -6  -7  14   27.77    6.61
  -6  -7  14   23.74    6.36
   6  -7  14   19.40    6.12
  -6  -7  15   59.23    9.76
  -6  -7  15   34.08    6.76
   6  -7  15   52.76    9.40
  -6  -7  16   39.01    7.89
  -6  -7  16   26.00    7.37
   6  -7  16   53.22   10.63
  -6  -7  17   23.68    6.33
  -6  -7  17   19.50    5.49
   6  -7  17   18.05    6.32
  -6  -7  18   95.12   12.83
  -6  -7  18   90.52   12.69
   6  -7  19   48.26   10.45
  -6  -7  19   40.87    8.14
   6  -7  20   50.78   10.45
  -6  -7  20   52.60    9.77
   6  -7  21   63.97   11.89
  -6  -7  21   82.46   11.82
   6  -7  22   18.33    6.26
  -6  -7  22   15.26    5.70
  -6  -7  23   29.28    7.28
   6  -7  23   20.52    7.01
  -6   8 -20   32.45    8.56
  -6   8 -20   27.65    8.98
  -6   8 -19   50.26   10.04
  -6   8 -19   55.85   11.48
  -6   8 -18   95.16   13.60
  -6   8 -18   74.02   12.49
  -6   8 -17   50.22   10.15
  -6   8 -17   43.46   10.17
  -6   8 -16   57.32   10.37
  -6   8 -16   48.14   10.20
  -6   8 -15   59.78   10.46
  -6   8 -15   44.77    9.11
  -6  -8 -14   70.47   10.98
  -6   8 -14   75.45   11.51
  -6   8 -14   68.78   11.24
  -6  -8 -13  129.70   15.03
  -6   8 -13  147.29   15.71
  -6  -8 -12   76.75   11.16
  -6   8 -12   71.05   11.25
  -6   8 -12   70.25   12.18
  -6  -8 -11   38.55    8.16
  -6   8 -11   43.63    8.71
  -6   8 -11   45.81    9.71
  -6  -8 -10   40.81    7.59
  -6   8 -10   44.72    9.23
  -6   8 -10   62.25   10.41
  -6  -8  -9   42.80    7.70
  -6   8  -9   35.58    7.81
   6  -8  -9   45.03   10.35
  -6   8  -9   14.41    5.32
  -6  -8  -8  230.00   18.37
   6  -8  -8  197.76   17.36
  -6   8  -8  230.97   19.23
  -6   8  -8  221.59   20.17
  -6   8  -7   76.56   12.03
  -6  -8  -7  112.78   13.39
   6  -8  -7   89.26   11.47
  -6   8  -7   90.96   12.47
  -6  -8  -6   11.67    4.61
  -6   8  -6   25.51    7.09
  -6   8  -6   21.11    5.67
   6  -8  -6   11.44    4.14
  -6  -8  -5   83.36   11.16
   6  -8  -5   67.25   10.17
  -6   8  -5   73.97   12.18
  -6   8  -5   93.59   12.06
  -6  -8  -4   93.12   11.62
   6  -8  -4  122.59   13.30
  -6   8  -4   86.27   11.73
  -6   8  -4  115.35   14.21
  -6  -8  -4  140.69   14.30
  -6   8  -3    5.79    3.17
  -6  -8  -3    2.17    2.16
   6  -8  -3    1.29    2.03
  -6   8  -3    2.03    2.50
  -6  -8  -3   -0.20    1.45
  -6  -8  -2  134.90   14.18
  -6   8  -2  142.25   15.68
   6  -8  -2  153.58   15.01
  -6  -8  -2  120.57   13.32
  -6   8  -2  133.30   14.03
  -6  -8  -1   41.12    7.16
   6  -8  -1   34.95    6.92
  -6   8  -1   28.34    6.61
  -6   8  -1   26.36    6.05
  -6  -8  -1   41.83    7.23
  -6  -8   0    3.93    3.01
  -6  -8   0    5.85    3.84
   6  -8   0    0.10    2.07
  -6   8   0    8.49    4.04
  -6   8   0    3.48    2.71
  -6  -8   1   23.63    6.23
  -6  -8   1   36.11    7.42
   6  -8   1   43.98    8.21
  -6   8   1   29.20    6.99
  -6   8   1   39.52    8.29
  -6   8   2  146.82   14.66
  -6  -8   2  151.01   14.43
   6  -8   2  114.18   12.96
  -6  -8   2  136.30   14.35
  -6   8   2  127.13   14.63
  -6   8   3   -0.18    2.11
  -6  -8   3    4.34    3.12
  -6   8   3   -2.92    2.77
   6  -8   3    4.03    2.43
  -6  -8   3    2.79    2.39
  -6  -8   4  130.36   13.56
   6  -8   4  113.47   12.75
  -6  -8   4  111.94   13.56
  -6   8   4  119.75   14.50
  -6  -8   5  104.30   12.30
   6  -8   5   80.84   10.95
  -6  -8   5   97.40   12.12
  -6   8   5   69.16   11.64
  -6   8   6   20.54    6.83
  -6  -8   6   15.39    6.09
   6  -8   6    8.66    3.75
  -6  -8   7   93.75   11.49
  -6  -8   7   96.50   12.39
   6  -8   7  106.47   12.47
  -6   8   7  106.70   14.35
  -6  -8   8  175.00   15.99
  -6  -8   8  213.49   18.19
   6  -8   8  189.10   16.52
  -6   8   8  203.88   19.04
  -6   8   9   29.12    7.97
  -6  -8   9   31.00    6.87
   6  -8   9   39.54    8.00
  -6  -8   9   31.11    6.80
  -6   8  10   66.52   11.17
  -6  -8  10   49.07    8.77
  -6  -8  10   44.54    9.07
   6  -8  10   46.76    8.78
  -6   8  11   49.59    9.55
  -6  -8  11   47.84    9.04
  -6  -8  11   73.79   11.26
   6  -8  11   51.63    8.75
  -6  -8  12   61.07   10.23
  -6  -8  12   79.09   11.51
   6  -8  12   63.57   10.24
  -6   8  12   77.29   12.94
  -6  -8  13  141.58   15.14
  -6  -8  13  139.13   15.35
   6  -8  13  132.14   15.00
  -6  -8  14   81.24   11.91
  -6  -8  14   57.50   10.08
   6  -8  14   88.14   12.51
  -6  -8  15   48.18    9.80
  -6  -8  15   47.50    8.69
   6  -8  15   68.49   10.91
  -6  -8  16   65.05   10.54
  -6  -8  16   57.26   10.37
   6  -8  16   53.97    9.83
   6  -8  17   44.76    9.40
  -6  -8  17   44.74    8.72
  -6  -8  17   52.34   10.07
  -6  -8  18   97.97   13.36
  -6  -8  18   83.54   12.94
   6  -8  18   95.84   12.79
  -6  -8  19   52.24    9.57
   6  -8  19   46.07    9.81
   6  -8  20   27.16    8.25
  -6  -8  20   19.07    5.72
  -6   9 -17    6.72    5.74
  -6   9 -17    0.81    2.06
  -6   9 -16   -2.00    3.70
  -6   9 -16   -0.94    3.76
  -6   9 -15   -0.63    2.31
  -6   9 -15   -2.68    3.26
  -6  -9 -14   54.44   11.37
  -6   9 -14   39.85    9.41
  -6   9 -14   37.18    9.09
  -6  -9 -13   -1.07    2.78
  -6   9 -13   -5.10    5.17
  -6   9 -12   38.35    8.62
  -6  -9 -12   45.66    8.34
  -6   9 -12   60.57   10.80
  -6  -9 -11    1.07    2.27
  -6   9 -11    1.43    4.38
  -6   9 -11    6.22    4.60
  -6   9 -10   14.35    6.64
  -6  -9 -10    1.15    1.91
  -6   9 -10   12.75    7.63
  -6  -9  -9   17.23    4.50
  -6   9  -9   14.37    5.33
  -6   9  -9   18.20    6.25
  -6  -9  -8   30.40    8.14
   6  -9  -8   54.14   10.51
  -6   9  -8   31.49    8.40
  -6   9  -8   24.69    6.04
  -6  -9  -7   17.64    4.91
  -6   9  -7   22.47    7.12
   6  -9  -7    2.97    2.75
  -6   9  -7   12.58    4.46
  -6   9  -6   57.52    9.96
  -6  -9  -6   34.56    7.00
   6  -9  -6   44.70    8.10
  -6   9  -6   56.52   10.97
   6  -9  -5   19.70    5.98
  -6  -9  -5   14.19    4.43
  -6   9  -5    7.44    3.19
  -6   9  -4    6.98    6.39
  -6  -9  -4    7.00    3.95
   6  -9  -4   11.20    3.72
  -6   9  -4    7.87    3.16
  -6   9  -3   32.63    8.19
  -6  -9  -3   45.10    8.69
  -6   9  -3   21.40    6.39
   6  -9  -3   31.68    6.74
  -6  -9  -3   45.10    8.59
  -6  -9  -2   -0.84    3.01
   6  -9  -2    4.11    4.69
  -6   9  -2   -1.81    2.47
  -6  -9  -2    8.97    5.55
  -6  -9  -1   48.58    8.92
   6  -9  -1   44.33    8.93
  -6   9  -1   38.75    8.52
  -6  -9  -1   37.23    7.85
  -6  -9   0   53.61    9.36
  -6  -9   0   49.44    9.29
   6  -9   0   53.16    9.33
  -6   9   0   45.47   10.08
  -6  -9   1   50.72    8.59
  -6  -9   1   34.50    7.21
   6  -9   1   46.45    9.17
  -6   9   1   36.29    8.66
  -6  -9   2    5.09    3.37
  -6  -9   2    3.21    2.65
   6  -9   2    6.80    3.62
  -6   9   2    4.84    2.95
  -6  -9   3   26.56    6.90
  -6  -9   3   34.45    7.45
   6  -9   3    9.26    3.30
  -6   9   3   19.32    7.76
  -6  -9   4    4.65    4.04
  -6  -9   4    2.43    2.00
   6  -9   4   11.07    4.89
  -6   9   4    2.00    2.19
  -6  -9   5   20.15    6.46
  -6  -9   5   18.84    6.06
   6  -9   5   26.17    6.72
  -6   9   5   28.28    8.56
  -6  -9   6   56.11    9.36
   6  -9   6   61.62   10.23
  -6  -9   6   58.29   10.64
  -6   9   6   43.39    9.57
  -6  -9   7   21.12    5.87
   6  -9   7   12.90    3.95
  -6   9   7   16.50    5.77
  -6  -9   7   16.91    6.27
  -6   9   8   26.88    7.44
  -6  -9   8   33.86    7.03
   6  -9   8   37.97    8.01
  -6  -9   8   38.79    8.39
   6  -9   9   18.06    5.98
  -6  -9   9   16.19    5.38
  -6  -9   9   18.80    5.75
  -6   9   9   23.81    8.46
  -6  -9  10   11.60    5.01
   6  -9  10   12.47    5.90
  -6  -9  10   11.72    5.28
  -6   9  10   13.40    4.87
  -6  -9  11    5.46    4.60
  -6  -9  11    0.53    2.64
   6  -9  11   10.10    5.21
  -6  -9  12   56.80   10.17
  -6  -9  12   42.85    9.00
   6  -9  12   40.57    8.97
  -6  -9  13    4.16    2.94
   6  -9  13    2.60    3.45
  -6  -9  13    4.79    3.57
  -6  -9  14   58.19   10.47
  -6  -9  14   38.82    8.80
   6  -9  14   43.84    8.62
  -6  -9  15   -3.83    3.97
  -6  -9  15    4.41    4.32
   6  -9  15    2.67    4.94
  -6  -9  16    7.15    5.06
  -6  -9  16    3.75    2.72
   6  -9  16    2.69    3.50
  -6  -9  17    5.29    2.61
  -6  -9  17    1.26    3.57
   6  -9  17   11.67    5.29
  -6 -10 -13   30.26   10.67
  -6  10 -13   14.73    5.72
  -6  10 -13   17.98    7.17
  -6 -10 -12   25.56    8.34
  -6  10 -12   41.54    8.68
  -6  10 -12   47.66   10.62
  -6  10 -11   15.49    5.31
  -6 -10 -11    7.89    2.71
  -6  10 -11   12.27    4.75
  -6 -10 -10    4.40    4.25
  -6  10 -10   11.72    6.41
  -6  10 -10   14.75    6.49
  -6 -10  -9   19.12    5.68
  -6  10  -9   26.73    7.92
  -6 -10  -8   96.46   12.79
  -6  10  -8   77.53   12.88
  -6 -10  -7   23.53    6.72
   6 -10  -7    7.87    4.71
  -6  10  -7   19.98    7.46
  -6 -10  -6   11.35    4.09
   6 -10  -6   25.02    6.51
  -6  10  -6   22.01    7.71
   6 -10  -5   42.07    9.57
  -6  10  -5   14.19    5.60
  -6 -10  -4   77.09   12.10
   6 -10  -4   65.74   11.20
  -6  10  -4   63.90   11.94
  -6  10  -3   20.33    6.72
  -6 -10  -3   17.23    6.01
   6 -10  -3   14.33    5.08
  -6 -10  -2   90.75   12.44
   6 -10  -2   75.64   11.46
  -6  10  -2   52.31    9.94
  -6 -10  -1   40.39    9.53
   6 -10  -1   33.94    8.21
  -6 -10  -1   38.03    8.31
  -6  10  -1   36.26    8.61
  -6 -10   0    3.51    3.15
  -6 -10   0   15.19    5.17
   6 -10   0    1.93    2.17
  -6  10   0   10.27    5.06
  -6 -10   1   32.08    7.08
   6 -10   1   29.47    7.23
  -6 -10   1   40.92    8.95
  -6  10   1   29.31    7.95
  -6 -10   2   94.53   12.92
   6 -10   2   87.16   11.69
  -6 -10   2   58.29   10.84
  -6  10   2   79.32   13.09
  -6 -10   3   34.57    7.69
   6 -10   3   27.94    6.55
  -6  10   3   25.64    9.21
  -6 -10   3   20.02    6.07
  -6 -10   4   86.86   12.26
   6 -10   4   75.43   10.82
  -6 -10   4   77.45   11.60
  -6  10   4   88.86   13.69
  -6 -10   5   49.61   10.31
   6 -10   5   41.53    8.51
  -6  10   5   52.85   10.82
  -6 -10   5   44.46    9.19
   6 -10   6   25.65    7.74
  -6 -10   6   20.95    5.89
  -6  10   6   11.32    4.87
  -6 -10   7   13.69    6.10
   6 -10   7   13.24    4.88
  -6 -10   7   18.61    5.72
  -6  10   7   22.79    6.60
  -6 -10   8  100.25   13.16
  -6 -10   8   76.12   11.67
   6 -10   8  107.44   13.73
  -6  10   8   87.91   13.62
  -6 -10   9   24.37    6.96
  -6 -10   9   27.60    7.28
   6 -10   9   16.10    5.93
  -6  10   9    8.99    3.74
  -6 -10  10    9.67    4.26
   6 -10  10   13.95    5.22
  -6 -10  10   10.40    4.39
   6 -10  11   14.30    6.42
  -6 -10  11   35.53    8.40
  -6 -10  11   18.15    6.29
  -6 -10  12   49.86    9.67
  -6 -10  12   36.79    8.38
   6 -10  12   30.85    8.17
  -6 -10  13    7.16    2.55
   6 -10  13    4.83    4.03
  -6 -11  -5   15.69    5.38
   6 -11  -5    7.45    5.66
  -6  11  -5    2.31    4.44
  -6 -11  -4    5.45    3.83
   6 -11  -4    6.17    2.78
  -6  11  -4    6.67    4.31
  -6 -11  -3   17.68    5.63
   6 -11  -3   19.65    7.30
  -6  11  -3   10.75    5.32
  -6 -11  -2    3.75    3.68
   6 -11  -2    0.73    3.29
  -6  11  -2    8.49    4.98
  -6 -11  -1   22.86    7.79
   6 -11  -1   10.84    4.62
  -6  11  -1   11.76    6.94
  -6 -11   0   19.10    6.59
  -6 -11   0   53.62   12.41
   6 -11   0   31.92    8.04
  -6  11   0   43.36   10.68
  -6 -11   1   28.65    7.11
  -6 -11   1    9.85    3.48
   6 -11   1   22.04    6.95
  -6  11   1   27.06    8.33
  -6 -11   2    3.62    2.31
   6 -11   2    5.85    2.99
  -6 -11   2    0.38    2.91
  -6  11   2    7.68    6.42
   6 -11   3   13.40    5.18
  -6 -11   3   19.36    7.51
  -6  11   3   26.69    8.09
  -6 -11   4    1.31    1.96
   6 -11   4    0.56    2.58
  -6 -11   4   -0.55    4.72
  -6  11   4   -2.73    5.34
   6 -11   5   16.60    5.80
  -6 -11   5    5.25    5.43
  -6  11   5    4.38    5.22
  -7   0 -28   -5.04    4.92
  -7   0 -27    1.00    3.43
  -7   0 -26    2.53    3.55
  -7   0 -25    4.55    4.60
  -7   0 -24   -3.12    3.88
  -7   0 -23   -0.51    1.94
  -7   0 -22    0.26    2.15
  -7   0 -21    2.87    3.79
  -7   0 -20    3.73    3.23
  -7   0 -19    1.54    3.02
  -7   0 -18    0.41    2.97
  -7   0 -17   -1.09    2.55
  -7   0 -16    0.74    1.55
  -7   0 -15   -0.55    1.99
  -7   0 -14    0.42    1.44
  -7   0 -13   -1.09    2.37
  -7   0 -13    1.71    2.82
  -7   0 -12   -0.15    0.91
  -7   0 -12    0.22    1.26
  -7   0 -11    0.53    2.04
  -7   0 -11   -0.30    1.06
  -7   0 -10   -0.68    1.80
  -7   0 -10   -0.29    1.97
  -7   0  -9    0.34    1.67
  -7   0  -9   -0.22    1.66
  -7   0  -8   -1.30    1.99
  -7   0  -8    0.49    2.04
  -7   0  -8    2.38    1.89
  -7   0  -7    1.09    1.06
  -7   0  -7   -0.21    1.11
  -7   0  -7    0.16    2.01
  -7   0  -6   -0.11    0.82
  -7   0  -6    0.74    1.55
  -7   0  -6    0.61    1.46
  -7   0  -5   -0.15    1.08
  -7   0  -5    0.36    1.59
  -7   0  -5   -0.30    1.42
  -7   0  -4   -0.51    1.57
  -7   0  -4   -0.97    1.93
  -7   0  -4    0.35    0.80
  -7   0  -3    0.26    1.25
  -7   0  -3    0.60    1.05
  -7   0  -3   -0.13    1.18
  -7   0  -2    1.94    1.76
  -7   0  -2   -0.15    1.56
  -7   0  -2   -1.77    1.98
  -7   0  -1    0.75    1.34
  -7   0  -1    0.62    1.42
  -7   0  -1   -0.54    0.71
  -7   0   0    0.16    1.59
  -7   0   0    0.38    1.38
  -7   0   1    0.19    0.81
  -7   0   1    0.80    0.89
  -7   0   2   -0.09    1.02
  -7   0   2   -0.92    1.65
  -7   0   3    0.38    1.19
  -7   0   3   -0.52    1.11
  -7   0   4    1.23    1.46
  -7   0   4    0.60    0.77
  -7   0   5   -0.39    0.72
  -7   0   5   -0.53    1.16
  -7   0   6    0.27    0.95
  -7   0   6   -0.86    1.59
  -7   0   7   -0.73    2.18
  -7   0   7    1.04    1.20
  -7   0   8   -0.96    1.30
  -7   0   8    0.46    0.80
  -7   0   9   -0.53    0.87
  -7   0   9   -0.72    1.16
  -7   0  10    1.79    2.49
  -7   0  10    0.73    1.60
  -7   0  11    0.06    1.18
  -7   0  11    0.60    1.52
  -7   0  12    0.35    1.73
  -7   0  12   -0.24    1.00
  -7   0  13    1.91    2.06
  -7   0  13    0.08    0.78
  -7   0  14   -0.12    2.65
  -7   0  15    2.68    3.02
  -7   0  16   -1.94    3.52
  -7   0  17    0.06    1.65
  -7   0  18    2.51    2.96
  -7   0  19   -1.22    2.19
  -7   0  20    0.01    2.86
  -7   0  21   -2.03    3.04
  -7   0  22    1.80    2.18
  -7   1 -29   12.23    5.03
  -7   1 -28  209.03   19.79
  -7   1 -27   14.32    5.86
  -7   1 -26   26.84    7.59
  -7   1 -25   98.60   13.30
  -7   1 -24  395.07   25.36
  -7  -1 -24   -7.86    3.56
  -7  -1 -23   46.48    8.14
  -7   1 -23   43.37    8.78
  -7  -1 -22  107.25   12.70
  -7   1 -22  106.39   12.80
  -7  -1 -21   55.94    9.33
  -7   1 -21   64.40   10.09
  -7  -1 -20  160.58   14.95
  -7   1 -20  201.95   16.77
  -7  -1 -19  123.38   13.19
  -7   1 -19  123.60   13.35
  -7  -1 -18  111.23   11.45
  -7   1 -18  129.04   13.49
  -7  -1 -17   98.45   11.01
  -7   1 -17  101.27   11.56
  -7   1 -16  819.35   32.30
  -7  -1 -16  743.18   29.19
  -7  -1 -15  184.44   14.17
  -7   1 -15  175.11   14.61
  -7  -1 -14 1527.43   39.79
  -7   1 -14 1468.78   41.76
  -7   1 -14 1400.90   37.63
  -7  -1 -14 1413.44   38.85
  -7  -1 -13   64.20    8.06
  -7   1 -13   54.92    8.44
  -7   1 -13   45.86    6.85
  -7  -1 -13   50.39    7.07
  -7   1 -12  157.24   13.48
  -7  -1 -12  176.56   12.89
  -7  -1 -12  147.35   11.95
  -7   1 -12  145.42   11.80
  -7  -1 -11  230.72   11.87
  -7  -1 -11  240.81   14.83
  -7   1 -11  248.13   16.84
  -7  -1 -11  230.54   14.73
  -7   1 -11  227.17   14.98
  -7   1 -10  140.77   11.31
  -7  -1 -10  122.53    8.71
  -7   1 -10  144.84   12.22
  -7  -1 -10  118.06   10.11
  -7  -1 -10  136.65   11.17
  -7   1  -9    5.49    2.08
  -7  -1  -9    8.05    1.98
  -7   1  -9    8.53    2.89
  -7  -1  -9    5.13    1.73
  -7  -1  -9    8.52    2.58
  -7   1  -8  177.53   12.33
  -7  -1  -8  183.62   11.05
  -7   1  -8  182.79   13.24
  -7  -1  -8  176.41   12.37
  -7   1  -7  238.04   14.21
  -7  -1  -7  263.95   13.07
  -7   1  -7  238.89   15.04
  -7  -1  -7  258.95   14.33
  -7  -1  -7  255.80   14.67
  -7   1  -6  427.39   19.19
  -7  -1  -6  398.92   16.31
  -7  -1  -6  422.84   18.02
  -7   1  -6  385.91   18.91
  -7  -1  -6  422.77   18.55
  -7   1  -5  545.22   21.68
  -7  -1  -5  560.84   19.48
  -7   1  -5  544.65   22.23
  -7  -1  -5  544.89   20.23
  -7  -1  -5  568.19   21.05
  -7   1  -4  415.14   18.93
  -7  -1  -4  397.57   16.33
  -7   1  -4  430.71   19.60
  -7  -1  -4  399.08   17.11
  -7  -1  -4  396.13   17.73
  -7   1  -3  635.63   23.39
  -7   1  -3  606.78   22.78
  -7  -1  -3  623.35   20.70
  -7  -1  -3  620.90   21.01
  -7  -1  -3  633.88   22.54
  -7   1  -2 1369.16   34.00
  -7   1  -2 1389.54   34.61
  -7  -1  -2 1342.66   30.67
  -7  -1  -2 1353.90   30.86
  -7  -1  -2 1304.96   31.57
  -7   1  -1   23.41    4.65
  -7   1  -1   28.19    4.86
  -7  -1  -1   23.97    4.15
  -7  -1  -1   20.92    4.37
  -7  -1   0    1.79    1.82
  -7  -1   0    3.85    2.27
  -7   1   0    1.22    1.18
  -7   1   0    1.99    2.24
  -7  -1   1   28.29    4.66
  -7   1   1   28.83    5.25
  -7   1   1   30.05    5.21
  -7  -1   1   32.08    4.68
  -7  -1   2 1343.95   32.83
  -7   1   2 1342.90   34.42
  -7  -1   2 1365.38   30.73
  -7  -1   3  625.29   20.52
  -7  -1   3  636.91   22.47
  -7   1   3  635.63   23.76
  -7  -1   4  365.01   15.64
  -7   1   4  403.74   19.16
  -7  -1   5  505.97   18.40
  -7   1   5  523.41   21.93
  -7  -1   6  399.95   16.13
  -7  -1   6  359.50   18.16
  -7   1   6  383.28   18.82
  -7  -1   7  258.37   15.19
  -7  -1   7  242.70   12.43
  -7   1   7  270.61   16.05
  -7  -1   8  176.53   10.47
  -7  -1   8  182.35   12.91
  -7   1   8  157.93   12.27
  -7   1   9    4.79    2.76
  -7  -1   9   10.70    2.35
  -7  -1   9    5.44    3.16
  -7  -1  10  128.52    8.87
  -7  -1  10  136.94   11.68
  -7   1  10  125.59   11.21
  -7  -1  11  245.25   12.16
  -7  -1  11  238.50   15.47
  -7   1  11  258.72   16.57
  -7  -1  12  161.25   13.06
  -7   1  12  155.43   12.89
  -7  -1  12  173.30   10.30
  -7  -1  13   42.88    7.18
  -7   1  13   46.06    7.39
  -7  -1  13   55.03    5.72
  -7  -1  14 1371.38   28.52
  -7  -1  14 1445.78   40.65
  -7   1  14 1434.49   40.71
  -7  -1  15  172.13   14.43
  -7   1  15  156.93   13.68
  -7  -1  16  837.93   31.85
  -7   1  16  785.99   31.75
  -7  -1  17   97.30   11.41
  -7   1  17   95.14   11.50
  -7  -1  18   96.13   11.59
  -7   1  18   99.30   11.88
  -7  -1  19  112.19   12.85
  -7   1  19  145.64   14.26
  -7  -1  20  170.30   15.41
  -7   1  20  193.42   17.01
  -7  -1  21   65.56    9.75
  -7   1  21   66.62   10.62
  -7  -1  22  125.71   14.39
  -7  -1  23   53.25    9.14
  -7  -1  24  382.50   26.44
  -7   2 -28   25.78    7.19
  -7   2 -27   13.54    6.03
  -7   2 -26    3.91    3.73
  -7   2 -25   50.26    9.48
  -7   2 -24   18.90    5.64
  -7   2 -23   47.75    8.43
  -7   2 -22   26.91    6.68
  -7   2 -21   56.27    9.30
  -7   2 -20   52.64    9.33
  -7   2 -19    2.13    2.90
  -7  -2 -18  110.55   12.52
  -7   2 -18  107.33   12.41
  -7   2 -17   56.46    8.74
  -7  -2 -17   76.47    8.92
  -7  -2 -17   59.07    8.50
  -7  -2 -16  836.96   29.63
  -7   2 -16  788.88   32.04
  -7  -2 -16  803.75   30.76
  -7  -2 -15  174.18   13.27
  -7   2 -15  172.10   14.87
  -7   2 -15  142.09   13.30
  -7  -2 -15  153.17   13.20
  -7  -2 -14  224.78   14.95
  -7   2 -14  235.19   17.39
  -7   2 -14  240.80   16.89
  -7  -2 -14  221.91   15.32
  -7   2 -13  148.00   12.93
  -7  -2 -13  128.44   11.41
  -7   2 -13  126.55   12.85
  -7  -2 -13  132.08   11.16
  -7   2 -12  360.30   20.49
  -7  -2 -12  345.28   18.98
  -7  -2 -12  366.79   17.89
  -7   2 -12  356.87   20.84
  -7  -2 -11   22.16    4.43
  -7   2 -11   17.80    4.47
  -7  -2 -11   16.43    2.69
  -7   2 -11   30.09    6.12
  -7  -2 -10   60.10    6.11
  -7  -2 -10   71.19    7.68
  -7  -2 -10   69.45    8.17
  -7   2 -10   63.78    8.24
  -7   2 -10   58.24    8.03
  -7  -2  -9  258.55   12.34
  -7  -2  -9  252.61   13.65
  -7  -2  -9  267.75   15.65
  -7   2  -9  241.87   15.98
  -7   2  -8  687.26   26.66
  -7   2  -8  661.13   26.15
  -7  -2  -8  698.93   22.37
  -7  -2  -8  711.14   20.81
  -7  -2  -8  702.09   25.27
  -7  -2  -7   18.30    3.36
  -7  -2  -7   21.96    4.69
  -7   2  -7   22.49    4.89
  -7  -2  -7   26.99    4.47
  -7   2  -7   24.08    5.29
  -7   2  -6   58.78    7.59
  -7  -2  -6   64.89    6.70
  -7  -2  -6   65.86    6.36
  -7   2  -6   58.93    7.81
  -7  -2  -6   65.87    7.66
  -7  -2  -5  306.16   16.13
  -7  -2  -5  296.16   13.97
  -7   2  -5  278.00   16.62
  -7   2  -5  300.95   17.01
  -7  -2  -5  314.03   14.52
  -7  -2  -4   51.04    6.45
  -7   2  -4   48.06    6.63
  -7   2  -4   37.45    6.09
  -7  -2  -4   47.41    5.68
  -7  -2  -4   49.32    5.78
  -7  -2  -3  392.05   17.95
  -7  -2  -3  387.73   16.49
  -7   2  -3  320.53   17.76
  -7   2  -3  385.92   19.17
  -7  -2  -3  340.34   14.79
  -7  -2  -2  141.47   10.30
  -7   2  -2  137.36   11.47
  -7  -2  -2  125.24   10.11
  -7   2  -2  123.98   10.56
  -7  -2  -2  138.82    9.58
  -7  -2  -1    5.60    2.48
  -7   2  -1    5.70    3.10
  -7   2  -1    3.47    2.18
  -7  -2  -1    2.04    1.34
  -7  -2   0    5.50    2.17
  -7   2   0    0.18    1.62
  -7  -2   0    2.64    1.78
  -7   2   0    0.83    1.71
  -7  -2   1    4.38    1.84
  -7   2   1    2.62    1.73
  -7  -2   1    3.98    2.11
  -7   2   1    1.69    2.18
  -7  -2   2  119.92    9.44
  -7  -2   2  129.13   10.40
  -7   2   2  140.03   11.74
  -7   2   2  130.64   10.79
  -7  -2   3  370.40   16.61
  -7  -2   3  327.98   16.49
  -7   2   3  368.25   18.73
  -7  -2   4   49.37    6.03
  -7  -2   4   58.04    7.15
  -7   2   4   53.25    7.06
  -7  -2   5  300.90   14.92
  -7  -2   5  287.32   16.01
  -7   2   5  315.23   17.33
  -7  -2   6   53.01    6.36
  -7  -2   6   62.77    7.29
  -7   2   6   51.54    7.35
  -7  -2   7   21.37    4.88
  -7   2   7   14.66    3.84
  -7  -2   8  704.26   22.89
  -7  -2   8  659.65   25.35
  -7   2   8  650.46   25.67
  -7  -2   9  271.14   13.88
  -7  -2   9  254.12   15.83
  -7   2   9  253.40   16.22
  -7  -2  10   73.40    7.20
  -7  -2  10   68.30    8.35
  -7   2  10   65.20    8.36
  -7  -2  11   18.95    3.88
  -7   2  11   18.40    4.88
  -7  -2  11   17.60    4.44
  -7  -2  12  329.34   18.98
  -7   2  12  364.99   20.57
  -7  -2  12  342.67   15.86
  -7  -2  13  122.97    9.36
  -7  -2  13  144.56   12.55
  -7   2  13  129.05   12.38
  -7  -2  14  232.76   12.87
  -7  -2  14  234.83   16.43
  -7   2  14  252.00   17.47
  -7  -2  15  163.29   10.69
  -7  -2  15  162.39   13.96
  -7   2  15  151.20   13.84
  -7  -2  16  865.35   32.87
  -7   2  16  750.35   31.23
  -7  -2  17   58.69    8.61
  -7   2  17   63.74    9.02
  -7  -2  18  102.15   11.76
  -7   2  18  128.79   13.77
  -7  -2  19    1.28    2.01
  -7   2  19    7.07    4.70
  -7  -2  20   38.18    7.27
  -7   2  20   55.84    9.50
  -7  -2  21   61.70    9.78
  -7  -2  22   17.67    4.66
  -7  -2  23   31.45    8.51
  -7  -2  24   22.95    7.06
  -7  -2  25   44.78    8.20
  -7   3 -28   73.48   11.93
  -7   3 -27    6.61    4.68
  -7   3 -26  108.75   13.85
  -7   3 -25    6.71    3.59
  -7   3 -24  329.07   24.23
  -7   3 -23   14.21    3.97
  -7   3 -22    0.14    3.34
  -7   3 -21    5.38    2.14
  -7   3 -20  474.04   27.12
  -7   3 -19   26.35    6.13
  -7   3 -18  873.59   36.02
  -7   3 -18  872.70   36.56
  -7  -3 -18  923.96   34.54
  -7   3 -17   17.57    5.20
  -7   3 -17   22.12    6.34
  -7  -3 -17   16.05    5.18
  -7   3 -16   19.03    5.05
  -7   3 -16   19.30    4.85
  -7  -3 -16   10.83    3.73
  -7  -3 -15   32.08    6.31
  -7   3 -15   30.73    6.95
  -7   3 -15   30.33    6.75
  -7   3 -14 1668.70   47.68
  -7  -3 -14 1804.94   45.39
  -7  -3 -13    8.98    3.71
  -7   3 -13    6.64    3.09
  -7   3 -13   10.13    3.86
  -7  -3 -12 1613.32   35.19
  -7   3 -12 1682.35   46.15
  -7   3 -12 1669.39   46.14
  -7  -3 -11  123.03    9.50
  -7   3 -11  111.27   12.25
  -7   3 -11  122.60   12.60
  -7  -3 -11  108.89   10.86
  -7  -3 -10   70.58    6.78
  -7   3 -10   74.77    9.83
  -7   3 -10   66.04    8.78
  -7  -3 -10   76.26    9.04
  -7  -3  -9   41.19    6.61
  -7   3  -9   36.21    6.45
  -7   3  -9   19.96    4.61
  -7  -3  -9   31.70    4.48
  -7  -3  -8 1390.95   37.03
  -7  -3  -8 1436.70   29.67
  -7   3  -8 1442.76   40.18
  -7  -3  -8 1416.39   29.95
  -7   3  -8 1436.06   41.81
  -7  -3  -7   26.43    4.45
  -7  -3  -7   29.58    5.44
  -7   3  -7   18.65    4.74
  -7  -3  -7   32.86    4.25
  -7   3  -7   15.92    3.89
  -7   3  -6  937.82   32.86
  -7  -3  -6  885.53   24.59
  -7   3  -6  935.19   31.54
  -7  -3  -6  868.60   23.01
  -7   3  -5   54.04    7.83
  -7  -3  -5   76.16    8.41
  -7  -3  -5   64.46    6.65
  -7   3  -5   80.82    9.20
  -7  -3  -5   98.37    7.75
  -7  -3  -4    3.69    2.17
  -7   3  -4    8.76    3.06
  -7  -3  -4    6.24    2.43
  -7   3  -4    8.84    3.16
  -7  -3  -4    6.99    2.43
  -7  -3  -3   36.96    5.87
  -7   3  -3   30.50    6.54
  -7  -3  -3   35.47    5.46
  -7   3  -3   32.30    6.04
  -7  -3  -3   22.75    3.85
  -7  -3  -2 1380.82   35.22
  -7   3  -2 1385.24   38.32
  -7  -3  -2 1359.30   32.84
  -7   3  -2 1414.05   37.75
  -7  -3  -1   14.75    3.29
  -7  -3  -1   24.76    4.89
  -7   3  -1   22.23    4.99
  -7   3  -1   18.84    4.96
  -7  -3   0    0.86    1.65
  -7  -3   0   -0.50    1.00
  -7   3   0    0.56    1.76
  -7   3   0   -1.09    2.40
  -7  -3   1   22.13    4.40
  -7  -3   1   12.36    3.40
  -7   3   1   24.32    5.00
  -7   3   1   29.38    5.50
  -7  -3   2 1233.54   32.62
  -7   3   2 1291.49   37.33
  -7  -3   2 1390.54   34.81
  -7   3   2 1366.91   36.46
  -7  -3   3   29.60    5.38
  -7  -3   3   24.39    4.59
  -7   3   3   28.04    5.57
  -7   3   3   28.89    5.56
  -7  -3   4    6.15    2.24
  -7  -3   4    7.87    2.81
  -7   3   4    4.76    3.19
  -7   3   4    3.03    2.60
  -7  -3   5   66.26    7.49
  -7   3   5   65.58    8.73
  -7  -3   5   67.41    7.99
  -7  -3   6  829.72   26.62
  -7   3   6  887.34   31.00
  -7  -3   6  882.85   29.05
  -7  -3   7   22.57    4.34
  -7  -3   7   23.55    4.95
  -7   3   7   19.13    4.39
  -7  -3   8 1435.92   35.22
  -7  -3   8 1458.86   38.83
  -7  -3   9   28.40    5.13
  -7   3   9   27.53    5.43
  -7  -3   9   28.86    6.41
  -7  -3  10   70.49    7.73
  -7   3  10   59.43    8.38
  -7  -3  10   79.25    9.23
  -7  -3  11  124.54   10.35
  -7   3  11  106.98   11.50
  -7  -3  11  128.10   11.71
  -7   3  12 1507.66   42.72
  -7  -3  12 1587.63   42.81
  -7  -3  13   10.56    3.93
  -7  -3  13    7.77    3.28
  -7   3  13    9.44    3.38
  -7  -3  14 1849.81   40.54
  -7   3  14 1925.66   50.25
  -7  -3  14 1842.58   47.18
  -7  -3  15   36.36    5.90
  -7  -3  15   33.21    6.81
  -7   3  15   24.60    5.04
  -7   3  16   16.31    5.86
  -7  -3  16    7.90    4.19
  -7  -3  16   11.35    3.60
  -7  -3  17   15.84    5.21
  -7   3  17   13.06    4.71
  -7   3  18  945.62   37.79
  -7  -3  18  884.28   35.11
  -7  -3  19   28.34    6.83
  -7   3  19   32.55    8.15
  -7  -3  20  465.90   26.70
  -7  -3  21    2.38    3.47
  -7  -3  22    0.39    2.92
  -7  -3  23   17.38    6.07
  -7  -3  24  309.57   22.90
  -7  -3  25    1.84    4.59
  -7  -3  26   65.85   10.85
  -7   4 -27   50.73   10.35
  -7   4 -26   -2.84    2.86
  -7   4 -25   12.61    6.46
  -7   4 -24    9.37    3.88
  -7   4 -23   -0.74    1.97
  -7   4 -22   54.16    9.83
  -7   4 -21   28.13    6.82
  -7   4 -20    6.38    2.56
  -7   4 -19  356.56   23.33
  -7   4 -19  277.97   23.14
  -7   4 -18  117.64   13.88
  -7   4 -18  133.07   14.44
  -7  -4 -17   29.91    6.70
  -7   4 -17   31.62    6.84
  -7   4 -17   44.51    8.93
  -7  -4 -16   32.97    7.37
  -7   4 -16   37.69    8.74
  -7   4 -16   17.08    5.04
  -7  -4 -15   61.46    8.66
  -7   4 -15   77.31   10.92
  -7   4 -15   71.62   10.30
  -7   4 -14  215.92   18.17
  -7   4 -14  229.25   17.86
  -7  -4 -14  219.21   16.54
  -7   4 -13  175.66   15.41
  -7   4 -13  147.62   14.82
  -7  -4 -13  144.91   12.98
  -7  -4 -12   32.70    6.46
  -7   4 -12   35.22    7.07
  -7   4 -12   45.76    8.04
  -7  -4 -11  304.92   18.57
  -7   4 -11  296.21   20.45
  -7  -4 -10   18.11    5.11
  -7   4 -10   14.70    3.83
  -7   4  -9    1.46    1.84
  -7  -4  -9    0.68    1.95
  -7   4  -9    2.19    3.20
  -7  -4  -8   82.16    7.70
  -7  -4  -8   89.01    9.84
  -7   4  -8   81.95    9.58
  -7   4  -8   88.06   11.29
  -7  -4  -7  791.23   29.28
  -7  -4  -7  763.81   23.82
  -7   4  -7  764.83   30.20
  -7   4  -7  759.67   32.21
  -7  -4  -6   78.70    9.52
  -7  -4  -6   85.40    8.29
  -7   4  -6  100.84   10.81
  -7   4  -6   90.63   11.00
  -7   4  -5   11.48    4.24
  -7  -4  -5   18.15    4.75
  -7  -4  -5   16.93    4.04
  -7   4  -5    7.67    2.35
  -7  -4  -5   11.38    2.61
  -7  -4  -4   14.08    2.88
  -7  -4  -4   15.07    3.56
  -7   4  -4   10.22    4.15
  -7   4  -4    9.98    3.72
  -7  -4  -4   13.03    2.87
  -7   4  -3  148.43   13.51
  -7  -4  -3  147.87   12.16
  -7   4  -3  148.01   12.88
  -7  -4  -3  140.46   10.87
  -7  -4  -3  113.84    8.14
  -7  -4  -2   18.85    4.05
  -7   4  -2   28.07    5.59
  -7  -4  -2   15.59    3.49
  -7   4  -2   22.93    5.63
  -7  -4  -1   10.00    4.28
  -7   4  -1   17.68    4.69
  -7  -4  -1    6.60    3.11
  -7   4  -1   13.39    4.36
  -7  -4   0    1.16    2.66
  -7   4   0    3.55    2.69
  -7  -4   0   -0.21    1.51
  -7   4   0    0.75    1.53
  -7  -4   1   10.06    3.79
  -7   4   1   13.77    4.26
  -7  -4   1    8.10    3.10
  -7   4   1    6.96    2.22
  -7  -4   2   20.22    4.28
  -7   4   2   24.08    5.26
  -7  -4   2   25.14    4.81
  -7   4   2   20.39    4.43
  -7  -4   3  147.44   11.95
  -7   4   3  158.19   13.56
  -7   4   3  119.18   11.22
  -7  -4   3  141.92   11.69
  -7  -4   4    9.51    3.41
  -7   4   4   19.30    5.48
  -7  -4   4   14.31    3.99
  -7   4   4    9.80    3.17
  -7  -4   5   24.68    5.12
  -7   4   5   15.33    4.68
  -7  -4   5   15.41    4.34
  -7   4   5   12.53    3.92
  -7  -4   6   99.62    9.94
  -7   4   6  116.84   11.77
  -7   4   6  108.68   10.75
  -7  -4   6   93.20   10.01
  -7  -4   7  756.55   26.96
  -7   4   7  779.70   31.14
  -7  -4   7  739.96   28.44
  -7  -4   8   77.40    8.72
  -7   4   8   73.04    9.41
  -7  -4   8   78.80    9.11
  -7  -4   9    4.04    2.55
  -7   4   9    1.60    1.63
  -7  -4   9    2.35    3.25
  -7  -4  10   27.66    5.44
  -7   4  10   23.48    5.30
  -7  -4  10   14.14    4.26
  -7  -4  11  284.88   17.04
  -7   4  11  280.01   18.55
  -7  -4  11  290.49   18.53
  -7  -4  12   28.41    5.83
  -7   4  12   31.56    6.90
  -7  -4  12   39.82    7.18
  -7  -4  13  154.13   12.78
  -7   4  13  167.58   14.91
  -7  -4  13  146.07   13.26
  -7  -4  14  207.27   14.52
  -7   4  14  201.08   16.50
  -7  -4  14  211.74   16.61
  -7  -4  15   63.66    8.47
  -7   4  15   75.59   10.56
  -7  -4  15   61.53    9.19
  -7  -4  16   24.32    4.98
  -7  -4  16   33.40    7.41
  -7   4  16   39.74    8.72
  -7  -4  17   34.12    6.82
  -7   4  17   27.48    6.28
  -7   4  18  121.01   13.64
  -7  -4  18  124.67   13.44
  -7  -4  19  399.98   24.22
  -7  -4  20    2.59    1.79
  -7  -4  21   34.60    7.34
  -7  -4  22   56.31    9.16
  -7  -4  23    3.12    2.93
  -7  -4  24   11.21    6.14
  -7  -4  25    7.08    3.74
  -7  -4  26    8.84    5.64
  -7   5 -26    9.82    5.95
  -7   5 -25   38.40    8.03
  -7   5 -24  234.17   20.65
  -7   5 -23   19.22    6.43
  -7   5 -22  119.07   14.45
  -7   5 -21   18.35    6.80
  -7   5 -20   19.57    4.95
  -7   5 -20   15.83    5.56
  -7   5 -19   72.10   11.03
  -7   5 -19   78.63   11.46
  -7   5 -18  557.37   29.69
  -7   5 -18  468.79   29.44
  -7   5 -17  181.49   16.68
  -7   5 -17  157.65   16.79
  -7  -5 -17  169.73   15.82
  -7  -5 -16    0.17    1.84
  -7   5 -16    2.26    3.75
  -7   5 -16    3.38    3.27
  -7  -5 -15   15.05    4.17
  -7   5 -15   13.33    3.54
  -7   5 -15   12.70    5.53
  -7  -5 -14   15.34    4.34
  -7   5 -14   27.29    6.34
  -7   5 -14   13.53    4.94
  -7   5 -13    0.97    2.64
  -7  -5 -13    0.42    1.91
  -7   5 -13    2.30    2.67
  -7  -5 -12  353.21   21.33
  -7   5 -12  336.93   21.76
  -7   5 -12  363.00   23.82
  -7  -5 -11   45.07    7.76
  -7   5 -11   46.50    7.98
  -7   5 -11   46.63    8.82
  -7   5 -10   13.53    5.45
  -7  -5 -10    9.97    3.48
   7  -5 -10   10.69    3.52
  -7   5 -10    5.29    3.30
  -7   5  -9   22.87    6.27
   7  -5  -9   11.17    3.70
  -7  -5  -9   21.43    4.89
  -7   5  -9   22.45    5.45
  -7  -5  -8  419.61   22.58
  -7   5  -8  457.39   24.28
   7  -5  -8  455.06   21.59
  -7   5  -8  482.00   26.58
  -7  -5  -7   96.44   11.06
  -7   5  -7   86.47   10.72
  -7  -5  -7   93.67    9.03
  -7   5  -7   77.64   11.56
  -7   5  -6   20.77    5.13
  -7  -5  -6   16.77    4.57
  -7  -5  -6   23.13    4.26
  -7   5  -6   16.34    4.64
  -7  -5  -5   64.68    8.81
  -7   5  -5   66.21    8.59
  -7  -5  -5   55.05    7.25
  -7   5  -5   56.54    9.04
  -7  -5  -4   66.06    8.98
  -7   5  -4   77.10    9.79
  -7  -5  -4   73.35    8.11
  -7   5  -4   83.25   11.04
  -7  -5  -3  124.40   11.76
  -7   5  -3   92.17   10.62
  -7  -5  -3  122.72   10.92
  -7   5  -3  123.96   13.61
  -7  -5  -2  409.30   21.07
  -7   5  -2  363.72   20.81
  -7  -5  -2  379.13   19.47
  -7   5  -2  333.89   21.75
  -7   5  -1   15.74    5.72
  -7  -5  -1   11.31    3.60
  -7   5  -1   10.13    2.98
  -7  -5  -1   10.23    3.59
  -7   5   0   -0.92    3.44
  -7  -5   0    1.51    1.79
  -7   5   0    0.24    1.64
  -7  -5   0    1.34    2.22
  -7   5   1    7.44    4.68
  -7  -5   1   17.84    4.43
  -7   5   1   10.20    2.87
  -7  -5   1   13.68    4.58
  -7  -5   2  344.76   19.29
  -7   5   2  401.43   23.40
  -7  -5   2  396.24   20.56
  -7   5   2  366.78   20.93
  -7  -5   3  124.35   11.81
  -7  -5   3  130.07   11.50
  -7   5   3  108.26   12.25
  -7   5   3   99.39   10.68
  -7  -5   4   73.98    9.26
  -7   5   4   75.53   10.25
  -7  -5   4   82.08    9.44
  -7   5   4   86.41   10.02
  -7  -5   5   42.90    7.04
  -7  -5   5   49.68    7.66
  -7   5   5   49.14    7.47
  -7  -5   6   29.81    5.51
  -7   5   6   24.29    5.33
  -7   5   6   18.49    4.93
  -7  -5   6   14.38    4.44
  -7  -5   7   92.33   10.46
  -7   5   7   98.45   11.49
  -7  -5   7   88.37    9.84
  -7   5   7   93.91   10.69
  -7  -5   8  442.03   23.26
  -7   5   8  481.70   25.27
  -7  -5   8  432.72   22.19
  -7   5   8  410.70   22.29
  -7  -5   9   17.84    5.12
  -7   5   9   17.98    5.15
  -7   5   9   18.37    4.85
  -7  -5   9   19.26    5.30
  -7  -5  10   13.10    4.56
  -7   5  10    9.13    2.99
  -7  -5  10   10.87    3.50
  -7   5  10   14.06    4.52
  -7   5  11   59.45    9.63
  -7  -5  11   43.25    7.13
  -7  -5  11   52.73    8.01
  -7  -5  12  364.53   20.70
  -7   5  12  334.45   22.18
  -7  -5  12  346.38   21.31
  -7  -5  13    0.39    2.30
  -7   5  13    3.62    2.89
  -7  -5  13    2.56    3.75
  -7  -5  14   32.44    6.37
  -7   5  14   21.68    5.90
  -7  -5  14   28.40    6.43
  -7  -5  15   10.83    4.39
  -7   5  15   11.50    6.13
  -7  -5  15   12.52    3.71
  -7  -5  16    0.35    2.55
  -7   5  16   -0.18    3.11
  -7  -5  16    2.24    2.08
  -7  -5  17  173.06   15.04
  -7  -5  17  171.68   16.10
  -7  -5  18  474.92   26.55
  -7  -5  19   82.19   11.60
  -7  -5  20   25.82    6.08
  -7  -5  21   16.21    5.92
  -7  -5  22  135.93   14.98
  -7  -5  23   11.47    5.76
  -7  -5  24  198.79   18.94
  -7  -5  25   24.78    7.34
  -7  -5  26    2.28    3.83
  -7   6 -24    0.66    2.29
  -7   6 -23   10.55    3.13
  -7   6 -22    9.21    7.16
  -7   6 -21   35.24    8.07
  -7   6 -21   28.23    9.07
  -7   6 -20    3.23    3.06
  -7   6 -20   -1.50    2.47
  -7   6 -19    4.43    2.27
  -7   6 -19   14.88    6.29
  -7   6 -18    2.56    3.05
  -7   6 -18    1.65    3.33
  -7   6 -17    4.99    3.14
  -7   6 -17   -2.76    2.43
  -7  -6 -16   -2.38    2.83
  -7   6 -16    8.38    2.78
  -7   6 -16    1.99    3.10
  -7  -6 -15   12.25    3.98
  -7   6 -15   13.47    3.99
  -7   6 -15   20.72    6.14
  -7  -6 -14   37.28    8.12
  -7   6 -14   40.93    7.86
  -7   6 -14   39.30    7.91
  -7  -6 -13   69.95   10.06
  -7   6 -13   70.96   11.20
  -7   6 -13   72.63   10.93
  -7  -6 -12   14.55    4.96
  -7   6 -12   16.48    5.71
  -7   6 -12   12.40    4.15
  -7  -6 -11   14.66    5.24
  -7   6 -11   37.78    7.58
  -7   6 -11   32.97    7.21
  -7  -6 -10   29.25    6.91
  -7   6 -10   25.21    5.99
  -7   6 -10   23.61    6.59
  -7  -6  -9   18.09    4.51
  -7   6  -9    9.03    4.19
   7  -6  -9    7.94    2.07
  -7   6  -9    6.87    3.85
  -7  -6  -8    2.90    2.80
   7  -6  -8   -1.72    2.13
  -7   6  -8    2.78    3.85
  -7   6  -8    1.32    3.85
  -7   6  -7   13.46    4.49
  -7  -6  -7    9.92    3.82
   7  -6  -7    9.86    4.35
  -7   6  -7    7.00    3.93
  -7   6  -6    3.60    3.44
  -7  -6  -6    1.66    2.27
  -7  -6  -6    3.41    2.39
   7  -6  -6    4.16    1.74
  -7  -6  -5   82.65    9.96
  -7   6  -5   60.99   10.16
   7  -6  -5   66.24    9.34
  -7   6  -5   62.82    9.32
  -7  -6  -5   78.10    9.25
  -7   6  -4   30.19    7.24
  -7  -6  -4   30.44    6.28
  -7   6  -4   17.89    5.29
   7  -6  -4   29.94    6.03
  -7  -6  -4   22.36    5.40
  -7   6  -3   13.85    5.32
  -7  -6  -3    7.48    3.41
  -7   6  -3    7.93    3.68
  -7  -6  -3    7.29    3.24
  -7  -6  -2   41.27    6.55
  -7   6  -2   46.72    8.28
  -7  -6  -2   55.40    8.81
  -7   6  -2   36.29    7.35
  -7  -6  -1   21.38    5.47
  -7   6  -1   27.25    7.01
  -7  -6  -1   23.00    5.05
  -7   6  -1   25.18    5.35
  -7  -6   0    2.12    1.46
  -7   6   0   -0.12    1.95
  -7  -6   0    0.63    1.23
  -7   6   0    3.51    2.74
  -7  -6   1   24.85    5.31
  -7   6   1   18.41    6.82
  -7  -6   1   27.81    5.54
  -7   6   1   19.98    5.27
  -7  -6   2   49.72    7.79
  -7  -6   2   36.24    6.88
  -7   6   2   43.12    8.75
  -7   6   2   44.77    8.22
  -7   6   3   17.71    5.20
  -7  -6   3    9.82    4.09
  -7  -6   3    9.56    2.55
  -7   6   3   14.47    4.49
  -7   6   4   18.03    5.50
  -7  -6   4   19.86    5.42
  -7  -6   4   21.52    4.83
  -7   6   4   27.06    6.21
  -7   6   5   70.36   10.13
  -7  -6   5   66.99    9.10
  -7  -6   5   70.49    9.84
  -7   6   5   56.51    9.20
  -7   6   6    1.35    2.91
  -7  -6   6    4.74    2.15
  -7  -6   6    1.48    1.82
  -7   6   6    4.20    3.18
  -7  -6   7    8.00    2.79
  -7   6   7    6.80    3.50
  -7  -6   7    0.82    1.39
  -7  -6   8    2.17    2.44
  -7   6   8   -1.32    1.90
  -7  -6   8    1.20    1.59
  -7   6   8    2.88    2.65
  -7  -6   9   19.21    5.12
  -7   6   9   11.16    4.99
  -7   6   9    3.56    2.66
  -7  -6   9   12.07    3.71
  -7  -6  10   16.12    5.45
  -7   6  10   17.98    5.33
  -7  -6  10   16.00    4.41
  -7   6  10   27.24    6.10
  -7  -6  11   21.28    5.60
  -7   6  11   30.32    8.19
  -7  -6  11   26.47    6.13
  -7   6  11   31.87    7.74
  -7   6  12   39.59    8.86
  -7  -6  12   29.57    6.89
  -7   6  12   14.91    4.93
  -7  -6  12   24.18    5.70
  -7  -6  13   65.27    9.61
  -7   6  13   83.05   12.56
  -7  -6  13   81.56   10.71
  -7   6  13   79.37   10.99
  -7   6  14   43.21    9.44
  -7  -6  14   35.66    6.73
  -7  -6  14   27.66    6.41
  -7   6  14   37.95    7.90
  -7   6  15    9.53    4.76
  -7  -6  15   20.67    5.36
  -7  -6  15   13.41    4.81
  -7  -6  16    0.52    3.41
  -7  -6  16    5.49    1.75
  -7  -6  17    6.57    4.61
  -7  -6  17   -0.01    2.92
  -7  -6  18    5.78    3.78
  -7  -6  19    5.81    2.71
  -7  -6  20   -2.92    2.07
  -7  -6  21   37.60    8.18
  -7  -6  22   -0.02    2.81
   7  -6  22   -0.97    3.47
  -7  -6  23    9.12    5.09
   7  -6  23   14.10    5.62
  -7  -6  24    8.52    4.93
   7  -6  24    3.78    5.04
  -7   7 -22   42.64    8.63
  -7   7 -22    6.01    6.65
  -7   7 -21    7.66    3.19
  -7   7 -21   18.58    7.63
  -7   7 -20   80.43   13.43
  -7   7 -20   75.94   12.26
  -7   7 -19    0.58    2.66
  -7   7 -19   -3.27    2.68
  -7   7 -18  292.89   22.10
  -7   7 -18  264.70   23.21
  -7   7 -17   31.17    7.57
  -7   7 -17   41.32    8.48
  -7  -7 -16   26.74    8.35
  -7   7 -16   12.09    5.09
  -7   7 -16   15.19    5.12
  -7   7 -15    1.75    4.10
  -7  -7 -15    1.22    3.20
  -7   7 -15    8.48    2.10
  -7  -7 -14   49.42    9.29
  -7   7 -14   44.32    8.04
  -7   7 -14   55.14   10.37
  -7   7 -13   20.78    6.08
  -7  -7 -13   20.91    6.22
  -7   7 -13   13.68    4.34
  -7  -7 -12  303.27   21.44
  -7   7 -12  336.83   25.29
  -7   7 -12  353.69   23.62
  -7   7 -11    9.18    3.54
  -7  -7 -11   17.58    5.76
  -7   7 -11   15.91    4.25
  -7  -7 -10    5.51    3.58
  -7   7 -10    4.22    3.18
  -7   7 -10   -3.42    3.46
  -7  -7  -9    9.66    4.26
   7  -7  -9    8.74    4.65
  -7   7  -9    5.60    3.84
  -7   7  -9    5.87    3.69
  -7  -7  -8  534.86   27.78
   7  -7  -8  538.64   27.09
  -7   7  -8  535.28   28.35
  -7   7  -8  522.42   30.26
  -7  -7  -7   23.42    6.20
  -7   7  -7   20.87    5.93
  -7   7  -7   24.96    7.40
   7  -7  -7   19.09    5.40
   7  -7  -6   41.28    7.24
  -7  -7  -6   43.02    7.40
  -7   7  -6   38.70    7.50
  -7   7  -6   32.63    8.05
  -7   7  -5   25.31    6.98
  -7  -7  -5   23.25    5.89
  -7   7  -5   29.79    7.00
   7  -7  -5   22.32    5.88
  -7  -7  -5   23.25    6.48
  -7  -7  -4  200.33   15.80
  -7  -7  -4  207.16   16.70
   7  -7  -4  212.51   16.70
  -7   7  -4  205.75   17.11
  -7   7  -4  184.77   17.61
  -7   7  -3    0.72    2.70
  -7  -7  -3    3.30    2.85
  -7  -7  -3    2.05    2.75
   7  -7  -3    2.96    2.78
  -7   7  -3    0.35    1.85
  -7  -7  -2  210.20   16.50
  -7  -7  -2  260.47   18.64
   7  -7  -2  218.37   17.46
  -7   7  -2  242.33   18.29
  -7   7  -2  196.15   18.27
  -7   7  -1   22.16    6.95
  -7  -7  -1   20.41    5.65
  -7  -7  -1   26.01    5.37
   7  -7  -1   21.56    5.01
  -7   7  -1   21.15    6.03
  -7   7   0    4.09    3.26
  -7  -7   0    3.51    3.12
  -7  -7   0    4.17    2.97
   7  -7   0    7.65    3.89
  -7   7   0    1.28    2.56
  -7   7   1   23.47    6.35
  -7  -7   1   29.61    6.40
  -7  -7   1   21.64    5.12
   7  -7   1   11.88    4.25
  -7   7   1   17.63    5.16
  -7  -7   2  227.74   17.41
  -7  -7   2  237.41   17.83
  -7   7   2  229.70   17.71
  -7   7   2  262.03   20.60
   7  -7   2  199.57   16.33
  -7   7   3    2.34    4.00
  -7  -7   3    4.33    3.08
  -7  -7   3    0.78    3.59
   7  -7   3    1.86    3.10
  -7   7   3    2.99    2.71
  -7  -7   4  229.27   17.28
  -7  -7   4  181.38   15.96
  -7   7   4  205.23   17.16
  -7   7   4  179.57   17.14
  -7   7   5   21.75    6.35
  -7  -7   5   26.91    6.13
  -7  -7   5   21.04    4.74
  -7   7   5   13.61    5.21
  -7   7   6   41.62    9.38
  -7  -7   6   50.48    8.41
  -7  -7   6   42.99    7.36
  -7   7   6   52.43    8.84
  -7   7   7   21.45    6.75
  -7  -7   7   15.30    4.51
  -7  -7   7   23.98    6.36
  -7   7   7   19.01    5.69
  -7  -7   8  544.34   27.75
  -7  -7   8  585.68   29.20
  -7   7   8  505.46   28.09
  -7   7   9    2.87    2.61
  -7  -7   9   10.85    4.64
  -7  -7   9   15.82    4.85
  -7   7   9   -0.06    2.79
  -7   7  10   -1.78    2.26
  -7  -7  10    1.43    2.42
  -7  -7  10    3.10    3.32
  -7   7  10    4.13    4.60
  -7   7  11   19.01    6.23
  -7  -7  11   19.12    5.68
  -7  -7  11   15.45    5.61
  -7  -7  12  342.67   23.00
  -7  -7  12  284.88   20.32
  -7  -7  13   33.89    7.32
  -7   7  13   18.49    6.70
  -7  -7  13   17.89    5.71
  -7  -7  14   52.54    9.14
  -7   7  14   57.53   11.22
  -7  -7  14   57.06    9.16
   7  -7  15   -4.22    2.33
  -7  -7  15    2.61    2.87
  -7  -7  16   16.60    3.94
   7  -7  16   23.40    7.39
  -7  -7  16   17.93    5.39
  -7  -7  17   23.31    5.80
   7  -7  17   23.91    6.48
  -7  -7  18  294.06   22.37
   7  -7  18  330.61   24.95
  -7  -7  18  311.28   22.60
  -7  -7  19    6.83    3.07
   7  -7  19    2.96    3.72
  -7  -7  20  117.55   14.62
   7  -7  20   79.62   12.65
   7  -7  21    7.01    5.03
  -7  -7  21   23.56    7.27
  -7  -7  22   48.18    9.28
   7  -7  22   54.62   10.41
  -7   8 -20    4.18    4.60
  -7   8 -20    1.03    4.32
  -7   8 -19    6.64    4.85
  -7   8 -19   -0.02    3.64
  -7   8 -18    8.31    4.43
  -7   8 -18   -1.74    4.88
  -7   8 -17   10.31    2.77
  -7   8 -17    9.86    5.32
  -7   8 -16   -3.64    3.76
  -7   8 -16    4.74    3.91
  -7  -8 -15   10.25    3.88
  -7   8 -15    7.30    5.24
  -7   8 -15    9.36    6.07
  -7  -8 -14   47.54    9.61
  -7   8 -14   61.57   11.16
  -7   8 -14   47.32    9.29
  -7  -8 -13   19.43    5.85
  -7   8 -13   33.10    8.25
  -7   8 -13   28.25    7.97
  -7  -8 -12   -1.15    2.37
  -7   8 -12    6.99    3.64
  -7   8 -12    1.72    3.60
  -7  -8 -11   10.13    4.50
  -7   8 -11    9.16    5.28
  -7   8 -11    5.81    2.09
  -7  -8 -10   -3.60    4.52
  -7   8 -10    1.08    2.89
  -7   8 -10    0.59    4.18
  -7  -8  -9    9.62    4.15
  -7   8  -9   14.91    4.65
  -7  -8  -8    3.70    3.99
  -7   8  -8   -1.03    3.30
   7  -8  -8    2.61    3.59
  -7   8  -8    1.32    2.19
  -7   8  -7   11.51    4.64
  -7  -8  -7   15.67    5.20
   7  -8  -7   23.40    5.65
  -7   8  -7   19.78    6.96
  -7  -8  -6   28.33    7.23
   7  -8  -6   36.00    7.66
  -7   8  -6   49.40    8.74
  -7   8  -6   29.87    7.71
  -7  -8  -5    8.93    4.63
  -7   8  -5   11.19    4.33
   7  -8  -5    6.20    3.25
  -7   8  -5    7.60    4.63
  -7  -8  -4    1.93    1.94
  -7   8  -4    0.36    2.64
  -7  -8  -4   -1.21    1.81
   7  -8  -4    5.27    3.47
  -7   8  -4    5.70    4.43
  -7  -8  -3    4.16    2.32
  -7  -8  -3   11.01    3.51
   7  -8  -3    8.23    4.00
  -7   8  -3   15.06    6.23
  -7   8  -3   11.44    4.34
  -7  -8  -2    9.65    3.45
  -7  -8  -2    4.01    2.76
   7  -8  -2    4.12    2.61
  -7   8  -2    6.03    2.83
  -7   8  -2    5.55    2.25
  -7   8  -1    1.60    2.90
  -7  -8  -1    6.94    2.74
  -7  -8  -1    4.09    3.05
   7  -8  -1    7.89    4.38
  -7   8  -1    6.97    4.56
  -7   8   0    4.22    3.76
  -7  -8   0   -0.37    1.55
  -7  -8   0   -1.75    2.70
   7  -8   0   -1.49    2.31
  -7   8   0   -1.18    2.59
  -7   8   1    4.79    4.08
  -7  -8   1    1.51    1.96
  -7  -8   1    5.60    2.92
   7  -8   1    6.66    2.05
  -7   8   1    7.75    3.07
  -7   8   2    3.04    3.67
  -7  -8   2   14.82    5.04
  -7  -8   2    2.30    1.99
   7  -8   2    7.01    4.05
  -7   8   2    9.88    4.22
  -7   8   3   16.61    5.54
  -7  -8   3    5.47    4.75
  -7  -8   3   14.63    5.54
   7  -8   3    5.73    2.88
  -7   8   3    6.80    4.27
  -7   8   4   11.59    5.57
  -7  -8   4   12.30    5.30
  -7  -8   4    1.05    1.86
   7  -8   4    5.81    3.84
  -7   8   4    1.54    3.04
  -7   8   5    1.25    2.97
  -7  -8   5   14.14    4.60
  -7  -8   5    6.67    2.59
   7  -8   5   15.99    6.37
  -7   8   6   40.34    8.95
  -7  -8   6   26.84    6.71
  -7  -8   6   33.79    7.37
   7  -8   6   48.82    8.73
  -7   8   7    9.30    3.40
  -7  -8   7    9.87    4.86
   7  -8   7   19.91    6.04
  -7   8   8    3.47    2.99
  -7  -8   8    7.88    3.66
  -7  -8   8    5.72    3.44
   7  -8   8    0.32    2.06
  -7   8   9   32.31    8.23
  -7  -8   9   28.00    6.62
  -7  -8   9   32.19    7.23
   7  -8   9   22.05    6.34
  -7   8  10    3.52    3.85
  -7  -8  10    0.43    4.46
  -7  -8  10   -1.15    1.49
   7  -8  10    2.95    4.19
  -7   8  11   11.95    5.33
  -7  -8  11    4.74    2.35
  -7  -8  11    8.31    3.67
   7  -8  11    6.30    3.39
  -7   8  12   -2.38    3.95
  -7  -8  12   -1.20    3.50
  -7  -8  12    3.51    2.64
   7  -8  12   -3.57    2.43
   7  -8  13   28.59    7.20
  -7  -8  13   18.10    5.35
  -7  -8  13   17.71    5.91
  -7  -8  14   46.15    9.58
  -7  -8  14   40.97    8.53
   7  -8  14   45.64    8.84
  -7  -8  15    8.92    4.25
  -7  -8  15   17.90    5.55
   7  -8  15    9.11    5.03
  -7  -8  16    1.61    3.88
   7  -8  16   10.87    4.82
  -7  -8  16    3.13    3.49
  -7  -8  17    9.48    4.21
   7  -8  17    6.55    5.10
  -7  -8  17   18.93    6.00
  -7  -8  18   -0.13    3.36
   7  -8  18    0.60    2.37
  -7  -8  18   -5.32    2.40
   7  -8  19    0.02    2.69
  -7  -8  19   -1.88    4.44
   7  -8  20    4.12    5.24
  -7  -8  20    5.88    5.33
  -7   9 -16   18.47    7.68
  -7   9 -16    1.38    4.11
  -7   9 -15    8.00    3.50
  -7   9 -15    7.56    5.02
  -7  -9 -14  182.65   18.59
  -7   9 -14  159.67   17.38
  -7   9 -14  184.19   19.46
  -7  -9 -13   20.05    7.57
  -7   9 -13    9.32    4.45
  -7   9 -13    8.89    6.17
  -7  -9 -12  214.09   19.91
  -7   9 -12  239.66   20.83
  -7   9 -12  184.38   19.99
  -7  -9 -11    8.75    4.59
  -7   9 -11    9.41    5.65
  -7   9 -11   10.41    4.78
  -7  -9 -10   23.10    7.47
  -7   9 -10   15.88    4.96
  -7   9 -10   18.14    6.52
  -7  -9  -9   23.90    6.72
  -7   9  -9    8.87    4.62
  -7   9  -9   23.37    7.54
  -7  -9  -8  405.45   26.16
  -7   9  -8  447.37   28.54
  -7   9  -8  407.96   29.52
  -7  -9  -7    5.09    4.95
   7  -9  -7    7.05    4.31
  -7   9  -7   12.74    6.08
  -7   9  -7    5.57    2.33
  -7  -9  -6   79.58   11.28
   7  -9  -6  123.41   14.45
  -7   9  -6  115.51   14.75
  -7   9  -6  101.68   14.79
  -7  -9  -5   14.19    4.85
   7  -9  -5    4.96    2.30
  -7   9  -5   14.96    5.52
  -7   9  -5   13.57    4.65
  -7  -9  -4  155.14   15.88
   7  -9  -4  111.79   13.36
  -7   9  -4  116.57   15.43
  -7   9  -4  138.38   14.84
  -7  -9  -3   -4.80    1.20
  -7  -9  -3    4.11    3.87
   7  -9  -3    3.34    2.81
  -7   9  -3   -6.44    4.75
  -7   9  -3    0.94    3.77
  -7  -9  -2  230.15   19.44
  -7  -9  -2  197.76   18.47
   7  -9  -2  205.76   18.39
  -7   9  -2  215.47   19.25
  -7   9  -2  204.82   19.60
  -7  -9  -1   -0.89    2.56
  -7  -9  -1    6.63    4.72
   7  -9  -1    1.22    2.81
  -7   9  -1    7.53    5.28
  -7  -9   0    4.95    2.98
   7  -9   0    1.42    2.19
  -7   9   0    3.49    2.62
  -7  -9   1    3.52    2.66
  -7  -9   1    9.03    5.05
   7  -9   1    8.91    4.43
  -7   9   1    4.88    3.17
  -7  -9   2  229.61   19.46
  -7  -9   2  218.52   18.70
   7  -9   2  189.83   17.71
  -7   9   2  208.50   19.59
  -7  -9   3    0.72    2.98
  -7  -9   3    2.16    2.95
   7  -9   3    1.02    1.90
  -7   9   3    4.36    5.48
  -7  -9   4  148.16   14.93
  -7  -9   4  147.89   15.56
   7  -9   4  147.66   15.14
  -7   9   4  141.40   17.58
  -7  -9   5    9.46    5.10
  -7  -9   5   14.26    5.57
   7  -9   5   17.54    5.98
  -7   9   5   13.90    4.75
  -7  -9   6   90.58   12.61
  -7  -9   6   95.72   12.84
   7  -9   6  105.11   13.17
  -7   9   6  103.35   14.16
   7  -9   7   20.15    5.73
  -7  -9   7   23.01    7.39
  -7  -9   7   13.20    5.79
  -7   9   7   12.80    5.22
  -7  -9   8  488.29   27.96
  -7  -9   8  454.70   28.01
   7  -9   8  414.30   26.07
  -7   9   8  389.54   28.56
  -7   9   9   18.22    7.55
  -7  -9   9   11.21    5.05
  -7  -9   9   16.45    5.41
   7  -9   9   22.46    6.69
  -7   9  10    3.76    3.54
  -7  -9  10   24.84    7.06
  -7  -9  10    6.34    3.21
   7  -9  10   20.39    6.43
  -7   9  11    8.43    5.94
   7  -9  11    6.20    2.20
  -7  -9  11   21.81    6.24
  -7  -9  11   19.01    6.87
  -7  -9  12  271.88   22.35
  -7  -9  12  249.22   20.70
   7  -9  12  277.86   21.85
  -7  -9  13   10.66    5.22
  -7  -9  13    8.61    5.40
   7  -9  13    4.61    2.11
  -7  -9  14  176.70   18.05
  -7  -9  14  192.13   18.42
   7  -9  14  210.82   19.81
  -7  -9  15   20.81    6.67
  -7  -9  15   42.19    9.09
   7  -9  15   28.18    6.36
   7  -9  16   12.67    5.68
  -7  -9  16   10.56    5.69
  -7  -9  16   15.18    6.58
  -7 -10 -12   10.99    5.86
  -7  10 -12    9.05    6.39
  -7  10 -12    3.92    3.86
  -7 -10 -11   30.47    7.79
  -7  10 -11   25.37    7.39
  -7  10 -11   31.17    8.07
  -7 -10 -10    4.55    3.94
  -7  10 -10    2.70    3.65
  -7  10 -10    5.36    4.74
  -7 -10  -9    0.92    4.24
  -7  10  -9   -3.27    5.03
  -7  10  -9    1.09    3.83
  -7 -10  -8    5.09    1.89
  -7  10  -8    4.31    4.33
  -7 -10  -7   50.21    8.92
  -7  10  -7   40.62   10.13
  -7 -10  -6    7.03    3.19
   7 -10  -6    0.03    3.94
  -7  10  -6    0.13    4.63
  -7 -10  -5   93.59   12.46
   7 -10  -5   82.25   12.33
  -7  10  -5   56.21   10.11
  -7 -10  -4    0.42    2.62
   7 -10  -4    3.20    2.94
  -7  10  -4    0.64    2.39
  -7 -10  -3   -3.34    3.73
   7 -10  -3    0.20    2.08
  -7  10  -3    2.52    3.91
  -7 -10  -2   -1.72    2.04
   7 -10  -2    6.95    4.95
  -7  10  -2   -0.77    4.19
  -7 -10  -1    6.00    3.00
  -7 -10  -1    5.63    3.76
   7 -10  -1    9.15    5.00
  -7  10  -1   12.66    6.18
  -7 -10   0    7.10    4.32
  -7 -10   0    0.80    2.17
   7 -10   0   -4.45    3.01
  -7  10   0    1.28    3.41
  -7 -10   1   13.01    5.73
  -7 -10   1   14.42    5.53
  -7  10   1   -0.05    4.00
   7 -10   1    8.83    3.60
  -7 -10   2   -1.29    2.55
  -7 -10   2    6.10    5.44
   7 -10   2   -1.75    3.77
  -7  10   2    1.09    3.45
  -7 -10   3    4.75    2.03
  -7 -10   3    1.23    3.37
   7 -10   3    1.00    1.87
  -7  10   3    3.58    4.17
  -7 -10   4    3.13    3.43
  -7 -10   4    1.55    3.35
   7 -10   4    2.09    3.28
  -7  10   4   -5.16    3.02
  -7 -10   5   81.33   11.91
  -7 -10   5   82.50   12.52
   7 -10   5   89.19   12.73
  -7  10   5   67.68   11.43
  -7 -10   6   -1.32    3.44
  -7 -10   6   -1.87    2.14
   7 -10   6    3.50    4.27
  -7  10   6    2.51    5.08
  -7 -10   7   29.64    6.92
  -7 -10   7   42.28    9.04
   7 -10   7   35.95    9.88
  -7  10   7   38.03   10.55
  -7 -10   8    3.97    3.38
  -7 -10   8    7.21    5.43
   7 -10   8   -0.79    1.81
  -7  10   8    9.34    6.78
  -7 -10   9    9.04    4.47
  -7 -10   9    1.03    1.85
   7 -10   9    7.48    4.76
  -7  10   9    4.71    4.11
  -7 -10  10    3.39    3.26
  -7 -10  10    5.37    4.37
   7 -10  10    6.05    1.95
  -7 -10  11   26.33    7.12
  -7 -10  11   37.43    8.68
   7 -10  11   39.05    8.48
  -7 -10  12   14.09    5.20
  -7 -10  12    4.07    3.70
   7 -10  12   12.22    6.09
  -8   0 -27    8.02    7.09
  -8   0 -26  138.01   16.09
  -8   0 -25   73.55   11.23
  -8   0 -24   62.19   10.51
  -8   0 -23    5.72    4.28
  -8   0 -22   26.97    6.48
  -8   0 -21  109.64   13.01
  -8   0 -20   33.47    7.24
  -8   0 -19   81.83   10.92
  -8   0 -18  287.25   19.99
  -8   0 -17  463.53   24.49
  -8   0 -16   39.51    7.29
  -8   0 -15  352.75   21.13
  -8   0 -14  212.03   16.04
  -8   0 -13  112.55   11.27
  -8   0 -12  929.12   28.81
  -8   0 -12  923.89   33.66
  -8   0 -11  810.27   26.60
  -8   0 -11  874.76   30.89
  -8   0 -10   81.89    8.53
  -8   0 -10   97.84   10.19
  -8   0  -9 1612.51   38.09
  -8   0  -9 1446.38   38.40
  -8   0  -8 1164.28   31.89
  -8   0  -8 1103.08   33.35
  -8   0  -8 1160.13   32.92
  -8   0  -7   18.74    4.34
  -8   0  -7   18.10    4.48
  -8   0  -7   23.00    4.71
  -8   0  -6  540.51   21.60
  -8   0  -6  534.32   22.16
  -8   0  -6  513.05   21.48
  -8   0  -5   96.11    9.18
  -8   0  -5   98.77    9.75
  -8   0  -5  107.42    9.65
  -8   0  -4  876.39   27.24
  -8   0  -4  861.45   28.20
  -8   0  -4  869.15   26.65
  -8   0  -3 1856.75   40.36
  -8   0  -3 1867.64   40.06
  -8   0  -2  942.84   29.07
  -8   0  -2  869.69   27.65
  -8   0  -2  886.24   26.87
  -8   0  -1  128.96   10.43
  -8   0  -1  128.67   10.39
  -8   0  -1  130.22   10.07
  -8   0   0 1355.20   34.80
  -8   0   0 1305.63   33.68
  -8   0   0 1315.49   32.24
  -8   0   1  152.65   11.80
  -8   0   1  161.46   11.13
  -8   0   2  929.78   28.92
  -8   0   2  996.22   27.05
  -8   0   3 2036.80   43.00
  -8   0   3 1854.17   37.69
  -8   0   4  869.67   24.94
  -8   0   4  831.83   27.79
  -8   0   5   85.15    9.56
  -8   0   5   93.10    8.14
  -8   0   6  517.95   22.48
  -8   0   6  477.85   18.58
  -8   0   7   24.53    5.56
  -8   0   7   17.41    3.30
  -8   0   8 1201.68   35.49
  -8   0   8 1259.63   29.15
  -8   0   9 1517.16   31.59
  -8   0   9 1512.47   39.88
  -8   0  10   68.39    6.63
  -8   0  10   87.52    9.62
  -8   0  11  876.72   23.33
  -8   0  11  880.91   31.55
  -8   0  12  978.98   23.90
  -8   0  12  967.94   33.62
  -8   0  13  109.21    7.89
  -8   0  13  121.66   11.90
  -8   0  14  227.00   16.78
  -8   0  15  336.54   20.84
  -8   0  16   41.37    7.49
  -8   0  17  388.86   23.38
  -8   0  18  291.79   20.78
  -8   0  19   96.61   12.29
  -8   0  20   31.86    7.80
  -8   0  21  113.33   14.05
  -8   0  22   30.29    7.03
  -8   0  23   12.52    4.74
  -8   1 -28   28.79    7.78
  -8   1 -27   22.28    6.83
  -8   1 -26   14.62    5.32
  -8   1 -25   -3.21    3.74
  -8   1 -24   33.02    7.67
  -8   1 -23    0.10    2.32
  -8  -1 -22   21.66    6.46
  -8   1 -22   24.18    6.24
  -8  -1 -21   11.83    4.75
  -8   1 -21    7.26    2.52
  -8  -1 -20   13.91    5.40
  -8   1 -20   13.85    4.65
  -8  -1 -19   26.50    6.40
  -8   1 -19   41.48    7.98
  -8  -1 -18   78.44   10.11
  -8   1 -18   76.02   10.30
  -8  -1 -17   97.17   11.21
  -8   1 -17   95.65   11.29
  -8  -1 -16   67.06    8.81
  -8   1 -16   59.68    8.67
  -8  -1 -15    9.44    3.52
  -8   1 -15   17.02    4.61
  -8  -1 -14    7.34    3.18
  -8   1 -14    7.45    3.58
  -8   1 -14    5.10    2.43
  -8  -1 -14    5.34    3.50
  -8   1 -13    2.88    1.95
  -8  -1 -13    6.78    2.41
  -8   1 -13    9.81    4.00
  -8  -1 -13    5.11    2.90
  -8  -1 -12   16.88    4.84
  -8   1 -12    8.27    4.33
  -8  -1 -12    8.95    3.03
  -8   1 -12   11.18    4.62
  -8  -1 -12    2.89    1.59
  -8   1 -11   59.14    7.98
  -8  -1 -11   54.51    6.50
  -8   1 -11   42.94    7.29
  -8  -1 -11   55.61    7.07
  -8  -1 -11   74.48    8.65
  -8   1 -10   39.47    6.75
  -8   1 -10   29.19    5.85
  -8  -1 -10   32.05    5.14
  -8  -1 -10   37.30    6.31
  -8  -1 -10   43.46    6.83
  -8   1  -9   24.42    5.26
  -8  -1  -9   21.80    4.15
  -8   1  -9   15.61    4.06
  -8  -1  -9   20.91    4.23
  -8  -1  -9   12.84    3.71
  -8   1  -8   63.36    8.36
  -8   1  -8   52.33    7.20
  -8  -1  -8   67.91    7.41
  -8  -1  -8   52.15    6.91
  -8  -1  -8   63.42    8.15
  -8   1  -7   64.01    8.05
  -8  -1  -7   75.96    7.71
  -8   1  -7   70.21    8.69
  -8  -1  -7   63.22    7.66
  -8  -1  -7   65.63    7.91
  -8  -1  -6    8.68    3.10
  -8   1  -6   18.73    4.46
  -8   1  -6   17.08    4.04
  -8  -1  -6    8.65    2.86
  -8  -1  -6   13.70    3.58
  -8  -1  -5   10.81    3.48
  -8   1  -5   15.87    3.65
  -8   1  -5   22.83    4.59
  -8  -1  -5   14.64    3.57
  -8  -1  -5   11.60    3.44
  -8  -1  -4   17.32    3.79
  -8  -1  -4   14.97    3.89
  -8   1  -4   23.36    5.03
  -8   1  -4   28.37    5.23
  -8  -1  -4   21.75    4.38
  -8   1  -3   70.90    8.10
  -8   1  -3   72.43    8.01
  -8  -1  -3   62.92    7.38
  -8  -1  -3   70.97    7.84
  -8  -1  -3   69.22    7.40
  -8   1  -2  112.07   10.37
  -8   1  -2  114.67   10.32
  -8  -1  -2  126.98   10.13
  -8  -1  -2  123.48    9.99
  -8  -1  -2  108.85    9.86
  -8   1  -1   92.73    9.36
  -8   1  -1  111.34   10.14
  -8  -1  -1   87.90    8.64
  -8  -1  -1  106.77    9.36
  -8  -1  -1  105.34    9.54
  -8  -1   0    1.26    1.25
  -8  -1   0    1.35    2.11
  -8   1   0    0.36    0.97
  -8   1   0    1.43    1.90
  -8   1   1  100.15    9.80
  -8   1   1  111.55   10.13
  -8  -1   1  112.97    9.84
  -8  -1   1   88.76    8.52
  -8   1   2  143.11   11.78
  -8  -1   2  102.85    9.28
  -8  -1   2  123.52   10.55
  -8  -1   3   70.85    8.17
  -8   1   3   70.97    8.32
  -8  -1   3   65.80    7.38
  -8   1   4   25.94    5.69
  -8  -1   4   23.66    4.16
  -8  -1   4   25.89    4.57
  -8  -1   5   16.96    4.00
  -8  -1   5   12.95    2.81
  -8   1   5   14.72    4.23
  -8  -1   6   11.02    2.73
  -8  -1   6   17.22    4.39
  -8   1   6   10.20    3.65
  -8  -1   7   74.83    8.77
  -8   1   7   67.93    8.20
  -8  -1   7   59.87    6.59
  -8  -1   8   60.40    7.90
  -8   1   8   63.52    8.41
  -8  -1   8   51.70    6.09
  -8   1   9   25.09    5.56
  -8  -1   9   22.90    5.10
  -8  -1   9   27.02    4.86
  -8  -1  10   33.44    6.15
  -8   1  10   38.82    6.67
  -8  -1  10   34.11    5.11
  -8  -1  11   56.88    7.79
  -8   1  11   56.25    8.14
  -8  -1  11   53.21    6.36
  -8  -1  12    3.84    1.65
  -8   1  12    3.62    1.38
  -8  -1  12    8.33    2.41
  -8  -1  13    7.01    2.43
  -8   1  13    6.65    3.89
  -8  -1  13    6.70    3.65
  -8  -1  14    4.21    2.69
  -8   1  14    4.14    2.78
  -8  -1  14    2.76    1.43
  -8   1  15   14.92    4.60
  -8  -1  15   16.06    4.21
  -8  -1  16   70.34    9.80
  -8   1  16   69.09    9.84
  -8  -1  17  103.67   11.95
  -8   1  17   90.77   11.37
  -8  -1  18   68.77    9.73
  -8   1  18   83.78   11.18
  -8   1  19   25.16    6.34
  -8  -1  19   46.38    8.45
  -8   1  20   16.48    4.88
  -8  -1  20   10.97    4.84
  -8   1  21    7.71    3.75
  -8  -1  21   11.45    4.81
  -8   1  22   22.34    6.63
  -8  -1  22   20.90    5.18
  -8  -1  23    6.89    4.42
  -8  -1  24   35.22    8.24
  -8   2 -28   79.81   12.20
  -8   2 -27  111.65   14.91
  -8   2 -26   28.06    7.80
  -8   2 -25   24.83    7.42
  -8   2 -24   88.17   14.13
  -8   2 -23   61.83   10.70
  -8   2 -22   33.63    7.11
  -8   2 -21  149.77   15.19
  -8   2 -20   40.86    8.40
  -8   2 -19   31.41    7.03
  -8   2 -18  151.25   15.01
  -8   2 -17   94.66   11.96
  -8  -2 -17  114.42   11.85
  -8  -2 -17  104.70   11.69
  -8   2 -16   79.49   11.28
  -8   2 -16   66.05   10.04
  -8  -2 -16   72.32    9.79
  -8  -2 -16   95.42   10.41
  -8  -2 -15  255.71   16.93
  -8   2 -15  257.61   18.86
  -8   2 -15  236.16   17.83
  -8  -2 -15  252.55   17.26
  -8  -2 -14  152.73   12.76
  -8   2 -14  136.57   13.58
  -8   2 -14  134.44   13.25
  -8  -2 -14  154.41   13.46
  -8  -2 -13   43.13    6.55
  -8   2 -13   39.77    7.39
  -8   2 -13   45.03    7.94
  -8  -2 -13   39.55    7.03
  -8  -2 -12  197.21   13.84
  -8  -2 -12  220.53   15.50
  -8   2 -12  206.26   15.98
  -8   2 -11  376.06   21.54
  -8  -2 -11  366.01   19.54
  -8   2 -11  405.58   22.26
  -8  -2 -10   60.93    6.74
  -8   2 -10   70.93    9.34
  -8  -2 -10   58.34    7.27
  -8  -2 -10   72.51    8.55
  -8   2 -10   73.40    9.30
  -8   2  -9  136.75   12.62
  -8  -2  -9  144.63   10.29
  -8  -2  -9  144.64   11.31
  -8   2  -9  168.60   13.82
  -8  -2  -9  140.06   11.98
  -8   2  -8  261.26   17.23
  -8  -2  -8  268.60   14.55
  -8  -2  -8  258.18   14.61
  -8   2  -8  289.08   18.11
  -8  -2  -8  263.67   16.34
  -8   2  -7  201.86   14.94
  -8   2  -7  200.65   14.82
  -8  -2  -7  193.41   12.86
  -8  -2  -7  184.49   12.06
  -8  -2  -7  182.16   13.45
  -8  -2  -6    9.47    3.98
  -8  -2  -6    9.03    2.54
  -8   2  -6   13.82    3.21
  -8   2  -6   12.04    3.77
  -8  -2  -6    7.62    3.34
  -8   2  -5  302.59   18.13
  -8   2  -5  296.65   17.94
  -8  -2  -5  293.85   15.15
  -8  -2  -5  307.77   15.53
  -8  -2  -5  285.01   16.36
  -8   2  -4  299.59   18.13
  -8   2  -4  357.51   19.62
  -8  -2  -4  356.88   16.49
  -8  -2  -4  346.68   16.55
  -8  -2  -4  352.43   18.03
  -8  -2  -3  339.85   17.42
  -8   2  -3  340.09   19.07
  -8   2  -3  305.55   17.70
  -8  -2  -3  349.96   16.32
  -8  -2  -3  361.17   17.32
  -8  -2  -2  712.27   25.45
  -8  -2  -2  657.40   23.40
  -8   2  -2  691.30   26.84
  -8   2  -2  708.02   27.00
  -8  -2  -2  625.08   21.97
  -8  -2  -1  566.64   22.42
  -8  -2  -1  570.03   21.92
  -8   2  -1  615.21   25.41
  -8   2  -1  576.78   24.29
  -8  -2   0  166.95   12.00
  -8  -2   0  167.40   12.16
  -8   2   0  154.35   12.73
  -8   2   0  185.45   13.88
  -8  -2   1  536.39   21.33
  -8   2   1  595.09   25.20
  -8   2   1  573.41   24.10
  -8  -2   2  655.68   23.56
  -8  -2   2  747.24   25.93
  -8   2   2  741.31   27.72
  -8   2   2  707.09   26.66
  -8  -2   3  348.21   17.04
  -8  -2   3  308.48   16.96
  -8   2   3  293.51   17.48
  -8  -2   4  326.98   16.49
  -8  -2   4  304.34   16.91
  -8   2   4  334.19   18.77
  -8  -2   5  298.54   15.54
  -8  -2   5  290.81   16.85
  -8   2   5  332.77   18.72
  -8  -2   6    8.16    3.41
  -8   2   6   14.93    4.25
  -8  -2   6   12.34    3.20
  -8  -2   7  195.41   12.44
  -8  -2   7  157.88   12.66
  -8   2   7  191.17   14.45
  -8  -2   8  311.52   15.61
  -8   2   8  278.62   17.76
  -8  -2   9  139.63   10.72
  -8  -2   9  131.94   12.02
  -8   2   9  123.93   11.85
  -8  -2  10   57.80    6.66
  -8  -2  10   63.97    8.65
  -8   2  10   54.89    7.63
  -8  -2  11  385.39   17.70
  -8  -2  11  383.50   21.15
  -8   2  11  391.79   21.76
  -8  -2  12  208.48   12.91
  -8  -2  12  225.90   16.47
  -8  -2  13   39.30    5.84
  -8  -2  13   29.38    6.24
  -8   2  13   45.10    7.35
  -8  -2  14  131.80   10.21
  -8  -2  14  148.09   13.76
  -8   2  14  129.89   13.13
  -8  -2  15  238.01   17.62
  -8   2  15  254.76   18.69
  -8  -2  16   78.08    9.76
  -8   2  16   92.44   11.73
  -8  -2  17  123.41   12.84
  -8   2  17  116.12   13.50
  -8  -2  18  140.34   14.11
  -8   2  18  136.33   14.93
  -8  -2  19   13.37    4.32
  -8   2  19   18.89    6.34
  -8  -2  20   22.87    6.25
  -8   2  20   28.72    6.55
  -8  -2  21  145.85   15.28
  -8  -2  22   46.32    9.07
  -8  -2  23   63.35   10.48
  -8  -2  24  121.01   14.74
  -8  -2  25   35.10    7.89
  -8   3 -27   -5.77    5.16
  -8   3 -26    3.11    4.55
  -8   3 -25    8.70    2.81
  -8   3 -24   20.59    7.23
  -8   3 -23    0.28    2.41
  -8   3 -22    2.58    1.90
  -8   3 -21    7.59    3.83
  -8   3 -20    2.22    1.98
  -8   3 -19   36.10    7.51
  -8  -3 -19   31.29    7.78
  -8   3 -18   49.44    8.75
  -8  -3 -18   45.72    8.15
  -8   3 -17  230.42   18.78
  -8   3 -17  208.73   18.01
  -8  -3 -17  205.47   16.80
  -8   3 -16  197.47   16.90
  -8   3 -16  208.87   17.68
  -8  -3 -16  228.68   17.28
  -8   3 -15  110.18   12.36
  -8   3 -15   86.55   11.36
  -8  -3 -15  111.86   11.95
  -8   3 -14   68.84   10.00
  -8   3 -14   95.58   11.67
  -8  -3 -14   72.42    9.97
  -8   3 -13   85.94   10.92
  -8   3 -13   85.82   10.97
  -8  -3 -13   59.39    8.37
  -8  -3 -12    6.71    2.92
  -8   3 -12    9.82    3.55
  -8   3 -12    6.03    3.37
  -8  -3 -11   56.81    7.56
  -8   3 -11   51.43    8.64
  -8   3 -11   58.48    9.20
  -8  -3 -11   55.11    7.99
  -8  -3 -10   71.84    7.90
  -8   3 -10   81.60   10.44
  -8   3 -10   68.07    8.81
  -8  -3 -10   81.77    9.70
  -8   3  -9   82.44   10.61
  -8  -3  -9   67.63    6.85
  -8  -3  -9   62.45    7.15
  -8   3  -9   76.00    9.75
  -8  -3  -9   79.22    9.58
  -8  -3  -8   93.65   10.12
  -8   3  -8   86.09    9.97
  -8  -3  -8   97.14    8.55
  -8  -3  -8   98.03    8.51
  -8   3  -8   99.25   10.92
  -8  -3  -7  123.88   11.37
  -8   3  -7  102.55   11.41
  -8   3  -7  119.24   11.85
  -8  -3  -7  109.69    9.14
  -8  -3  -7  137.51   10.48
  -8  -3  -6   47.11    6.36
  -8  -3  -6   35.54    6.35
  -8   3  -6   36.46    7.04
  -8  -3  -6   42.41    5.53
  -8   3  -6   41.81    6.80
  -8  -3  -5   19.30    5.00
  -8   3  -5   12.70    4.30
  -8  -3  -5   21.87    3.84
  -8   3  -5   27.51    5.77
  -8  -3  -5   23.89    4.03
  -8  -3  -4    1.07    1.99
  -8   3  -4    1.59    2.47
  -8  -3  -4    1.01    1.40
  -8   3  -4    1.20    1.18
  -8  -3  -4    1.62    1.78
  -8  -3  -3   49.47    7.28
  -8   3  -3   54.81    8.23
  -8  -3  -3   48.56    6.59
  -8   3  -3   56.06    8.11
  -8  -3  -3   51.31    6.01
  -8  -3  -2   58.03    7.44
  -8   3  -2   48.77    7.62
  -8  -3  -2   64.67    7.35
  -8  -3  -2   60.71    6.52
  -8  -3  -1   12.07    3.82
  -8   3  -1   18.45    4.89
  -8  -3  -1   20.53    4.07
  -8   3  -1   26.61    5.42
  -8  -3   0    2.42    2.19
  -8   3   0    1.76    1.47
  -8   3   0    2.24    2.86
  -8  -3   0    4.11    2.00
  -8  -3   1   18.27    4.35
  -8   3   1   19.31    4.55
  -8   3   1   17.56    4.29
  -8  -3   1   18.59    3.72
  -8  -3   2   67.65    7.99
  -8   3   2   77.60    9.42
  -8  -3   2   62.53    7.77
  -8   3   2   63.40    8.41
  -8  -3   3   51.91    6.91
  -8   3   3   41.49    7.31
  -8  -3   3   68.02    8.31
  -8   3   3   50.36    7.05
  -8  -3   4    0.83    0.92
  -8  -3   4    0.82    1.49
  -8   3   4    3.38    1.30
  -8   3   4   -1.73    2.77
  -8  -3   5   21.24    4.84
  -8  -3   5   13.94    3.56
  -8   3   5   16.24    4.74
  -8  -3   6   38.92    5.81
  -8   3   6   38.21    6.62
  -8  -3   6   40.51    6.67
  -8  -3   7  114.70   10.22
  -8   3   7  125.12   12.39
  -8  -3   7  112.60   11.08
  -8  -3   8   94.85    9.42
  -8   3   8  112.01   11.61
  -8  -3   8  113.57   11.33
  -8  -3   9   69.77    8.04
  -8   3   9   67.22    8.71
  -8  -3   9   72.44    8.96
  -8  -3  10   76.91    8.56
  -8   3  10   86.77   10.90
  -8  -3  10   75.73    9.37
  -8  -3  11   57.52    7.35
  -8   3  11   60.93    8.51
  -8  -3  11   59.12    8.51
  -8  -3  12    6.73    4.06
  -8  -3  12   -0.25    2.19
  -8   3  12    3.32    2.90
  -8  -3  13   81.04    8.99
  -8   3  13   77.25   10.28
  -8  -3  13   63.63    9.14
  -8  -3  14   97.74    9.60
  -8   3  14   94.69   12.00
  -8  -3  14   96.31   11.09
  -8  -3  15   87.80    9.34
  -8   3  15  109.12   12.57
  -8  -3  15   97.20   11.55
  -8   3  16  177.49   16.53
  -8  -3  16  233.89   17.95
  -8  -3  17  237.41   18.49
  -8   3  17  248.28   19.81
  -8   3  18   33.23    8.21
  -8  -3  18   38.50    7.83
  -8   3  19   24.32    7.12
  -8  -3  19   26.45    6.62
  -8  -3  20   14.88    5.67
  -8  -3  21    5.26    5.48
  -8  -3  22    2.97    2.15
  -8  -3  23    2.80    3.20
  -8  -3  24    2.78    2.32
  -8  -3  25   10.14    4.33
  -8  -3  26    2.61    2.39
  -8   4 -26    3.18    4.85
  -8   4 -25   77.99   11.87
  -8   4 -24  139.54   15.47
  -8   4 -23   11.93    4.96
  -8   4 -22   72.23   11.30
  -8   4 -21   98.59   12.86
  -8   4 -20    0.41    3.00
  -8   4 -19   43.32    8.55
  -8   4 -18   53.33    9.45
  -8   4 -18   63.22   11.29
  -8  -4 -18   38.60    7.18
  -8  -4 -17   25.67    6.02
  -8   4 -17   33.19    7.03
  -8   4 -17   23.49    6.70
  -8   4 -16  179.52   16.54
  -8   4 -16  159.18   16.58
  -8  -4 -16  175.80   15.66
  -8   4 -15  333.50   22.03
  -8   4 -15  262.23   21.44
  -8  -4 -15  303.58   20.12
  -8   4 -14  120.37   13.67
  -8   4 -14  110.66   13.19
  -8  -4 -14  128.61   13.49
  -8   4 -13  122.99   13.26
  -8   4 -13  101.29   12.62
  -8  -4 -13   98.69   11.09
  -8   4 -12   36.33    7.71
  -8   4 -12   44.51    8.11
  -8  -4 -12   49.79    7.61
  -8  -4 -11  168.42   14.41
  -8   4 -11  155.27   14.96
  -8   4 -11  164.32   15.33
  -8  -4 -10   69.74    9.16
  -8   4 -10   66.18    9.23
  -8   4 -10   55.57    8.56
  -8  -4  -9   51.96    7.57
  -8   4  -9   40.94    7.55
  -8   4  -9   47.83    8.37
  -8  -4  -8   26.09    4.81
  -8   4  -8   24.28    5.92
  -8  -4  -8   33.67    4.98
  -8   4  -8   32.55    6.36
  -8  -4  -7  178.57   14.14
  -8  -4  -7  167.43   11.86
  -8   4  -7  182.21   15.26
  -8   4  -7  185.99   16.44
  -8  -4  -6   28.06    5.87
  -8   4  -6   13.68    5.57
  -8  -4  -6   21.99    4.88
  -8   4  -6   24.04    5.04
  -8   4  -5  537.68   27.24
  -8  -4  -5  526.61   21.72
  -8   4  -5  516.22   25.24
  -8  -4  -5  450.16   17.12
  -8   4  -4  387.61   22.91
  -8  -4  -4  374.90   20.07
  -8  -4  -4  358.15   18.23
  -8   4  -4  315.33   19.54
  -8  -4  -4  347.26   15.74
  -8   4  -3   66.92    9.62
  -8  -4  -3   69.29    9.02
  -8  -4  -3   69.43    8.07
  -8   4  -3   69.01    8.78
  -8  -4  -3   73.83    7.29
  -8   4  -2  606.78   28.33
  -8  -4  -2  580.29   25.15
  -8  -4  -2  552.27   23.13
  -8   4  -2  534.59   25.28
  -8  -4  -1  701.33   27.47
  -8   4  -1  756.74   31.33
  -8  -4  -1  749.32   27.11
  -8   4  -1  791.92   30.58
  -8  -4   0   46.67    7.69
  -8   4   0   46.41    8.09
  -8  -4   0   44.63    6.33
  -8   4   0   68.68    8.86
  -8  -4   1  741.84   27.83
  -8   4   1  749.02   30.69
  -8  -4   1  740.19   27.73
  -8   4   1  750.73   29.95
  -8  -4   2  537.11   23.84
  -8   4   2  559.02   26.52
  -8  -4   2  559.75   24.29
  -8   4   2  477.75   23.61
  -8  -4   3   79.09    9.17
  -8   4   3   70.96    9.22
  -8  -4   3   55.43    7.60
  -8   4   3   48.16    7.50
  -8  -4   4  335.15   18.71
  -8   4   4  380.01   21.94
  -8  -4   4  320.31   18.63
  -8   4   4  355.82   20.28
  -8  -4   5  561.93   24.19
  -8   4   5  513.92   25.67
  -8  -4   5  512.22   23.80
  -8   4   5  517.97   24.61
  -8  -4   6   30.99    6.12
  -8  -4   6   24.32    5.18
  -8   4   6   23.44    6.16
  -8   4   6   23.67    4.64
  -8  -4   7  162.35   13.04
  -8   4   7  171.25   15.03
  -8  -4   7  166.99   13.68
  -8   4   7  158.75   14.00
  -8  -4   8   34.84    6.41
  -8  -4   8   29.82    5.94
  -8   4   8   28.78    6.59
  -8  -4   9   33.94    6.58
  -8   4   9   47.45    7.88
  -8  -4   9   36.54    6.81
  -8  -4  10   90.93    9.83
  -8   4  10   92.80   11.14
  -8  -4  10   78.69    9.96
  -8  -4  11  163.50   13.34
  -8   4  11  174.98   15.40
  -8  -4  11  156.03   14.02
  -8  -4  12   50.52    7.74
  -8   4  12   54.45    9.10
  -8  -4  12   46.79    7.88
  -8  -4  13   87.06    9.88
  -8  -4  13   84.19   10.80
  -8   4  13  110.98   12.71
  -8  -4  14  119.83   11.72
  -8   4  14  118.64   13.74
  -8  -4  14  127.87   12.70
  -8  -4  15  329.46   19.23
  -8   4  15  276.46   20.69
  -8  -4  15  305.67   20.79
  -8  -4  16  194.46   15.28
  -8   4  16  168.97   16.37
  -8  -4  16  176.57   16.19
  -8  -4  17   16.54    5.26
  -8   4  17   20.12    5.62
  -8  -4  18   49.54    8.61
  -8   4  18   59.07    9.80
  -8  -4  19   28.93    7.28
  -8  -4  20    3.73    2.94
  -8  -4  21  100.53   12.67
  -8  -4  22   39.73    8.62
  -8  -4  23   26.80    6.84
  -8  -4  24  113.45   14.30
  -8  -4  25   77.33   11.41
  -8  -4  26    3.91    3.57
  -8   5 -25    2.91    2.64
  -8   5 -24    7.08    3.48
  -8   5 -23    3.93    4.55
  -8   5 -22    0.12    2.74
  -8   5 -21    6.54    2.68
  -8   5 -20    8.60    3.41
  -8   5 -19    6.71    4.34
  -8   5 -19   18.83    6.63
  -8   5 -18   30.26    7.31
  -8   5 -18   31.19    8.07
  -8  -5 -17   31.70    7.03
  -8   5 -17   29.99    7.17
  -8   5 -17   40.93    8.33
  -8   5 -16   59.88    9.47
  -8   5 -16   80.74   11.94
  -8  -5 -16   99.99   12.43
  -8   5 -15   83.35   11.44
  -8   5 -15   87.13   12.53
  -8  -5 -15   66.42    9.84
  -8   5 -14   63.89    9.34
  -8   5 -14   77.69   11.72
  -8  -5 -14   88.20   10.95
  -8  -5 -13   39.12    8.00
  -8   5 -13   40.47    8.22
  -8   5 -13   33.03    8.10
  -8  -5 -12   14.92    5.10
  -8   5 -12   26.33    6.61
  -8   5 -12   30.55    6.84
  -8   5 -11   34.14    7.77
  -8  -5 -11   23.11    5.83
  -8   5 -11   18.22    5.64
  -8   5 -10    0.57    2.76
  -8  -5 -10    2.15    2.41
  -8   5 -10    2.87    2.77
  -8   5  -9   15.98    5.98
  -8  -5  -9   15.85    4.76
  -8   5  -9   20.02    6.66
  -8  -5  -8   41.33    7.72
  -8   5  -8   31.46    7.44
  -8   5  -8   43.67    7.78
  -8  -5  -7  131.29   12.73
  -8  -5  -7  107.12   10.17
  -8   5  -7  102.01   11.95
  -8   5  -7   94.53   12.56
  -8  -5  -6   47.24    7.73
  -8   5  -6   44.31    8.28
  -8  -5  -6   43.10    6.77
  -8   5  -6   34.25    6.64
  -8  -5  -5   34.89    5.78
  -8   5  -5   28.57    7.14
  -8  -5  -5   34.41    6.42
  -8   5  -5   27.56    6.26
  -8  -5  -4  113.43   11.72
  -8  -5  -4  118.26   11.08
  -8   5  -4   94.68   10.97
  -8   5  -4  124.74   13.76
  -8  -5  -3  108.73   11.15
  -8  -5  -3   96.85   10.18
  -8   5  -3   93.16   11.22
  -8   5  -3  119.49   13.17
  -8   5  -2   46.49    8.27
  -8   5  -2   60.50    9.02
  -8  -5  -2   42.41    6.75
  -8  -5  -2   40.51    6.34
  -8  -5  -1   32.43    5.70
  -8   5  -1   24.44    5.95
  -8  -5  -1   33.41    6.18
  -8   5  -1   32.46    6.99
  -8   5   0   54.56    8.58
  -8  -5   0   35.31    6.47
  -8   5   0   52.50    8.64
  -8  -5   0   42.74    6.93
  -8  -5   1   35.97    6.17
  -8   5   1   32.34    6.43
  -8  -5   1   23.77    5.00
  -8   5   1   23.55    6.14
  -8   5   2   48.84    9.06
  -8  -5   2   28.04    5.39
  -8   5   2   45.38    8.08
  -8  -5   2   36.54    6.27
  -8   5   3  101.63   11.96
  -8  -5   3   96.49   10.10
  -8   5   3   89.32   11.18
  -8  -5   3  129.01   12.09
  -8   5   4  117.65   12.86
  -8  -5   4  132.54   12.30
  -8   5   4  118.46   12.51
  -8  -5   4  114.07   11.62
  -8   5   5   39.47    8.16
  -8  -5   5   20.61    5.48
  -8  -5   5   26.36    5.92
  -8   5   5   28.51    6.22
  -8  -5   6   34.97    6.48
  -8  -5   6   52.49    7.76
  -8   5   6   29.34    6.73
  -8   5   6   45.98    7.31
  -8   5   7  116.47   12.91
  -8  -5   7  105.21   11.07
  -8   5   7  119.06   12.38
  -8  -5   7  128.31   12.55
  -8  -5   8   29.80    5.56
  -8   5   8   33.07    7.29
  -8  -5   8   27.48    5.81
  -8   5   8   37.68    7.21
  -8  -5   9   21.76    4.54
  -8   5   9   12.02    4.72
  -8  -5   9    9.49    3.09
  -8   5   9   13.91    4.53
  -8  -5  10    1.25    2.43
  -8   5  10    1.05    1.99
  -8  -5  10    1.16    2.71
  -8   5  10   -0.62    3.65
  -8  -5  11   25.04    4.97
  -8   5  11   23.76    6.55
  -8  -5  11   28.67    6.04
  -8   5  12   22.82    6.44
  -8  -5  12   17.65    5.33
  -8  -5  13   38.81    6.58
  -8   5  13   29.07    7.65
  -8  -5  13   34.95    6.91
  -8  -5  14   78.99    9.67
  -8   5  14   53.81    9.90
  -8  -5  14   65.15    9.34
  -8  -5  15   76.01   10.02
  -8   5  15   83.73   11.56
  -8  -5  15   84.43   11.02
  -8   5  16   96.73   13.21
  -8  -5  16   71.12   10.72
  -8  -5  17   43.24    7.71
  -8   5  17   39.46    8.46
  -8  -5  18   27.48    6.23
  -8  -5  19   11.92    3.43
  -8  -5  20    3.88    2.21
  -8  -5  21    3.44    2.12
  -8  -5  22   -1.50    2.08
  -8  -5  23    1.71    3.04
  -8  -5  24    4.71    1.99
  -8  -5  25   10.38    5.67
  -8   6 -23    6.53    2.25
  -8   6 -22   13.43    4.56
  -8   6 -21   77.44   11.57
  -8   6 -20   21.69    6.76
  -8   6 -20   18.20    7.90
  -8   6 -19   29.64    7.80
  -8   6 -19   38.75    8.71
  -8   6 -18   76.77   12.94
  -8   6 -18   86.61   11.87
  -8   6 -17  102.92   13.48
  -8   6 -17   61.50   10.87
  -8  -6 -17  104.20   13.46
  -8  -6 -16   34.58    8.03
  -8   6 -16   27.17    6.44
  -8   6 -16   25.21    7.42
  -8  -6 -15  208.10   18.07
  -8   6 -15  190.68   17.53
  -8   6 -15  191.62   18.71
  -8  -6 -14  105.34   13.15
  -8   6 -14  109.81   12.96
  -8   6 -14  133.08   15.73
  -8  -6 -13   10.13    5.73
  -8   6 -13    2.93    3.36
  -8   6 -13    5.14    2.43
  -8   6 -12  138.26   14.83
  -8   6 -12  143.05   16.35
  -8  -6 -11  216.46   18.36
  -8   6 -11  208.48   18.04
  -8   6 -11  182.57   17.91
  -8  -6 -10   40.06    7.89
  -8   6 -10   40.44    7.92
  -8   6 -10   42.37    9.29
  -8  -6  -9  154.51   14.58
   8  -6  -9  161.66   14.31
  -8   6  -9  153.59   15.45
  -8   6  -9  137.71   15.22
  -8  -6  -8   96.92   11.58
   8  -6  -8  103.20   11.05
  -8   6  -8   87.43   11.88
  -8   6  -8  100.50   13.07
  -8   6  -7   37.12    8.04
  -8  -6  -7   55.20    8.72
   8  -6  -7   46.72    7.80
  -8   6  -7   42.93    7.74
  -8  -6  -6  295.14   19.81
   8  -6  -6  311.30   19.36
  -8  -6  -6  294.18   18.29
  -8   6  -6  343.95   22.23
  -8   6  -6  357.58   24.24
  -8  -6  -5  406.95   23.18
  -8   6  -5  399.27   23.76
  -8  -6  -5  393.45   21.06
  -8   6  -5  414.26   26.38
  -8  -6  -4   55.10    8.44
  -8  -6  -4   33.48    6.30
  -8   6  -4   42.82    8.31
  -8   6  -4   63.47   11.20
  -8   6  -3   67.21   10.12
  -8  -6  -3   83.64   10.46
  -8  -6  -3   82.87    9.92
  -8   6  -3   58.42    9.92
  -8  -6  -2  105.93   11.34
  -8   6  -2  118.53   12.51
  -8  -6  -2  140.31   12.67
  -8  -6  -1  157.44   14.19
  -8   6  -1  146.71   14.08
  -8  -6  -1  115.01   11.51
  -8   6  -1  138.61   15.39
  -8  -6   0  101.90   11.00
  -8   6   0  126.72   13.49
  -8  -6   0  125.40   12.47
  -8   6   0  122.68   14.25
  -8  -6   1  161.72   13.93
  -8   6   1  141.69   13.85
  -8  -6   1  111.25   11.82
  -8   6   1  125.55   14.41
  -8  -6   2  144.06   13.64
  -8   6   2  144.78   13.84
  -8  -6   2  112.93   11.73
  -8   6   2  147.12   15.02
  -8   6   3   83.77   11.23
  -8  -6   3   54.73    8.17
  -8   6   3   74.73   10.63
  -8  -6   3   83.04   10.12
  -8  -6   4   53.13    8.36
  -8   6   4   35.28    7.84
  -8   6   4   51.74    8.40
  -8  -6   4   45.48    7.72
  -8   6   5  365.86   24.14
  -8  -6   5  370.21   21.28
  -8   6   5  346.62   22.26
  -8  -6   5  402.73   22.90
  -8   6   6  303.60   21.77
  -8  -6   6  276.27   18.65
  -8   6   6  274.41   19.83
  -8  -6   6  307.95   20.12
  -8   6   7   65.60   10.28
  -8  -6   7   56.95    8.11
  -8   6   7   50.48    8.73
  -8  -6   7   53.34    8.63
  -8   6   8  128.47   14.61
  -8  -6   8  119.18   12.19
  -8   6   8  130.52   14.09
  -8  -6   8   90.93   11.35
  -8   6   9  139.83   15.06
  -8  -6   9  148.00   13.58
  -8   6   9  140.96   14.35
  -8  -6   9  148.75   14.11
  -8   6  10   25.09    6.79
  -8  -6  10   28.50    6.63
  -8  -6  10   29.49    6.48
  -8   6  10   38.31    7.70
  -8   6  11  219.26   19.81
  -8  -6  11  220.95   17.22
  -8   6  11  196.73   17.26
  -8  -6  11  235.37   18.31
  -8   6  12  157.99   16.60
  -8  -6  12  128.33   13.03
  -8   6  12  115.36   13.07
  -8  -6  12  123.24   13.68
  -8   6  13    3.42    3.47
  -8  -6  13    5.56    3.07
  -8  -6  13    7.57    4.30
  -8   6  13    1.62    3.71
  -8   6  14  134.80   16.23
  -8  -6  14  113.13   12.56
  -8   6  14  130.53   14.21
  -8  -6  14  138.88   14.88
  -8   6  15  171.43   18.64
  -8  -6  15  212.25   17.74
  -8  -6  15  200.30   17.17
  -8  -6  16   38.95    7.42
  -8  -6  16   36.72    8.25
  -8  -6  17   70.69   11.10
  -8  -6  17   80.32   11.03
  -8  -6  18   93.74   12.30
  -8  -6  19   22.33    5.45
  -8  -6  20   22.41    5.91
  -8  -6  21   36.78    7.26
  -8  -6  22   26.84    6.83
  -8  -6  23   -0.05    2.44
  -8   7 -21   27.57    7.82
  -8   7 -21    8.22    5.66
  -8   7 -20    4.00    3.28
  -8   7 -20    4.01    2.73
  -8   7 -19   -0.16    2.30
  -8   7 -19    3.65    3.43
  -8   7 -18   15.91    5.42
  -8   7 -18   11.09    3.65
  -8   7 -17    9.77    2.98
  -8   7 -17    7.89    4.29
  -8  -7 -16   -0.18    3.10
  -8   7 -16   15.21    6.06
  -8   7 -16    8.93    4.55
  -8  -7 -15    5.16    5.80
  -8   7 -15   -2.16    4.83
  -8   7 -15   -2.41    2.78
  -8  -7 -14    4.32    3.36
  -8   7 -14   12.24    5.88
  -8   7 -14    4.16    3.20
  -8  -7 -13   21.61    7.47
  -8   7 -13   22.74    5.98
  -8   7 -13   16.77    6.12
  -8  -7 -12   43.73    8.81
  -8   7 -12   63.71   10.65
  -8   7 -12   37.68    8.34
  -8  -7 -11  115.84   13.46
  -8   7 -11   90.06   12.58
  -8   7 -11  101.23   13.96
  -8  -7 -10   38.28    8.00
  -8   7 -10   51.84    9.90
  -8   7 -10   54.14   10.63
  -8  -7  -9    8.55    4.34
  -8   7  -9    2.90    2.88
  -8   7  -9    6.45    2.26
  -8  -7  -8   90.48   11.49
   8  -7  -8   84.11   10.80
  -8   7  -8  113.65   13.79
  -8   7  -8  101.41   13.85
  -8  -7  -7   79.99   10.42
   8  -7  -7   85.66   10.78
  -8   7  -7   66.10   10.49
  -8   7  -7   82.67   12.15
  -8   7  -6   19.24    5.48
  -8   7  -6   14.80    5.71
  -8  -7  -6   21.47    5.00
   8  -7  -6   18.62    4.00
  -8  -7  -5  124.03   13.12
   8  -7  -5  147.85   14.61
  -8   7  -5  118.13   13.15
  -8  -7  -5  123.69   13.14
  -8   7  -5  127.55   15.57
  -8  -7  -4   74.02   10.12
  -8   7  -4   85.47   11.66
   8  -7  -4   82.14   10.99
  -8  -7  -4   58.74    8.91
  -8   7  -4   86.57   12.76
  -8  -7  -3  132.19   13.38
   8  -7  -3   98.06   11.66
  -8   7  -3  126.57   13.68
  -8   7  -3  137.87   15.90
  -8  -7  -3  108.71   12.19
  -8  -7  -2   79.59   10.12
   8  -7  -2   57.37    9.01
  -8   7  -2   75.70   10.46
  -8   7  -2   85.99   12.02
  -8  -7  -2   72.05   10.15
  -8  -7  -1  126.97   13.21
  -8   7  -1  108.30   13.14
   8  -7  -1  132.79   13.44
  -8   7  -1  109.92   14.53
  -8  -7  -1  134.16   13.50
  -8  -7   0  150.09   14.25
  -8   7   0  149.52   14.76
  -8  -7   0  146.99   14.07
  -8  -7   1  136.85   13.44
  -8  -7   1  131.75   13.39
  -8   7   1  116.87   13.14
  -8   7   1  113.51   13.88
  -8  -7   2   78.37   10.30
  -8  -7   2   64.27    9.12
  -8   7   2   70.24   10.52
  -8   7   2  103.51   13.06
  -8  -7   3  111.36   12.57
  -8  -7   3  102.43   11.87
  -8   7   3  111.57   12.72
  -8   7   3  124.89   14.97
  -8  -7   4   57.53    8.91
  -8  -7   4   77.38   10.30
  -8   7   4   82.99   11.27
  -8   7   4   42.70   11.58
  -8  -7   5  118.67   12.89
  -8  -7   5  116.20   12.54
  -8   7   5  115.45   13.45
  -8   7   6    8.50    5.57
  -8  -7   6   18.03    5.28
  -8   7   6   27.95    6.67
  -8  -7   6   18.08    5.50
  -8  -7   7   68.42   10.07
  -8   7   7   49.63   10.07
  -8  -7   7   62.36    9.92
  -8   7   7   60.54   10.07
  -8  -7   8   75.99   10.90
  -8  -7   8   76.24   10.36
  -8   7   8   79.59   12.22
  -8   7   9   10.01    4.85
  -8  -7   9    6.09    4.31
  -8   7   9    2.71    3.59
  -8  -7   9    3.26    3.19
  -8   7  10   29.08    7.98
  -8  -7  10   49.94    8.18
  -8   7  10   61.14   10.00
  -8  -7  10   48.92    8.12
  -8  -7  11  127.09   13.70
  -8   7  11   82.05   12.66
  -8   7  11   84.60   12.72
  -8  -7  11   99.29   12.35
  -8   7  12   55.20   10.75
  -8  -7  12   61.38    9.51
  -8  -7  12   75.78   10.47
  -8   7  13   21.97    7.11
  -8  -7  13   33.11    7.74
  -8  -7  13   32.67    7.34
  -8   7  14    5.27    4.16
  -8  -7  14    7.02    4.67
  -8  -7  14    3.48    3.26
  -8  -7  15    3.55    3.61
  -8  -7  15    1.57    1.82
  -8  -7  16    3.93    4.43
  -8  -7  16    6.18    3.79
  -8  -7  17   16.94    6.30
  -8  -7  17   15.05    5.82
  -8  -7  18   16.39    5.35
  -8  -7  19    6.14    3.08
   8  -7  19   11.67    4.42
  -8  -7  20   17.06    6.46
   8  -7  20    9.67    5.37
  -8  -7  21   17.48    7.03
   8  -7  21   11.10    5.50
  -8   8 -19   18.06    5.75
  -8   8 -19   18.51    6.12
  -8   8 -18   67.46   11.78
  -8   8 -18   64.87   11.98
  -8   8 -17  137.25   15.93
  -8   8 -17  161.17   18.35
  -8   8 -16    9.04    4.19
  -8   8 -16    8.00    4.41
  -8  -8 -15   40.09    8.81
  -8   8 -15   43.46    9.23
  -8   8 -15   42.04    8.22
  -8  -8 -14   33.71    7.49
  -8   8 -14   35.20    8.25
  -8   8 -14   41.11   10.07
  -8  -8 -13    1.48    2.69
  -8   8 -13   16.19    6.14
  -8   8 -13   12.38    4.54
  -8  -8 -12  115.00   13.73
  -8   8 -12  106.42   14.03
  -8   8 -12  123.46   15.88
  -8  -8 -11  188.01   17.84
  -8   8 -11  200.46   18.66
  -8   8 -11  193.76   19.79
  -8  -8 -10   14.05    5.66
  -8   8 -10    7.38    4.09
  -8   8 -10    5.32    5.34
  -8  -8  -9   95.19   12.60
  -8   8  -9  100.61   13.17
  -8   8  -9  100.00   14.56
  -8  -8  -8  139.88   14.86
  -8   8  -8  173.91   16.92
  -8   8  -8  119.08   15.73
  -8  -8  -7   48.69    8.43
   8  -8  -7   36.97    6.51
  -8   8  -7   33.33    8.05
  -8   8  -7   41.74    9.03
  -8  -8  -6   55.90    9.51
   8  -8  -6   35.85    7.26
  -8   8  -6   37.51    8.17
  -8   8  -6   48.56    9.82
  -8  -8  -5  150.40   15.51
   8  -8  -5  154.31   15.56
  -8   8  -5  120.05   14.92
  -8   8  -5  166.46   17.74
  -8  -8  -4   44.45    8.40
  -8   8  -4   49.43    9.48
   8  -8  -4   43.80    8.55
  -8   8  -4   50.90    9.89
  -8   8  -3   12.50    4.13
  -8  -8  -3   19.25    5.98
   8  -8  -3   18.58    4.65
  -8   8  -3    2.69    2.39
  -8  -8  -3   10.20    4.48
  -8  -8  -2   88.94   11.63
   8  -8  -2   61.24    9.56
  -8   8  -2   73.25   11.78
  -8   8  -2   84.01   12.25
  -8  -8  -2   74.30   10.43
  -8   8  -1   46.96    9.07
  -8  -8  -1   53.88    8.54
  -8  -8  -1   60.94    9.16
   8  -8  -1   63.09   10.13
  -8   8  -1   63.04    9.89
  -8   8   0    1.00    4.13
  -8  -8   0    3.07    2.56
  -8  -8   0    6.71    4.35
   8  -8   0    8.60    3.83
  -8   8   0    9.54    4.04
  -8   8   1   51.20   10.04
  -8  -8   1   67.85   10.07
  -8  -8   1   44.46    8.05
   8  -8   1   47.69    9.10
  -8   8   1   45.76    8.49
  -8  -8   2   61.20    9.80
  -8  -8   2   87.08   11.68
   8  -8   2   65.75   10.52
  -8   8   2   58.00    9.89
  -8   8   2   83.35   12.77
  -8  -8   3    9.83    4.28
  -8   8   3    7.20    1.98
  -8  -8   3   13.27    5.20
   8  -8   3    5.89    3.31
  -8   8   3   15.64    5.83
  -8  -8   4   42.77    7.92
  -8   8   4   42.20    8.74
  -8  -8   4   51.93    8.97
   8  -8   4   44.48    7.80
  -8   8   4   55.00   10.31
  -8  -8   5  153.19   15.38
  -8  -8   5  154.48   15.28
   8  -8   5  144.11   14.48
  -8   8   5  148.56   16.04
  -8   8   5  134.90   16.03
  -8   8   6   50.79   10.17
  -8  -8   6   53.46    9.86
  -8  -8   6   26.78    6.21
   8  -8   6   29.63    7.46
  -8  -8   7   36.59    7.90
  -8   8   7   43.80    9.61
  -8  -8   7   57.90    9.57
   8  -8   7   32.93    7.36
  -8  -8   8  137.88   14.84
  -8  -8   8  111.99   13.41
  -8   8   8  100.84   15.39
  -8  -8   9   85.41   12.11
  -8  -8   9  110.98   13.66
   8  -8   9  101.75   12.65
  -8   8   9  110.67   14.70
  -8   8  10   12.60    5.58
   8  -8  10   13.20    4.45
  -8  -8  10   16.59    5.09
  -8  -8  10   10.25    3.81
  -8  -8  11  171.92   16.92
  -8  -8  11  201.84   17.52
   8  -8  11  194.73   17.65
  -8   8  11  171.57   19.09
  -8  -8  12  122.79   14.32
  -8  -8  12  107.66   13.03
   8  -8  12  113.93   14.25
  -8   8  12  122.71   16.98
  -8   8  13   13.60    4.46
  -8  -8  13   23.60    7.26
   8  -8  13   20.20    6.55
  -8  -8  13   13.71    4.84
  -8  -8  14   36.36    7.79
   8  -8  14   32.20    8.13
  -8  -8  14   43.83    8.50
  -8  -8  15   41.64    8.37
   8  -8  15   37.00    6.75
  -8  -8  15   31.79    6.22
  -8  -8  16    5.99    3.27
   8  -8  16   15.73    6.31
  -8  -8  17  176.73   18.01
   8  -8  17  173.96   18.30
  -8  -8  17  158.60   16.88
   8  -8  18   87.78   13.36
  -8  -8  18   95.12   12.64
  -8  -8  19   11.27    5.42
   8  -8  19   16.41    6.18
  -8   9 -15   39.29    9.35
  -8   9 -15   37.61    9.70
  -8  -9 -14   19.86    7.80
  -8   9 -14   11.40    5.87
  -8   9 -14   28.76    8.88
  -8  -9 -13   33.55    7.84
  -8   9 -13   32.78    7.45
  -8   9 -12   18.31    6.69
  -8  -9 -12   15.23    5.03
  -8   9 -12   10.05    5.29
  -8  -9 -11   12.84    5.61
  -8   9 -11   10.37    4.29
  -8  -9 -10   46.46    9.26
  -8   9 -10   40.56    9.12
  -8   9 -10   42.12    9.07
  -8  -9  -9   -2.93    4.43
  -8   9  -9    4.51    2.58
  -8   9  -9    0.31    3.75
  -8  -9  -8   23.32    5.61
  -8   9  -8   28.33    7.81
  -8  -9  -7   11.16    5.06
   8  -9  -7   16.75    8.25
  -8   9  -7   11.26    4.48
  -8   9  -7   -2.03    5.51
  -8   9  -6    3.22    5.47
  -8  -9  -6    2.52    2.22
   8  -9  -6   -1.68    3.47
  -8   9  -6    1.96    4.01
  -8  -9  -5   42.61    8.90
   8  -9  -5   35.24    7.51
  -8   9  -5   42.89    9.29
  -8   9  -5   24.20    7.40
  -8  -9  -4    5.73    3.43
  -8   9  -4    6.14    2.54
   8  -9  -4   10.73    5.29
  -8   9  -4    9.39    5.70
  -8  -9  -3    7.75    4.40
   8  -9  -3    2.70    2.24
  -8   9  -3    6.46    5.61
  -8   9  -3    2.75    3.57
  -8  -9  -2   23.44    6.39
  -8   9  -2    8.28    4.11
  -8  -9  -2   16.03    6.94
   8  -9  -2   17.96    5.14
  -8   9  -2   21.77    7.47
  -8  -9  -1   20.60    5.43
   8  -9  -1   20.58    6.19
  -8   9  -1   22.58    7.59
  -8  -9  -1   20.00    5.96
  -8   9  -1   19.24    6.30
  -8  -9   0    6.37    1.88
  -8  -9   0   16.31    5.66
   8  -9   0   12.72    4.46
  -8   9   0   12.60    6.21
  -8  -9   1   13.63    5.15
  -8  -9   1   30.91    6.92
   8  -9   1   20.03    6.46
  -8   9   1   32.68    9.14
  -8  -9   2   17.93    5.31
  -8  -9   2   14.45    3.66
   8  -9   2   12.94    5.39
  -8   9   2   13.79    4.87
  -8   9   3    8.74    4.13
  -8  -9   3   10.76    4.24
  -8  -9   3    5.48    3.41
   8  -9   3    6.89    5.38
  -8   9   4    6.11    3.21
  -8  -9   4    1.15    2.01
  -8  -9   4   -1.36    3.25
  -8   9   5   39.57    9.37
  -8  -9   5   40.57    8.36
  -8  -9   5   38.62    8.66
   8  -9   5   32.03    7.75
  -8   9   6   -1.72    3.07
  -8  -9   6    1.37    2.05
  -8  -9   6    5.99    5.26
   8  -9   6    5.66    4.38
  -8   9   7    8.64    5.55
  -8  -9   7    9.98    5.00
  -8  -9   7    9.35    4.13
   8  -9   7   -2.43    2.11
  -8   9   8   31.03    8.90
  -8  -9   8   17.70    6.00
  -8  -9   8   23.43    6.35
   8  -9   8   20.27    5.14
  -8  -9   9    1.96    3.28
  -8   9   9   -3.73    4.86
  -8  -9   9    2.16    3.43
   8  -9   9   -3.06    3.93
  -8  -9  10   46.61    8.72
  -8   9  10   31.04    9.70
  -8  -9  10   30.88    7.87
   8  -9  10   38.77    8.04
  -8   9  11    4.10    4.38
  -8  -9  11   22.31    6.99
   8  -9  11   26.15    7.06
  -8  -9  11   15.71    4.44
  -8  -9  12   19.21    7.68
  -8  -9  12   25.31    7.20
   8  -9  12    9.34    4.22
  -8  -9  13   49.89    9.66
  -8  -9  13   48.43    9.32
   8  -9  13   45.95    9.28
  -8  -9  14   26.91    8.09
   8  -9  14   20.46    6.85
  -8  -9  14   36.73    8.72
  -8  -9  15   53.04   10.73
   8  -9  15   23.82    7.46
  -8  -9  15   34.99    8.69
  -8 -10 -10   -1.59    2.84
  -8  10 -10    3.64    4.52
  -8  10 -10   -0.11    2.89
  -8 -10  -9   53.33    9.90
  -8  10  -9   60.21   12.05
  -8  10  -9   54.21   11.01
  -8 -10  -8   61.45   10.93
  -8  10  -8   62.99   10.53
  -8  10  -8   47.96   10.53
  -8 -10  -7   30.58    7.76
  -8  10  -7   31.04    9.02
  -8 -10  -6    9.01    6.19
   8 -10  -6    3.16    3.45
  -8  10  -6    8.97    5.15
  -8 -10  -5  106.06   13.91
   8 -10  -5   78.97   12.14
  -8  10  -5   81.39   13.44
  -8 -10  -4   42.72    9.05
   8 -10  -4   26.37    6.78
  -8  10  -4   32.99    8.24
  -8 -10  -3   -3.60    3.53
   8 -10  -3    3.78    3.27
  -8  10  -3    7.97    5.95
  -8 -10  -2   47.88    8.83
   8 -10  -2   31.59    8.49
  -8  10  -2   50.53   10.09
  -8 -10  -1   36.91    9.25
   8 -10  -1   46.74    9.41
  -8  10  -1   39.47    9.55
  -8 -10   0    2.23    3.95
   8 -10   0    3.61    3.63
  -8  10   0    4.71    4.12
  -8 -10   0   -0.80    3.38
  -8 -10   1   32.49    8.04
  -8 -10   1   48.31    8.91
   8 -10   1   46.23    9.08
  -8  10   1   51.52   10.03
  -8 -10   2   29.86    8.33
  -8 -10   2   31.92    8.15
   8 -10   2   29.05    8.81
  -8  10   2   32.62    9.23
  -8 -10   3   -2.54    3.24
  -8 -10   3   -4.12    4.13
   8 -10   3    1.96    2.61
  -8  10   3    5.97    3.45
  -8 -10   4   40.75    8.37
  -8 -10   4   44.09    8.67
   8 -10   4   34.09    8.00
  -8  10   4   52.81   11.91
  -8 -10   5  105.53   14.10
  -8 -10   5   98.21   12.91
   8 -10   5   82.57   12.28
  -8 -10   6   10.81    6.10
  -8 -10   6    1.59    3.02
   8 -10   6    4.26    5.39
  -8  10   6    8.47    5.68
  -8 -10   7   14.90    4.95
  -8 -10   7   29.71    7.26
   8 -10   7   32.92    8.80
  -8  10   7   30.95    9.47
  -8 -10   8   50.93   10.22
  -8 -10   8   60.59   10.14
   8 -10   8   74.95   11.66
  -8  10   8   64.03   13.00
  -8 -10   9   73.34   11.47
  -8 -10   9   76.00   12.27
   8 -10   9   64.05   10.58
  -8  10   9   67.14   12.88
  -8 -10  10    5.80    5.23
   8 -10  10   -3.35    3.21
  -8  10  10   -4.56    4.50
  -8 -10  10   -6.34    5.40
  -9   0 -25    5.59    4.47
  -9   0 -24   -1.23    2.72
  -9   0 -23    2.21    4.33
  -9   0 -22   -0.21    3.24
  -9   0 -21    0.67    2.25
  -9   0 -20    3.40    3.61
  -9   0 -19    0.49    2.14
  -9   0 -18    3.88    3.70
  -9   0 -17   -0.01    1.42
  -9   0 -16    1.15    2.48
  -9   0 -15    0.95    3.30
  -9   0 -14   -0.75    1.30
  -9   0 -13   10.02    5.04
  -9   0 -13   -1.35    3.29
  -9   0 -12    0.71    1.61
  -9   0 -12    0.83    2.63
  -9   0 -11    1.41    2.28
  -9   0 -11   -0.81    2.54
  -9   0 -10    0.94    1.29
  -9   0 -10   -0.10    1.52
  -9   0  -9    0.90    1.04
  -9   0  -9   -0.82    1.58
  -9   0  -8   -0.82    1.32
  -9   0  -8   -0.02    1.01
  -9   0  -8    1.46    1.63
  -9   0  -7   -0.72    1.35
  -9   0  -7   -0.13    1.63
  -9   0  -7   -1.03    2.04
  -9   0  -6   -0.17    1.82
  -9   0  -6   -0.19    1.31
  -9   0  -6   -0.17    1.57
  -9   0  -5   -1.40    2.08
  -9   0  -5    0.99    1.45
  -9   0  -5    2.17    1.75
  -9   0  -4   -1.18    1.45
  -9   0  -4    0.41    2.61
  -9   0  -4    1.95    1.19
  -9   0  -3    1.85    1.94
  -9   0  -3    1.10    1.15
  -9   0  -3   -2.19    2.94
  -9   0  -2    0.07    1.31
  -9   0  -2   -0.39    1.25
  -9   0  -2    1.02    2.47
  -9   0  -1    0.26    1.68
  -9   0  -1    0.50    2.58
  -9   0  -1   -0.26    1.08
  -9   0   0    0.62    1.39
  -9   0   0    0.02    1.42
  -9   0   0   -0.34    0.93
  -9   0   1   -0.91    1.86
  -9   0   1    0.02    0.77
  -9   0   2   -0.09    2.74
  -9   0   2    1.91    2.05
  -9   0   3    0.30    1.32
  -9   0   3   -0.90    0.80
  -9   0   4   -0.72    1.67
  -9   0   4   -0.66    1.34
  -9   0   5   -0.60    1.30
  -9   0   5    1.82    1.40
  -9   0   6    0.14    1.40
  -9   0   6    0.84    1.51
  -9   0   7    0.75    1.93
  -9   0   7    0.38    1.51
  -9   0   8   -0.49    1.62
  -9   0   8   -0.61    1.84
  -9   0   9    3.62    2.35
  -9   0   9    0.13    0.92
  -9   0  10    1.62    1.82
  -9   0  10    0.23    1.12
  -9   0  11    0.06    1.65
  -9   0  11    0.42    1.29
  -9   0  12    3.47    2.46
  -9   0  12    1.14    1.84
  -9   0  13   -0.16    1.40
  -9   0  13    0.68    1.40
  -9   0  14    1.56    1.51
  -9   0  15   -0.01    1.91
  -9   0  16    1.19    2.54
  -9   0  17    2.18    2.46
  -9   0  18   -0.32    1.65
  -9   0  19    2.27    2.98
  -9   0  20   -1.23    2.19
  -9   0  21    3.10    3.45
  -9   0  22   -1.65    4.50
  -9   0  23    3.67    5.64
  -9   1 -27  154.91   17.45
  -9   1 -26   60.47   10.94
  -9   1 -25   13.52    5.58
  -9   1 -24   10.39    5.35
  -9   1 -23   83.29   11.39
  -9   1 -22   88.89   12.29
  -9  -1 -21  197.64   17.68
  -9   1 -21  217.00   18.71
  -9  -1 -20   33.95    7.01
  -9   1 -20   31.98    7.13
  -9   1 -19   52.74    8.90
  -9  -1 -19   44.86    8.26
  -9  -1 -18   10.90    4.29
  -9   1 -18    6.57    2.71
  -9  -1 -17  951.30   35.71
  -9   1 -17  939.91   36.86
  -9  -1 -16   54.37    8.62
  -9   1 -16   56.96    9.10
  -9  -1 -15  418.45   23.43
  -9   1 -15  498.84   26.15
  -9   1 -14    4.38    2.91
  -9  -1 -14    2.99    3.69
  -9   1 -14    1.60    2.00
  -9   1 -13    5.74    3.29
  -9  -1 -13   10.00    4.11
  -9   1 -13   10.94    3.96
  -9  -1 -13   11.85    3.92
  -9   1 -12  102.17   10.76
  -9  -1 -12  108.09   11.38
  -9   1 -12  117.34   12.60
  -9  -1 -12  113.77   11.59
  -9   1 -11 1432.47   40.43
  -9  -1 -11 1293.55   34.40
  -9   1 -11 1415.85   41.82
  -9  -1 -11 1400.47   40.17
  -9  -1 -11 1446.24   39.89
  -9   1 -10   18.55    4.48
  -9  -1 -10   17.14    3.64
  -9  -1 -10   10.98    3.10
  -9   1 -10   24.73    5.75
  -9  -1 -10   12.86    3.95
  -9   1  -9  762.12   28.96
  -9  -1  -9  741.23   25.98
  -9  -1  -9  750.23   27.92
  -9   1  -9  757.47   29.57
  -9  -1  -9  733.01   27.70
  -9   1  -8  276.78   17.31
  -9  -1  -8  260.34   15.59
  -9   1  -8  263.79   17.53
  -9  -1  -8  252.66   16.04
  -9  -1  -8  254.95   16.18
  -9   1  -7  341.73   19.15
  -9  -1  -7  348.75   17.79
  -9   1  -7  330.93   19.05
  -9  -1  -7  365.42   19.00
  -9  -1  -7  315.73   17.72
  -9   1  -6  233.43   15.68
  -9  -1  -6  215.34   14.02
  -9   1  -6  183.23   14.16
  -9  -1  -6  225.56   14.76
  -9  -1  -6  182.90   13.66
  -9  -1  -5  754.89   26.34
  -9   1  -5  701.72   27.30
  -9   1  -5  727.28   28.25
  -9  -1  -5  737.90   26.71
  -9  -1  -5  808.10   28.08
  -9   1  -4  290.01   17.50
  -9  -1  -4  301.88   16.72
  -9   1  -4  300.14   17.98
  -9  -1  -4  274.21   16.03
  -9  -1  -4  347.51   18.28
  -9   1  -3  631.38   25.66
  -9  -1  -3  650.50   24.47
  -9   1  -3  605.61   25.33
  -9  -1  -3  616.95   23.99
  -9  -1  -3  549.66   23.09
  -9   1  -2  314.68   18.13
  -9  -1  -2  307.78   16.79
  -9   1  -2  332.21   18.55
  -9  -1  -2  323.88   17.35
  -9  -1  -2  291.62   16.56
  -9   1  -1  995.75   32.26
  -9  -1  -1 1010.37   30.52
  -9   1  -1  943.95   31.21
  -9  -1  -1 1020.75   30.81
  -9  -1  -1  972.63   30.10
  -9   1   0 1154.53   34.70
  -9   1   0 1134.37   34.22
  -9  -1   0 1104.24   33.46
  -9  -1   0 1173.94   32.92
  -9   1   1  999.52   32.90
  -9   1   1 1046.49   33.03
  -9  -1   1 1051.38   31.60
  -9  -1   1 1070.51   31.12
  -9   1   2  338.02   19.17
  -9  -1   2  313.72   17.77
  -9  -1   2  292.45   16.09
  -9   1   3  615.21   25.80
  -9  -1   3  634.17   25.56
  -9  -1   3  634.36   23.55
  -9   1   4  299.00   18.22
  -9  -1   4  331.24   17.04
  -9  -1   4  302.12   17.83
  -9   1   5  709.78   28.54
  -9  -1   5  754.18   25.49
  -9  -1   5  749.28   27.98
  -9  -1   6  211.16   15.14
  -9   1   6  199.53   15.15
  -9  -1   6  190.98   12.71
  -9  -1   7  327.26   19.38
  -9   1   7  302.44   18.54
  -9  -1   7  322.22   16.46
  -9  -1   8  289.31   17.99
  -9   1   8  260.52   17.45
  -9  -1   8  273.85   15.25
  -9  -1   9  791.75   30.16
  -9   1   9  714.47   29.30
  -9  -1   9  734.57   25.13
  -9   1  10   28.70    6.78
  -9  -1  10   15.80    3.88
  -9  -1  10   24.44    5.47
  -9  -1  11 1343.37   40.26
  -9   1  11 1427.45   42.58
  -9  -1  11 1380.68   33.80
  -9  -1  12  118.18   12.25
  -9   1  12  116.74   12.50
  -9  -1  12  109.94    9.49
  -9  -1  13   17.08    3.89
  -9   1  13    4.34    2.14
  -9  -1  13   17.20    5.41
  -9   1  14    4.44    3.58
  -9  -1  14    0.85    2.34
  -9  -1  15  412.68   24.07
  -9   1  15  404.02   23.64
  -9   1  16   37.20    7.36
  -9  -1  16   71.99   10.20
  -9  -1  17  958.79   37.27
  -9   1  17  842.17   36.04
  -9   1  18    7.24    3.23
  -9  -1  18    9.10    4.17
  -9  -1  19   66.13   10.29
  -9   1  19   62.10   10.24
  -9   1  20   23.91    6.97
  -9  -1  20   27.51    6.33
  -9   1  21  195.54   18.39
  -9  -1  21  223.68   19.64
  -9   1  22   69.69   11.91
  -9  -1  22   68.33   11.51
  -9  -1  23   81.63   12.32
  -9  -1  24    6.35    6.16
  -9   2 -27   -0.36    4.23
  -9   2 -26   20.11    5.69
  -9   2 -25    1.08    4.16
  -9   2 -24    8.96    5.25
  -9   2 -23    2.56    3.49
  -9   2 -22   14.69    4.48
  -9   2 -21    8.39    4.79
  -9   2 -20   -0.14    1.93
  -9   2 -19    8.02    4.24
  -9   2 -18   28.20    6.71
  -9   2 -17    2.21    2.29
  -9  -2 -17   -0.47    2.87
  -9  -2 -16   35.82    8.20
  -9   2 -16   42.50    7.64
  -9  -2 -16   36.96    7.08
  -9   2 -15    5.32    4.48
  -9  -2 -15    8.09    3.66
  -9   2 -15   -1.09    2.18
  -9  -2 -15   -1.13    1.37
  -9   2 -14   11.50    4.13
  -9  -2 -14   17.50    4.40
  -9   2 -14   19.69    5.39
  -9  -2 -14   12.63    4.73
  -9   2 -13    1.73    2.32
  -9  -2 -13    1.53    1.61
  -9   2 -13    4.60    3.04
  -9  -2 -13    0.74    1.18
  -9  -2 -12   58.02    7.99
  -9   2 -12   44.14    7.55
  -9  -2 -12   39.40    6.89
  -9  -2 -11    9.61    3.09
  -9   2 -11   14.80    5.23
  -9   2 -11   22.82    5.34
  -9  -2 -11   18.12    4.79
  -9  -2 -10   12.93    3.99
  -9   2 -10    5.28    3.59
  -9  -2 -10    4.26    1.88
  -9  -2 -10    7.55    3.49
  -9   2 -10    7.05    3.58
  -9  -2  -9    3.38    2.40
  -9   2  -9    5.87    2.54
  -9   2  -9    3.89    2.40
  -9  -2  -9    8.97    3.35
  -9  -2  -9    9.23    3.38
  -9   2  -8   84.62   10.01
  -9  -2  -8   75.18    8.08
  -9   2  -8   61.52    8.90
  -9  -2  -8   58.65    7.62
  -9  -2  -8   85.02    9.72
  -9   2  -7   50.31    7.57
  -9  -2  -7   45.42    6.79
  -9  -2  -7   47.98    7.11
  -9   2  -7   46.28    7.70
  -9  -2  -7   36.63    6.23
  -9  -2  -6    8.19    3.67
  -9  -2  -6    7.29    2.52
  -9   2  -6    3.81    3.24
  -9   2  -6    8.48    3.72
  -9  -2  -6   10.11    3.70
  -9  -2  -5    4.03    1.43
  -9  -2  -5    6.54    3.28
  -9   2  -5    4.98    1.75
  -9   2  -5    0.77    2.65
  -9  -2  -5    3.11    2.98
  -9  -2  -4   26.18    5.27
  -9  -2  -4   22.02    4.27
  -9   2  -4   23.61    5.40
  -9   2  -4   25.88    5.71
  -9  -2  -4   14.14    3.53
  -9  -2  -3   15.43    4.38
  -9  -2  -3   15.37    4.14
  -9   2  -3   11.69    3.77
  -9   2  -3   13.90    4.04
  -9  -2  -3   14.21    3.26
  -9  -2  -2   15.74    4.30
  -9  -2  -2   25.16    4.67
  -9   2  -2   14.97    3.97
  -9   2  -2   13.79    3.99
  -9  -2  -2   22.00    4.14
  -9  -2  -1  119.08   10.71
  -9  -2  -1   89.43    9.30
  -9   2  -1  103.22   10.96
  -9   2  -1   96.34   10.42
  -9  -2   0   38.34    6.33
  -9  -2   0   23.22    4.72
  -9   2   0   28.88    5.78
  -9   2   0   22.75    4.45
  -9  -2   1  102.14    9.98
  -9  -2   1  110.69   10.44
  -9   2   1   81.06    9.47
  -9   2   1  117.15   11.32
  -9  -2   2   11.17    3.23
  -9  -2   2   18.03    4.72
  -9   2   2   13.52    4.35
  -9   2   2   21.98    5.16
  -9  -2   3   13.30    3.79
  -9  -2   3   13.27    3.16
  -9   2   3   17.87    4.74
  -9   2   3   12.96    3.44
  -9  -2   4   32.97    5.48
  -9  -2   4   22.14    4.75
  -9   2   4   21.10    5.10
  -9  -2   5    4.60    1.93
  -9   2   5    1.58    1.61
  -9  -2   5    6.01    2.43
  -9  -2   6    6.96    2.18
  -9  -2   6    4.58    2.02
  -9   2   6   11.37    2.35
  -9  -2   7   48.47    6.66
  -9  -2   7   44.49    6.87
  -9   2   7   48.27    7.64
  -9  -2   8   68.71    7.87
  -9  -2   8   73.77    9.16
  -9   2   8   69.45    9.04
  -9  -2   9    6.88    2.46
  -9  -2   9    4.08    2.26
  -9   2   9    6.69    3.64
  -9  -2  10    4.24    2.36
  -9  -2  10    3.06    1.38
  -9   2  10    8.15    3.70
  -9  -2  11   15.84    4.00
  -9  -2  11   11.70    4.31
  -9   2  11   14.65    5.40
  -9  -2  12   46.21    6.24
  -9  -2  12   43.08    7.57
  -9   2  12   53.33    8.72
  -9  -2  13    2.44    2.42
  -9  -2  13    3.54    1.40
  -9   2  13    0.23    2.48
  -9  -2  14   20.44    4.50
  -9  -2  14   13.99    4.65
  -9   2  14   19.09    5.44
  -9  -2  15    1.46    2.43
  -9   2  15    2.51    2.46
  -9  -2  16   29.07    6.21
  -9   2  16   26.15    6.74
  -9  -2  17    0.45    2.53
  -9   2  17   -2.52    4.00
  -9  -2  18   24.04    6.65
  -9   2  18   22.52    4.90
  -9  -2  19    1.30    2.61
  -9   2  19    4.40    5.37
  -9  -2  20   -3.13    4.06
  -9   2  20   -3.13    3.30
  -9  -2  21    9.65    4.36
  -9   2  21   -0.86    3.25
  -9  -2  22   12.65    4.89
  -9  -2  23    1.45    3.63
  -9  -2  24    0.11    2.41
  -9  -2  25    3.27    4.64
  -9   3 -26    9.44    5.59
  -9   3 -25  205.02   19.30
  -9   3 -24   79.45   12.19
  -9   3 -23   30.24    7.02
  -9   3 -22  167.76   17.07
  -9   3 -21  300.24   22.65
  -9   3 -20    2.05    2.45
  -9   3 -19   44.45    8.18
  -9  -3 -19   31.65    7.33
  -9   3 -18  209.95   18.02
  -9  -3 -18  175.75   15.91
  -9   3 -17  150.22   15.21
  -9   3 -17  146.09   16.10
  -9  -3 -17  144.99   14.57
  -9   3 -16  787.09   34.83
  -9   3 -16  769.50   35.18
  -9  -3 -16  812.81   32.93
  -9   3 -15  126.02   13.81
  -9   3 -15   98.41   12.65
  -9  -3 -15  117.67   12.39
  -9   3 -14  140.64   14.96
  -9   3 -14  125.78   14.38
  -9  -3 -14  151.43   13.81
  -9   3 -13  146.77   14.50
  -9  -3 -13  126.46   12.97
  -9   3 -12  520.86   27.30
  -9   3 -12  563.30   28.59
  -9  -3 -12  552.11   25.96
  -9   3 -11  976.70   36.58
  -9   3 -11  936.79   36.49
  -9  -3 -11 1034.32   35.38
  -9  -3 -10  977.81   30.05
  -9   3 -10  950.71   35.65
  -9   3 -10  972.57   37.18
  -9  -3 -10 1003.14   34.55
  -9  -3  -9   12.67    3.84
  -9   3  -9    4.03    2.89
  -9  -3  -9    8.08    3.13
  -9   3  -9   11.00    4.34
  -9  -3  -9    3.72    1.69
  -9   3  -8  211.58   16.90
  -9   3  -8  230.09   17.13
  -9  -3  -8  206.39   13.33
  -9  -3  -8  196.46   13.10
  -9  -3  -8  181.53   14.35
  -9   3  -7 1899.16   50.52
  -9   3  -7 1975.79   49.61
  -9  -3  -7 1890.72   40.95
  -9  -3  -7 1928.32   41.58
  -9  -3  -7 1901.85   46.05
  -9  -3  -6   24.82    5.05
  -9   3  -6   45.69    7.81
  -9   3  -6   43.67    7.35
  -9  -3  -6   56.85    7.18
  -9  -3  -6   44.22    6.64
  -9   3  -5 2400.41   55.51
  -9   3  -5 2434.60   54.30
  -9  -3  -5 2515.14   46.57
  -9  -3  -5 2466.99   48.77
  -9  -3  -4  813.97   29.47
  -9  -3  -4  852.06   28.20
  -9   3  -4  841.69   32.67
  -9   3  -4  896.69   32.96
  -9  -3  -4  784.29   25.85
  -9  -3  -3    1.11    2.84
  -9   3  -3    1.69    2.79
  -9  -3  -3    0.42    3.00
  -9   3  -3    1.75    2.41
  -9  -3  -3   -0.34    1.56
  -9  -3  -2   21.01    5.34
  -9   3  -2   21.64    5.65
  -9  -3  -2   23.50    4.86
  -9   3  -2    9.76    3.78
  -9  -3  -2   27.43    4.90
  -9  -3  -1 3549.87   60.39
  -9  -3  -1 3484.30   58.29
  -9   3  -1 3588.60   67.71
  -9   3  -1 3548.68   64.87
  -9  -3   0    1.45    1.72
  -9   3   0    1.77    1.54
  -9  -3   0    3.81    3.43
  -9   3   0    7.47    4.31
  -9  -3   1 3668.69   61.16
  -9   3   1 3625.31   66.97
  -9  -3   1 3576.92   60.80
  -9  -3   2   32.04    6.01
  -9   3   2   28.33    5.98
  -9  -3   2   21.13    4.59
  -9   3   2   26.56    5.91
  -9  -3   3   -0.21    1.07
  -9   3   3    1.65    2.50
  -9  -3   3    1.50    0.99
  -9   3   3    0.84    2.97
  -9  -3   4  870.43   29.59
  -9   3   4  844.26   32.56
  -9  -3   4  837.47   29.92
  -9   3   4  817.94   31.26
  -9  -3   5 2314.16   48.40
  -9  -3   5 2412.96   52.39
  -9   3   5 2404.18   53.21
  -9  -3   6   44.00    6.99
  -9   3   6   41.88    7.95
  -9  -3   6   45.01    7.85
  -9  -3   7 1954.35   44.24
  -9   3   7 1912.80   49.34
  -9  -3   7 1906.41   46.95
  -9  -3   8  187.02   13.85
  -9   3   8  221.33   17.21
  -9  -3   8  191.35   15.26
  -9  -3   9    6.07    2.88
  -9   3   9    8.41    3.68
  -9  -3   9    8.14    4.15
  -9  -3  10 1033.97   32.62
  -9  -3  10  994.18   35.48
  -9   3  10  931.23   35.68
  -9  -3  11  899.08   30.67
  -9  -3  11  885.19   33.55
  -9   3  11  935.01   36.04
  -9  -3  12  556.68   23.90
  -9  -3  12  554.33   26.91
  -9   3  12  535.51   27.74
  -9  -3  13  147.13   12.33
  -9  -3  13  124.68   13.25
  -9   3  13  159.56   15.28
  -9  -3  14  111.86   10.82
  -9  -3  14  134.62   13.53
  -9   3  14   95.87   12.09
  -9  -3  15  115.97   11.26
  -9   3  15   96.03   12.03
  -9  -3  16  793.56   33.42
  -9   3  16  807.39   35.62
  -9  -3  17  127.70   13.84
  -9   3  17  133.86   15.00
  -9  -3  18  157.52   15.14
  -9   3  18  190.73   18.29
  -9   3  19   34.18    8.02
  -9  -3  19   36.37    7.09
  -9   3  20    4.62    3.47
  -9  -3  20    9.27    5.22
  -9  -3  21  276.35   21.16
  -9  -3  22  161.90   16.85
  -9  -3  23   45.25    9.02
  -9  -3  24   75.67   12.27
  -9  -3  25  178.74   18.93
  -9  -3  26   19.28    7.86
  -9   4 -25    0.40    2.63
  -9   4 -24    3.52    3.54
  -9   4 -23   23.41    5.74
  -9   4 -22    0.29    3.72
  -9   4 -21   10.22    3.64
  -9   4 -20   -2.65    3.82
  -9   4 -19   -2.31    2.07
  -9  -4 -19   -5.75    3.08
  -9   4 -18    3.49    4.49
  -9   4 -18   11.17    7.67
  -9  -4 -18    0.75    2.38
  -9   4 -17  310.47   22.67
  -9   4 -17  312.22   23.26
  -9  -4 -17  298.43   21.08
  -9  -4 -16    5.73    1.55
  -9   4 -16    4.25    4.08
  -9   4 -16    0.04    2.61
  -9  -4 -15   34.11    7.45
  -9   4 -15   20.94    5.81
  -9   4 -15   17.28    5.34
  -9   4 -14   61.49    9.67
  -9  -4 -14   54.84    9.66
  -9   4 -14   51.86    8.95
  -9   4 -13    7.82    3.41
  -9  -4 -13   11.61    2.87
  -9   4 -13    6.17    3.05
  -9   4 -12   79.95   11.23
  -9   4 -12   95.97   12.34
  -9  -4 -12   95.99   10.96
  -9   4 -11  336.93   23.00
  -9   4 -11  349.16   23.63
  -9  -4 -11  334.05   20.79
  -9  -4 -10    4.18    3.62
  -9   4 -10    1.26    3.70
  -9   4 -10    3.34    2.83
  -9  -4  -9  211.68   16.52
  -9   4  -9  251.47   18.38
  -9   4  -9  232.83   19.04
  -9  -4  -8  161.33   14.00
  -9   4  -8  160.50   15.03
  -9  -4  -8  170.36   13.15
  -9   4  -8  158.06   15.69
  -9  -4  -7    3.08    2.74
  -9   4  -7    0.33    2.28
  -9  -4  -7    0.93    1.34
  -9   4  -7   -2.14    1.81
  -9   4  -6  231.32   18.43
  -9  -4  -6  271.75   18.15
  -9  -4  -6  267.88   16.30
  -9   4  -6  222.98   17.23
  -9   4  -5  125.36   13.68
  -9  -4  -5  112.06   11.34
  -9  -4  -5  113.87   10.66
  -9   4  -5  105.03   11.88
  -9  -4  -4   87.27   10.03
  -9   4  -4   72.65   10.08
  -9  -4  -4   96.84    9.94
  -9   4  -4   86.96   10.95
  -9  -4  -4   89.54    9.44
  -9   4  -3   50.73    8.40
  -9  -4  -3   30.59    6.04
  -9  -4  -3   35.49    6.33
  -9   4  -3   37.44    7.28
  -9  -4  -3   32.17    5.21
  -9  -4  -2  169.65   13.88
  -9   4  -2  200.22   16.50
  -9  -4  -2  181.54   13.69
  -9   4  -2  191.73   15.50
  -9  -4  -2  182.47   12.78
  -9  -4  -1    1.04    2.38
  -9   4  -1    6.34    4.07
  -9   4  -1    7.64    4.59
  -9  -4  -1    7.41    3.24
  -9  -4   0  466.30   22.80
  -9   4   0  529.89   26.32
  -9  -4   0  498.41   23.30
  -9   4   0  526.46   26.03
  -9  -4   1    0.57    1.54
  -9  -4   1   -0.58    1.91
  -9   4   1    1.79    1.60
  -9   4   1    0.35    1.75
  -9  -4   2  187.68   14.37
  -9   4   2  196.22   16.20
  -9  -4   2  182.02   14.14
  -9   4   2  174.35   14.75
  -9  -4   3   21.17    4.92
  -9  -4   3   36.01    6.94
  -9   4   3   22.04    6.03
  -9   4   3   25.85    6.54
  -9  -4   4  101.23   10.35
  -9   4   4   76.09   10.02
  -9  -4   4   85.58    9.84
  -9   4   4   79.05   10.13
  -9  -4   5  113.73   11.15
  -9   4   5  111.94   12.20
  -9  -4   5  105.00   11.12
  -9   4   5  107.39   11.73
  -9  -4   6  273.93   17.48
  -9   4   6  244.34   18.46
  -9  -4   6  257.02   17.62
  -9   4   6  275.63   19.15
  -9  -4   7   -0.24    1.27
  -9  -4   7   -0.24    1.93
  -9   4   7    0.64    1.91
  -9   4   7   -0.60    3.31
  -9  -4   8  185.00   14.49
  -9   4   8  153.42   14.67
  -9  -4   8  159.57   13.94
  -9  -4   9  276.84   17.69
  -9   4   9  222.61   17.79
  -9  -4   9  239.95   17.48
  -9  -4  10    3.52    2.30
  -9  -4  10    4.15    2.93
  -9   4  10    3.27    2.70
  -9  -4  11  381.72   20.77
  -9   4  11  359.50   23.23
  -9  -4  12   94.45   10.45
  -9   4  12   83.28   11.26
  -9  -4  12   91.72   11.51
  -9  -4  13    4.84    2.90
  -9  -4  13    7.01    4.04
  -9   4  13    1.13    2.79
  -9  -4  14   63.91    8.81
  -9  -4  14   40.54    7.94
  -9   4  14   53.26    9.14
  -9  -4  15   19.93    5.00
  -9  -4  15   19.62    4.95
  -9   4  15   30.60    7.18
  -9  -4  16    7.93    3.24
  -9   4  16   10.16    5.18
  -9   4  17  313.08   23.41
  -9  -4  17  325.11   22.20
  -9   4  18    4.40    2.81
  -9  -4  18    8.80    4.25
  -9  -4  19    3.49    2.07
  -9  -4  20    0.51    3.37
  -9  -4  21    6.04    4.23
  -9  -4  22    0.40    2.79
  -9  -4  23   21.33    6.99
  -9  -4  24    4.23    4.47
  -9  -4  25    4.44    4.63
  -9   5 -24    1.79    2.04
  -9   5 -23   45.44    9.16
  -9   5 -22   50.81    9.39
  -9   5 -21  133.86   15.31
  -9   5 -20   11.90    4.79
  -9   5 -19   13.10    5.31
  -9   5 -19   29.09    9.61
  -9  -5 -18   -0.77    3.16
  -9   5 -18   -0.19    1.78
  -9   5 -18   -2.42    2.69
  -9  -5 -17   20.82    7.34
  -9   5 -17   28.47    6.54
  -9   5 -17   33.02    7.29
  -9  -5 -16   42.15    8.18
  -9   5 -16   62.17   10.59
  -9   5 -16   40.90    9.29
  -9   5 -15  314.91   22.42
  -9   5 -15  355.28   26.10
  -9  -5 -15  353.88   23.02
  -9  -5 -14   16.87    5.82
  -9   5 -14   16.78    6.04
  -9   5 -14   22.05    6.25
  -9  -5 -13   25.71    5.77
  -9   5 -13   33.69    7.74
  -9   5 -13   22.54    6.52
  -9  -5 -12   47.63    8.61
  -9   5 -12   44.14    8.72
  -9   5 -12   41.26    8.11
  -9  -5 -11  435.05   24.46
  -9   5 -11  437.54   25.56
  -9   5 -11  410.26   26.47
  -9   5 -10   21.54    6.25
  -9  -5 -10   15.02    4.04
  -9   5 -10   17.93    5.41
  -9   5  -9    7.71    4.62
  -9  -5  -9   14.76    4.40
  -9   5  -9   19.62    5.44
  -9   5  -8    0.83    3.22
  -9  -5  -8    1.71    3.67
  -9   5  -8    3.83    2.91
  -9  -5  -7  103.77   11.73
  -9  -5  -7  101.24   10.65
  -9   5  -7   91.02   11.71
  -9   5  -7  116.28   13.48
  -9   5  -6   14.01    5.25
  -9  -5  -6   20.52    4.37
  -9   5  -6   28.51    6.73
  -9  -5  -6   24.10    5.22
  -9  -5  -5  690.81   29.50
  -9  -5  -5  687.39   27.77
  -9   5  -5  665.00   30.03
  -9   5  -5  705.15   33.43
  -9  -5  -4   39.95    7.37
  -9   5  -4   35.02    8.27
  -9  -5  -4   36.71    6.65
  -9   5  -4   47.37    8.17
  -9  -5  -3   10.17    3.62
  -9  -5  -3   11.16    3.28
  -9   5  -3    1.74    3.28
  -9  -5  -2   12.17    4.14
  -9  -5  -2   18.42    5.28
  -9   5  -2   11.74    4.68
  -9   5  -2   17.76    5.27
  -9   5  -1  653.15   31.47
  -9  -5  -1  674.70   28.97
  -9  -5  -1  613.73   26.78
  -9   5  -1  633.68   29.34
  -9  -5   0   27.26    6.66
  -9   5   0   21.18    6.55
  -9  -5   0   36.61    7.09
  -9   5   0   24.61    5.85
  -9   5   1  656.31   31.41
  -9  -5   1  718.86   29.43
  -9  -5   1  640.87   27.62
  -9   5   1  639.36   29.76
  -9  -5   2    7.68    3.40
  -9  -5   2   15.31    4.71
  -9   5   2    6.83    2.21
  -9   5   2   17.95    5.37
  -9  -5   3   10.17    3.78
  -9  -5   3    4.52    3.01
  -9   5   3   12.03    4.49
  -9   5   3   16.76    4.55
  -9  -5   4   45.22    7.67
  -9   5   4   39.91    7.58
  -9  -5   4   42.00    7.38
  -9   5   4   37.27    7.61
  -9  -5   5  710.11   29.28
  -9   5   5  716.37   31.85
  -9  -5   5  700.11   29.61
  -9   5   5  668.74   30.32
  -9  -5   6   24.81    5.48
  -9   5   6   20.97    5.39
  -9  -5   6   16.05    4.74
  -9   5   6   22.97    5.67
  -9  -5   7   96.18   10.82
  -9   5   7   94.58   12.10
  -9  -5   7   87.63   10.59
  -9   5   7  106.45   12.25
  -9  -5   8    2.71    3.37
  -9  -5   8   -0.21    2.04
  -9   5   8    3.34    2.70
  -9   5   8    0.09    1.83
  -9  -5   9    2.34    1.37
  -9   5   9    2.23    2.66
  -9  -5  10   11.46    4.12
  -9  -5  10   10.36    4.62
  -9   5  10   12.62    3.94
  -9   5  10   18.90    4.97
  -9  -5  11  410.81   22.74
  -9   5  11  485.09   27.73
  -9  -5  11  426.79   24.45
  -9   5  11  466.99   25.92
  -9  -5  12   32.89    6.85
  -9   5  12   43.86    8.22
  -9  -5  12   47.82    8.12
  -9  -5  13   34.03    6.60
  -9  -5  13   28.33    6.59
  -9   5  13   23.29    6.80
  -9  -5  14   21.14    5.67
  -9  -5  14   14.48    4.51
  -9   5  14   30.56    7.16
  -9  -5  15  358.65   21.75
  -9   5  15  351.31   24.69
  -9  -5  15  362.40   23.31
  -9  -5  16   40.07    7.33
  -9   5  16   40.50    8.03
  -9  -5  16   44.03    8.97
  -9  -5  17   40.30    8.22
  -9   5  17   37.15    8.99
  -9  -5  18    3.00    2.34
  -9  -5  19   19.98    5.82
  -9  -5  20    8.68    2.89
  -9  -5  21   98.94   12.96
  -9  -5  22   56.78    8.52
  -9  -5  23   38.30    8.45
  -9  -5  24    7.03    4.06
  -9   6 -22   10.39    5.55
  -9   6 -21   12.03    6.01
  -9   6 -20    5.33    4.06
  -9   6 -19   46.93    8.10
  -9   6 -19   34.10    8.40
  -9   6 -18   28.22    7.36
  -9   6 -18   34.48    9.61
  -9  -6 -17   17.85    5.60
  -9   6 -17    9.18    3.23
  -9   6 -17   13.62    6.40
  -9  -6 -16   39.41    7.42
  -9   6 -16   22.77    6.37
  -9   6 -16   45.30    9.90
  -9   6 -15  125.99   14.46
  -9   6 -15  115.06   15.05
  -9  -6 -15  109.00   13.73
  -9  -6 -14    5.25    4.12
  -9   6 -14    3.03    2.44
  -9   6 -14    6.74    4.84
  -9  -6 -13   23.41    5.62
  -9   6 -13   34.62    7.64
  -9   6 -13   27.89    8.00
  -9  -6 -12   13.01    4.81
  -9   6 -12    4.81    3.48
  -9   6 -12   12.24    6.55
  -9  -6 -11    4.24    2.18
  -9   6 -11    2.66    2.15
  -9   6 -11    2.35    1.88
  -9   6 -10   21.82    6.04
  -9  -6 -10   36.59    7.30
  -9   6 -10   28.86    7.09
  -9   6  -9   17.81    5.40
  -9  -6  -9   21.76    5.79
  -9   6  -9   22.59    5.86
  -9  -6  -8   97.23   11.72
   9  -6  -8   83.03   11.21
  -9   6  -8   68.95   10.06
  -9   6  -8   74.84   11.71
  -9  -6  -7   98.15   11.63
  -9   6  -7  104.40   12.59
  -9   6  -6    6.40    6.02
  -9  -6  -6    4.19    1.53
  -9   6  -6    6.17    3.39
  -9  -6  -6   -3.62    2.15
  -9  -6  -5   11.29    4.04
  -9   6  -5   10.22    5.13
  -9  -6  -5   12.47    3.88
  -9   6  -5    9.33    4.06
  -9   6  -4   15.65    5.89
  -9  -6  -4   18.09    4.94
  -9  -6  -4   12.28    4.83
  -9   6  -4   24.18    6.24
  -9   6  -3    6.67    4.70
  -9  -6  -3    6.98    3.77
  -9  -6  -3    8.26    3.49
  -9   6  -3   19.84    6.18
  -9   6  -2   -0.30    1.76
  -9  -6  -2    3.83    2.53
  -9  -6  -2    3.04    1.97
  -9   6  -2    5.24    3.10
  -9  -6  -1  108.95   12.19
  -9  -6  -1  105.17   11.68
  -9   6  -1   87.56   10.90
  -9   6  -1  109.80   13.53
  -9  -6   0  177.07   15.10
  -9  -6   0  154.27   14.08
  -9   6   0  151.19   14.68
  -9   6   0  155.00   16.28
  -9  -6   1   88.02   10.68
  -9   6   1   89.90   11.36
  -9  -6   1   99.92   11.07
  -9   6   1  100.91   13.16
  -9   6   2    5.36    5.35
  -9  -6   2   10.60    4.01
  -9  -6   2    2.87    2.60
  -9   6   2    5.54    3.76
  -9   6   3   10.42    4.48
  -9  -6   3    9.50    3.94
  -9  -6   3   17.67    4.83
  -9   6   3   18.28    5.49
  -9   6   4   20.62    5.96
  -9  -6   4   19.47    5.37
  -9  -6   4   19.76    5.26
  -9   6   4   18.53    5.35
  -9   6   5    9.64    4.77
  -9  -6   5    2.84    1.67
  -9   6   5    6.83    4.01
  -9  -6   6    3.85    1.99
  -9   6   6    3.94    2.17
  -9  -6   6    5.19    3.52
  -9   6   6    1.42    3.03
  -9   6   7  117.71   14.52
  -9  -6   7   83.39   10.58
  -9   6   7   96.31   12.48
  -9  -6   7  101.53   11.62
  -9   6   8   82.84   12.03
  -9  -6   8   80.23   10.34
  -9   6   8   95.77   12.17
  -9  -6   8   71.83    9.86
  -9  -6   9   25.35    6.50
  -9   6   9   20.31    5.12
  -9  -6   9   25.31    6.34
  -9   6   9   19.74    4.49
  -9  -6  10   37.15    7.60
  -9   6  10   46.97    8.59
  -9  -6  10   23.21    5.71
  -9   6  10   26.05    6.38
  -9  -6  11    1.61    3.92
  -9   6  11    0.26    3.65
  -9  -6  11   -1.99    2.04
  -9   6  11    2.52    5.06
  -9  -6  12    7.35    4.58
  -9   6  12   13.80    5.86
  -9  -6  12   11.97    5.41
  -9   6  12    6.45    3.92
  -9  -6  13   26.99    6.70
  -9   6  13   35.34    8.68
  -9  -6  13   37.99    6.93
  -9   6  13   40.06    7.77
  -9  -6  14    8.45    4.66
  -9   6  14    5.56    3.38
  -9  -6  14   -1.94    3.59
  -9   6  14    5.33    4.11
  -9   6  15  112.78   14.69
  -9  -6  15  113.08   13.02
  -9  -6  15  125.54   13.92
  -9   6  15  125.33   14.57
  -9  -6  16   48.00    8.71
  -9   6  16   50.32    8.92
  -9  -6  16   45.33    8.77
  -9  -6  17   25.42    6.82
  -9  -6  18   23.17    5.48
  -9  -6  19   34.38    7.89
  -9  -6  20    4.03    2.89
  -9  -6  21   13.42    3.51
  -9  -6  22    0.81    4.30
  -9   7 -20   40.84    8.82
  -9   7 -20   31.58    8.88
  -9   7 -19   -2.91    3.73
  -9   7 -19    3.21    6.03
  -9   7 -18    7.72    5.18
  -9   7 -18    5.28    5.05
  -9   7 -17  103.27   14.95
  -9   7 -17  114.53   14.24
  -9  -7 -16    1.06    2.54
  -9   7 -16   -0.71    3.05
  -9   7 -16   -5.46    4.33
  -9  -7 -15  359.91   25.29
  -9   7 -15  377.33   25.94
  -9   7 -15  348.20   26.59
  -9  -7 -14    2.98    2.52
  -9   7 -14    1.67    3.05
  -9   7 -14    9.78    5.92
  -9  -7 -13   53.58    9.26
  -9   7 -13   45.52    9.22
  -9   7 -13   45.14    9.85
  -9  -7 -12    3.80    3.82
  -9   7 -12    4.72    5.14
  -9   7 -12    0.41    2.22
  -9  -7 -11  362.75   24.16
  -9   7 -11  330.36   23.71
  -9   7 -11  381.03   27.15
  -9  -7 -10   18.87    6.68
  -9   7 -10   14.75    5.83
  -9   7 -10   10.58    4.98
  -9  -7  -9   84.82   11.97
  -9   7  -9   86.57   12.18
  -9   7  -9   89.99   13.13
  -9   7  -8   17.36    6.98
  -9  -7  -8   24.42    6.33
   9  -7  -8   27.36    8.00
  -9   7  -8   14.81    5.81
  -9   7  -7    8.79    5.38
  -9  -7  -7   11.93    4.94
   9  -7  -7    3.69    3.51
  -9   7  -7    5.72    3.90
  -9  -7  -6   90.39   11.75
   9  -7  -6   95.34   12.29
  -9   7  -6   67.76   10.38
  -9   7  -6   94.66   13.62
  -9  -7  -5  463.22   26.06
   9  -7  -5  468.09   26.18
  -9   7  -5  473.17   27.14
  -9   7  -5  389.25   26.87
  -9   7  -4    1.13    2.32
  -9  -7  -4    1.68    4.26
  -9  -7  -4    6.08    3.96
   9  -7  -4    2.35    2.56
  -9   7  -4    3.89    2.95
  -9   7  -3   35.13    7.73
  -9  -7  -3   49.32    8.56
  -9   7  -3   52.11    9.40
  -9  -7  -3   49.49    8.61
  -9   7  -2    5.50    3.47
  -9  -7  -2    6.17    3.16
  -9  -7  -2   16.70    5.77
  -9   7  -2    8.33    5.25
  -9  -7  -1  212.79   17.31
  -9   7  -1  244.49   19.54
  -9  -7  -1  222.81   17.67
  -9   7  -1  210.00   19.37
  -9  -7   0  434.59   24.83
  -9   7   0  409.82   25.70
  -9  -7   0  397.05   23.65
  -9   7   0  426.13   27.06
  -9  -7   1  249.91   18.87
  -9   7   1  190.52   17.57
  -9  -7   1  204.06   16.71
  -9   7   1  202.21   19.04
  -9   7   2    1.35    3.08
  -9  -7   2   10.43    3.85
  -9  -7   2    5.37    4.36
  -9   7   2    3.99    3.95
  -9   7   3   38.67    9.58
  -9  -7   3   42.53    8.26
  -9   7   3   32.83    7.12
  -9  -7   3   42.97    8.55
  -9   7   4   -0.23    2.47
  -9  -7   4    9.67    4.21
  -9  -7   4    0.06    2.80
  -9   7   4    3.52    3.90
  -9  -7   5  434.91   24.81
  -9   7   5  397.17   25.36
  -9  -7   5  394.51   24.25
  -9   7   5  412.35   26.73
  -9   7   6   97.03   12.60
  -9  -7   6   84.40   11.82
  -9   7   6   85.13   13.75
  -9   7   7   15.41    5.73
  -9  -7   7   12.30    4.48
  -9  -7   7   17.76    5.50
  -9   7   7    6.61    5.63
  -9   7   8   19.64    5.95
  -9  -7   8   18.07    6.12
  -9  -7   8   28.22    6.97
  -9   7   8   26.17    6.72
  -9  -7   9   73.95   10.07
  -9   7   9   88.64   13.12
  -9  -7   9   92.63   11.98
  -9   7   9   71.22   11.84
  -9   7  10   17.65    7.15
  -9  -7  10   16.53    4.57
  -9  -7  10   13.21    5.43
  -9   7  10   14.05    5.16
  -9   7  11  370.68   26.70
  -9  -7  11  351.51   22.97
  -9   7  11  357.58   25.20
  -9  -7  11  380.61   24.44
  -9   7  12    4.14    4.32
  -9  -7  12    4.01    1.85
  -9  -7  12    3.31    3.68
  -9   7  12   -4.77    4.86
  -9   7  13   38.33    9.05
  -9  -7  13   43.93    8.81
  -9  -7  13   54.00    9.43
  -9   7  14    2.95    4.03
  -9  -7  14   -0.07    2.30
  -9  -7  14   -0.36    2.11
  -9  -7  15  367.81   24.13
  -9  -7  15  327.11   23.11
  -9  -7  16   16.35    5.92
  -9  -7  16    9.37    5.15
  -9  -7  17   89.87   12.48
  -9  -7  18    5.64    3.52
  -9  -7  19    1.70    3.34
  -9  -7  20   32.00    7.66
  -9   8 -18   18.62    6.60
  -9   8 -18   19.55    7.14
  -9   8 -17    3.16    3.33
  -9   8 -17   -3.30    4.25
  -9  -8 -16   14.32    6.09
  -9   8 -16    3.88    3.78
  -9   8 -16    6.84    5.71
  -9  -8 -15    8.20    4.95
  -9   8 -15   17.18    7.50
  -9   8 -15   14.05    6.36
  -9  -8 -14   12.21    4.68
  -9   8 -14   12.54    4.96
  -9   8 -14   15.74    7.16
  -9  -8 -13    0.78    2.74
  -9   8 -13    2.40    4.01
  -9   8 -13    4.38    3.64
  -9   8 -12   14.36    5.26
  -9  -8 -12   13.93    5.20
  -9   8 -12   12.70    5.99
  -9  -8 -11    6.88    4.09
  -9   8 -11    6.78    4.93
  -9   8 -11    8.50    4.95
  -9  -8 -10    9.26    4.88
  -9   8 -10   11.06    5.56
  -9   8 -10   10.03    4.33
  -9  -8  -9   -0.14    2.16
  -9   8  -9    6.40    4.17
  -9   8  -9    6.37    4.88
  -9  -8  -8    5.52    2.95
  -9   8  -8   14.11    5.16
  -9   8  -8    7.74    4.80
  -9  -8  -7   10.82    3.38
   9  -8  -7   17.29    6.28
  -9   8  -7   25.31    7.49
  -9  -8  -6   62.85   10.32
   9  -8  -6   60.90   10.19
  -9   8  -6   42.18    9.69
  -9   8  -6   60.74   10.88
   9  -8  -5    9.62    3.86
  -9  -8  -5    6.15    5.09
  -9   8  -5    2.88    3.12
  -9   8  -5    5.62    5.31
  -9   8  -4    3.74    1.96
  -9  -8  -4    8.72    5.78
   9  -8  -4    0.91    2.66
  -9   8  -4    7.61    4.53
  -9   8  -3   11.92    6.13
  -9  -8  -3   13.77    5.53
  -9  -8  -3   24.08    7.12
   9  -8  -3   16.58    6.06
  -9   8  -3   18.00    4.30
  -9   8  -2   55.31   10.30
  -9  -8  -2   33.04    7.44
   9  -8  -2   50.87    9.30
  -9  -8  -2   28.01    6.22
  -9   8  -2   30.54    6.02
  -9   8  -1   10.47    5.49
  -9  -8  -1    5.58    4.31
   9  -8  -1    9.15    5.80
  -9  -8  -1   -1.02    2.19
  -9   8  -1    2.62    3.73
  -9   8   0   39.56    9.00
  -9  -8   0   33.21    7.23
   9  -8   0   32.80    7.58
  -9  -8   0   36.49    7.12
  -9   8   0   47.42    9.36
  -9   8   1    1.07    2.02
  -9  -8   1   -3.11    3.16
   9  -8   1    5.46    1.96
  -9  -8   1    6.11    4.08
  -9   8   1    5.56    4.21
  -9   8   2   42.23    9.05
  -9  -8   2   60.02    9.56
  -9  -8   2   35.79    7.87
  -9   8   2   40.20    8.73
   9  -8   2   46.18    8.71
  -9   8   3   18.66    6.95
  -9  -8   3   20.67    6.37
   9  -8   3   15.82    6.09
  -9  -8   3   15.48    5.62
  -9   8   3   14.05    4.35
  -9   8   4    2.25    2.73
  -9  -8   4    8.91    4.75
   9  -8   4   13.29    4.51
  -9  -8   4    7.35    4.28
  -9   8   4    7.18    2.80
  -9   8   5    7.31    4.41
  -9  -8   5    2.31    3.08
   9  -8   5    2.72    1.75
  -9  -8   5    9.72    4.28
  -9   8   5    7.32    4.68
  -9   8   6   47.80    9.82
  -9  -8   6   51.88    8.72
   9  -8   6   63.08   10.66
  -9  -8   6   54.30    8.94
  -9   8   6   57.88    9.98
  -9   8   7   26.68    8.16
  -9  -8   7   18.25    5.09
   9  -8   7   14.82    5.47
  -9  -8   7   24.46    5.80
  -9   8   8   12.54    6.02
  -9  -8   8   18.20    5.65
  -9  -8   8    4.22    3.34
  -9   8   9    4.02    4.66
  -9  -8   9    5.11    3.76
  -9  -8   9    4.72    2.17
  -9   8  10   24.20    7.78
  -9  -8  10   16.24    5.54
   9  -8  10    2.76    2.51
  -9  -8  10    9.02    4.40
  -9   8  11   -2.93    3.24
  -9  -8  11    0.23    3.58
   9  -8  11    3.22    2.75
  -9   8  12   -3.27    2.58
  -9  -8  12   12.08    4.83
   9  -8  12   12.99    4.61
  -9  -8  12   11.92    5.07
  -9   8  13   -0.68    3.51
  -9  -8  13    2.84    2.67
   9  -8  13   -0.81    2.32
  -9  -8  13   -0.77    3.25
  -9  -8  14   17.51    5.90
  -9  -8  14   26.71    7.25
   9  -8  14   14.30    5.28
  -9  -8  15    7.93    3.47
  -9  -8  15   13.72    5.54
   9  -8  15    8.97    4.15
  -9  -8  16    3.06    3.72
  -9  -8  16    6.24    2.95
   9  -8  16   11.80    6.59
  -9  -8  17   -1.34    3.01
  -9  -8  17    3.14    3.10
   9  -8  17    6.72    4.25
  -9  -8  18   19.63    6.53
   9  -8  18   22.02    6.93
  -9  -9 -14    6.77    3.63
  -9   9 -14    5.01    3.72
  -9   9 -14    3.91    5.56
  -9  -9 -13   10.42    5.41
  -9   9 -13   17.45    7.10
  -9   9 -13   19.53    6.41
  -9  -9 -12    8.46    5.21
  -9   9 -12    0.61    3.09
  -9   9 -12    4.11    3.43
  -9  -9 -11  117.39   14.55
  -9   9 -11  173.28   17.73
  -9   9 -11  150.34   18.15
  -9  -9 -10  128.22   15.27
  -9   9 -10  102.79   14.59
  -9   9 -10  122.29   16.13
  -9  -9  -9  103.67   13.79
  -9   9  -9  146.95   16.87
  -9   9  -9  104.84   15.64
  -9  -9  -8    4.53    2.74
  -9   9  -8    3.42    5.21
  -9   9  -8   -0.91    1.97
  -9  -9  -7  105.42   13.46
  -9   9  -7   65.28   10.81
  -9   9  -7   79.59   13.09
  -9  -9  -6   68.46   10.53
   9  -9  -6   64.93   11.45
  -9   9  -6   79.37   12.20
  -9   9  -6   78.98   12.50
  -9  -9  -5  376.22   25.69
   9  -9  -5  373.08   25.98
  -9   9  -5  440.46   28.86
  -9   9  -5  370.02   28.52
  -9  -9  -4   10.36    4.59
   9  -9  -4    7.86    4.65
  -9   9  -4    2.34    3.17
  -9   9  -4    6.60    5.08
  -9  -9  -3    5.03    4.26
   9  -9  -3    3.38    3.44
  -9   9  -3    0.52    4.59
  -9   9  -3    2.07    2.83
  -9  -9  -2   10.53    5.01
   9  -9  -2   11.80    5.18
  -9   9  -2    6.02    5.34
  -9   9  -2    5.13    3.93
  -9  -9  -1  150.62   15.80
   9  -9  -1  155.94   16.26
  -9   9  -1  175.56   18.59
  -9   9  -1  179.18   18.57
  -9  -9  -1  148.31   16.40
  -9  -9   0   98.12   12.78
   9  -9   0  117.72   14.71
  -9   9   0   99.15   14.02
  -9   9   0  118.72   15.35
  -9  -9   0  118.76   14.79
  -9  -9   1  159.87   16.28
   9  -9   1  135.87   14.58
  -9   9   1  155.81   18.06
  -9  -9   1  140.60   15.12
  -9   9   2    3.04    3.46
  -9  -9   2    3.45    2.13
   9  -9   2    4.78    2.57
  -9  -9   2   12.73    5.66
  -9   9   3   -3.76    4.22
  -9  -9   3   -1.45    4.34
   9  -9   3   -0.57    2.79
  -9  -9   3   -2.35    3.45
  -9   9   4    6.53    3.63
  -9  -9   4   -2.07    2.84
   9  -9   4    8.94    5.16
  -9  -9   4    1.54    1.88
  -9  -9   5  373.38   25.08
   9  -9   5  366.25   24.81
  -9   9   5  419.44   29.02
  -9  -9   5  380.13   25.74
  -9  -9   6   71.10   10.47
   9  -9   6   87.89   12.20
  -9   9   6   85.96   13.54
  -9  -9   6   92.96   13.37
  -9  -9   7  108.24   13.22
   9  -9   7  109.19   13.63
  -9   9   7   92.61   14.25
  -9  -9   7   92.15   13.05
  -9   9   8    0.59    4.43
  -9  -9   8    1.21    3.18
   9  -9   8    5.38    4.71
  -9  -9   8   -2.00    2.09
  -9  -9   9   95.46   13.06
   9  -9   9  129.33   14.65
  -9   9   9  143.93   17.75
  -9  -9   9  128.46   15.35
  -9  -9  10  116.99   14.76
   9  -9  10  122.58   14.53
  -9   9  10  120.84   17.31
  -9  -9  10  108.53   13.13
  -9  -9  11  157.90   16.50
   9  -9  11  127.60   15.55
  -9   9  11  173.40   20.64
  -9  -9  11  137.95   15.79
  -9  -9  12    8.46    4.96
   9  -9  12   10.19    5.14
  -9  -9  12   12.89    5.52
  -9  -9  13   10.57    3.34
   9  -9  13   16.42    5.21
  -9  -9  13   24.27    7.08
  -9  -9  14   -4.91    5.88
   9  -9  14    2.32    5.40
  -9  -9  14    3.83    2.68
  -9 -10  -8  139.18   16.42
  -9  10  -8  104.45   14.96
  -9  10  -8  141.96   17.81
  -9 -10  -7   32.60    8.43
  -9  10  -7   47.16   10.47
  -9  10  -7   30.11    7.53
  -9 -10  -6  226.53   20.20
  -9  10  -6  178.38   20.02
  -9 -10  -5   65.17   11.23
   9 -10  -5   41.80    9.42
  -9  10  -5   47.01    9.94
  -9 -10  -4   11.83    5.69
   9 -10  -4   -0.36    2.88
  -9  10  -4   20.14    8.08
  -9 -10  -3    7.45    4.75
   9 -10  -3    9.84    4.16
  -9  10  -3    4.45    3.58
  -9 -10  -2  105.37   13.55
   9 -10  -2   82.66   12.44
  -9  10  -2  103.76   14.50
  -9 -10  -1   29.06    7.40
   9 -10  -1   28.13    8.04
  -9  10  -1   15.56    7.41
  -9 -10   0  204.81   19.29
   9 -10   0  223.15   20.70
  -9  10   0  207.42   20.88
  -9 -10   1   25.22    7.15
   9 -10   1   26.21    7.10
  -9 -10   1   18.42    6.07
  -9  10   1   27.24    8.33
  -9 -10   2   74.48   11.87
   9 -10   2  100.79   13.13
  -9 -10   2  103.86   14.02
  -9  10   2   72.93   11.75
  -9 -10   3   15.09    6.11
   9 -10   3    3.87    3.49
  -9 -10   3   -1.55    3.67
  -9  10   3   12.62    5.77
  -9 -10   4    9.21    4.86
   9 -10   4   12.24    5.31
  -9 -10   4    9.56    4.87
  -9  10   4   20.41    7.89
  -9 -10   5   30.72    7.15
   9 -10   5   46.80    8.97
  -9 -10   5   32.87    8.87
  -9  10   5   44.80   10.01
  -9 -10   6  180.07   18.15
   9 -10   6  187.32   18.84
  -9  10   6  206.14   21.54
  -9 -10   6  158.23   17.27
   9 -10   7   14.86    5.06
  -9 -10   7   27.97    7.43
  -9 -10   7   33.61    8.54
  -9  10   7   23.11    7.91
  -9 -10   8  109.51   14.39
   9 -10   8   88.67   12.74
  -9  10   8  102.43   15.35
  -9 -10   8  121.41   14.95
 -10   0 -25   -7.22    3.73
 -10   0 -24  103.93   13.74
 -10   0 -23  183.81   18.72
 -10   0 -22   81.27   11.65
 -10   0 -21  313.10   22.95
 -10   0 -20  101.24   12.90
 -10   0 -19   85.76   11.88
 -10   0 -18  249.40   19.50
 -10   0 -17  396.60   24.45
 -10   0 -16  115.61   13.04
 -10   0 -15  458.66   25.44
 -10   0 -14  232.59   17.79
 -10   0 -13  215.30   17.23
 -10   0 -12  339.22   20.43
 -10   0 -12  397.50   22.81
 -10   0 -11  444.02   22.25
 -10   0 -11  479.75   24.72
 -10   0 -10   94.16   10.89
 -10   0 -10  106.65   11.21
 -10   0  -9  344.95   19.60
 -10   0  -9  267.10   17.71
 -10   0  -8  283.37   17.80
 -10   0  -8  287.67   18.43
 -10   0  -8  270.62   17.31
 -10   0  -7  123.14   11.61
 -10   0  -7  141.23   12.84
 -10   0  -7  128.71   11.79
 -10   0  -6   66.97    8.82
 -10   0  -6   51.69    8.02
 -10   0  -6   54.34    7.91
 -10   0  -5  324.89   18.88
 -10   0  -5  323.90   19.07
 -10   0  -5  294.55   17.62
 -10   0  -4  396.81   20.57
 -10   0  -4  388.81   20.70
 -10   0  -3  261.19   16.93
 -10   0  -3  249.98   16.62
 -10   0  -3  260.28   16.16
 -10   0  -2  262.78   16.96
 -10   0  -2  232.46   15.96
 -10   0  -2  271.38   16.40
 -10   0  -1  203.42   14.73
 -10   0  -1  184.62   13.42
 -10   0   0    8.73    3.08
 -10   0   0    7.03    3.52
 -10   0   0    4.37    1.85
 -10   0   1  183.47   14.40
 -10   0   1  164.02   12.46
 -10   0   2  249.46   16.72
 -10   0   2  242.66   15.11
 -10   0   3  264.17   17.41
 -10   0   3  257.60   15.56
 -10   0   4  332.71   19.68
 -10   0   4  368.27   18.44
 -10   0   5  321.60   19.45
 -10   0   5  332.57   17.64
 -10   0   6   64.91    8.85
 -10   0   6   66.41    7.78
 -10   0   7  134.65   12.60
 -10   0   7  151.30   11.96
 -10   0   8  309.12   19.65
 -10   0   8  295.42   16.28
 -10   0   9  295.80   19.24
 -10   0   9  322.22   17.01
 -10   0  10   98.03   11.30
 -10   0  10  109.88   10.00
 -10   0  11  444.55   24.43
 -10   0  11  451.38   19.99
 -10   0  12  339.71   21.55
 -10   0  12  369.97   17.71
 -10   0  13  206.30   17.09
 -10   0  14  187.81   16.26
 -10   0  15  432.22   25.61
 -10   0  16  110.27   13.13
 -10   0  17  398.25   24.69
 -10   0  18  232.95   19.76
 -10   0  19   60.99   10.43
 -10   0  20   99.11   13.24
 -10   0  21  376.80   26.41
 -10   0  22   76.39   12.24
 -10   0  23  205.74   20.10
 -10   0  24  106.20   15.04
 -10   1 -27   -1.77    4.85
 -10   1 -26    6.49    4.34
 -10   1 -25   15.76    6.98
 -10   1 -24    6.98    4.40
 -10   1 -23    4.67    5.23
 -10   1 -22    9.29    5.65
 -10   1 -21   16.87    6.06
 -10  -1 -20   23.48    6.59
 -10   1 -20   14.71    5.06
 -10  -1 -19   15.53    4.67
 -10   1 -19   10.85    5.11
 -10   1 -18   25.43    6.99
 -10  -1 -18    7.01    5.58
 -10  -1 -17   23.86    5.46
 -10   1 -17   15.02    5.70
 -10  -1 -16    6.27    3.14
 -10   1 -16   17.36    5.00
 -10  -1 -15   21.67    5.09
 -10   1 -15   32.26    8.51
 -10   1 -14    1.49    4.55
 -10  -1 -14    0.20    1.97
 -10   1 -14    5.43    3.73
 -10   1 -13   49.00    8.92
 -10  -1 -13   43.18    7.36
 -10  -1 -13   45.36    7.24
 -10   1 -13   41.77    8.06
 -10   1 -12   49.42    8.73
 -10   1 -12   42.90    7.81
 -10  -1 -12   38.48    6.72
 -10  -1 -12   45.85    7.89
 -10   1 -11    2.33    1.50
 -10  -1 -11    3.94    2.30
 -10  -1 -11   -1.53    2.45
 -10   1 -11    1.32    2.25
 -10  -1 -11    5.45    3.27
 -10   1 -10    9.74    3.30
 -10  -1 -10    3.92    1.86
 -10   1 -10   12.63    3.75
 -10  -1 -10    6.96    2.66
 -10  -1 -10    9.33    4.21
 -10   1  -9   13.90    3.09
 -10  -1  -9   21.72    4.78
 -10   1  -9   14.62    4.54
 -10  -1  -9   18.49    4.33
 -10  -1  -9   12.68    4.30
 -10   1  -8    1.17    1.52
 -10  -1  -8    2.86    1.39
 -10   1  -8    5.02    3.07
 -10  -1  -8    1.06    2.32
 -10  -1  -8    0.82    1.42
 -10   1  -7   34.68    7.08
 -10  -1  -7   50.05    6.86
 -10   1  -7   49.95    8.28
 -10  -1  -7   44.27    7.38
 -10  -1  -7   41.34    7.00
 -10   1  -6   38.80    7.28
 -10   1  -6   49.82    7.66
 -10  -1  -6   21.70    5.73
 -10  -1  -6   31.36    5.65
 -10  -1  -6   33.58    6.20
 -10   1  -5   -0.62    1.25
 -10   1  -5    2.13    3.63
 -10  -1  -5    1.48    2.08
 -10  -1  -5    0.44    1.43
 -10  -1  -5   -1.08    1.85
 -10  -1  -4    3.32    1.84
 -10   1  -4    2.20    1.17
 -10   1  -4   11.32    3.85
 -10  -1  -4    2.00    1.96
 -10  -1  -4   12.47    4.03
 -10  -1  -3    5.26    1.93
 -10   1  -3    5.22    2.79
 -10   1  -3    6.74    3.62
 -10  -1  -3    5.53    3.10
 -10  -1  -3    5.29    1.85
 -10  -1  -2    6.24    2.11
 -10  -1  -2   11.10    3.88
 -10   1  -2   14.05    4.65
 -10   1  -2    7.64    3.35
 -10  -1  -2   13.54    4.26
 -10  -1  -1   46.54    6.82
 -10   1  -1   29.50    6.03
 -10   1  -1   37.82    7.03
 -10  -1  -1   37.21    6.18
 -10  -1  -1   37.42    6.36
 -10  -1   0   24.85    4.85
 -10  -1   0   19.59    4.52
 -10   1   0   35.23    6.60
 -10   1   0   32.19    6.15
 -10   1   1   41.78    6.98
 -10  -1   1   47.18    6.69
 -10   1   1   42.40    7.31
 -10  -1   1   42.36    6.86
 -10  -1   2    5.02    2.88
 -10  -1   2   12.83    3.42
 -10   1   2   10.42    3.60
 -10   1   2    8.49    3.95
 -10  -1   3    4.34    2.72
 -10  -1   3    4.38    2.73
 -10   1   3    2.75    1.45
 -10  -1   4    5.39    2.90
 -10  -1   4    0.23    1.16
 -10   1   4    2.94    1.75
 -10  -1   5    2.03    1.42
 -10  -1   5    1.09    2.04
 -10   1   5   -0.62    1.21
 -10  -1   6   24.85    5.08
 -10   1   6   27.17    5.91
 -10  -1   6   34.31    6.45
 -10   1   7   49.18    7.75
 -10  -1   7   44.68    6.77
 -10  -1   7   54.96    8.74
 -10  -1   8   -0.52    2.42
 -10  -1   8    6.07    4.75
 -10   1   8    3.47    3.33
 -10  -1   9   17.97    4.09
 -10  -1   9    8.98    4.15
 -10   1   9   16.01    4.81
 -10   1  10   10.26    3.84
 -10  -1  10    9.53    3.78
 -10  -1  10    6.13    3.18
 -10   1  11   -0.73    1.99
 -10  -1  11    0.40    1.25
 -10  -1  12   54.19    8.61
 -10   1  12   44.05    7.99
 -10  -1  12   43.77    6.06
 -10  -1  13   54.22    8.67
 -10   1  13   48.57    8.80
 -10  -1  13   42.23    6.33
 -10   1  14    2.61    3.93
 -10  -1  14    0.47    2.81
 -10   1  15   28.24    6.80
 -10  -1  15   31.72    7.17
 -10   1  16   14.29    5.31
 -10  -1  16   13.19    4.29
 -10   1  17   24.02    7.01
 -10  -1  17   18.61    6.17
 -10   1  18   16.76    6.56
 -10  -1  18   10.29    3.95
 -10   1  19   18.33    6.87
 -10  -1  19   11.90    5.70
 -10  -1  20   10.69    4.97
 -10   1  20   25.14    7.07
 -10  -1  21   19.60    5.27
 -10   1  21   15.94    6.14
 -10  -1  22    5.73    3.75
 -10   1  22   11.39    4.65
 -10  -1  23    1.99    4.00
 -10  -1  24   11.65    5.79
 -10  -1  25    9.11    5.02
 -10   2 -26   22.54    7.30
 -10   2 -25   53.80   10.95
 -10   2 -24  100.52   13.68
 -10   2 -23   41.26    9.44
 -10   2 -22   45.68    9.63
 -10   2 -21  104.12   13.71
 -10   2 -20   42.03    9.13
 -10   2 -19   48.12    9.10
 -10   2 -18  191.88   17.61
 -10   2 -17  246.54   19.76
 -10  -2 -17  258.33   19.43
 -10   2 -16   60.37    9.79
 -10  -2 -16   62.06    9.53
 -10  -2 -15  268.40   19.36
 -10   2 -15  241.30   19.87
 -10   2 -15  215.95   18.26
 -10  -2 -15  246.42   18.25
 -10  -2 -14  154.69   13.82
 -10   2 -14  163.58   15.70
 -10  -2 -14  179.20   15.38
 -10   2 -14  173.30   16.45
 -10  -2 -13   79.14   10.08
 -10   2 -13   72.01   10.69
 -10  -2 -13   78.20    9.77
 -10  -2 -12  229.56   17.53
 -10   2 -12  232.86   17.88
 -10   2 -12  273.56   19.44
 -10   2 -11  663.25   30.30
 -10  -2 -11  658.28   27.27
 -10   2 -11  656.77   30.11
 -10  -2 -11  631.40   27.77
 -10   2 -10  142.78   13.90
 -10  -2 -10  144.57   12.71
 -10  -2 -10  125.57   11.80
 -10   2 -10  132.65   13.68
 -10  -2 -10  126.51   12.15
 -10   2  -9  187.34   15.76
 -10  -2  -9  220.40   15.16
 -10   2  -9  192.58   15.96
 -10  -2  -9  176.28   13.94
 -10  -2  -9  204.09   15.44
 -10   2  -8  242.12   17.51
 -10  -2  -8  232.54   15.82
 -10  -2  -8  217.57   14.81
 -10   2  -8  253.68   18.21
 -10  -2  -8  234.73   16.39
 -10   2  -7   94.92   10.99
 -10  -2  -7  117.11   10.99
 -10   2  -7  107.32   11.76
 -10  -2  -7  139.66   12.12
 -10  -2  -7  113.86   11.45
 -10   2  -6   75.91    9.76
 -10  -2  -6   75.88    9.01
 -10   2  -6   72.09    9.63
 -10  -2  -6   79.59    9.89
 -10  -2  -6   85.00    9.78
 -10   2  -5  411.06   22.70
 -10  -2  -5  422.25   20.59
 -10  -2  -5  417.84   20.63
 -10  -2  -5  441.77   22.30
 -10   2  -4  166.32   14.46
 -10   2  -4  203.84   15.89
 -10  -2  -4  180.85   13.52
 -10  -2  -4  186.58   13.77
 -10  -2  -4  184.56   14.45
 -10   2  -3  265.16   18.31
 -10   2  -3  261.60   17.77
 -10  -2  -3  251.82   15.89
 -10  -2  -3  254.48   16.39
 -10  -2  -3  275.62   17.11
 -10   2  -2  517.73   25.38
 -10   2  -2  514.58   25.08
 -10  -2  -2  476.81   21.83
 -10  -2  -2  468.29   22.17
 -10  -2  -2  474.32   22.57
 -10   2  -1  435.95   23.15
 -10   2  -1  450.18   23.46
 -10  -2  -1  425.92   20.94
 -10  -2  -1  463.14   22.10
 -10  -2  -1  497.70   23.01
 -10   2   0   51.11    7.94
 -10   2   0   50.47    7.94
 -10  -2   0   35.08    6.94
 -10  -2   0   34.42    6.12
 -10  -2   1  499.23   23.62
 -10   2   1  426.38   23.29
 -10   2   1  438.26   23.09
 -10  -2   1  485.05   22.42
 -10  -2   2  490.56   23.62
 -10   2   2  499.16   25.03
 -10   2   2  503.64   24.69
 -10  -2   2  494.99   22.35
 -10  -2   3  289.83   16.84
 -10  -2   3  252.92   17.03
 -10   2   3  264.75   17.98
 -10   2   3  244.91   17.26
 -10  -2   4  187.32   13.93
 -10   2   4  184.96   14.92
 -10  -2   5  358.43   20.77
 -10   2   5  345.28   20.63
 -10  -2   6   85.18    9.39
 -10  -2   6   78.45    9.64
 -10   2   6   92.26   10.76
 -10  -2   7  125.87   11.34
 -10  -2   7  106.42   11.31
 -10   2   7  120.72   12.93
 -10  -2   8  264.45   16.41
 -10  -2   8  239.87   17.05
 -10   2   8  269.53   18.98
 -10  -2   9  207.13   14.40
 -10   2   9  198.30   16.36
 -10  -2  10  134.93   11.67
 -10  -2  10  147.10   13.47
 -10   2  10  113.86   12.43
 -10  -2  11  655.56   25.33
 -10  -2  11  620.32   28.06
 -10   2  11  687.27   30.76
 -10  -2  12  265.69   18.47
 -10   2  12  274.78   19.68
 -10  -2  12  272.14   16.62
 -10  -2  13   80.99   10.53
 -10   2  13   79.56   10.68
 -10  -2  13   76.12    9.13
 -10  -2  14  172.79   16.46
 -10   2  14  158.91   15.59
 -10  -2  14  157.23   13.02
 -10  -2  15  232.72   18.42
 -10   2  15  271.30   20.50
 -10  -2  16   50.79    9.09
 -10   2  16   55.32    9.96
 -10  -2  17  232.83   18.85
 -10   2  17  297.69   22.40
 -10  -2  18  175.86   16.63
 -10   2  18  203.48   19.07
 -10  -2  19   55.16    9.48
 -10   2  19   53.51    9.76
 -10  -2  20   53.25   10.22
 -10   2  20   31.97    8.67
 -10  -2  21  117.73   14.39
 -10   2  21  111.27   14.73
 -10  -2  22   41.46    8.87
 -10  -2  23   65.56   11.11
 -10  -2  24   82.32   13.28
 -10  -2  25   57.03   10.70
 -10   3 -26    3.42    2.49
 -10   3 -25    0.16    3.69
 -10   3 -24    0.13    3.19
 -10   3 -23    4.63    2.60
 -10   3 -22    0.63    2.15
 -10   3 -21   -1.53    2.47
 -10   3 -20   -2.00    2.00
 -10  -3 -20   -9.64    3.97
 -10   3 -19   -4.17    3.15
 -10  -3 -19    2.33    3.85
 -10   3 -18    1.92    3.22
 -10  -3 -18    0.52    2.78
 -10   3 -17    0.03    2.41
 -10  -3 -17    5.28    3.44
 -10  -3 -16   11.24    3.82
 -10   3 -16   14.04    5.48
 -10   3 -15   -0.52    2.61
 -10   3 -15    0.09    2.15
 -10  -3 -15    0.82    3.22
 -10  -3 -14    5.08    4.56
 -10   3 -14    1.85    3.09
 -10   3 -14    0.26    1.82
 -10  -3 -13   31.69    7.09
 -10   3 -13   31.86    6.82
 -10   3 -13   21.96    6.03
 -10  -3 -12    5.54    3.14
 -10   3 -12   12.39    4.11
 -10   3 -12    9.98    4.17
 -10  -3 -11    0.50    1.51
 -10   3 -11    2.84    3.05
 -10   3 -11    0.70    3.44
 -10   3 -10   17.83    4.14
 -10   3 -10   23.38    5.03
 -10  -3  -9   11.15    3.54
 -10   3  -9   14.81    4.22
 -10  -3  -9   27.39    7.39
 -10   3  -9   18.04    5.52
 -10  -3  -8    4.72    1.98
 -10  -3  -8    2.92    1.69
 -10   3  -8   -0.22    2.10
 -10   3  -8    2.26    2.77
 -10  -3  -8   -0.57    1.26
 -10   3  -7   53.61    8.86
 -10   3  -7   69.72    9.55
 -10  -3  -7   50.75    7.36
 -10  -3  -7   65.32    8.00
 -10  -3  -7   60.12    8.36
 -10  -3  -6   22.11    5.40
 -10  -3  -6   15.58    4.25
 -10   3  -6   21.54    5.47
 -10   3  -6   21.21    5.72
 -10  -3  -6   15.64    4.43
 -10  -3  -5    5.02    3.76
 -10  -3  -5    4.03    2.43
 -10   3  -5    1.15    1.57
 -10   3  -5    5.36    3.40
 -10  -3  -5    4.46    3.16
 -10  -3  -4   13.68    3.65
 -10  -3  -4   15.09    3.94
 -10   3  -4   17.53    5.35
 -10   3  -4   14.56    4.77
 -10  -3  -4   15.31    4.15
 -10  -3  -3    1.51    1.65
 -10   3  -3    5.23    4.51
 -10  -3  -3    2.00    2.49
 -10   3  -3    0.57    1.60
 -10  -3  -3    1.27    2.06
 -10  -3  -2    9.15    3.44
 -10   3  -2   10.89    4.55
 -10  -3  -2    9.12    3.24
 -10   3  -2    3.19    1.47
 -10  -3  -2    9.88    3.06
 -10  -3  -1   28.18    5.42
 -10   3  -1   20.93    4.33
 -10  -3  -1   23.22    5.34
 -10   3  -1   28.36    6.08
 -10  -3   0    3.71    2.58
 -10   3   0    1.85    1.72
 -10  -3   0    1.22    2.23
 -10   3   0    3.50    3.01
 -10  -3   1   35.88    6.39
 -10   3   1   39.92    7.52
 -10  -3   1   24.60    5.80
 -10   3   1   27.93    5.47
 -10  -3   2    2.98    1.60
 -10   3   2    5.68    3.46
 -10  -3   2    9.19    3.87
 -10   3   2   11.05    3.84
 -10  -3   3    3.45    3.40
 -10   3   3    6.43    4.90
 -10  -3   3    3.90    3.14
 -10   3   3    7.83    2.35
 -10  -3   4   14.76    4.63
 -10   3   4   13.79    4.56
 -10  -3   4   16.22    4.45
 -10   3   4   24.49    6.34
 -10  -3   5    2.82    2.63
 -10   3   5   -0.19    3.13
 -10  -3   5    0.33    2.63
 -10   3   5    2.13    2.73
 -10  -3   6   15.62    5.08
 -10   3   6   25.00    5.90
 -10  -3   6   22.00    5.25
 -10  -3   7   65.09    8.44
 -10  -3   7   70.81    9.83
 -10   3   7   56.41    9.23
 -10  -3   8    0.90    2.12
 -10   3   8    1.53    2.33
 -10  -3   8    1.56    2.26
 -10  -3   9   16.40    4.71
 -10   3   9   12.60    4.94
 -10  -3   9   14.33    4.82
 -10  -3  10   32.36    6.25
 -10   3  10   34.24    6.95
 -10  -3  10   19.67    4.91
 -10   3  11    0.06    3.03
 -10  -3  11    1.80    2.38
 -10  -3  12   12.43    4.49
 -10   3  12   13.18    5.72
 -10  -3  12    8.16    4.43
 -10  -3  13   19.81    2.91
 -10   3  13   37.22    7.47
 -10  -3  13   33.43    6.79
 -10  -3  14    0.05    3.26
 -10   3  14    3.28    1.76
 -10  -3  14    0.06    1.97
 -10   3  15    0.47    4.27
 -10  -3  15   -3.81    3.53
 -10   3  16   18.47    6.03
 -10  -3  16   16.62    4.07
 -10   3  17    3.13    2.54
 -10  -3  17   -1.67    1.71
 -10   3  18    0.64    3.65
 -10  -3  18    0.33    3.22
 -10  -3  19    0.89    2.25
 -10   3  19   -3.88    5.49
 -10  -3  20    1.24    2.83
 -10   3  20    7.78    4.34
 -10  -3  21   -0.61    2.60
 -10  -3  22    4.38    2.47
 -10  -3  23    7.65    4.20
 -10  -3  24    0.65    2.14
 -10  -3  25   -2.89    4.89
 -10  -3  26    3.73    3.92
 -10   4 -25   67.44   11.27
 -10   4 -24   86.78   13.10
 -10   4 -23   22.73    6.63
 -10   4 -22   38.30    8.75
 -10   4 -21   66.76   10.91
 -10   4 -20   46.67    9.81
 -10   4 -19   57.80    9.70
 -10  -4 -19   70.96   11.33
 -10   4 -18  154.52   16.55
 -10  -4 -18  189.31   17.10
 -10   4 -17  130.63   14.83
 -10   4 -17  165.11   17.56
 -10  -4 -17  138.21   14.76
 -10   4 -16   70.42   10.90
 -10   4 -16   66.11   11.72
 -10  -4 -16   75.62   10.97
 -10   4 -15  179.70   17.14
 -10   4 -15  173.63   17.10
 -10  -4 -15  193.77   17.14
 -10   4 -14  143.56   15.35
 -10   4 -14  132.73   14.93
 -10  -4 -14  122.08   13.29
 -10   4 -13   77.40   10.90
 -10   4 -13   58.06   10.42
 -10  -4 -13   64.31    9.68
 -10   4 -12  167.12   16.11
 -10   4 -12  152.13   15.79
 -10  -4 -12  166.76   15.25
 -10   4 -11  441.47   25.81
 -10   4 -11  434.09   26.63
 -10  -4 -11  422.25   24.08
 -10   4 -10  113.79   14.31
 -10  -4 -10   95.00   11.28
 -10   4  -9  113.05   12.98
 -10  -4  -9  118.68   12.08
 -10  -4  -8  145.15   13.44
 -10   4  -8  151.93   14.60
 -10   4  -8  152.49   15.78
 -10   4  -7   46.46    8.49
 -10  -4  -7   45.26    7.61
 -10   4  -7   47.81    8.60
 -10  -4  -7   43.42    6.82
 -10  -4  -6   45.94    7.45
 -10   4  -6   47.77    8.94
 -10  -4  -6   34.71    6.44
 -10   4  -6   38.68    7.83
 -10  -4  -5  291.19   18.87
 -10   4  -5  267.29   20.45
 -10  -4  -5  265.70   17.42
 -10   4  -5  306.96   20.56
 -10  -4  -4   87.68   10.06
 -10   4  -4   82.99   11.33
 -10  -4  -4  105.30   10.93
 -10   4  -4   66.62    9.83
 -10  -4  -3   98.89   11.19
 -10   4  -3   98.10   11.65
 -10  -4  -3  108.04   10.96
 -10   4  -3  102.91   11.65
 -10  -4  -3   87.50    9.76
 -10  -4  -2  310.29   19.22
 -10   4  -2  293.90   20.72
 -10  -4  -2  313.72   19.16
 -10   4  -2  328.99   21.18
 -10  -4  -2  336.72   18.56
 -10  -4  -1  355.75   20.71
 -10   4  -1  375.90   23.26
 -10  -4  -1  395.53   21.13
 -10   4  -1  378.91   23.08
 -10  -4   0  153.87   13.71
 -10   4   0  179.95   16.20
 -10  -4   0  166.87   14.07
 -10   4   0  160.97   14.72
 -10  -4   1  353.46   20.38
 -10   4   1  379.02   23.07
 -10  -4   1  360.97   21.08
 -10   4   1  322.27   21.08
 -10  -4   2  344.96   20.43
 -10   4   2  369.40   23.18
 -10  -4   2  320.81   20.00
 -10   4   2  334.35   21.25
 -10  -4   3   94.06   10.74
 -10  -4   3  118.78   12.23
 -10   4   3   93.91   11.45
 -10  -4   4   81.57   10.17
 -10   4   4   82.61   10.87
 -10  -4   4   85.76   10.22
 -10   4   4   81.04   10.32
 -10  -4   5  261.00   17.84
 -10   4   5  265.88   19.26
 -10  -4   5  270.29   18.42
 -10   4   5  240.79   18.04
 -10  -4   6   40.33    6.86
 -10  -4   6   43.49    7.52
 -10   4   6   36.37    7.87
 -10   4   6   37.64    7.39
 -10  -4   7   43.80    7.32
 -10   4   7   46.18    8.51
 -10  -4   7   44.02    7.65
 -10   4   7   56.76    9.17
 -10  -4   8  181.76   14.57
 -10   4   8  163.78   15.89
 -10  -4   8  136.65   13.37
 -10   4   8  131.90   13.89
 -10  -4   9  100.21   10.70
 -10   4   9  113.30   13.17
 -10  -4   9  110.10   12.13
 -10  -4  10  129.09   12.34
 -10   4  10  111.13   13.26
 -10  -4  10  125.65   13.03
 -10  -4  11  419.55   22.56
 -10   4  11  429.76   26.16
 -10  -4  11  474.33   25.73
 -10  -4  12  170.83   14.37
 -10   4  12  159.11   15.66
 -10  -4  12  156.37   14.86
 -10  -4  13   72.71    9.42
 -10  -4  13   81.06   10.79
 -10   4  13   56.30    9.50
 -10  -4  14  120.67   12.66
 -10   4  14  118.27   14.55
 -10  -4  14  120.14   13.21
 -10  -4  15  176.21   14.88
 -10   4  15  181.35   18.02
 -10  -4  15  183.65   16.61
 -10   4  16   72.03   11.40
 -10  -4  16   66.27   10.18
 -10   4  17  169.16   17.92
 -10  -4  17  173.46   16.64
 -10   4  18  159.26   17.26
 -10  -4  18  161.55   15.83
 -10  -4  19   72.64   11.11
 -10   4  19   64.41   10.46
 -10  -4  20   22.28    5.42
 -10  -4  21   68.11   10.52
 -10  -4  22   32.59    7.88
 -10  -4  23   23.98    7.23
 -10  -4  24   92.55   13.48
 -10  -4  25   48.86    9.61
 -10   5 -23    1.92    3.71
 -10   5 -22    7.11    1.80
 -10   5 -21   33.23    8.73
 -10   5 -20    4.05    3.09
 -10   5 -19    2.51    1.76
 -10  -5 -18   -2.48    2.76
 -10   5 -18    0.52    1.92
 -10  -5 -17    2.26    3.15
 -10   5 -17    0.89    3.03
 -10   5 -17    0.58    2.71
 -10  -5 -16   25.47    6.55
 -10   5 -16   15.85    5.66
 -10   5 -16   16.27    5.66
 -10  -5 -15   42.31    7.93
 -10   5 -15   47.55    9.50
 -10   5 -15   43.48    9.58
 -10  -5 -14    1.68    2.99
 -10   5 -14   -1.15    1.75
 -10   5 -14   -2.49    4.67
 -10   5 -13   -1.73    2.17
 -10  -5 -13   -1.97    3.14
 -10   5 -13    4.36    3.32
 -10   5 -12    0.02    1.81
 -10  -5 -12    1.21    3.60
 -10   5 -12   -2.42    2.02
 -10   5 -11   14.47    5.32
 -10  -5 -11   13.67    5.20
 -10   5 -11   13.06    4.81
 -10   5 -10   22.99    6.80
 -10  -5 -10   23.44    5.12
 -10   5 -10   25.93    6.41
 -10   5  -9   17.69    5.99
 -10  -5  -9   20.21    4.57
 -10   5  -9   23.21    5.49
 -10  -5  -8   56.20    8.80
 -10   5  -8   37.43    7.64
 -10   5  -8   49.12    9.35
 -10  -5  -7   23.68    4.62
 -10   5  -7   12.41    4.48
 -10   5  -7   13.22    4.95
 -10  -5  -6    7.79    3.49
 -10   5  -6    4.44    3.19
 -10  -5  -6    3.73    3.59
 -10   5  -6    6.16    2.68
 -10  -5  -5    5.38    2.12
 -10   5  -5   14.46    5.05
 -10  -5  -5    8.10    3.90
 -10   5  -5    8.32    3.91
 -10  -5  -4   40.56    7.64
 -10   5  -4   30.96    6.82
 -10  -5  -4   43.20    7.57
 -10   5  -4   33.48    7.92
 -10  -5  -3   17.40    5.05
 -10   5  -3   26.73    7.02
 -10   5  -3   15.05    4.46
 -10  -5  -3   23.08    6.00
 -10   5  -2   74.31   10.79
 -10  -5  -2   84.35   10.60
 -10  -5  -2   74.40    9.63
 -10   5  -2   90.12   11.33
 -10   5  -1  165.39   16.16
 -10  -5  -1  164.98   14.49
 -10   5  -1  184.79   16.68
 -10   5   0  258.78   20.30
 -10  -5   0  202.46   16.33
 -10  -5   0  241.65   17.68
 -10   5   0  228.65   18.67
 -10  -5   1  188.46   15.63
 -10   5   1  199.86   17.80
 -10  -5   1  190.84   15.39
 -10   5   1  209.43   17.42
 -10  -5   2   86.09   10.25
 -10   5   2   89.34   11.92
 -10  -5   2   84.44   10.70
 -10   5   2   69.73   10.35
 -10  -5   3   30.49    6.18
 -10  -5   3   19.74    6.09
 -10   5   3   33.41    8.10
 -10   5   3   22.23    6.86
 -10  -5   4   51.48    8.24
 -10   5   4   41.90    8.22
 -10  -5   4   46.15    7.73
 -10   5   4   58.25    9.15
 -10  -5   5   13.56    4.80
 -10  -5   5   16.84    4.09
 -10   5   5   10.15    3.42
 -10   5   5   15.94    5.47
 -10  -5   6    0.88    1.84
 -10  -5   6    8.87    3.90
 -10   5   6   11.12    5.08
 -10   5   6    6.67    3.44
 -10  -5   7   25.69    6.36
 -10  -5   7   27.87    6.42
 -10   5   7   20.92    6.27
 -10   5   7   18.75    4.70
 -10  -5   8   51.79    7.64
 -10   5   8   34.60    7.69
 -10  -5   8   42.12    7.79
 -10   5   8   43.47    8.19
 -10  -5   9   17.35    5.62
 -10   5   9    6.74    3.70
 -10   5   9    6.56    3.57
 -10  -5  10   25.90    6.89
 -10  -5  10   27.23    6.28
 -10   5  10   28.51    6.75
 -10   5  10   39.00    7.88
 -10  -5  11   20.02    6.31
 -10  -5  11   15.88    4.94
 -10   5  11    6.57    3.12
 -10   5  11   15.75    5.38
 -10  -5  12   -0.85    2.21
 -10  -5  12    3.44    2.37
 -10   5  12    0.29    2.02
 -10  -5  13    2.43    3.64
 -10  -5  13    0.42    2.68
 -10   5  13   -0.67    2.83
 -10  -5  14    4.86    3.91
 -10  -5  14    1.49    1.79
 -10   5  14    3.53    2.89
 -10  -5  15   49.82    8.91
 -10  -5  15   51.37    8.86
 -10   5  15   48.69    8.98
 -10  -5  16   13.69    4.93
 -10   5  16   33.67    9.36
 -10  -5  17    1.28    1.70
 -10   5  17   -0.50    2.72
 -10  -5  18    8.50    3.17
 -10   5  18    1.42    2.65
 -10  -5  19    5.87    2.48
 -10  -5  20    4.06    3.27
 -10  -5  21   34.30    8.93
 -10  -5  22    8.50    4.82
 -10  -5  23    9.47    5.61
 -10   6 -22   21.79    7.15
 -10   6 -21  173.00   18.01
 -10   6 -20   89.88   13.22
 -10   6 -19   18.36    7.04
 -10   6 -19    4.61    3.51
 -10   6 -18   88.74   12.70
 -10   6 -18   64.02   11.56
 -10   6 -17   95.63   13.01
 -10   6 -17  104.83   14.72
 -10  -6 -17   89.84   12.79
 -10   6 -16   71.27   11.44
 -10   6 -16   59.74   11.78
 -10  -6 -16   72.60   11.06
 -10   6 -15  255.46   21.10
 -10   6 -15  265.35   23.25
 -10  -6 -15  286.06   22.03
 -10   6 -14  159.47   17.03
 -10   6 -14  133.29   16.43
 -10  -6 -14  120.30   13.97
 -10  -6 -13   67.28   10.41
 -10   6 -13   61.10   10.27
 -10   6 -13   91.83   13.46
 -10  -6 -12   76.37   11.15
 -10   6 -12   85.16   12.07
 -10   6 -12   77.45   12.62
 -10  -6 -11   88.18   11.45
 -10   6 -11  113.75   14.26
 -10  -6 -10   62.50   10.44
 -10   6 -10   75.10   11.24
 -10   6 -10   64.91   11.01
 -10  -6  -9  141.78   14.37
 -10   6  -9  186.39   17.40
 -10   6  -9  153.74   16.84
 -10  -6  -8  133.54   14.55
 -10   6  -8  111.11   13.18
 -10   6  -8  128.41   15.33
 -10   6  -7   31.11    7.78
 -10  -6  -7   25.81    6.51
 -10   6  -7   18.08    5.14
 -10  -6  -6   62.16   10.01
 -10   6  -6   62.23    9.82
 -10   6  -6   62.84   11.07
 -10  -6  -5  190.79   16.53
 -10  -6  -5  206.14   16.60
 -10   6  -5  249.35   19.69
 -10  -6  -4   86.13   11.32
 -10   6  -4   84.38   11.67
 -10   6  -4   74.61   11.64
 -10  -6  -3    1.69    2.28
 -10   6  -3    5.06    3.37
 -10  -6  -3    5.46    3.83
 -10   6  -3    4.35    1.81
 -10  -6  -2   80.40   10.62
 -10  -6  -2   66.88    9.50
 -10   6  -2   66.58   10.69
 -10   6  -2   68.84   11.59
 -10  -6  -1  177.03   15.56
 -10  -6  -1  173.51   15.29
 -10   6  -1  157.28   15.68
 -10   6  -1  144.03   15.41
 -10   6   0  217.11   19.11
 -10  -6   0  174.71   15.53
 -10  -6   0  165.42   15.09
 -10   6   0  198.57   17.29
 -10   6   1  167.71   16.85
 -10  -6   1  156.93   14.84
 -10  -6   1  139.31   13.94
 -10   6   1  166.56   16.05
 -10   6   2   58.24    9.99
 -10  -6   2   66.32    9.26
 -10  -6   2   78.22   10.66
 -10   6   2   83.06   11.57
 -10  -6   3    1.93    1.79
 -10   6   3    6.51    2.97
 -10  -6   3    3.13    1.92
 -10   6   3    4.58    3.63
 -10   6   4  107.63   13.30
 -10  -6   4   94.72   11.19
 -10  -6   4   87.81   10.89
 -10   6   4  124.29   14.12
 -10   6   5  196.21   18.71
 -10  -6   5  214.75   17.01
 -10  -6   5  198.38   16.45
 -10   6   5  216.21   18.54
 -10   6   6   76.49   11.40
 -10  -6   6   69.47    9.93
 -10  -6   6   53.70    9.01
 -10   6   6   53.40    8.37
 -10  -6   7   29.61    6.47
 -10   6   7   13.67    5.74
 -10  -6   7   23.86    5.50
 -10   6   7   28.03    7.54
 -10   6   8  140.12   15.42
 -10  -6   8  134.21   13.66
 -10  -6   8  104.94   12.32
 -10   6   8  120.37   14.44
 -10   6   9  166.76   16.69
 -10  -6   9  160.20   15.13
 -10  -6   9  131.48   13.98
 -10   6   9  148.39   15.77
 -10  -6  10   57.03    9.33
 -10   6  10   48.65    9.55
 -10  -6  10   57.26    9.35
 -10   6  10   59.89   10.13
 -10   6  11   85.50   13.05
 -10  -6  11  105.94   12.33
 -10  -6  11  104.59   12.54
 -10   6  11   93.93   12.56
 -10   6  12   96.59   13.60
 -10  -6  12   98.82   12.40
 -10  -6  12   89.67   11.07
 -10   6  12   83.57   11.76
 -10   6  13   91.17   13.54
 -10  -6  13  106.15   12.57
 -10  -6  13   74.59   10.82
 -10   6  13   80.09   12.19
 -10   6  14  129.02   15.76
 -10  -6  14  120.55   13.56
 -10  -6  14  141.32   15.61
 -10   6  14  135.87   16.12
 -10   6  15  258.20   22.71
 -10  -6  15  304.65   21.89
 -10  -6  15  231.57   19.53
 -10   6  15  265.79   22.46
 -10   6  16   81.68   13.29
 -10  -6  16   72.56   10.67
 -10  -6  16   94.64   12.78
 -10   6  16   73.77   11.17
 -10  -6  17   96.19   12.92
 -10  -6  18   84.15   12.04
 -10  -6  19   28.06    7.96
 -10  -6  20  110.28   14.19
 -10  -6  21  202.85   19.61
 -10  -6  22   36.77    8.31
 -10   7 -19    8.22    5.44
 -10   7 -19   -2.13    3.04
 -10   7 -18   18.76    5.74
 -10   7 -18   15.96    6.02
 -10   7 -17    1.78    2.23
 -10   7 -17    1.16    4.79
 -10  -7 -16   20.87    6.02
 -10   7 -16    9.51    5.44
 -10   7 -16   25.17    8.32
 -10  -7 -15   12.44    5.09
 -10   7 -15   20.45    5.66
 -10   7 -15   10.85    5.72
 -10  -7 -14   21.28    6.58
 -10   7 -14   24.09    7.43
 -10   7 -14   14.36    6.58
 -10  -7 -13   24.22    6.15
 -10   7 -13   13.35    5.82
 -10   7 -13   18.99    5.98
 -10   7 -12   16.03    5.38
 -10   7 -12    7.75    3.38
 -10  -7 -11   52.65    9.74
 -10   7 -11   56.07   10.03
 -10   7 -11   42.51    8.79
 -10  -7 -10   35.36    7.63
 -10   7 -10   37.90    8.51
 -10   7 -10   55.67   10.38
 -10   7  -9   36.49    8.41
 -10  -7  -9   56.34    9.32
 -10   7  -9   44.14    9.06
 -10   7  -8   43.45    8.92
 -10  -7  -8   43.33    8.42
 -10   7  -8   34.22    6.78
 -10   7  -7   -1.04    2.41
 -10  -7  -7   -1.90    1.83
  10  -7  -7    0.95    1.96
 -10   7  -7    3.21    3.54
 -10   7  -6   18.92    5.83
 -10  -7  -6   14.20    5.07
  10  -7  -6    7.97    5.06
 -10   7  -6    7.01    3.38
 -10   7  -5    5.72    4.58
 -10  -7  -5    9.19    1.81
  10  -7  -5    0.84    1.77
 -10   7  -4    5.36    3.54
 -10  -7  -4    4.01    3.28
 -10   7  -4    7.77    5.13
 -10   7  -3   20.11    7.00
 -10  -7  -3   18.23    5.19
 -10  -7  -3   13.70    4.93
 -10   7  -3   22.09    6.70
 -10   7  -2   32.38    8.64
 -10  -7  -2   40.31    7.95
 -10  -7  -2   31.79    7.63
 -10   7  -2   25.35    6.25
 -10  -7  -1   79.03   10.85
 -10  -7  -1   87.58   11.09
 -10   7  -1   98.48   13.24
 -10  -7   0   82.87   11.01
 -10  -7   0   57.96    8.57
 -10   7   0   54.87    9.41
 -10   7   0   53.82   12.48
 -10  -7   1   97.12   12.17
 -10  -7   1   92.43   12.11
 -10   7   1   99.51   12.79
 -10  -7   2   37.12    7.83
 -10  -7   2   41.54    8.09
 -10   7   2   33.26    7.44
 -10   7   3   22.40    7.20
 -10  -7   3   24.65    6.62
 -10  -7   3   18.79    5.76
 -10   7   3   17.55    5.36
 -10   7   4   14.84    5.90
 -10  -7   4    8.50    3.38
 -10  -7   4   10.40    3.36
 -10   7   4   18.35    6.07
 -10   7   5    8.45    3.98
 -10  -7   5    5.72    3.01
 -10  -7   5    4.17    2.02
 -10   7   5    9.27    5.14
 -10   7   6    5.57    3.45
 -10  -7   6    9.97    3.35
 -10  -7   6   15.34    5.53
 -10   7   6    9.33    4.27
 -10   7   7    2.61    3.45
 -10  -7   7   -1.84    2.15
 -10  -7   7    1.55    3.79
 -10   7   7   -2.90    5.07
 -10   7   8   45.78    9.14
 -10  -7   8   26.60    5.89
 -10  -7   8   34.10    7.99
 -10   7   8   38.00    7.89
 -10   7   9   30.82    8.32
 -10  -7   9   55.19    8.82
 -10  -7   9   42.43    8.11
 -10   7   9   52.26   10.15
 -10   7  10   56.67   11.48
 -10  -7  10   38.89    7.25
 -10  -7  10   47.07    9.09
 -10   7  10   24.70    7.48
 -10   7  11   43.32    9.52
 -10  -7  11   58.08    9.19
 -10  -7  11   41.88    7.77
 -10   7  11   48.91   10.18
 -10   7  12    6.85    3.59
 -10  -7  12   25.79    6.64
 -10  -7  12   23.23    5.81
 -10   7  12   17.54    5.54
 -10  -7  13   10.87    4.97
 -10  -7  13    7.60    5.23
 -10   7  13    2.77    3.54
 -10   7  14   17.55    4.75
 -10  -7  14   23.85    7.45
 -10  -7  14   14.04    5.75
 -10   7  15    5.43    3.19
 -10  -7  15   18.42    4.92
 -10  -7  15    9.76    4.29
 -10  -7  16   17.28    5.46
 -10  -7  16   16.84    5.90
 -10  -7  17   12.94    5.26
 -10  -7  18   16.70    6.43
 -10  -7  19    9.86    6.30
 -10  -8 -16    7.26    3.99
 -10   8 -16    1.49    2.44
 -10  -8 -15  114.68   14.58
 -10   8 -15  118.84   14.80
 -10   8 -15  101.36   14.46
 -10  -8 -14  137.97   16.58
 -10   8 -14  124.69   14.78
 -10   8 -14  112.96   16.60
 -10  -8 -13   41.21    8.79
 -10   8 -13   24.44    6.76
 -10   8 -13   44.19   10.24
 -10  -8 -12   28.68    7.37
 -10   8 -12   25.57    7.27
 -10   8 -12   33.65    8.17
 -10  -8 -11   65.76   11.00
 -10   8 -11   58.53   10.81
 -10  -8 -10   12.48    3.27
 -10   8 -10    9.65    3.86
 -10   8 -10   20.71    6.61
 -10  -8  -9   95.09   13.88
 -10   8  -9  102.57   14.74
 -10   8  -9   94.33   14.66
 -10  -8  -8   94.38   12.72
 -10   8  -8  136.90   16.06
 -10   8  -8  117.20   16.12
 -10  -8  -7   35.11    7.60
 -10   8  -7   37.57    8.12
 -10   8  -7   22.15    7.61
 -10  -8  -6  115.40   13.44
  10  -8  -6  104.49   13.71
 -10   8  -6  106.78   14.19
 -10   8  -6  122.82   15.42
 -10  -8  -5  243.66   19.77
  10  -8  -5  226.49   20.22
 -10   8  -5  250.05   21.14
 -10   8  -5  249.92   21.84
 -10  -8  -4  114.41   13.21
  10  -8  -4  142.92   15.47
 -10   8  -4  104.34   13.81
 -10   8  -4  130.13   16.24
 -10   8  -3   34.76    9.01
 -10  -8  -3   30.13    7.73
  10  -8  -3   30.53    7.38
 -10   8  -3   40.65    9.54
 -10   8  -2   34.72    8.18
 -10  -8  -2   26.91    6.15
 -10  -8  -2   29.23    6.86
  10  -8  -2   27.19    6.78
 -10   8  -2   36.82    8.70
 -10   8  -1   57.08   10.24
 -10  -8  -1   57.89   10.00
  10  -8  -1   65.70   10.80
 -10  -8  -1   73.37   10.84
 -10   8  -1   55.89    9.88
 -10   8   0   53.71   10.68
 -10  -8   0   57.19    9.44
  10  -8   0   55.47    9.61
 -10  -8   0   52.55    9.53
 -10   8   0   52.08   10.32
 -10   8   1   67.55   11.31
 -10  -8   1   44.47    8.40
 -10  -8   1   56.96    9.18
  10  -8   1   68.39    9.89
 -10   8   1   44.98    9.68
 -10   8   2   44.85    9.57
 -10  -8   2   35.09    7.39
 -10  -8   2   26.58    6.89
 -10   8   2   34.57    7.92
 -10   8   3    9.44    6.00
 -10  -8   3   15.59    5.25
 -10  -8   3   20.77    6.13
 -10   8   3   31.82    8.67
 -10  -8   4  104.32   13.20
 -10   8   4  136.25   15.88
 -10  -8   4  137.28   14.59
 -10   8   4  130.60   15.51
 -10  -8   5  270.00   20.36
 -10   8   5  229.39   20.90
 -10  -8   5  249.68   20.28
 -10   8   5  261.42   22.82
 -10  -8   6  105.53   13.23
 -10   8   6  131.89   15.72
 -10  -8   6  117.99   14.03
 -10   8   7   13.99    4.87
 -10  -8   7   25.31    5.81
 -10  -8   7   23.17    6.42
 -10   8   7   32.80    9.63
 -10  -8   8  148.20   14.72
 -10  -8   8  125.16   14.18
 -10   8   9   71.19   12.33
 -10  -8   9   97.12   12.44
 -10  -8   9  101.56   12.54
 -10   8  10    6.43    3.76
 -10  -8  10   11.81    4.04
 -10  -8  10   18.12    6.07
 -10  -8  11   54.63    8.72
 -10  -8  11   61.70   10.49
 -10  -8  12   27.09    6.33
 -10  -8  12   31.26    8.35
 -10  -8  13   28.14    7.46
 -10  -8  13   31.61    7.26
 -10  -8  14  123.21   14.38
 -10  -8  14  119.47   14.75
 -10  -8  15  137.41   15.92
 -10  -8  15  139.22   15.07
 -10  -8  16    2.54    3.02
 -10  -8  16    3.21    3.17
  10  -8  16   -1.82    4.79
 -10  -9 -12    2.99    4.98
 -10   9 -12   -9.07    5.19
 -10   9 -12   -1.29    5.78
 -10  -9 -11   17.54    6.88
 -10   9 -11   30.55    8.88
 -10   9 -11   20.67    8.10
 -10  -9 -10   11.33    5.30
 -10   9 -10   18.84    5.96
 -10   9 -10    6.09    2.71
 -10  -9  -9    0.27    2.61
 -10   9  -9   -0.27    3.98
 -10   9  -9    1.42    3.25
 -10  -9  -8   10.18    4.76
 -10   9  -8   16.03    6.96
 -10   9  -8   12.98    4.07
 -10  -9  -7   20.28    6.75
 -10   9  -7   12.61    5.45
 -10   9  -7   24.85    7.51
 -10  -9  -6    3.57    4.05
  10  -9  -6    0.53    5.93
 -10   9  -6   -4.04    4.51
 -10   9  -6   -2.42    4.44
 -10  -9  -5   -1.97    4.39
  10  -9  -5    9.40    5.12
 -10   9  -5    8.15    5.49
 -10   9  -5    4.21    2.02
 -10  -9  -4    5.64    2.55
 -10   9  -4   13.35    5.21
 -10   9  -4    3.25    3.43
 -10  -9  -3   16.95    5.20
  10  -9  -3   34.86    8.24
 -10   9  -3   19.03    7.30
 -10   9  -3   33.63    8.35
 -10   9  -2    4.74    4.33
 -10  -9  -2    8.82    4.20
  10  -9  -2    3.90    2.90
 -10   9  -2   15.49    5.37
 -10   9  -1   26.26    8.68
 -10  -9  -1   32.37    6.77
  10  -9  -1   40.30    9.11
 -10   9  -1   35.45    9.21
 -10  -9  -1   51.86   11.31
 -10   9   0   30.21    8.59
 -10  -9   0   22.86    6.89
 -10  -9   0   22.19    6.57
  10  -9   0   26.94    7.00
 -10   9   0   15.29    5.70
 -10   9   1   16.56    6.80
 -10  -9   1   29.94    7.00
 -10  -9   1   26.24    7.56
  10  -9   1   31.27    7.80
 -10   9   1   31.74    7.64
 -10   9   2   15.55    6.30
 -10  -9   2   10.57    3.82
 -10  -9   2    9.79    5.02
  10  -9   2   17.64    6.69
 -10   9   3   17.65    6.63
 -10  -9   3   32.26    7.19
 -10  -9   3   25.05    6.35
  10  -9   3   29.38    7.26
 -10   9   4   13.60    5.41
 -10  -9   4    8.63    5.61
 -10  -9   4   -0.43    3.77
  10  -9   4   15.42    6.04
 -10   9   5    2.45    2.67
 -10  -9   5    3.10    3.52
 -10  -9   5    4.31    2.74
  10  -9   5    8.77    4.13
 -10   9   6   -6.16    3.24
 -10  -9   6    4.52    2.95
 -10  -9   6    6.84    3.84
  10  -9   6    4.02    4.24
 -10   9   7   10.76    4.15
 -10  -9   7   16.80    5.08
 -10  -9   7    5.54    2.28
  10  -9   7    5.41    4.93
 -10   9   8    6.09    2.84
 -10  -9   8   20.27    6.39
  10  -9   8   16.05    5.86
 -10   9   9   -2.80    2.94
 -10  -9   9    5.00    4.83
 -10  -9   9    3.57    3.14
  10  -9   9   -0.87    4.53
 -10   9  10   20.40    7.68
 -10  -9  10    0.25    4.57
 -10  -9  10    8.02    3.66
  10  -9  10   20.15    5.50
 -10   9  11   34.94    9.55
 -10  -9  11   21.15    6.79
 -10  -9  11   30.59    7.73
  10  -9  11   26.11    6.02
 -10   9  12   -4.31    4.79
 -10  -9  12   -0.26    4.28
 -10  -9  12    1.34    5.07
  10  -9  12    0.37    2.67
 -10 -10  -5   34.34    7.95
  10 -10  -5   19.08    9.49
 -10 -10  -4   38.37    8.61
  10 -10  -4   43.37   10.58
 -10  10  -4   55.29   10.45
 -10 -10  -3    1.55    3.70
  10 -10  -3    1.34    2.34
 -10  10  -3    3.99    2.97
 -10 -10  -2   69.20   11.16
  10 -10  -2   67.29   12.27
 -10  10  -2   48.52   10.40
 -10 -10  -1   34.10    8.49
  10 -10  -1   25.22    7.47
 -10  10  -1   26.09    8.28
 -10 -10   0    5.97    4.23
  10 -10   0   -1.07    2.40
 -10  10   0   -1.50    3.30
 -10 -10   1   32.39    7.88
 -10 -10   1   35.68    8.88
  10 -10   1   24.15    6.40
 -10  10   1   53.07   11.38
 -10 -10   2   69.12   11.47
 -10 -10   2   56.74   11.02
  10 -10   2   52.24    9.83
 -10  10   2   56.39   12.11
 -10 -10   3    6.21    4.46
 -10 -10   3    5.98    4.15
  10 -10   3    8.87    5.39
 -10  10   3    1.44    3.77
 -10 -10   4   33.99    8.44
  10 -10   4   61.43   10.38
 -10 -10   4   40.78    9.64
 -10  10   4   40.15    9.51
 -10 -10   5   52.90   10.19
 -10 -10   5   65.26   11.34
  10 -10   5   31.94    7.93
 -10  10   5   52.84   10.82
 -11   0 -23   -1.21    2.33
 -11   0 -22   -2.22    2.26
 -11   0 -21   -0.86    2.13
 -11   0 -20   11.01    6.12
 -11   0 -19   -2.27    1.85
 -11   0 -18   -1.49    2.12
 -11   0 -17    1.72    4.14
 -11   0 -16   -1.26    2.68
 -11   0 -15   -1.34    2.84
 -11   0 -14   -0.82    3.23
 -11   0 -13    2.55    2.35
 -11   0 -12   -0.91    3.56
 -11   0 -12    0.38    2.98
 -11   0 -11   -1.33    2.43
 -11   0 -11   -1.33    2.07
 -11   0 -10    0.20    1.58
 -11   0 -10    2.85    3.33
 -11   0  -9    0.17    1.81
 -11   0  -9   -1.67    2.78
 -11   0  -8   -0.31    1.66
 -11   0  -8    0.13    1.66
 -11   0  -7    2.29    2.85
 -11   0  -7    2.05    2.46
 -11   0  -7    0.74    2.11
 -11   0  -6   -0.30    2.13
 -11   0  -6   -1.41    1.83
 -11   0  -6   -0.17    1.43
 -11   0  -5    0.86    1.32
 -11   0  -5    3.02    1.48
 -11   0  -5   -1.49    2.05
 -11   0  -4   -0.07    2.11
 -11   0  -4    0.44    3.37
 -11   0  -4   -0.09    3.31
 -11   0  -3   -0.37    1.43
 -11   0  -3    1.38    2.49
 -11   0  -3    0.67    2.40
 -11   0  -2   -1.28    2.38
 -11   0  -2    0.04    1.65
 -11   0  -2   -0.87    1.91
 -11   0  -1   -0.50    1.55
 -11   0  -1   -0.46    2.41
 -11   0  -1    0.93    2.13
 -11   0   0   -0.61    1.59
 -11   0   0    0.20    1.83
 -11   0   0   -0.91    2.68
 -11   0   1    0.49    1.56
 -11   0   1   -0.20    2.20
 -11   0   1   -1.15    1.82
 -11   0   2   -2.18    3.07
 -11   0   2    0.72    1.44
 -11   0   3   -0.71    1.32
 -11   0   3    0.34    1.81
 -11   0   4   -0.98    1.31
 -11   0   4    0.17    1.56
 -11   0   5    1.91    2.05
 -11   0   5   -1.49    2.39
 -11   0   6   -1.97    1.66
 -11   0   6    1.16    3.43
 -11   0   7    1.49    2.25
 -11   0   7   -1.99    1.59
 -11   0   8   -0.81    2.80
 -11   0   8    0.83    1.15
 -11   0   9   -0.50    1.84
 -11   0   9    0.16    1.20
 -11   0  10   -0.71    2.24
 -11   0  10   -0.65    1.40
 -11   0  11    0.21    2.00
 -11   0  11    2.35    3.03
 -11   0  12    2.22    2.69
 -11   0  12    0.06    2.05
 -11   0  13   -0.59    2.33
 -11   0  14   -3.57    3.01
 -11   0  15   -0.34    1.94
 -11   0  16   -0.49    2.14
 -11   0  17   -0.88    2.04
 -11   0  18    1.25    4.07
 -11   0  19    1.54    3.82
 -11   0  20   -0.44    2.52
 -11   0  21    1.72    4.28
 -11   0  22    1.61    2.31
 -11   0  23    2.51    4.41
 -11   0  24    4.68    4.09
 -11   1 -26   20.72    6.42
 -11   1 -25   34.57    9.04
 -11   1 -24  135.35   15.81
 -11   1 -23   14.63    5.14
 -11   1 -22    0.96    2.00
 -11   1 -21   71.57   11.03
 -11   1 -20   50.59    9.22
 -11  -1 -19  124.36   15.24
 -11   1 -19   76.65   11.28
 -11  -1 -18  504.51   28.25
 -11   1 -18  491.04   28.73
 -11  -1 -17   32.87    6.77
 -11   1 -17   21.09    5.53
 -11  -1 -16   16.83    4.95
 -11   1 -16   13.64    5.20
 -11  -1 -15  123.71   13.59
 -11   1 -15  134.38   14.48
 -11  -1 -14  433.82   25.59
 -11   1 -14  481.18   26.97
 -11   1 -13  610.21   29.29
 -11  -1 -13  659.04   30.39
 -11   1 -13  580.69   29.22
 -11  -1 -13  562.95   27.42
 -11   1 -12  673.28   31.37
 -11  -1 -12  746.45   31.91
 -11   1 -12  726.56   32.11
 -11  -1 -12  749.29   31.54
 -11   1 -11   59.86    9.04
 -11  -1 -11   46.17    7.87
 -11  -1 -11   60.87    8.91
 -11   1 -11   58.94    9.06
 -11  -1 -11   54.32    8.76
 -11   1 -10  354.83   21.70
 -11  -1 -10  368.42   21.10
 -11  -1 -10  410.37   22.66
 -11  -1 -10  377.93   21.59
 -11   1 -10  348.51   22.09
 -11   1  -9  222.60   17.19
 -11  -1  -9  262.21   17.75
 -11   1  -9  283.62   19.54
 -11  -1  -9  283.42   18.67
 -11  -1  -9  289.67   18.72
 -11   1  -8  309.33   19.97
 -11  -1  -8  347.78   20.21
 -11   1  -8  364.67   22.00
 -11  -1  -8  288.96   18.72
 -11  -1  -8  349.28   20.80
 -11   1  -7  326.49   20.40
 -11  -1  -7  331.80   19.91
 -11   1  -7  290.38   19.34
 -11  -1  -7  287.57   18.66
 -11  -1  -7  285.13   18.18
 -11   1  -6  271.33   18.84
 -11  -1  -6  255.72   17.09
 -11   1  -6  269.54   18.44
 -11  -1  -6  258.28   17.80
 -11  -1  -6  278.03   17.67
 -11   1  -5   64.27    9.24
 -11  -1  -5   57.39    8.32
 -11   1  -5   69.40    9.25
 -11  -1  -5   74.14    9.38
 -11  -1  -5   78.86    9.41
 -11   1  -4   66.35    8.98
 -11  -1  -4   81.88    9.94
 -11   1  -4   64.05    9.36
 -11  -1  -4   65.17    8.78
 -11  -1  -4   67.92    9.20
 -11   1  -3  255.18   17.98
 -11  -1  -3  333.14   20.06
 -11   1  -3  294.30   19.28
 -11  -1  -3  323.70   19.06
 -11  -1  -3  310.54   18.61
 -11   1  -2 1189.71   38.77
 -11  -1  -2 1125.94   36.20
 -11   1  -2 1134.53   37.96
 -11  -1  -2 1162.91   36.32
 -11  -1  -2 1128.68   35.44
 -11  -1  -1   35.62    6.23
 -11   1  -1   44.70    7.42
 -11  -1  -1   48.11    7.49
 -11   1  -1   51.65    8.04
 -11  -1  -1   33.14    6.02
 -11  -1   0    5.00    2.95
 -11  -1   0    3.74    2.38
 -11   1   0    2.77    2.90
 -11   1   0    1.81    3.44
 -11  -1   0    2.83    2.75
 -11  -1   1   59.85    8.24
 -11   1   1   40.94    6.77
 -11   1   1   49.66    7.94
 -11  -1   1   54.60    7.91
 -11   1   2 1091.80   37.37
 -11  -1   2 1237.04   38.28
 -11   1   2 1210.39   38.76
 -11  -1   2 1059.80   33.76
 -11  -1   3  293.06   18.78
 -11  -1   3  297.80   17.72
 -11   1   3  298.86   19.58
 -11   1   4   70.58    9.71
 -11  -1   4   69.44    9.19
 -11  -1   4   65.84    8.30
 -11   1   5   78.02   10.26
 -11  -1   5   74.09    9.63
 -11  -1   5   69.55    8.61
 -11   1   6  286.36   19.86
 -11  -1   6  302.22   19.57
 -11  -1   6  287.56   17.31
 -11   1   7  279.24   19.78
 -11  -1   7  307.80   19.97
 -11  -1   7  302.08   17.97
 -11   1   8  370.11   22.57
 -11  -1   8  364.02   21.46
 -11  -1   8  394.22   20.32
 -11   1   9  271.91   19.48
 -11  -1   9  274.90   18.94
 -11  -1   9  220.09   15.29
 -11   1  10  402.78   24.21
 -11  -1  10  368.28   19.79
 -11  -1  10  380.00   22.93
 -11   1  11   66.97    9.59
 -11  -1  11   61.06    8.09
 -11  -1  11   54.36    9.10
 -11   1  12  840.75   35.27
 -11  -1  12  764.52   28.81
 -11  -1  12  747.51   33.04
 -11   1  13  613.38   30.35
 -11  -1  13  572.41   24.31
 -11  -1  13  568.60   28.95
 -11   1  14  395.69   24.74
 -11  -1  14  399.78   24.72
 -11   1  15  108.66   12.95
 -11  -1  15  110.91   13.51
 -11  -1  16   24.30    6.92
 -11   1  16   23.27    6.50
 -11  -1  17   26.17    7.39
 -11   1  17   29.72    7.04
 -11   1  18  506.09   30.10
 -11  -1  18  486.71   28.51
 -11   1  19  104.12   14.22
 -11  -1  19  103.68   12.76
 -11  -1  20   44.59    9.19
 -11   1  20   55.53   11.29
 -11  -1  21   49.95    9.43
 -11   1  21   47.01    9.74
 -11  -1  22    5.95    4.18
 -11   1  22   -0.16    3.63
 -11  -1  23   10.73    5.70
 -11   1  23    3.94    2.75
 -11  -1  24  145.95   17.50
 -11  -1  25   21.57    7.38
 -11   2 -25   10.35    6.66
 -11   2 -24   19.93    6.17
 -11   2 -23   75.98   12.16
 -11   2 -22    3.88    3.00
 -11   2 -21    5.56    4.49
 -11   2 -20   24.46    6.09
 -11   2 -19    4.68    3.96
 -11   2 -18   13.88    5.49
 -11   2 -17    3.58    3.72
 -11  -2 -17   -0.44    2.60
 -11   2 -16    3.61    4.03
 -11  -2 -16    6.42    3.43
 -11   2 -15    5.02    3.88
 -11  -2 -15    1.07    1.99
 -11   2 -14   21.23    6.41
 -11   2 -14   22.51    6.34
 -11  -2 -14   31.68    7.15
 -11   2 -13   40.53    8.83
 -11   2 -13   56.88    9.99
 -11  -2 -13   47.21    7.88
 -11  -2 -13   55.32    8.56
 -11  -2 -12    6.54    3.83
 -11   2 -12    8.53    4.41
 -11  -2 -12    8.30    2.80
 -11   2 -11    6.30    3.84
 -11  -2 -11    6.64    3.05
 -11   2 -11    2.29    2.13
 -11  -2 -11    1.72    1.41
 -11   2 -10    1.76    1.76
 -11   2 -10    9.17    3.61
 -11  -2 -10   15.44    4.70
 -11  -2 -10    8.87    2.17
 -11  -2  -9    3.82    1.34
 -11   2  -9    3.72    1.43
 -11   2  -9    3.60    1.47
 -11  -2  -9    3.72    2.19
 -11  -2  -9    2.66    1.86
 -11   2  -8  124.11   12.87
 -11  -2  -8  119.57   11.98
 -11   2  -8  113.70   12.62
 -11  -2  -8  108.77   11.23
 -11  -2  -8  128.47   12.50
 -11  -2  -7   25.32    5.94
 -11   2  -7   21.19    5.26
 -11   2  -7   18.74    5.19
 -11  -2  -7   31.68    6.37
 -11  -2  -7   28.17    5.94
 -11  -2  -6    3.17    1.64
 -11   2  -6    3.18    2.19
 -11   2  -6    2.65    1.44
 -11  -2  -6    4.65    2.76
 -11  -2  -6    3.32    3.38
 -11   2  -5   58.73    8.96
 -11  -2  -5   58.27    7.94
 -11   2  -5   48.40    8.87
 -11  -2  -5   44.39    7.76
 -11  -2  -4    7.62    2.46
 -11  -2  -4    5.65    2.67
 -11   2  -4   10.25    3.95
 -11   2  -4   -0.35    2.40
 -11  -2  -4    4.56    2.46
 -11   2  -3  441.15   24.50
 -11   2  -3  494.37   25.37
 -11  -2  -3  495.64   23.85
 -11  -2  -3  473.56   23.08
 -11  -2  -3  498.02   24.36
 -11  -2  -2   23.01    5.20
 -11   2  -2   32.02    7.07
 -11  -2  -2   44.40    7.97
 -11   2  -2   30.42    6.61
 -11  -2  -2   28.79    5.58
 -11   2  -1  405.84   23.37
 -11   2  -1  412.52   23.37
 -11  -2  -1  419.22   22.17
 -11  -2  -1  431.98   22.33
 -11  -2  -1  481.49   23.26
 -11  -2   0    5.66    2.40
 -11  -2   0    6.60    3.22
 -11   2   0    7.23    3.75
 -11   2   0    1.18    2.64
 -11   2   1  414.59   23.64
 -11   2   1  433.38   23.51
 -11  -2   1  408.50   22.04
 -11  -2   1  401.58   21.19
 -11  -2   2   23.07    5.54
 -11   2   2   24.79    6.04
 -11   2   2   31.61    6.97
 -11  -2   2   35.31    6.79
 -11   2   3  529.08   26.70
 -11   2   3  494.01   25.57
 -11  -2   3  479.97   23.21
 -11  -2   3  498.58   24.73
 -11  -2   4    6.98    3.37
 -11  -2   4    6.19    2.90
 -11   2   4    4.96    2.75
 -11   2   4    5.47    3.18
 -11  -2   5   70.63    9.26
 -11   2   5   50.02    8.17
 -11  -2   5   51.32    7.80
 -11  -2   6    1.81    2.49
 -11  -2   6    1.64    1.30
 -11   2   6    5.32    3.23
 -11  -2   7   22.44    6.20
 -11  -2   7   21.57    5.90
 -11   2   7   21.09    5.49
 -11  -2   8  111.58   12.25
 -11   2   8  126.98   13.32
 -11  -2   8  102.49   10.58
 -11  -2   9   -1.15    2.85
 -11   2   9    1.39    2.74
 -11  -2  10    8.40    3.34
 -11  -2  10    6.37    3.07
 -11   2  10    8.49    4.71
 -11  -2  11    6.37    3.01
 -11  -2  11    8.58    3.97
 -11   2  11    3.62    3.26
 -11  -2  12   21.11    5.59
 -11  -2  12    7.04    3.62
 -11   2  12   11.73    4.60
 -11  -2  13   45.96    8.26
 -11   2  13   38.57    7.56
 -11  -2  13   41.50    6.91
 -11  -2  14   23.20    5.49
 -11   2  14   15.14    5.81
 -11  -2  15   -2.87    3.83
 -11   2  15    5.45    4.45
 -11  -2  16    4.25    4.12
 -11   2  16   11.98    5.40
 -11  -2  17    3.50    3.50
 -11   2  17    1.49    4.24
 -11  -2  18    7.74    4.79
 -11   2  18    5.98    4.08
 -11  -2  19    5.87    3.95
 -11   2  19    3.70    2.68
 -11  -2  20   30.25    8.23
 -11   2  20   44.53    9.48
 -11  -2  21    5.39    2.81
 -11   2  21    2.58    2.71
 -11  -2  22    5.90    4.12
 -11   2  22   10.75    4.93
 -11  -2  23   79.38   12.79
 -11  -2  24    8.92    5.71
 -11  -2  25    5.10    3.39
 -11   3 -25  134.99   16.06
 -11   3 -24  159.06   17.34
 -11   3 -23  123.08   15.24
 -11   3 -22   39.63    8.47
 -11   3 -21   48.09    9.98
 -11   3 -20   68.44   11.41
 -11  -3 -20   60.06   10.41
 -11   3 -19   45.83    9.44
 -11  -3 -19   36.44    7.54
 -11   3 -18  201.79   18.82
 -11  -3 -18  182.45   17.14
 -11   3 -17  120.76   14.22
 -11  -3 -17   86.18   11.47
 -11   3 -16    1.87    4.33
 -11   3 -16    0.51    2.34
 -11  -3 -16    1.97    2.64
 -11   3 -15   50.17    9.60
 -11   3 -15   45.48    8.94
 -11  -3 -15   31.40    7.46
 -11   3 -14  204.51   17.96
 -11   3 -14  176.72   17.44
 -11  -3 -14  210.50   16.93
 -11   3 -13  113.66   13.46
 -11  -3 -13  139.60   13.92
 -11   3 -13  125.42   14.00
 -11   3 -12  168.33   16.06
 -11  -3 -12  144.03   14.62
 -11   3 -11  258.54   20.04
 -11  -3 -11  251.83   18.29
 -11   3 -11  279.51   20.85
 -11   3 -10   82.90   11.30
 -11   3 -10   98.40   11.84
 -11  -3 -10   92.63   11.28
 -11   3  -9  887.73   37.15
 -11   3  -9  904.05   36.23
 -11  -3  -9  969.38   35.74
 -11   3  -8  468.46   26.94
 -11   3  -8  462.20   25.59
 -11  -3  -8  418.71   22.82
 -11  -3  -8  523.79   25.54
 -11  -3  -8  505.30   25.69
 -11   3  -7   79.31   10.74
 -11   3  -7   86.55   11.15
 -11  -3  -7  102.86   10.99
 -11  -3  -7   82.57    9.92
 -11  -3  -7   74.83   10.08
 -11   3  -6  109.00   12.82
 -11   3  -6   91.14   11.11
 -11  -3  -6  110.77   11.45
 -11  -3  -6   89.13    9.85
 -11  -3  -6  128.92   12.78
 -11   3  -5  634.09   30.36
 -11   3  -5  581.27   28.74
 -11  -3  -5  598.79   26.29
 -11  -3  -5  643.60   27.43
 -11  -3  -5  637.49   28.18
 -11   3  -4  518.67   27.15
 -11   3  -4  518.73   26.70
 -11  -3  -4  553.47   25.07
 -11  -3  -4  514.23   24.74
 -11  -3  -4  480.59   24.29
 -11   3  -3 2399.28   58.67
 -11   3  -3 2287.22   56.51
 -11  -3  -3 2397.19   51.96
 -11  -3  -3 2337.46   52.96
 -11  -3  -2  624.44   27.21
 -11   3  -2  596.63   30.01
 -11   3  -2  606.85   29.08
 -11  -3  -2  575.95   25.67
 -11  -3  -2  612.48   27.16
 -11  -3  -1 2043.14   48.98
 -11  -3  -1 1911.86   48.18
 -11   3  -1 1964.72   52.73
 -11   3  -1 1805.43   50.01
 -11  -3  -1 1850.96   46.09
 -11  -3   0  212.40   15.87
 -11  -3   0  201.21   15.37
 -11   3   0  213.04   17.45
 -11   3   0  215.32   17.37
 -11  -3   1 1737.02   45.97
 -11  -3   1 1920.11   48.71
 -11   3   1 1848.38   51.37
 -11   3   1 2030.75   52.84
 -11  -3   2  615.58   27.07
 -11  -3   2  620.20   27.69
 -11   3   2  600.18   29.53
 -11   3   2  604.52   28.69
 -11  -3   3 2364.23   52.55
 -11  -3   3 2320.38   54.10
 -11   3   3 2117.21   54.81
 -11   3   3 2176.98   54.58
 -11  -3   4  524.22   25.11
 -11  -3   4  474.69   24.87
 -11   3   4  550.87   28.12
 -11   3   4  531.70   26.95
 -11  -3   5  656.47   27.85
 -11  -3   5  605.27   28.07
 -11   3   5  638.62   30.14
 -11   3   5  712.83   31.17
 -11  -3   6  120.08   12.02
 -11  -3   6  114.92   12.24
 -11   3   6  113.44   12.67
 -11   3   6  107.30   12.45
 -11  -3   7   92.70   10.77
 -11  -3   7   69.11    9.58
 -11   3   7   71.77   10.56
 -11  -3   8  521.37   24.66
 -11  -3   8  517.42   26.08
 -11   3   8  471.60   26.90
 -11  -3   9  928.58   33.10
 -11  -3   9  918.92   35.65
 -11   3   9  926.58   37.11
 -11  -3  10   98.17   11.17
 -11  -3  10   79.64   10.79
 -11   3  10   89.67   12.05
 -11  -3  11  289.43   18.37
 -11  -3  11  277.29   20.21
 -11   3  11  251.83   19.87
 -11  -3  12  154.84   13.64
 -11  -3  12  157.89   14.77
 -11   3  12  151.63   15.65
 -11  -3  13  136.99   12.88
 -11  -3  13  106.39   12.79
 -11   3  13  124.98   14.59
 -11  -3  14  200.13   15.93
 -11  -3  14  199.80   17.00
 -11   3  14  214.00   18.92
 -11  -3  15   36.37    7.96
 -11   3  15   44.50    9.17
 -11  -3  16    2.86    3.03
 -11   3  16   -0.80    3.50
 -11  -3  17   96.39   12.25
 -11   3  17  113.99   14.87
 -11  -3  18  222.54   19.01
 -11   3  18  199.87   19.67
 -11  -3  19   48.53    9.60
 -11   3  19   41.54   10.18
 -11  -3  20   75.13   10.74
 -11   3  20   80.64   13.56
 -11  -3  21   32.74    8.26
 -11  -3  22   29.19    8.69
 -11  -3  23  121.42   14.88
 -11  -3  24  148.91   17.60
 -11  -3  25  125.13   16.26
 -11   4 -24   29.79    8.26
 -11   4 -23   28.38    7.70
 -11   4 -22   45.52   10.03
 -11   4 -21   40.18    9.33
 -11   4 -20    0.99    3.67
 -11   4 -19    1.56    3.21
 -11  -4 -19    1.98    2.05
 -11   4 -18    8.58    4.97
 -11  -4 -18    4.57    3.47
 -11   4 -17    3.57    2.03
 -11  -4 -17    3.80    3.81
 -11  -4 -16    1.86    2.57
 -11   4 -16    2.66    3.41
 -11   4 -16   -0.13    2.83
 -11  -4 -15   10.34    4.55
 -11   4 -15   15.23    5.53
 -11   4 -15   12.39    5.72
 -11  -4 -14    0.55    2.40
 -11   4 -14    0.92    2.30
 -11   4 -14    2.64    3.37
 -11  -4 -13   -2.08    2.33
 -11   4 -13    3.01    3.51
 -11   4 -13    1.90    4.01
 -11   4 -12   65.64   10.21
 -11   4 -12   64.36   10.46
 -11  -4 -12   64.55    9.41
 -11  -4 -11   10.37    3.53
 -11   4 -11   10.70    4.71
 -11   4 -11   10.93    4.71
 -11   4 -10   42.21    9.13
 -11   4 -10   64.17    9.86
 -11  -4 -10   59.54    8.86
 -11  -4  -9   12.11    4.40
 -11   4  -9    5.00    4.49
 -11   4  -9    0.59    2.54
 -11   4  -8  139.36   14.65
 -11   4  -8  144.61   14.53
 -11  -4  -8  132.96   13.71
 -11  -4  -7   22.64    6.69
 -11   4  -7   31.51    6.95
 -11  -4  -7   22.93    5.98
 -11   4  -7   24.05    5.90
 -11  -4  -6   14.80    4.28
 -11   4  -6   15.76    5.07
 -11  -4  -6    7.84    2.80
 -11   4  -6   16.13    6.20
 -11  -4  -5    6.49    3.54
 -11   4  -5    9.74    5.28
 -11  -4  -5    3.03    2.30
 -11   4  -5    3.97    4.47
 -11  -4  -4 1096.30   37.84
 -11  -4  -4 1031.82   35.68
 -11   4  -4  983.33   39.35
 -11   4  -4 1027.07   38.33
 -11  -4  -3  127.22   12.73
 -11  -4  -3  114.40   11.94
 -11   4  -3  122.80   13.79
 -11   4  -3  128.69   13.82
 -11  -4  -2  195.30   15.92
 -11   4  -2  223.00   17.96
 -11  -4  -2  217.57   16.66
 -11   4  -2  228.49   18.33
 -11  -4  -2  165.98   14.04
 -11  -4  -1  382.78   21.71
 -11   4  -1  391.62   24.20
 -11  -4  -1  371.51   21.60
 -11   4  -1  402.82   24.11
 -11  -4  -1  378.87   21.14
 -11  -4   0   14.52    4.45
 -11   4   0   11.69    4.18
 -11  -4   0   11.00    3.43
 -11   4   0   15.84    5.31
 -11  -4   1  394.47   22.79
 -11   4   1  349.90   23.07
 -11  -4   1  353.89   21.33
 -11   4   1  354.97   22.71
 -11  -4   2  226.68   16.77
 -11   4   2  211.52   17.97
 -11  -4   2  228.12   17.34
 -11   4   2  240.83   18.68
 -11  -4   3  141.92   13.20
 -11   4   3  107.31   12.80
 -11  -4   3  104.31   11.66
 -11   4   3  123.93   13.31
 -11  -4   4 1115.17   37.54
 -11   4   4 1007.86   38.83
 -11  -4   4 1113.47   38.30
 -11   4   4 1006.78   38.18
 -11  -4   5    7.17    3.71
 -11   4   5    5.68    3.03
 -11  -4   5    6.81    3.83
 -11   4   5    5.35    3.61
 -11  -4   6    9.70    4.56
 -11   4   6    2.76    2.87
 -11  -4   6    8.23    3.02
 -11   4   6   11.11    4.06
 -11  -4   7   31.57    6.65
 -11   4   7   18.90    5.96
 -11  -4   7   16.11    4.91
 -11   4   7   25.13    6.39
 -11  -4   8  187.23   15.43
 -11   4   8  171.99   16.73
 -11  -4   8  143.62   14.46
 -11   4   8  136.38   14.02
 -11  -4   9    9.91    3.60
 -11   4   9    8.94    4.03
 -11  -4   9    7.11    3.26
 -11   4   9    3.40    1.95
 -11  -4  10   64.46    9.04
 -11   4  10   66.80    9.93
 -11  -4  10   82.96   10.91
 -11  -4  11   13.49    3.87
 -11   4  11   13.91    4.27
 -11  -4  11   12.24    4.79
 -11   4  12   33.40    7.12
 -11  -4  12   43.30    8.20
 -11  -4  13    0.53    2.16
 -11   4  13    2.13    5.57
 -11  -4  13    2.70    3.00
 -11  -4  14    1.55    2.28
 -11   4  14   -0.40    2.19
 -11  -4  14    2.71    2.07
 -11   4  15   13.11    5.62
 -11  -4  15   14.84    5.34
 -11   4  16    4.23    3.68
 -11  -4  16    0.37    1.89
 -11   4  17   12.55    6.04
 -11  -4  17    4.23    3.30
 -11   4  18   -0.15    2.73
 -11  -4  18    0.43    2.76
 -11   4  19    1.12    3.12
 -11  -4  19    0.35    2.58
 -11  -4  20    9.75    5.41
 -11  -4  21   22.78    7.23
 -11  -4  22   28.92    7.76
 -11  -4  23   15.44    6.52
 -11  -4  24   27.52    8.11
 -11   5 -22   66.57   11.23
 -11   5 -21   14.77    5.26
 -11   5 -20  123.24   15.31
 -11   5 -19   29.70    6.97
 -11  -5 -19   14.62    5.15
 -11   5 -18   85.86   12.14
 -11  -5 -18   67.75   10.78
 -11  -5 -17    9.14    5.57
 -11   5 -17   21.07    5.31
 -11   5 -17   15.90    6.61
 -11  -5 -16   12.25    5.45
 -11   5 -16    6.83    5.02
 -11   5 -16   -2.50    4.32
 -11   5 -15   32.90    7.37
 -11   5 -15   37.16    8.90
 -11   5 -14  153.61   16.14
 -11   5 -14  164.03   18.10
 -11  -5 -14  178.23   17.23
 -11   5 -13   97.06   12.96
 -11   5 -13   74.86   12.10
 -11  -5 -13   93.62   11.94
 -11   5 -12   36.19    8.92
 -11  -5 -12   20.77    6.50
 -11   5 -12   27.69    7.90
 -11  -5 -11    1.44    1.87
 -11   5 -11    1.51    3.45
 -11   5 -11    2.26    3.43
 -11  -5 -10    1.95    2.75
 -11   5 -10    1.22    2.77
 -11   5 -10    6.44    4.84
 -11  -5  -9  134.64   13.68
 -11   5  -9  104.74   13.48
 -11   5  -9  119.11   14.54
 -11  -5  -8  511.73   27.17
 -11   5  -8  596.15   30.16
 -11   5  -8  502.07   30.74
 -11  -5  -7   64.62    9.39
 -11   5  -7   43.98    8.39
 -11   5  -7   64.27   11.37
 -11  -5  -6   52.89    8.50
 -11  -5  -6   49.26    9.20
 -11   5  -6   46.24    8.90
 -11   5  -6   36.82    7.84
 -11  -5  -5   19.99    5.42
 -11   5  -5   31.99    7.85
 -11  -5  -5   31.06    6.77
 -11   5  -5   30.86    6.61
 -11   5  -4  519.51   29.75
 -11  -5  -4  501.41   26.19
 -11  -5  -4  528.02   26.57
 -11   5  -4  449.70   26.28
 -11  -5  -3   66.85    9.20
 -11  -5  -3   56.85    8.70
 -11   5  -3   52.63    8.85
 -11   5  -3   48.90    8.72
 -11  -5  -2  210.58   17.05
 -11   5  -2  172.54   17.39
 -11  -5  -2  184.19   15.52
 -11   5  -2  171.51   16.33
 -11  -5  -1  236.84   17.85
 -11   5  -1  240.04   20.02
 -11  -5  -1  267.87   18.75
 -11   5  -1  246.96   19.28
 -11  -5   0   11.08    3.83
 -11   5   0    5.66    4.53
 -11   5   0   15.44    4.28
 -11  -5   0    0.17    1.92
 -11  -5   1  239.42   17.58
 -11   5   1  256.90   20.57
 -11  -5   1  259.33   18.74
 -11   5   1  252.36   19.70
 -11  -5   2  187.11   16.11
 -11   5   2  195.78   17.72
 -11  -5   2  193.92   16.52
 -11   5   2  177.94   16.73
 -11  -5   3   50.83    8.89
 -11   5   3   63.09    9.72
 -11  -5   3   50.18    8.53
 -11   5   3   46.49    8.55
 -11  -5   4  489.03   25.40
 -11   5   4  500.06   27.94
 -11  -5   4  509.54   26.73
 -11   5   4  489.05   27.45
 -11  -5   5   28.33    6.33
 -11   5   5   22.92    6.51
 -11   5   5   37.84    7.55
 -11  -5   5   26.53    6.29
 -11  -5   6   66.32    9.93
 -11   5   6   44.39    8.43
 -11  -5   6   39.60    7.94
 -11   5   6   56.60    9.66
 -11  -5   7   58.57    8.87
 -11   5   7   74.35   10.86
 -11  -5   7   58.00    9.76
 -11   5   7   75.63   11.08
 -11  -5   8  577.66   27.73
 -11   5   8  506.26   29.02
 -11  -5   8  526.83   28.00
 -11   5   8  556.02   29.30
 -11  -5   9  120.22   12.60
 -11   5   9  107.56   13.31
 -11  -5   9  114.17   13.09
 -11   5   9  109.52   13.31
 -11  -5  10    6.14    2.89
 -11   5  10    8.02    5.40
 -11   5  10    8.45    3.65
 -11  -5  10    4.67    4.24
 -11  -5  11    4.65    3.81
 -11   5  11    1.38    2.62
 -11   5  11    1.53    3.49
 -11  -5  11   -0.28    2.56
 -11  -5  12   38.90    7.70
 -11   5  12   28.25    6.80
 -11   5  12   33.60    7.63
 -11  -5  12   30.07    7.67
 -11  -5  13   87.57   11.53
 -11   5  13   82.60   12.39
 -11  -5  13   92.34   11.76
 -11  -5  14  160.80   14.88
 -11   5  14  155.43   17.61
 -11  -5  14  149.18   15.55
 -11  -5  15   53.09    8.73
 -11   5  15   68.99   12.34
 -11  -5  15   60.13    9.91
 -11   5  16    6.35    4.45
 -11  -5  16    2.38    2.40
 -11   5  17   18.14    5.31
 -11  -5  17   13.35    6.68
 -11  -5  18   92.01   12.81
 -11   5  18   74.42   12.61
 -11  -5  19   37.42    8.39
 -11  -5  20  101.15   12.95
 -11  -5  21   18.79    5.57
 -11  -5  22   78.72   12.34
 -11   6 -20   63.09   10.08
 -11   6 -19   15.30    5.95
 -11  -6 -18   15.73    6.76
 -11   6 -18    8.71    4.87
 -11   6 -18    7.42    5.78
 -11  -6 -17    4.01    4.17
 -11   6 -17   -4.51    4.16
 -11   6 -17    0.17    2.91
 -11  -6 -16    6.98    3.74
 -11   6 -16   17.42    6.21
 -11   6 -16   11.60    6.29
 -11  -6 -15   11.64    4.24
 -11   6 -15   19.52    6.96
 -11   6 -15   24.79    7.31
 -11  -6 -14   38.70    7.80
 -11   6 -14   28.05    6.12
 -11   6 -14   21.46    4.91
 -11  -6 -13   30.71    8.03
 -11   6 -13   27.16    6.72
 -11   6 -13   24.04    6.70
 -11   6 -12    0.39    2.67
 -11  -6 -12    9.35    4.32
 -11   6 -12    1.24    3.39
 -11   6 -11    5.49    2.91
 -11  -6 -11    6.06    3.27
 -11   6 -11   11.61    6.08
 -11  -6 -10  110.88   13.19
 -11   6 -10   95.34   13.25
 -11   6 -10   88.43   13.09
 -11   6  -9    5.94    2.87
 -11  -6  -9   -0.01    2.19
 -11   6  -9    3.13    2.23
 -11  -6  -8   78.71   11.64
 -11   6  -8   69.09   10.78
 -11   6  -8   77.71   12.61
 -11   6  -7    9.66    3.59
 -11  -6  -7    3.80    3.29
 -11   6  -7   -2.17    1.99
 -11  -6  -6   75.81   10.74
 -11   6  -6   50.50    8.87
 -11   6  -6   49.59   10.11
 -11  -6  -5   19.30    5.85
 -11   6  -5   18.19    6.77
 -11   6  -5   23.04    6.35
 -11  -6  -4   11.67    4.62
 -11   6  -4    5.99    3.48
 -11   6  -4   13.71    6.02
 -11  -6  -4    4.98    2.37
 -11  -6  -3   -1.90    1.94
 -11   6  -3    2.07    4.26
 -11   6  -3   -2.06    4.38
 -11  -6  -3    1.13    1.52
 -11  -6  -2  127.39   13.71
 -11  -6  -2  149.96   14.89
 -11   6  -2  171.34   16.57
 -11   6  -2  152.23   16.09
 -11  -6  -1   13.62    4.66
 -11   6  -1   11.25    4.78
 -11   6  -1   13.29    6.23
 -11  -6  -1   19.08    4.80
 -11  -6   0   -2.67    3.27
 -11   6   0    1.12    4.94
 -11   6   0   -1.93    2.03
 -11  -6   0   -2.28    2.87
 -11  -6   1   10.23    3.46
 -11  -6   1   24.53    5.61
 -11   6   1   20.68    6.47
 -11   6   1   18.64    6.03
 -11   6   2  139.09   15.88
 -11  -6   2  171.94   15.46
 -11  -6   2  156.94   15.50
 -11   6   2  172.79   17.04
 -11  -6   3    4.11    3.54
 -11  -6   3   -0.66    2.29
 -11   6   3    1.34    2.96
 -11   6   3   -0.27    2.71
 -11  -6   4    9.57    4.01
 -11  -6   4   10.84    4.21
 -11   6   4    9.62    5.14
 -11   6   4   12.63    5.34
 -11  -6   5   28.86    5.96
 -11  -6   5   19.42    5.60
 -11   6   5   25.84    7.01
 -11   6   5   15.21    5.66
 -11   6   6   50.01   10.49
 -11  -6   6   41.24    7.36
 -11  -6   6   46.92    8.60
 -11   6   6   49.17    9.41
 -11  -6   7    6.75    3.73
 -11  -6   7    5.04    3.18
 -11   6   7    5.05    4.59
 -11   6   7    8.22    4.06
 -11  -6   8   75.57   10.65
 -11   6   8   65.07   11.11
 -11  -6   8   58.76    9.13
 -11   6   8   68.12   11.31
 -11  -6   9   10.05    4.22
 -11  -6   9   15.71    5.18
 -11   6   9   15.34    5.96
 -11   6   9    3.12    2.72
 -11  -6  10   87.79   11.51
 -11   6  10   87.12   12.84
 -11  -6  10   98.87   11.96
 -11   6  10   99.97   12.65
 -11  -6  11    5.58    3.88
 -11  -6  11    5.17    3.44
 -11   6  11    4.44    3.19
 -11   6  11    4.00    3.21
 -11  -6  12    7.68    3.82
 -11  -6  12    3.53    4.61
 -11   6  12    0.79    2.67
 -11   6  12    5.89    3.16
 -11  -6  13   15.64    4.62
 -11  -6  13   30.76    6.34
 -11   6  13   36.87    8.62
 -11   6  13   18.84    5.61
 -11  -6  14   33.43    7.49
 -11  -6  14   39.69    7.76
 -11   6  14   34.37    8.80
 -11   6  14   25.43    7.18
 -11  -6  15   17.71    6.58
 -11  -6  15   27.25    6.49
 -11   6  15   22.38    7.33
 -11   6  15   25.60    6.40
 -11  -6  16    0.55    4.29
 -11   6  16   10.13    5.68
 -11   6  16    8.88    6.42
 -11  -6  17    2.46    4.31
 -11   6  17    1.48    4.73
 -11   6  17    4.38    3.11
 -11   6  18   11.76    2.69
 -11  -6  18   13.19    5.79
 -11  -6  19    7.49    3.98
 -11  -6  20   55.96   10.28
 -11   7 -18   54.45    9.55
 -11   7 -18   63.12   11.34
 -11  -7 -17   -0.03    4.17
 -11   7 -17    8.28    4.66
 -11   7 -17   15.68    7.68
 -11  -7 -16    5.61    3.99
 -11   7 -16    8.76    4.97
 -11   7 -16    4.87    5.00
 -11  -7 -15   39.66    8.30
 -11   7 -15   49.72   10.21
 -11   7 -15   45.18    9.94
 -11   7 -14  164.08   17.62
 -11   7 -14  194.76   20.97
 -11  -7 -14  227.87   20.34
 -11  -7 -13  128.24   15.02
 -11   7 -13  106.04   13.93
 -11   7 -13  116.53   14.98
 -11  -7 -12   97.00   12.95
 -11   7 -12   71.18   10.55
 -11   7 -12   68.92   12.32
 -11  -7 -11   19.01    5.54
 -11   7 -11   17.13    5.26
 -11   7 -11   27.48    7.16
 -11   7 -10    5.94    3.31
 -11  -7 -10    3.59    2.58
 -11   7 -10    6.70    3.80
 -11  -7  -9   61.74    9.94
 -11   7  -9   76.25   12.01
 -11   7  -9   61.40   11.24
 -11   7  -8  330.87   23.72
 -11  -7  -8  293.80   21.59
 -11   7  -8  316.72   25.12
 -11  -7  -7  215.63   18.33
 -11   7  -7  269.83   21.61
 -11   7  -7  231.75   21.43
 -11  -7  -6   76.16   11.14
 -11   7  -6   88.98   12.36
 -11   7  -6  106.67   14.24
 -11   7  -5   27.59    8.27
 -11  -7  -5   13.52    5.47
 -11   7  -5   10.26    4.58
 -11  -7  -4  101.13   12.85
 -11   7  -4  111.80   13.81
 -11   7  -4   96.20   14.36
 -11  -7  -3  185.43   16.97
 -11  -7  -3  177.55   16.88
 -11   7  -3  174.71   17.21
 -11   7  -3  126.81   15.91
 -11  -7  -2   69.11   10.25
 -11   7  -2   36.24    8.63
 -11  -7  -2   78.39   11.14
 -11   7  -2   59.08   10.29
 -11  -7  -1   15.46    5.66
 -11   7  -1    9.77    6.54
 -11  -7  -1    6.99    3.13
 -11   7  -1   14.64    5.47
 -11  -7   0   -0.67    2.21
 -11   7   0   -1.57    3.92
 -11  -7   0   -0.58    2.24
 -11   7   0   -0.23    2.04
 -11  -7   1   13.53    4.96
 -11   7   1    6.52    4.58
 -11  -7   1   11.12    4.91
 -11   7   1   23.59    6.96
 -11  -7   2   56.64    9.48
 -11  -7   2   62.63    9.70
 -11   7   2   54.22    9.68
 -11   7   2   65.59   11.04
 -11  -7   3  187.29   16.57
 -11  -7   3  160.32   15.84
 -11   7   3  141.58   15.58
 -11   7   3  130.49   15.62
 -11  -7   4  113.15   13.06
 -11  -7   4   86.27   11.57
 -11   7   4  102.41   13.43
 -11   7   4  107.49   14.17
 -11   7   5    8.20    2.57
 -11  -7   5   15.25    5.56
 -11  -7   5    8.97    4.74
 -11   7   5    8.29    3.02
 -11  -7   6  105.74   12.96
 -11   7   6   61.31   10.31
 -11  -7   6   72.83   10.58
 -11   7   6  102.97   13.91
 -11   7   7  230.34   20.55
 -11  -7   7  229.82   18.48
 -11  -7   7  226.41   18.81
 -11   7   7  184.68   18.31
 -11   7   8  280.49   23.62
 -11  -7   8  272.00   20.64
 -11  -7   8  242.16   20.01
 -11   7   8  301.67   23.36
 -11   7   9   70.51   12.55
 -11  -7   9   63.38   10.56
 -11  -7   9   62.67   10.04
 -11   7   9   71.78   11.86
 -11  -7  10   10.55    3.87
 -11  -7  10    9.54    4.46
 -11   7  10   18.48    6.94
 -11   7  10    3.88    3.48
 -11  -7  11   23.12    5.70
 -11  -7  11   26.24    6.99
 -11   7  11   26.55    8.14
 -11   7  11   26.22    7.44
 -11  -7  12   79.31   12.07
 -11   7  12   64.74   12.47
 -11  -7  12   68.95   11.18
 -11   7  12   66.47   11.41
 -11   7  13  114.20   16.17
 -11  -7  13  110.64   13.56
 -11  -7  13  119.70   13.91
 -11   7  13  116.40   14.77
 -11   7  14  181.25   20.43
 -11  -7  14  172.07   18.17
 -11  -7  14  211.89   18.98
 -11  -7  15   56.87   11.14
 -11   7  15   36.70   10.03
 -11  -7  15   50.92    9.61
 -11  -7  16    5.72    4.94
 -11  -7  17    4.97    2.77
 -11  -7  18   80.69   11.47
 -11  -8 -15    8.61    2.58
 -11   8 -15   12.40    5.25
 -11   8 -15    6.17    4.27
 -11  -8 -14    2.20    4.17
 -11   8 -14    3.86    4.14
 -11   8 -14    4.06    5.07
 -11   8 -13    0.03    2.74
 -11  -8 -13    8.00    4.34
 -11   8 -13   11.65    5.56
 -11  -8 -12    7.47    3.50
 -11   8 -12   -1.89    3.12
 -11   8 -12    9.53    5.89
 -11  -8 -11    2.94    2.58
 -11   8 -11    7.26    5.56
 -11   8 -11    7.67    3.94
 -11  -8 -10    2.72    2.97
 -11   8 -10    1.52    3.58
 -11   8 -10    1.75    3.85
 -11  -8  -9    7.70    4.03
 -11   8  -9    7.93    5.59
 -11   8  -9    6.91    5.42
 -11  -8  -8    0.71    3.92
 -11   8  -8    3.61    5.36
 -11   8  -8    9.92    6.43
 -11   8  -7    5.78    5.88
 -11  -8  -7    2.71    3.45
 -11   8  -7   -0.34    2.66
 -11   8  -6    1.61    2.03
 -11  -8  -6    1.50    2.01
  11  -8  -6    8.08    6.21
 -11   8  -6    4.91    5.00
 -11   8  -5    4.49    3.58
 -11  -8  -5   -2.42    4.41
 -11   8  -5   11.63    5.38
  11  -8  -5    7.46    4.85
 -11   8  -4    6.41    3.77
 -11  -8  -4    1.24    2.14
  11  -8  -4    0.97    1.97
 -11   8  -4   -0.81    4.87
 -11   8  -3    6.51    5.23
 -11  -8  -3    0.91    1.99
  11  -8  -3   -1.08    2.06
 -11   8  -3    1.49    3.91
 -11   8  -2    7.22    4.50
 -11  -8  -2    8.28    4.28
  11  -8  -2   10.32    5.02
 -11   8  -2    1.83    5.30
 -11  -8  -1   71.49   10.41
 -11  -8  -1   49.83    9.27
  11  -8  -1   73.19   11.85
 -11   8  -1   73.40   11.60
 -11   8  -1   71.57   12.69
 -11   8   0   15.08    2.99
 -11  -8   0   10.66    5.43
 -11  -8   0    1.64    2.81
 -11   8   0   19.91    6.57
 -11  -8   1   57.05    9.74
 -11  -8   1   67.76   10.70
 -11   8   1   57.97   11.16
 -11   8   1   85.47   13.58
 -11   8   2    5.62    4.63
 -11  -8   2    7.74    2.98
 -11  -8   2   11.55    5.40
 -11   8   2    0.38    3.69
 -11   8   3    5.24    4.35
 -11  -8   3    1.66    4.27
 -11  -8   3   -1.71    3.06
 -11   8   3    0.55    2.79
 -11   8   4    0.72    2.27
 -11  -8   4   -3.43    2.58
 -11  -8   4    3.96    3.68
 -11   8   4    1.83    5.45
 -11   8   5   -0.47    3.74
 -11  -8   5    5.39    3.52
 -11  -8   5    8.69    4.08
 -11   8   5    9.40    5.61
 -11   8   6    5.04    5.31
 -11  -8   6    2.01    2.94
 -11  -8   6    2.91    2.68
 -11   8   6    7.78    6.35
 -11   8   7   -1.15    3.28
 -11  -8   7    3.43    4.32
 -11  -8   7    2.87    1.74
 -11   8   7    1.51    5.06
 -11   8   8    3.67    2.69
 -11  -8   8    6.42    3.03
 -11  -8   8    9.34    2.95
 -11   8   8    7.64    6.31
 -11   8   9   19.47    6.83
 -11  -8   9   12.15    3.93
 -11  -8   9   13.39    4.90
 -11   8  10   -4.71    3.43
 -11  -8  10    3.04    2.54
 -11  -8  10   -1.86    1.56
 -11   8  11    2.59    3.25
 -11  -8  11    3.20    2.73
 -11  -8  11    1.38    3.18
 -11   8  12    7.05    6.28
 -11  -8  12    1.37    2.87
 -11  -8  12    2.35    2.77
 -11   8  13    6.48    4.69
 -11  -8  13    7.34    6.18
 -11  -8  13    6.35    4.27
 -11   8  14   -4.86    4.31
 -11  -8  14    0.47    3.35
 -11  -8  14   -0.49    2.63
 -11  -8  15    2.27    2.61
 -11  -8  15    8.51    5.32
 -11  -9 -10    5.85    4.71
 -11   9 -10   12.96    6.61
 -11   9 -10    5.84    2.61
 -11  -9  -9   44.13    9.33
 -11   9  -9   61.90   10.83
 -11   9  -9   52.75   10.43
 -11  -9  -8   60.26   10.87
 -11   9  -8   61.86   11.19
 -11   9  -8   63.81   12.60
 -11  -9  -7  131.25   15.06
 -11   9  -7  141.12   17.36
 -11   9  -7  133.20   17.29
 -11  -9  -6   27.44    7.43
 -11   9  -6   46.84    9.69
 -11   9  -6   24.89    6.35
 -11  -9  -5   45.22    9.39
  11  -9  -5   48.79    9.86
 -11   9  -5   46.30    9.33
 -11   9  -5   50.02   10.69
 -11  -9  -4   29.45    8.04
  11  -9  -4   21.12    5.65
 -11   9  -4   33.77    9.58
 -11   9  -4   18.11    8.05
 -11  -9  -3  335.37   24.24
  11  -9  -3  359.63   26.61
 -11   9  -3  300.29   24.80
 -11   9  -3  343.69   26.76
 -11   9  -2   65.83   11.81
 -11  -9  -2   81.64   11.67
  11  -9  -2   73.09   11.99
 -11   9  -2   73.17   12.75
 -11   9  -1   -4.44    2.96
 -11  -9  -1   -2.34    3.46
  11  -9  -1    6.41    4.71
 -11   9  -1    3.35    4.51
 -11   9   0    7.19    5.98
 -11  -9   0    6.95    3.68
 -11  -9   0    2.01    3.18
  11  -9   0    7.81    1.95
 -11   9   0    9.90    4.73
 -11   9   1    4.15    5.02
 -11  -9   1    7.71    4.67
 -11  -9   1    7.41    4.97
  11  -9   1   12.69    4.33
 -11   9   1    8.24    6.79
 -11   9   2   65.98   12.33
 -11  -9   2   98.74   12.87
  11  -9   2   61.64   10.21
 -11  -9   2   75.51   11.89
 -11   9   2   73.96   12.95
 -11  -9   3  319.25   23.19
  11  -9   3  345.42   25.18
 -11  -9   3  280.51   22.39
 -11   9   3  301.74   25.78
 -11   9   4   38.24    9.41
 -11  -9   4   18.84    6.28
 -11  -9   4   21.16    6.55
  11  -9   4   23.63    7.00
 -11   9   5   47.24   11.25
 -11  -9   5   58.37   10.96
 -11  -9   5   36.41    7.63
  11  -9   5   57.23   10.12
 -11   9   6   24.52    7.41
 -11  -9   6   46.04    9.24
 -11  -9   6   23.50    6.15
  11  -9   6   27.56    7.64
 -11  -9   7  141.30   15.82
  11  -9   7  113.51   14.92
 -11  -9   7  111.82   14.09
 -11   9   7  109.97   16.01
 -11   9   8   74.05   13.19
 -11  -9   8   77.53   11.22
  11  -9   8   62.86   10.53
 -11  -9   8   64.11   11.07
 -11   9   9   30.37    8.17
 -11  -9   9   51.88    9.27
 -11  -9   9   45.26    9.95
  11  -9   9   48.61    9.10
 -11   9  10    1.90    4.38
 -11  -9  10   11.93    5.87
 -11  -9  10    0.06    3.67
  11  -9  10   11.50    4.20
 -12   0 -22   27.46    7.85
 -12   0 -21   19.04    7.39
 -12   0 -20   68.79   11.55
 -12   0 -19  192.14   18.53
 -12   0 -18  189.30   18.19
 -12   0 -17  404.92   26.33
 -12   0 -16  231.92   20.19
 -12   0 -15   10.41    5.00
 -12   0 -14  507.20   28.43
 -12   0 -13  768.83   34.06
 -12   0 -12  381.19   23.87
 -12   0 -11  283.55   19.41
 -12   0 -11  348.80   22.47
 -12   0 -10  483.54   25.73
 -12   0 -10  529.89   26.97
 -12   0  -9   37.58    6.97
 -12   0  -9   39.37    7.33
 -12   0  -8  317.87   20.77
 -12   0  -8  285.78   19.64
 -12   0  -7   23.34    6.02
 -12   0  -7   25.31    6.39
 -12   0  -6  260.70   18.81
 -12   0  -6  270.90   19.09
 -12   0  -6  232.00   16.98
 -12   0  -5  320.82   20.81
 -12   0  -5  331.19   20.66
 -12   0  -5  289.38   18.52
 -12   0  -4  155.06   14.28
 -12   0  -4  125.85   13.08
 -12   0  -4  140.14   12.99
 -12   0  -3   96.15   11.58
 -12   0  -3   87.92   10.35
 -12   0  -3   98.06   10.89
 -12   0  -2  730.02   31.02
 -12   0  -2  787.84   32.29
 -12   0  -2  829.76   31.12
 -12   0  -1 1501.29   44.49
 -12   0  -1 1518.14   44.46
 -12   0  -1 1563.30   42.64
 -12   0   0  479.05   25.49
 -12   0   0  518.69   25.94
 -12   0   0  506.11   24.18
 -12   0   1 1402.60   43.77
 -12   0   1 1509.57   44.19
 -12   0   1 1441.21   40.98
 -12   0   2  783.88   32.94
 -12   0   2  827.84   32.78
 -12   0   2  740.30   28.88
 -12   0   3   97.66   11.54
 -12   0   3   99.23   10.73
 -12   0   4  133.30   13.43
 -12   0   4  163.50   13.60
 -12   0   5  317.25   21.23
 -12   0   5  348.54   19.80
 -12   0   6  237.36   18.26
 -12   0   6  282.71   17.90
 -12   0   7   27.47    6.28
 -12   0   7   13.00    3.50
 -12   0   8  302.64   21.03
 -12   0   8  313.78   18.63
 -12   0   9   30.69    7.20
 -12   0   9   33.85    6.66
 -12   0  10  479.95   26.45
 -12   0  10  478.54   23.44
 -12   0  11  361.92   23.41
 -12   0  12  359.18   23.52
 -12   0  13  747.49   34.15
 -12   0  14  489.21   28.00
 -12   0  15   31.13    7.17
 -12   0  16  217.73   19.09
 -12   0  17  369.06   25.87
 -12   0  18  143.31   15.64
 -12   0  19  166.44   17.34
 -12   0  20   96.13   13.43
 -12   0  21   14.50    6.14
 -12   0  22   25.05    7.56
 -12   0  23    8.09    4.40
 -12   0  24   62.04   12.86
 -12   1 -25   12.15    4.52
 -12   1 -24    5.92    3.45
 -12   1 -23    5.45    4.48
 -12   1 -22   45.86   10.26
 -12   1 -21   11.11    3.19
 -12   1 -20   14.23    5.82
 -12   1 -19   16.12    5.29
 -12   1 -18    2.57    2.26
 -12  -1 -17   60.26   10.45
 -12   1 -17   41.41    8.43
 -12  -1 -16   24.49    6.68
 -12   1 -16   17.52    6.23
 -12  -1 -15   -2.52    3.41
 -12   1 -15    6.52    4.58
 -12  -1 -14   14.81    5.07
 -12   1 -14   20.66    6.50
 -12   1 -13   28.23    8.76
 -12  -1 -13   19.71    5.19
 -12   1 -13   15.05    5.47
 -12   1 -12    7.99    4.53
 -12  -1 -12   10.23    4.78
 -12   1 -12    8.10    1.85
 -12  -1 -12   16.51    5.71
 -12   1 -11   55.77    9.69
 -12   1 -11   80.31   10.71
 -12  -1 -11   62.70    9.22
 -12  -1 -11   62.60    8.84
 -12   1 -10   60.87    9.45
 -12  -1 -10   74.32   10.73
 -12   1 -10   57.55    9.15
 -12  -1 -10   72.03    9.59
 -12  -1 -10   57.90    8.98
 -12  -1  -9   54.13    8.22
 -12   1  -9   41.14    7.42
 -12   1  -9   53.48    8.57
 -12  -1  -9   51.49    8.82
 -12  -1  -9   42.08    7.39
 -12   1  -8   22.33    5.62
 -12  -1  -8   29.01    6.32
 -12   1  -8   28.95    6.07
 -12  -1  -8   25.31    6.31
 -12  -1  -8   37.52    7.34
 -12   1  -7    1.12    1.63
 -12  -1  -7    7.39    4.40
 -12   1  -7    0.82    3.15
 -12  -1  -7    3.36    2.58
 -12  -1  -7    5.48    3.24
 -12   1  -6   14.75    5.13
 -12  -1  -6    9.20    4.38
 -12   1  -6   18.11    4.48
 -12  -1  -6   20.91    5.76
 -12  -1  -6   17.38    4.92
 -12   1  -5   56.95    9.21
 -12  -1  -5   44.95    7.32
 -12   1  -5   52.41    8.43
 -12  -1  -5   55.20    8.33
 -12  -1  -5   70.08    9.49
 -12   1  -4   85.48   10.83
 -12  -1  -4  100.77   11.18
 -12   1  -4   85.81   10.83
 -12  -1  -4  113.73   12.03
 -12  -1  -4  124.90   12.40
 -12   1  -3  274.72   19.46
 -12  -1  -3  254.41   17.99
 -12   1  -3  279.05   19.34
 -12  -1  -3  270.90   18.67
 -12  -1  -3  289.82   18.57
 -12   1  -2  120.16   13.25
 -12  -1  -2  134.95   13.38
 -12   1  -2  161.37   14.48
 -12  -1  -2  139.85   13.55
 -12   1  -1   79.45   10.73
 -12  -1  -1   82.60   10.42
 -12   1  -1   74.50   10.15
 -12  -1  -1   74.88    9.67
 -12  -1  -1   80.32    9.91
 -12  -1   0   11.71    3.78
 -12   1   0   11.81    4.13
 -12   1   0   20.39    5.42
 -12  -1   0   19.97    5.14
 -12  -1   0   12.73    3.40
 -12   1   1   80.78   10.74
 -12  -1   1   51.23    8.53
 -12   1   1   72.78    9.90
 -12  -1   1   75.08    9.64
 -12  -1   1   67.51    8.79
 -12   1   2  152.90   14.22
 -12  -1   2  135.32   13.45
 -12   1   2  147.97   14.33
 -12  -1   2  136.89   12.55
 -12   1   3  287.52   19.96
 -12  -1   3  282.72   19.34
 -12   1   3  313.38   20.65
 -12  -1   3  250.37   16.89
 -12   1   4  103.39   12.05
 -12  -1   4   95.42   10.93
 -12  -1   4   90.05   10.92
 -12   1   5   46.42    8.31
 -12  -1   5   58.68    9.04
 -12  -1   5   64.37    8.82
 -12  -1   6   17.05    4.23
 -12  -1   6   12.17    4.39
 -12   1   6   22.16    6.10
 -12  -1   7    4.51    2.86
 -12  -1   7    6.53    4.12
 -12   1   7    4.05    2.90
 -12  -1   8   38.17    7.26
 -12   1   8   20.32    4.96
 -12  -1   8   39.17    7.09
 -12   1   9   82.09   11.03
 -12  -1   9   61.01    9.32
 -12  -1   9   59.92    9.15
 -12   1  10   83.00   11.23
 -12  -1  10   97.98   12.02
 -12  -1  10   59.47    7.76
 -12   1  11   69.67   10.62
 -12  -1  11   78.93   10.99
 -12  -1  11   73.65    9.31
 -12  -1  12    8.14    3.71
 -12   1  12    5.22    4.55
 -12  -1  12    4.38    1.72
 -12  -1  13    6.09    4.49
 -12   1  13   19.75    6.51
 -12  -1  14   18.61    5.66
 -12   1  14   26.51    6.85
 -12  -1  15    0.74    1.87
 -12   1  15    6.29    3.96
 -12  -1  16   24.39    6.50
 -12   1  16   35.02    6.96
 -12  -1  17   44.34    9.28
 -12   1  17   21.60    6.98
 -12  -1  18   -0.45    4.68
 -12   1  18    4.66    4.99
 -12  -1  19    8.04    3.02
 -12   1  19    6.00    4.80
 -12  -1  20   14.01    6.39
 -12   1  20   10.68    5.87
 -12  -1  21   11.95    4.23
 -12   1  21    7.28    5.72
 -12  -1  22   36.25    8.62
 -12   1  22   39.98    9.79
 -12  -1  23   11.05    6.40
 -12   1  23   10.62    6.48
 -12  -1  24    5.01    4.89
 -12  -1  25    5.53    5.98
 -12   2 -24  121.14   15.13
 -12   2 -23   11.49    5.35
 -12   2 -22   39.35    8.84
 -12   2 -21   18.81    6.80
 -12   2 -20   59.36   10.85
 -12   2 -19   68.94   11.47
 -12   2 -18  167.37   17.45
 -12   2 -17   81.14   11.91
 -12   2 -16   26.55    6.80
 -12  -2 -16   25.90    6.71
 -12   2 -15   37.37    8.20
 -12  -2 -15   29.17    7.36
 -12   2 -14  159.51   16.19
 -12  -2 -14  187.20   16.63
 -12   2 -13  203.62   17.86
 -12  -2 -13  174.15   15.93
 -12   2 -13  229.80   19.42
 -12   2 -12  187.41   17.65
 -12  -2 -12  176.27   15.86
 -12  -2 -12  171.15   15.71
 -12   2 -11   94.79   12.69
 -12  -2 -11   80.27   11.00
 -12   2 -11   81.13   10.95
 -12  -2 -11   98.35   11.57
 -12   2 -10  127.19   14.28
 -12   2 -10  115.65   13.47
 -12  -2 -10  113.39   12.58
 -12  -2 -10   99.74   11.83
 -12   2  -9  104.86   12.88
 -12  -2  -9  130.57   13.49
 -12   2  -9  120.15   13.14
 -12  -2  -9  126.53   13.15
 -12  -2  -9  123.31   12.89
 -12   2  -8  306.01   21.60
 -12  -2  -8  335.14   20.92
 -12   2  -8  364.47   23.25
 -12  -2  -8  389.99   22.98
 -12  -2  -8  352.14   21.26
 -12   2  -7   95.93   11.86
 -12  -2  -7   83.88   10.16
 -12   2  -7   94.18   11.68
 -12  -2  -7   87.41   10.75
 -12   2  -6   74.52   10.33
 -12  -2  -6   73.85    9.88
 -12   2  -6   75.26   10.45
 -12  -2  -6   69.04    9.50
 -12  -2  -6   64.04    9.29
 -12   2  -5  166.88   15.72
 -12  -2  -5  185.83   15.32
 -12   2  -5  170.10   15.68
 -12  -2  -5  148.84   13.47
 -12  -2  -5  198.08   15.89
 -12   2  -4  451.31   25.45
 -12  -2  -4  436.42   23.62
 -12   2  -4  461.21   25.53
 -12  -2  -4  374.08   21.76
 -12  -2  -4  435.88   23.60
 -12  -2  -3   32.43    6.69
 -12  -2  -3   29.59    5.73
 -12   2  -3   37.27    7.83
 -12   2  -3   35.25    7.15
 -12  -2  -3   30.53    7.14
 -12   2  -2  527.15   27.24
 -12  -2  -2  553.05   26.61
 -12  -2  -2  563.36   26.49
 -12  -2  -2  563.23   26.62
 -12   2  -1  659.13   30.53
 -12   2  -1  599.76   29.13
 -12  -2  -1  635.39   28.37
 -12  -2  -1  684.61   29.36
 -12  -2  -1  715.05   29.64
 -12   2   0  197.30   16.88
 -12   2   0  195.41   16.42
 -12  -2   0  193.32   15.44
 -12  -2   0  187.04   15.67
 -12  -2   0  217.38   16.09
 -12   2   1  610.28   29.48
 -12  -2   1  586.90   27.75
 -12  -2   1  614.21   27.47
 -12   2   2  574.64   28.74
 -12   2   2  590.99   28.99
 -12  -2   2  541.59   26.68
 -12  -2   2  519.99   25.52
 -12  -2   3   22.73    5.00
 -12  -2   3   20.78    4.92
 -12   2   3   21.80    6.49
 -12   2   3   31.74    6.87
 -12   2   4  419.62   24.56
 -12   2   4  417.96   24.29
 -12  -2   4  413.82   23.42
 -12  -2   4  420.95   22.58
 -12   2   5  148.86   14.59
 -12   2   5  171.38   15.40
 -12  -2   5  148.74   13.37
 -12  -2   5  174.93   15.68
 -12   2   6   50.17    9.04
 -12  -2   6   67.66    9.50
 -12  -2   6   65.63    9.50
 -12   2   7   99.35   12.26
 -12  -2   7  103.73   11.36
 -12  -2   7   88.07   11.38
 -12  -2   8  344.90   22.42
 -12   2   8  313.77   21.86
 -12  -2   8  331.14   20.48
 -12  -2   9  142.35   14.40
 -12   2   9  131.64   14.38
 -12  -2   9  141.56   13.32
 -12   2  10  128.88   14.24
 -12  -2  10  105.42   11.44
 -12  -2  11   89.24   11.85
 -12   2  11  101.48   12.46
 -12  -2  11  102.59   11.81
 -12  -2  12  211.71   17.93
 -12   2  12  187.54   17.35
 -12  -2  12  189.31   15.91
 -12  -2  13  193.50   17.42
 -12   2  13  164.17   16.72
 -12  -2  13  194.97   15.89
 -12  -2  14  174.39   16.49
 -12   2  14  152.48   16.22
 -12  -2  15   47.44    8.89
 -12   2  15   47.43    9.27
 -12  -2  16   19.12    7.05
 -12   2  16   15.40    6.00
 -12  -2  17   79.25   11.77
 -12   2  17   82.64   12.42
 -12   2  18  123.07   15.23
 -12  -2  18  134.39   15.21
 -12  -2  19   47.03    8.89
 -12   2  19   41.30    9.52
 -12  -2  20   46.64    9.69
 -12   2  20   57.39   11.78
 -12  -2  21   27.67    8.83
 -12   2  21    7.69    3.58
 -12  -2  22   13.49    4.81
 -12   2  22   23.53    5.98
 -12  -2  23    1.91    2.78
 -12  -2  24  113.69   15.21
 -12   3 -24    8.96    4.99
 -12   3 -23   30.63    8.18
 -12   3 -22   37.93    8.83
 -12   3 -21   15.18    6.53
 -12   3 -20   16.83    4.91
 -12   3 -19   11.66    5.02
 -12  -3 -19    1.69    3.72
 -12   3 -18   79.78   11.85
 -12  -3 -18   62.70   10.29
 -12   3 -17   11.01    4.70
 -12  -3 -17    8.93    4.29
 -12   3 -16   11.26    4.67
 -12  -3 -16    1.63    2.24
 -12   3 -15   -0.66    2.80
 -12   3 -15    3.72    1.71
 -12  -3 -15    2.43    1.53
 -12   3 -14   14.11    3.94
 -12   3 -14   18.94    5.79
 -12  -3 -14   14.43    4.07
 -12   3 -13    2.11    2.89
 -12   3 -13    0.94    2.04
 -12  -3 -13    2.40    3.28
 -12   3 -12  140.03   14.99
 -12  -3 -12  136.78   14.12
 -12   3 -11   83.19   11.48
 -12  -3 -11   65.13    9.80
 -12   3 -11   68.96   11.26
 -12   3 -10  120.09   14.46
 -12   3 -10  115.35   13.54
 -12  -3 -10  116.18   12.75
 -12  -3  -9   26.98    6.45
 -12   3  -9   40.79    7.99
 -12   3  -9   21.88    6.28
 -12   3  -8   39.81    7.27
 -12  -3  -8   39.82    8.21
 -12   3  -8   33.92    7.38
 -12  -3  -8   46.17    8.07
 -12  -3  -7   14.62    4.71
 -12  -3  -7    6.99    4.58
 -12   3  -7   12.60    4.49
 -12   3  -7    6.89    3.93
 -12  -3  -6   18.82    4.86
 -12  -3  -6   10.67    4.45
 -12   3  -6   19.82    5.44
 -12   3  -6   12.70    4.38
 -12  -3  -6    8.98    3.48
 -12   3  -5   53.44    8.92
 -12   3  -5   45.05    8.63
 -12  -3  -5   50.17    8.32
 -12  -3  -5   40.72    7.30
 -12  -3  -5   55.85    8.54
 -12   3  -4  202.26   17.63
 -12   3  -4  241.92   18.98
 -12  -3  -4  226.47   17.14
 -12  -3  -4  202.74   16.11
 -12  -3  -4  197.71   16.00
 -12   3  -3  481.01   26.72
 -12   3  -3  514.44   27.51
 -12  -3  -3  465.38   24.54
 -12  -3  -3  477.13   24.99
 -12  -3  -3  527.39   26.14
 -12   3  -2  220.34   18.49
 -12   3  -2  275.29   20.09
 -12  -3  -2  240.43   17.56
 -12  -3  -2  234.16   17.54
 -12  -3  -2  264.36   18.48
 -12   3  -1   71.37   10.80
 -12   3  -1   84.80   10.92
 -12  -3  -1   83.84   10.54
 -12  -3  -1   75.23   10.04
 -12  -3  -1   71.81    9.94
 -12  -3   0   19.74    5.33
 -12  -3   0   25.41    5.36
 -12   3   0   28.38    6.79
 -12   3   0   26.53    5.83
 -12  -3   1   72.28    9.44
 -12   3   1   84.86   11.58
 -12   3   1   92.30   12.13
 -12  -3   1   76.98    9.82
 -12  -3   2  260.44   18.91
 -12   3   2  245.86   19.24
 -12   3   2  250.03   19.26
 -12  -3   2  271.65   18.55
 -12  -3   3  549.19   26.19
 -12  -3   3  454.21   24.65
 -12   3   3  507.16   27.86
 -12   3   3  512.46   27.34
 -12  -3   4  181.77   15.02
 -12  -3   4  226.48   17.48
 -12   3   4  242.03   19.42
 -12   3   4  254.91   19.33
 -12  -3   5   44.40    7.92
 -12  -3   5   42.75    7.62
 -12   3   5   65.32   10.02
 -12   3   5   51.61    8.64
 -12  -3   6    8.59    3.12
 -12  -3   6    8.96    4.17
 -12   3   6   11.70    4.64
 -12   3   6    8.46    4.18
 -12  -3   7    6.16    1.93
 -12  -3   7    9.45    4.24
 -12   3   7    9.84    3.50
 -12   3   7   10.82    3.06
 -12  -3   8   44.76    8.05
 -12  -3   8   37.82    7.92
 -12   3   8   55.00    9.46
 -12  -3   9   25.49    6.05
 -12  -3   9   41.65    7.46
 -12   3   9   37.03    8.05
 -12  -3  10  116.15   12.21
 -12  -3  10  100.20   12.48
 -12   3  10  104.48   13.37
 -12  -3  11   67.80    9.35
 -12  -3  11   75.47   10.91
 -12   3  11   82.83   12.35
 -12  -3  12  134.16   14.15
 -12   3  12  138.72   15.08
 -12  -3  12  134.80   12.98
 -12  -3  13    2.81    2.36
 -12  -3  13    3.11    3.36
 -12   3  13    5.10    2.24
 -12  -3  14   15.72    6.20
 -12   3  14   14.21    5.02
 -12  -3  15    2.35    3.76
 -12   3  15   10.99    5.54
 -12  -3  16    3.64    2.32
 -12   3  16    4.96    4.26
 -12  -3  17   13.66    5.16
 -12   3  17    5.29    5.55
 -12   3  18   73.43   12.23
 -12  -3  18   52.59    9.89
 -12  -3  19    7.15    4.83
 -12   3  19    1.25    4.51
 -12  -3  20   14.48    5.30
 -12   3  20   33.35    9.24
 -12  -3  21   27.70    8.21
 -12   3  21   17.08    5.84
 -12  -3  22   32.70    8.41
 -12  -3  23   20.20    5.48
 -12  -3  24    4.22    3.73
 -12   4 -22  134.85   15.91
 -12   4 -21   36.47    9.00
 -12   4 -20   29.97    7.79
 -12  -4 -20   -0.25    4.65
 -12   4 -19   13.05    4.78
 -12  -4 -19   18.78    7.04
 -12   4 -18   35.58    8.55
 -12  -4 -18   48.80   10.40
 -12   4 -17   13.94    5.63
 -12  -4 -17   24.49    5.92
 -12   4 -16   10.82    3.98
 -12   4 -16   14.35    5.57
 -12  -4 -15   16.05    4.41
 -12   4 -15   12.77    4.34
 -12   4 -15   12.48    5.44
 -12   4 -14   76.79   11.67
 -12   4 -14   73.93   12.12
 -12  -4 -14   67.05   10.51
 -12   4 -13   28.65    6.80
 -12   4 -13   62.13   11.09
 -12  -4 -13   53.90    8.80
 -12  -4 -12   -0.01    2.58
 -12   4 -12   -1.02    2.57
 -12   4 -12   -1.09    3.06
 -12  -4 -11   12.20    4.39
 -12   4 -11    5.34    3.17
 -12   4 -10   33.96    8.53
 -12   4 -10   44.72    8.32
 -12  -4 -10   63.91    9.77
 -12   4  -9   76.29   10.86
 -12  -4  -9   84.02   11.52
 -12   4  -9   86.28   12.33
 -12   4  -8  365.66   25.08
 -12   4  -8  403.06   25.30
 -12  -4  -8  347.52   22.46
 -12   4  -7  296.80   22.76
 -12   4  -7  310.92   21.99
 -12  -4  -7  274.99   20.09
 -12   4  -6   69.73   11.01
 -12   4  -6   58.45    9.53
 -12  -4  -6   56.69    8.70
 -12  -4  -6   63.31    9.21
 -12   4  -5  223.91   19.40
 -12   4  -5  255.69   19.77
 -12  -4  -5  199.87   16.28
 -12  -4  -5  243.73   18.48
 -12  -4  -4  700.00   30.67
 -12   4  -4  676.83   33.31
 -12   4  -4  696.87   33.15
 -12  -4  -4  713.94   31.59
 -12  -4  -3  320.58   21.23
 -12  -4  -3  318.17   20.88
 -12   4  -3  324.79   22.66
 -12   4  -3  379.95   24.15
 -12  -4  -2  630.43   29.31
 -12  -4  -2  628.05   29.46
 -12   4  -2  595.21   30.86
 -12   4  -2  579.13   30.02
 -12  -4  -1  230.06   17.83
 -12  -4  -1  191.84   16.10
 -12   4  -1  196.11   17.57
 -12   4  -1  205.19   17.79
 -12  -4  -1  183.30   15.83
 -12  -4   0   11.50    4.29
 -12   4   0   12.41    5.74
 -12  -4   0   18.76    6.36
 -12   4   0   20.47    6.12
 -12  -4   1  188.45   16.02
 -12  -4   1  205.35   16.69
 -12   4   1  171.80   16.61
 -12   4   1  181.77   16.64
 -12  -4   2  576.86   27.53
 -12  -4   2  586.55   29.08
 -12   4   2  537.38   29.57
 -12   4   2  581.40   30.30
 -12  -4   3  352.20   21.81
 -12   4   3  338.76   23.13
 -12   4   3  348.60   23.36
 -12  -4   4  763.39   31.84
 -12  -4   4  789.69   33.37
 -12   4   4  784.99   35.04
 -12   4   4  731.76   33.67
 -12  -4   5  235.50   17.90
 -12  -4   5  209.49   17.40
 -12   4   5  245.26   19.77
 -12   4   5  216.93   18.53
 -12  -4   6   57.20    8.42
 -12  -4   6   65.00    9.45
 -12   4   6   61.90   10.59
 -12   4   6   57.78    9.97
 -12  -4   7  314.63   20.75
 -12  -4   7  297.33   20.69
 -12   4   7  291.02   21.67
 -12   4   7  318.34   22.00
 -12  -4   8  423.76   23.95
 -12  -4   8  417.17   25.01
 -12   4   8  436.19   26.81
 -12   4   8  419.86   25.52
 -12  -4   9   85.78   10.86
 -12  -4   9   86.38   11.74
 -12   4   9   87.67   12.45
 -12   4   9   80.64   11.25
 -12  -4  10   64.30    9.42
 -12  -4  10   45.86    8.75
 -12   4  10   45.32    8.62
 -12   4  10   38.43    7.82
 -12  -4  11   10.86    4.22
 -12   4  11   12.70    4.60
 -12  -4  11    5.54    3.98
 -12  -4  12    1.07    3.45
 -12   4  12    0.01    2.67
 -12  -4  12    2.55    1.71
 -12  -4  13   42.58    7.68
 -12   4  13   55.69   10.75
 -12  -4  13   36.05    6.67
 -12  -4  14   81.84   11.02
 -12  -4  14   77.85   11.10
 -12   4  14   97.62   14.29
 -12   4  15   18.36    7.45
 -12  -4  15   10.40    4.70
 -12   4  16   30.48    8.37
 -12  -4  16   16.35    5.67
 -12   4  17   12.73    6.36
 -12  -4  17    8.82    4.63
 -12   4  18   28.46    8.49
 -12  -4  18   27.65    6.00
 -12   4  19   20.01    7.81
 -12  -4  19   15.12    4.17
 -12  -4  20   40.90    8.08
 -12  -4  21   37.64    8.65
 -12  -4  22  109.99   14.23
 -12   5 -21   -1.84    3.29
 -12   5 -20    6.60    4.75
 -12   5 -19   14.36    6.04
 -12  -5 -19   13.10    4.45
 -12   5 -18   18.06    6.46
 -12  -5 -18   13.79    6.17
 -12  -5 -17   11.78    4.34
 -12   5 -17   25.84    6.82
 -12   5 -17   19.31    6.50
 -12  -5 -16    2.32    2.64
 -12   5 -16    5.76    4.11
 -12   5 -16    3.72    3.64
 -12   5 -15    6.17    3.80
 -12  -5 -15    3.62    1.95
 -12   5 -15    3.39    3.40
 -12   5 -14    1.91    2.17
 -12  -5 -14    6.00    3.92
 -12   5 -14    2.57    3.51
 -12  -5 -13   23.05    7.08
 -12   5 -13   27.80    8.45
 -12   5 -13   22.85    6.64
 -12  -5 -12   18.70    6.15
 -12   5 -12   30.95    7.03
 -12   5 -12   24.84    6.90
 -12  -5 -11   17.54    4.16
 -12   5 -11   17.55    5.88
 -12   5 -11   15.32    5.89
 -12   5 -10   44.52    8.75
 -12  -5 -10   59.15    9.64
 -12  -5  -9   19.35    5.71
 -12   5  -9   16.98    7.15
 -12   5  -9   20.58    6.08
 -12  -5  -8    5.18    4.22
 -12   5  -8    1.16    1.99
 -12   5  -8    4.34    2.38
 -12  -5  -7    7.42    4.24
 -12   5  -7   11.92    4.85
 -12   5  -7    8.72    4.51
 -12  -5  -6   -0.08    2.14
 -12   5  -6   -0.18    2.87
 -12   5  -6    0.56    2.04
 -12  -5  -5    0.70    2.05
 -12   5  -5    7.75    4.69
 -12  -5  -5    1.19    2.30
 -12   5  -5    1.30    3.70
 -12  -5  -4    3.33    2.53
 -12   5  -4    9.20    4.53
 -12  -5  -4   18.34    5.16
 -12   5  -4   12.50    4.86
 -12  -5  -3   16.34    5.21
 -12   5  -3   26.73    7.46
 -12  -5  -3   14.03    5.07
 -12   5  -3    9.99    4.22
 -12  -5  -2   91.86   11.49
 -12   5  -2  122.98   15.08
 -12   5  -2  137.16   15.39
 -12   5  -1   50.67    9.94
 -12  -5  -1   36.79    7.18
 -12  -5  -1   40.81    7.73
 -12   5  -1   26.85    6.75
 -12  -5   0    9.16    4.63
 -12   5   0    5.62    4.44
 -12  -5   0    8.19    4.42
 -12   5   0    8.74    3.78
 -12  -5   1   40.85    7.68
 -12  -5   1   48.65    8.68
 -12   5   1   33.77    8.02
 -12   5   1   30.54    6.85
 -12  -5   2  125.36   13.61
 -12   5   2  135.23   14.83
 -12  -5   2  104.50   12.29
 -12   5   2  117.77   13.52
 -12  -5   3   27.56    6.27
 -12   5   3   20.23    6.29
 -12  -5   3   13.82    4.20
 -12   5   3   21.20    7.09
 -12  -5   4   18.92    5.68
 -12   5   4    8.93    4.16
 -12  -5   4   13.69    4.85
 -12   5   4    6.99    5.09
 -12  -5   5    3.46    1.67
 -12   5   5    1.54    2.59
 -12  -5   5    2.74    2.67
 -12   5   5    3.43    3.07
 -12  -5   6    3.53    2.97
 -12   5   6   -2.63    2.82
 -12  -5   6    1.44    2.06
 -12   5   6    1.42    3.65
 -12  -5   7   13.41    3.87
 -12   5   7   11.91    5.96
 -12  -5   7    5.66    3.56
 -12   5   7    9.18    5.40
 -12  -5   8    6.46    4.85
 -12   5   8    6.72    4.38
 -12  -5   8    0.93    1.76
 -12   5   8    1.61    2.64
 -12  -5   9   16.05    5.15
 -12   5   9   16.99    6.70
 -12  -5   9   23.57    7.50
 -12   5   9   16.02    4.68
 -12  -5  10   70.16   10.22
 -12  -5  10   61.88   10.41
 -12   5  10   56.05    9.79
 -12   5  10   74.42   11.38
 -12  -5  11   12.29    2.81
 -12   5  11    8.76    4.54
 -12  -5  11   18.21    5.19
 -12   5  11   11.04    4.76
 -12  -5  12   31.64    6.40
 -12   5  12   26.75    7.43
 -12  -5  12   24.40    5.67
 -12   5  12   24.66    7.04
 -12  -5  13   25.19    6.25
 -12   5  13   23.40    7.72
 -12  -5  13   31.99    7.53
 -12   5  13   27.78    7.88
 -12  -5  14   -1.47    3.43
 -12   5  14    6.50    5.46
 -12  -5  14    7.20    2.88
 -12   5  14    0.83    2.83
 -12   5  15    1.27    3.48
 -12  -5  15    5.06    2.26
 -12   5  16    7.06    4.00
 -12  -5  16   -0.09    2.35
 -12   5  17   16.92    5.01
 -12  -5  17   12.74    4.92
 -12   5  18   25.48    8.36
 -12  -5  18   12.45    4.40
 -12  -5  19   27.13    7.53
 -12  -5  20   -3.55    3.74
 -12  -5  21   -1.12    2.53
 -12   6 -19   63.08   10.76
 -12  -6 -18   23.50    6.61
 -12   6 -18    9.84    5.19
 -12   6 -18   14.10    5.66
 -12   6 -17   84.36   12.81
 -12   6 -17   66.99   11.70
 -12  -6 -17   98.15   13.78
 -12  -6 -16   35.61    8.18
 -12   6 -16   55.64    9.88
 -12   6 -16   55.51   11.46
 -12  -6 -15    5.06    3.24
 -12   6 -15    5.25    2.33
 -12   6 -14  181.05   18.06
 -12   6 -14  143.35   17.39
 -12  -6 -14  168.22   17.26
 -12   6 -13  151.50   16.29
 -12   6 -13  157.29   17.81
 -12  -6 -13  136.96   15.48
 -12   6 -12   12.26    5.82
 -12  -6 -12   14.22    7.11
 -12   6 -12   14.31    5.41
 -12   6 -11   72.83   11.32
 -12   6 -11   66.44   12.16
 -12  -6 -11   64.85   10.43
 -12  -6 -10   82.14   11.55
 -12   6 -10  107.28   13.68
 -12   6 -10   93.84   13.90
 -12   6  -9   33.61    8.34
 -12  -6  -9   48.79    8.78
 -12   6  -9   34.28    7.48
 -12  -6  -8  301.23   21.81
 -12   6  -8  245.08   20.78
 -12   6  -8  287.50   23.90
 -12  -6  -7  255.83   20.21
 -12   6  -7  280.15   22.04
 -12   6  -7  288.20   23.61
 -12  -6  -6   27.88    7.29
 -12   6  -6   21.38    7.18
 -12   6  -6   39.19    7.69
 -12  -6  -5   80.91   11.38
 -12   6  -5   69.58   11.22
 -12   6  -5   62.94   11.18
 -12  -6  -4  193.74   16.94
 -12   6  -4  211.11   18.76
 -12   6  -4  179.58   18.36
 -12  -6  -3  207.09   17.87
 -12  -6  -3  223.74   18.21
 -12   6  -3  217.21   19.38
 -12   6  -3  173.71   17.74
 -12   6  -2  271.23   22.75
 -12  -6  -2  269.79   20.20
 -12  -6  -2  255.23   19.79
 -12   6  -2  251.74   20.46
 -12   6  -1   62.37   10.57
 -12  -6  -1   68.43   10.07
 -12  -6  -1   75.51   10.59
 -12   6  -1   87.30   12.23
 -12  -6   0    0.73    2.88
 -12   6   0   -0.64    2.12
 -12   6   0   -1.50    1.77
 -12  -6   0    3.58    3.34
 -12   6   1   64.25   11.69
 -12  -6   1   70.37    9.75
 -12   6   1   57.56    9.84
 -12   6   2  282.35   22.77
 -12  -6   2  246.53   19.15
 -12  -6   2  262.57   20.28
 -12   6   2  240.45   20.76
 -12   6   3  224.04   20.47
 -12  -6   3  214.21   17.43
 -12  -6   3  214.81   18.42
 -12   6   3  237.36   20.06
 -12  -6   4  219.18   18.11
 -12   6   4  180.41   18.55
 -12  -6   4  194.63   17.24
 -12   6   4  185.24   18.11
 -12  -6   5   71.68   10.32
 -12   6   5   68.35   11.45
 -12  -6   5   56.60    9.40
 -12   6   5   80.11   11.54
 -12  -6   6   43.63    8.53
 -12   6   6   27.19    7.68
 -12   6   6   38.78    9.32
 -12  -6   6   42.99    7.74
 -12  -6   7  253.94   19.67
 -12   6   7  204.91   19.35
 -12  -6   7  263.37   20.00
 -12   6   7  255.11   21.39
 -12  -6   8  304.57   21.66
 -12   6   8  272.13   22.12
 -12  -6   8  279.10   21.13
 -12   6   8  303.60   23.28
 -12  -6   9   35.94    7.80
 -12   6   9   47.44   10.00
 -12   6   9   46.12    9.45
 -12  -6   9   37.19    7.66
 -12  -6  10   98.71   12.49
 -12   6  10  102.02   13.68
 -12  -6  10   71.49   10.70
 -12   6  10   89.91   13.57
 -12  -6  11   85.32   12.00
 -12   6  11   85.22   13.06
 -12  -6  11   76.14   11.18
 -12   6  11   82.43   12.03
 -12  -6  12   13.92    6.06
 -12   6  12   12.29    5.46
 -12   6  12   18.14    5.79
 -12  -6  12   13.09    3.93
 -12  -6  13  156.06   15.65
 -12   6  13  150.76   17.83
 -12  -6  13  155.53   15.92
 -12   6  13  139.73   16.50
 -12  -6  14  156.51   16.33
 -12   6  14  156.99   18.08
 -12  -6  14  172.78   17.25
 -12   6  14  136.72   16.37
 -12   6  15   12.63    6.87
 -12   6  15   13.54    7.66
 -12  -6  15   13.93    6.66
 -12   6  16   43.30    9.81
 -12   6  16   58.38   10.68
 -12  -6  16   36.99    8.53
 -12   6  17   57.22   12.57
 -12  -6  17   92.69   13.19
 -12   6  17   91.98   14.50
 -12  -6  18   13.22    5.57
 -12   6  18    8.81    2.68
 -12  -6  19   65.27   11.22
 -12   6  19   46.81   10.48
 -12  -7 -17    5.40    2.87
 -12   7 -17   17.59    5.57
 -12   7 -17   13.45    4.86
 -12  -7 -16    7.26    4.76
 -12   7 -16    3.91    3.22
 -12   7 -16    5.74    5.63
 -12  -7 -15   69.36   10.83
 -12   7 -15   65.89   11.46
 -12   7 -15   81.90   13.24
 -12  -7 -14   17.28    6.29
 -12   7 -14   11.51    5.03
 -12   7 -14    9.06    6.30
 -12  -7 -13   30.30    7.66
 -12   7 -13   43.43    9.56
 -12   7 -13   20.86    6.57
 -12  -7 -12   25.84    7.17
 -12   7 -12   19.16    5.93
 -12   7 -12   20.13    6.17
 -12   7 -11    0.85    3.53
 -12  -7 -11   -0.69    2.57
 -12   7 -11    0.17    2.95
 -12   7 -10   33.96    9.10
 -12  -7 -10   49.05    9.65
 -12   7 -10   46.45    9.50
 -12  -7  -9   99.89   13.64
 -12   7  -9   97.92   13.90
 -12   7  -9   92.58   13.89
 -12   7  -8   31.64    8.64
 -12  -7  -8   24.12    5.76
 -12   7  -8   19.00    5.67
 -12   7  -7   33.55    9.35
 -12  -7  -7   23.05    6.46
 -12   7  -7   30.22    7.86
 -12   7  -6    7.40    5.22
 -12  -7  -6    2.66    2.40
 -12   7  -6    3.74    3.32
 -12   7  -5    4.86    3.59
 -12  -7  -5    2.19    2.76
 -12   7  -5    1.14    2.73
 -12  -7  -4  116.10   13.36
 -12   7  -4  108.70   13.26
 -12   7  -4   92.12   13.22
 -12   7  -3   12.89    6.49
 -12  -7  -3   19.60    6.30
 -12   7  -3   10.82    5.52
 -12  -7  -3   -1.23    1.63
 -12   7  -2   31.00    8.40
 -12  -7  -2   39.53    8.60
 -12  -7  -2   52.94   10.00
 -12   7  -2   32.42    7.64
 -12  -7  -1   41.58    7.89
 -12  -7  -1   56.73    9.73
 -12   7  -1   63.12   11.29
 -12   7  -1   65.17   12.24
 -12  -7   0   23.27    5.68
 -12   7   0   32.30    8.04
 -12   7   0   30.06    7.02
 -12  -7   0   37.93    8.34
 -12  -7   1   65.76   10.04
 -12   7   1   59.08   10.73
 -12  -7   1   67.77    9.86
 -12   7   1   69.92   10.75
 -12  -7   2   39.36    7.98
 -12   7   2   46.16    9.47
 -12  -7   2   48.57    9.25
 -12   7   2   40.00    8.42
 -12  -7   3   10.62    4.31
 -12  -7   3   12.34    4.44
 -12   7   3    7.28    3.58
 -12   7   3    4.67    4.02
 -12   7   4   88.85   13.23
 -12  -7   4   93.06   12.53
 -12  -7   4  108.57   13.20
 -12   7   4   89.36   13.08
 -12  -7   5    1.85    2.72
 -12  -7   5   -2.07    3.06
 -12   7   5   -0.76    2.43
 -12   7   5   -2.23    5.35
 -12  -7   6    8.15    4.48
 -12  -7   6    9.80    3.91
 -12   7   6   11.86    5.71
 -12   7   6    3.55    2.23
 -12  -7   7   36.04    7.43
 -12  -7   7   34.40    7.96
 -12   7   7   27.69    8.11
 -12   7   7   36.49    7.89
 -12  -7   8   24.75    5.55
 -12  -7   8   39.16    8.14
 -12   7   8   24.32    7.11
 -12   7   8   39.66    9.28
 -12   7   9   84.02   12.92
 -12  -7   9  124.41   14.27
 -12  -7   9  115.73   14.48
 -12   7   9   90.04   14.33
 -12  -7  10   35.19    7.30
 -12  -7  10   51.43    9.15
 -12   7  10   25.33    7.26
 -12   7  10   40.81    8.15
 -12  -7  11    2.57    3.57
 -12  -7  11    1.32    4.00
 -12   7  11   -2.17    4.74
 -12   7  11   -2.86    3.09
 -12  -7  12   29.86    6.92
 -12  -7  12   18.27    5.90
 -12   7  12   33.88    8.99
 -12   7  12   32.32    6.67
 -12  -7  13   27.83    6.97
 -12  -7  13   30.08    8.58
 -12   7  13   21.40    7.78
 -12   7  13   30.99    9.34
 -12  -7  14   14.67    5.98
 -12  -7  14   11.42    5.76
 -12   7  14   17.27    5.12
 -12   7  14   19.07    7.97
 -12  -7  15   60.25   10.19
 -12  -7  15   68.14   11.31
 -12   7  15   70.57   13.26
 -12  -7  16    2.26    1.99
 -12  -7  17   14.40    5.33
 -12  -8 -13   77.31   12.18
 -12   8 -13   71.03   12.11
 -12   8 -13   48.81   10.79
 -12  -8 -12  134.70   15.68
 -12   8 -12  130.21   16.13
 -12   8 -12  101.92   14.80
 -12  -8 -11   25.75    6.95
 -12   8 -11   18.98    6.14
 -12   8 -11   20.76    7.13
 -12  -8 -10   18.71    6.44
 -12   8 -10   14.73    6.44
 -12   8 -10   30.18    8.33
 -12  -8  -9   38.35    8.42
 -12   8  -9   46.52    9.76
 -12   8  -9   40.35   10.17
 -12   8  -8   57.09   11.81
 -12  -8  -8   64.34   10.12
 -12   8  -8   50.97   10.59
 -12  -8  -7   83.61   12.17
 -12   8  -7   78.88   12.74
 -12   8  -7   73.40   12.64
 -12   8  -6   46.95   11.22
 -12  -8  -6   53.31    9.44
 -12   8  -6   41.48    9.12
 -12   8  -5   -0.24    3.65
 -12  -8  -5    5.19    4.99
  12  -8  -5   11.80    5.15
 -12   8  -5    1.69    3.76
 -12   8  -4   16.61    6.51
 -12  -8  -4   22.38    7.16
  12  -8  -4   20.83    6.93
 -12   8  -4   13.71    5.40
 -12  -8  -3  105.53   12.76
  12  -8  -3   98.19   12.85
 -12   8  -3   74.68   12.01
 -12   8  -3  115.51   15.05
 -12  -8  -2   55.89    8.97
 -12   8  -2   49.33   10.87
 -12   8  -2   62.75   12.46
 -12   8  -1    9.21    4.74
 -12  -8  -1    4.77    3.17
 -12   8  -1   11.72    4.48
 -12  -8  -1    6.25    3.33
 -12   8   0    2.46    3.60
 -12  -8   0    3.81    1.84
 -12   8   0   -1.23    2.71
 -12  -8   0    3.51    4.40
 -12  -8   1    2.46    4.88
 -12   8   1    5.19    4.92
 -12  -8   1   14.22    4.77
 -12   8   1    5.64    5.35
 -12  -8   2   50.50    9.46
 -12   8   2   35.00   11.41
 -12  -8   2   45.61    8.84
 -12   8   2   50.61    9.88
 -12  -8   3  109.30   13.67
 -12  -8   3  115.09   14.28
 -12   8   3  137.96   16.58
 -12  -8   4   14.25    4.98
 -12   8   4    0.86    3.39
 -12  -8   4   13.15    3.62
 -12   8   4    6.76    5.78
 -12  -8   5    2.95    4.09
 -12   8   5   -1.27    3.82
 -12  -8   5    9.61    2.85
 -12   8   5    5.34    4.59
 -12  -8   6   47.51    9.31
 -12   8   6   36.59    9.48
 -12  -8   6   59.87    9.39
 -12   8   6   43.07    8.82
 -12  -8   7   96.20   12.78
 -12  -8   7   81.23   12.15
 -12   8   7   64.04   11.56
 -12   8   7   55.14   13.12
 -12  -8   8   48.28    8.98
 -12   8   8   35.88    9.79
 -12  -8   8   65.39   10.41
 -12   8   8   58.79   10.81
 -12  -8   9   43.22    9.06
 -12   8   9   49.19   10.97
 -12  -8   9   49.01   10.31
 -12   8   9   49.68   10.64
 -12  -8  10   26.53    7.28
 -12   8  10   24.38    8.15
 -12  -8  10   29.66    8.18
 -12  -8  11   17.54    5.47
 -12   8  11   21.00    8.51
 -12  -8  11   20.00    6.98
 -12  -8  12  101.51   13.55
 -12  -8  12  114.43   14.27
 -12   8  12   96.86   15.29
 -12  -8  13   58.06    9.51
 -12   8  13   70.76   13.34
 -12  -8  13   60.82   10.34
 -12  -9  -8   17.63    4.81
 -12   9  -8   19.99    7.06
 -12   9  -8   22.54    8.01
 -12  -9  -7   12.92    6.49
 -12   9  -7    3.31    3.13
 -12   9  -7    1.48    4.36
 -12  -9  -6   11.11    4.48
 -12   9  -6   12.78    5.49
 -12   9  -6   13.51    6.41
 -12  -9  -5   28.17    7.65
 -12   9  -5    7.56    3.60
 -12   9  -5   27.05    8.60
 -12   9  -4   -0.97    3.91
 -12  -9  -4    6.82    4.39
  12  -9  -4    7.72    4.59
 -12   9  -3   33.17    7.70
  12  -9  -3   35.98    9.58
 -12   9  -3   48.97    9.00
 -12   9  -2    5.64    4.72
 -12  -9  -2    5.01    3.65
  12  -9  -2    8.36    4.02
 -12   9  -2    1.02    4.85
 -12   9  -1   10.78    6.59
 -12  -9  -1   11.51    4.74
  12  -9  -1   29.17    8.60
 -12   9  -1   12.07    5.83
 -12   9   0    9.13    5.67
 -12  -9   0    0.18    2.52
  12  -9   0    4.80    3.56
 -12   9   0    5.09    6.07
 -12   9   1    1.40    5.79
 -12  -9   1   16.57    6.26
 -12  -9   1   12.70    5.46
  12  -9   1   17.53    6.20
 -12   9   1    9.81    6.97
 -12   9   2    1.38    2.37
 -12  -9   2   -0.25    4.06
 -12  -9   2    2.18    2.17
  12  -9   2   -2.75    3.79
 -12   9   2   -0.61    3.58
 -12   9   3   56.38   10.98
 -12  -9   3   36.49    9.18
 -12  -9   3   48.38    9.56
  12  -9   3   63.86   10.35
 -12   9   3   36.38    8.66
 -12   9   4    9.03    5.16
 -12  -9   4    6.98    4.95
 -12  -9   4    0.92    2.68
  12  -9   4    8.88    3.02
 -12   9   5   22.58    7.35
 -12  -9   5   19.37    5.83
 -12  -9   5   23.59    7.23
  12  -9   5   21.70    7.72
 -12   9   6   17.96    5.84
 -12  -9   6   12.87    4.95
 -12  -9   6   25.84    5.63
  12  -9   6    9.29    3.82
 -12   9   7   -4.05    6.59
 -12  -9   7   -1.00    2.37
  12  -9   7    2.49    2.97
 -12   9   8   18.77    6.93
 -12  -9   8   18.50    5.99
 -12  -9   8   20.49    6.84
  12  -9   8    5.02    4.91
 -13   0 -21   -5.49    4.58
 -13   0 -20   -1.88    2.93
 -13   0 -19    1.90    2.20
 -13   0 -18    0.72    2.62
 -13   0 -17    0.75    3.56
 -13   0 -16    0.37    2.09
 -13   0 -15    0.01    3.00
 -13   0 -14    2.72    2.94
 -13   0 -13   -2.47    3.20
 -13   0 -12   -2.02    2.52
 -13   0 -11   -3.72    4.94
 -13   0 -11    4.93    3.39
 -13   0 -10   -0.31    2.65
 -13   0 -10    0.44    2.86
 -13   0  -9   -1.17    1.60
 -13   0  -9   -2.07    3.87
 -13   0  -8    0.75    1.57
 -13   0  -8    1.56    2.89
 -13   0  -7   -0.69    2.22
 -13   0  -7    1.44    2.59
 -13   0  -6    0.44    1.61
 -13   0  -6    0.57    2.15
 -13   0  -5    1.10    2.26
 -13   0  -5   -0.08    2.51
 -13   0  -4   -0.19    2.84
 -13   0  -4   -0.98    3.35
 -13   0  -4    3.15    2.78
 -13   0  -3   -1.22    2.55
 -13   0  -3    2.65    2.05
 -13   0  -3    3.52    3.97
 -13   0  -2   -0.76    2.59
 -13   0  -2    1.24    1.90
 -13   0  -2   -0.56    1.66
 -13   0  -1   -0.01    1.71
 -13   0  -1   -0.27    2.55
 -13   0  -1   -0.52    2.68
 -13   0   0   -1.17    3.14
 -13   0   0    0.54    2.38
 -13   0   0    0.19    1.88
 -13   0   1   -0.36    1.97
 -13   0   1    0.16    1.86
 -13   0   1   -0.20    2.83
 -13   0   2   -0.25    1.42
 -13   0   2    1.25    3.42
 -13   0   2    0.31    1.84
 -13   0   3   -1.84    2.88
 -13   0   3   -0.42    1.95
 -13   0   4   -0.33    1.75
 -13   0   4    3.64    4.26
 -13   0   5   -0.07    2.36
 -13   0   5   -1.63    3.37
 -13   0   6    3.41    3.80
 -13   0   6    0.74    2.79
 -13   0   7    1.57    3.66
 -13   0   7    0.03    1.60
 -13   0   8   -0.84    1.65
 -13   0   8    1.70    2.17
 -13   0   9    1.50    2.19
 -13   0   9   -0.65    2.23
 -13   0  10   -2.67    3.53
 -13   0  11   -0.49    2.69
 -13   0  12   -1.49    2.43
 -13   0  13    0.18    2.96
 -13   0  14   -2.58    3.10
 -13   0  15    1.02    3.82
 -13   0  16   -3.81    4.09
 -13   0  17    3.88    4.10
 -13   0  18    4.50    4.55
 -13   0  19    0.71    3.80
 -13   0  20   -0.12    4.85
 -13   0  21   -0.12    4.33
 -13   0  22    1.07    2.74
 -13   0  23    1.16    4.01
 -13   0  24   -2.14    3.24
 -13   1 -24   18.41    6.47
 -13   1 -23   18.80    4.91
 -13   1 -22   17.70    5.87
 -13   1 -21  147.88   16.70
 -13   1 -20  144.52   16.61
 -13   1 -19    8.38    5.00
 -13   1 -18    7.34    2.61
 -13  -1 -17    4.26    2.85
 -13   1 -17   51.53    9.88
 -13  -1 -16  185.93   18.41
 -13   1 -16  212.82   19.31
 -13  -1 -15   81.69   12.79
 -13   1 -15  104.18   13.69
 -13  -1 -14  139.65   15.74
 -13   1 -14  156.63   15.83
 -13  -1 -13   35.66    8.21
 -13   1 -13   31.99    6.74
 -13   1 -12   71.93   10.76
 -13  -1 -12   98.83   12.12
 -13   1 -12   82.48   11.10
 -13   1 -11   20.43    5.57
 -13   1 -11   19.96    5.83
 -13  -1 -11    7.88    4.23
 -13  -1 -11   20.65    5.17
 -13   1 -10  166.57   16.32
 -13  -1 -10  173.88   16.17
 -13   1 -10  153.69   15.42
 -13  -1 -10  162.59   15.03
 -13  -1 -10  148.15   14.20
 -13   1  -9  207.68   18.11
 -13  -1  -9  232.34   18.45
 -13   1  -9  224.81   18.07
 -13  -1  -9  206.02   17.51
 -13  -1  -9  232.98   18.54
 -13  -1  -8   50.61    8.56
 -13   1  -8   40.61    7.98
 -13  -1  -8   47.58    8.70
 -13   1  -8   24.04    5.06
 -13  -1  -8   34.73    7.20
 -13   1  -7   82.80   11.23
 -13  -1  -7   69.55   10.19
 -13   1  -7   70.30   10.05
 -13  -1  -7   77.03   10.35
 -13  -1  -7   85.21   10.93
 -13   1  -6   49.40    8.36
 -13  -1  -6   74.09    9.86
 -13   1  -6   66.97   10.54
 -13  -1  -6   78.31   10.60
 -13  -1  -6   56.80    8.58
 -13   1  -5  474.37   26.75
 -13  -1  -5  445.88   24.99
 -13   1  -5  437.14   25.40
 -13  -1  -5  439.96   25.61
 -13  -1  -5  472.06   24.50
 -13   1  -4   66.76    9.89
 -13  -1  -4   78.55   10.92
 -13   1  -4   65.67    9.68
 -13  -1  -4   67.87    9.64
 -13  -1  -4   73.74    9.97
 -13   1  -3   97.68   11.91
 -13  -1  -3   99.87   11.72
 -13   1  -3  113.03   12.26
 -13  -1  -3  106.63   12.46
 -13  -1  -3   83.57   10.39
 -13   1  -2  269.96   20.01
 -13  -1  -2  231.97   18.04
 -13   1  -2  199.73   17.04
 -13  -1  -2  224.41   17.57
 -13  -1  -2  231.90   17.18
 -13   1  -1  192.74   16.91
 -13  -1  -1  202.25   16.93
 -13   1  -1  190.04   16.65
 -13  -1  -1  175.47   15.71
 -13  -1  -1  179.02   14.93
 -13   1   0 1554.31   47.31
 -13  -1   0 1591.45   46.78
 -13   1   0 1598.02   47.65
 -13  -1   0 1608.96   47.01
 -13   1   1  173.06   15.83
 -13  -1   1  204.28   16.88
 -13   1   1  149.71   14.81
 -13  -1   1  166.27   15.30
 -13  -1   1  193.29   15.31
 -13   1   2  225.45   18.07
 -13  -1   2  247.26   18.57
 -13   1   2  240.04   18.82
 -13  -1   2  251.28   17.52
 -13   1   3   95.77   11.82
 -13  -1   3   88.90   11.16
 -13   1   3   92.38   12.01
 -13  -1   3   77.41   10.34
 -13   1   4   94.20   11.91
 -13  -1   4   79.83   10.89
 -13   1   4   72.98   10.49
 -13  -1   4   77.86   10.01
 -13   1   5  515.43   28.00
 -13  -1   5  442.79   25.20
 -13  -1   5  444.72   23.29
 -13  -1   6   45.01    7.65
 -13   1   6   62.58   10.28
 -13  -1   6   52.28    8.39
 -13   1   7   66.83   10.49
 -13  -1   7   82.58   10.92
 -13  -1   7   81.07    9.89
 -13   1   8   55.75    9.85
 -13  -1   8   56.30    8.29
 -13  -1   8   42.93    7.23
 -13   1   9  211.02   18.25
 -13  -1   9  219.37   17.99
 -13  -1   9  199.53   16.53
 -13   1  10  183.88   17.17
 -13  -1  10  161.94   16.11
 -13  -1  10  145.88   13.89
 -13  -1  11   20.56    5.77
 -13   1  11   22.70    7.00
 -13  -1  11   28.30    5.57
 -13   1  12   88.92   12.64
 -13  -1  12   87.09   11.99
 -13  -1  12   97.33   11.58
 -13  -1  13   39.77    8.78
 -13   1  13   37.75    8.42
 -13   1  14  156.62   16.83
 -13  -1  14  166.62   16.33
 -13   1  15  136.55   15.47
 -13  -1  15   99.51   12.97
 -13   1  16  203.16   19.48
 -13  -1  16  168.27   16.91
 -13  -1  17   52.57   10.38
 -13   1  17   51.23   10.41
 -13  -1  18    0.83    4.16
 -13   1  18    7.07    6.92
 -13  -1  19    9.06    5.31
 -13   1  19    5.81    5.23
 -13   1  20  187.73   19.47
 -13  -1  20  154.78   17.36
 -13   1  21  148.51   18.51
 -13  -1  21  116.13   14.92
 -13  -1  22   14.87    6.49
 -13   1  22   22.91    7.96
 -13  -1  23   18.80    7.45
 -13   1  23   40.58   10.20
 -13  -1  24   16.73    7.32
 -13   2 -23   26.21    7.59
 -13   2 -22   12.62    6.48
 -13   2 -21   29.60    7.29
 -13   2 -20   10.09    3.21
 -13   2 -19   -3.14    4.18
 -13   2 -18   11.61    5.10
 -13   2 -17  127.39   14.96
 -13   2 -16   13.49    4.81
 -13  -2 -16   15.33    6.09
 -13   2 -15    9.95    3.94
 -13  -2 -15    5.10    2.87
 -13   2 -14    9.47    3.96
 -13  -2 -14   10.51    4.60
 -13   2 -13   12.04    3.55
 -13   2 -13   12.92    5.18
 -13  -2 -13   23.81    5.59
 -13   2 -12   66.02   10.71
 -13   2 -12   65.49   10.19
 -13  -2 -12   66.31    9.98
 -13   2 -11  359.87   24.82
 -13   2 -11  336.34   23.04
 -13  -2 -11  324.90   22.08
 -13  -2 -11  321.05   21.39
 -13   2 -10   19.21    6.20
 -13   2 -10   27.81    6.38
 -13  -2 -10   24.55    6.21
 -13  -2 -10   18.11    5.34
 -13   2  -9   19.55    5.54
 -13   2  -9   28.53    7.61
 -13  -2  -9   15.66    4.70
 -13  -2  -9   33.33    6.97
 -13   2  -8  102.17   12.76
 -13   2  -8   83.69   11.39
 -13  -2  -8   81.51   11.03
 -13  -2  -8   69.50    9.68
 -13   2  -7   32.08    7.08
 -13   2  -7   31.25    6.78
 -13  -2  -7   27.01    6.90
 -13  -2  -7   27.84    6.31
 -13  -2  -7   33.34    7.25
 -13   2  -6   17.68    5.43
 -13   2  -6   15.07    5.25
 -13  -2  -6   13.36    5.22
 -13  -2  -6    9.43    4.22
 -13  -2  -6   12.09    4.23
 -13  -2  -5    0.78    1.84
 -13   2  -5    3.88    2.51
 -13   2  -5    2.66    2.44
 -13  -2  -5    8.35    3.33
 -13  -2  -5    5.03    2.96
 -13  -2  -4   18.78    5.89
 -13   2  -4   11.20    4.25
 -13   2  -4   19.78    5.61
 -13  -2  -4   15.66    5.01
 -13  -2  -4   19.67    5.80
 -13   2  -3  130.35   14.14
 -13  -2  -3  154.58   14.88
 -13   2  -3  134.09   14.56
 -13  -2  -3  144.42   14.16
 -13  -2  -3  147.76   13.67
 -13   2  -2   72.49   10.23
 -13  -2  -2   72.86    9.95
 -13   2  -2   68.54    9.83
 -13  -2  -2   86.42   10.90
 -13  -2  -2   72.00   10.24
 -13   2  -1   92.36   12.11
 -13  -2  -1   94.14   11.53
 -13   2  -1   86.48   11.06
 -13  -2  -1   78.93   10.49
 -13  -2  -1   96.56   11.55
 -13   2   0  843.62   36.07
 -13   2   0  752.96   33.75
 -13  -2   0  775.85   32.93
 -13  -2   0  813.28   33.86
 -13  -2   0  869.05   33.52
 -13   2   1   79.87   11.59
 -13   2   1   59.40    9.31
 -13  -2   1   65.03    9.83
 -13  -2   1   81.80   10.51
 -13  -2   1   82.64   10.62
 -13   2   2   65.18   10.60
 -13   2   2   66.23    9.94
 -13  -2   2   71.29    9.90
 -13  -2   2   62.52    9.14
 -13   2   3  136.39   14.71
 -13   2   3  134.39   14.19
 -13  -2   3  118.49   13.25
 -13  -2   3  153.17   14.41
 -13  -2   4   15.91    4.38
 -13  -2   4   12.02    4.47
 -13   2   4   24.40    6.54
 -13   2   4   12.85    4.27
 -13  -2   5    4.01    1.99
 -13  -2   5    1.11    2.52
 -13   2   5    1.74    2.19
 -13   2   5    0.43    2.87
 -13  -2   6    5.26    2.86
 -13  -2   6   12.03    4.65
 -13   2   6   17.03    5.31
 -13   2   6    2.29    1.99
 -13  -2   7   30.48    6.95
 -13   2   7   43.38    8.37
 -13  -2   7   53.21    8.81
 -13   2   8   93.58   12.30
 -13  -2   8   79.04   10.19
 -13  -2   8  102.56   12.72
 -13  -2   9   15.97    5.16
 -13   2   9    7.19    4.12
 -13  -2  10   31.23    6.08
 -13  -2  10   16.53    5.97
 -13   2  10   16.54    5.55
 -13   2  11  354.04   24.44
 -13  -2  11  325.34   20.88
 -13  -2  11  308.42   22.36
 -13   2  12   60.20   10.37
 -13  -2  12   87.99   10.82
 -13  -2  12   90.36   12.50
 -13  -2  13   12.89    5.53
 -13   2  13    9.75    4.61
 -13  -2  14   16.24    5.38
 -13   2  14    9.52    4.65
 -13  -2  15    6.36    2.73
 -13   2  15   13.25    4.73
 -13  -2  16   16.44    5.92
 -13   2  16   16.25    4.88
 -13   2  17  104.69   14.19
 -13  -2  17  110.04   14.43
 -13  -2  18    6.88    2.89
 -13   2  18   10.71    6.01
 -13  -2  19   -1.63    3.41
 -13   2  19   -0.68    3.72
 -13  -2  20   11.38    5.58
 -13   2  20    2.79    3.62
 -13  -2  21   21.76    7.21
 -13   2  21   19.72    5.61
 -13  -2  22   28.74    7.72
 -13   2  22   28.59    8.71
 -13  -2  23   23.84    6.60
 -13   3 -22  108.24   15.42
 -13   3 -21   43.14    9.00
 -13   3 -20   47.03    9.02
 -13   3 -19   48.12    9.34
 -13  -3 -19   27.57    6.47
 -13   3 -18   35.01    8.59
 -13  -3 -18   28.10    7.31
 -13   3 -17   56.42   10.11
 -13  -3 -17   53.84    9.09
 -13   3 -16  361.40   25.24
 -13  -3 -16  416.31   25.74
 -13   3 -15   93.67   12.82
 -13  -3 -15   90.60   12.02
 -13   3 -14  180.03   17.63
 -13  -3 -14  208.56   18.43
 -13   3 -14  174.75   18.49
 -13   3 -13   73.55   11.77
 -13  -3 -13   94.03   12.63
 -13   3 -13   79.25   12.77
 -13   3 -12  219.19   18.81
 -13  -3 -12  279.88   20.38
 -13   3 -12  265.64   21.96
 -13   3 -11   28.34    7.73
 -13   3 -11   44.53    8.62
 -13  -3 -11   39.69    7.64
 -13   3 -10  445.55   28.01
 -13   3 -10  437.11   26.28
 -13  -3 -10  477.24   26.62
 -13   3  -9   58.89   10.17
 -13   3  -9   50.35    9.08
 -13  -3  -9   74.84   10.14
 -13   3  -8   90.57   12.59
 -13   3  -8   86.21   11.89
 -13  -3  -8   82.57   11.12
 -13   3  -7   62.54   10.91
 -13  -3  -7   64.09    9.20
 -13   3  -7   75.17   11.22
 -13  -3  -7   67.87    9.78
 -13   3  -6  113.61   13.83
 -13  -3  -6  107.33   12.11
 -13   3  -6   96.28   12.19
 -13  -3  -6  125.36   13.37
 -13  -3  -5    6.06    2.76
 -13  -3  -5    7.64    3.88
 -13   3  -5    9.16    4.30
 -13   3  -5    2.35    1.61
 -13  -3  -5    5.46    3.36
 -13   3  -4  358.44   24.43
 -13   3  -4  349.90   23.28
 -13  -3  -4  339.21   22.04
 -13  -3  -4  414.38   24.61
 -13  -3  -4  379.09   23.05
 -13   3  -3   73.03   10.85
 -13   3  -3   81.22   11.30
 -13  -3  -3   70.59   10.14
 -13  -3  -3   58.18    9.38
 -13  -3  -3   82.08   10.48
 -13  -3  -2    5.15    1.77
 -13  -3  -2    5.85    2.36
 -13   3  -2   -0.27    3.24
 -13   3  -2    4.64    3.71
 -13  -3  -2    7.01    2.45
 -13  -3  -1   18.08    4.84
 -13  -3  -1    9.41    3.80
 -13   3  -1    7.96    5.41
 -13   3  -1    8.32    1.96
 -13  -3  -1   12.84    5.09
 -13   3   0  160.20   16.00
 -13   3   0  156.60   15.71
 -13  -3   0  141.30   14.56
 -13  -3   0  148.88   14.60
 -13  -3   0  150.23   14.26
 -13  -3   1   15.99    4.85
 -13  -3   1   13.27    4.64
 -13   3   1   19.52    5.49
 -13   3   1   18.48    5.20
 -13  -3   2    6.34    2.51
 -13  -3   2    6.38    3.82
 -13   3   2    7.19    4.16
 -13   3   2    8.95    3.54
 -13   3   3   74.66   11.19
 -13   3   3   85.14   11.34
 -13  -3   3   89.87   10.99
 -13  -3   3   85.63   11.19
 -13  -3   4  364.49   23.38
 -13   3   4  352.92   24.00
 -13   3   4  379.08   23.93
 -13  -3   4  366.41   22.10
 -13  -3   5   11.12    4.70
 -13  -3   5   12.30    4.55
 -13   3   5   14.98    4.61
 -13   3   5    7.37    4.12
 -13  -3   6  119.13   13.54
 -13   3   6  107.95   13.50
 -13   3   6  105.66   12.42
 -13  -3   6  118.84   12.83
 -13  -3   7   74.53   10.78
 -13   3   7   57.11   10.30
 -13   3   7   68.94   10.90
 -13  -3   7   75.75   10.45
 -13  -3   8   86.07   11.31
 -13   3   8   72.25   10.85
 -13   3   8   76.61   11.37
 -13  -3   8   75.98   10.19
 -13  -3   9   61.40    9.48
 -13   3   9   73.30   11.22
 -13  -3   9   58.65    9.47
 -13  -3  10  460.85   27.08
 -13   3  10  480.89   28.97
 -13  -3  10  440.14   24.73
 -13  -3  11   35.28    7.04
 -13  -3  11   49.17    8.90
 -13   3  11   46.01    9.77
 -13  -3  12  242.20   19.86
 -13   3  12  253.81   21.20
 -13  -3  12  235.51   18.42
 -13  -3  13  113.32   13.13
 -13   3  13   96.58   13.12
 -13  -3  13   90.50   11.80
 -13  -3  14  222.96   19.46
 -13   3  14  223.07   20.72
 -13  -3  15   80.52   12.08
 -13   3  15   89.68   12.74
 -13  -3  16  346.94   24.57
 -13   3  16  417.53   28.54
 -13  -3  17   66.94   11.08
 -13   3  17   42.45    9.82
 -13  -3  18   25.05    6.66
 -13   3  18   43.33   10.07
 -13  -3  19   47.27    8.60
 -13   3  19   31.32    9.43
 -13  -3  20   47.41    9.42
 -13   3  20   60.87   11.08
 -13  -3  21   27.76    7.94
 -13   3  21   23.04    7.98
 -13  -3  22  121.06   16.55
 -13   4 -21   34.14    9.22
 -13   4 -20   19.32    6.44
 -13  -4 -20    6.37    3.59
 -13   4 -19   28.16    7.43
 -13  -4 -19   29.34    6.71
 -13   4 -18    1.51    3.09
 -13  -4 -18    2.30    3.38
 -13   4 -17   39.69    8.86
 -13  -4 -17   34.22    8.39
 -13   4 -16    6.18    4.67
 -13  -4 -16   11.43    5.73
 -13   4 -15   38.81    8.50
 -13   4 -15   41.28    8.98
 -13  -4 -15   26.25    7.25
 -13  -4 -14    1.78    2.24
 -13   4 -14    5.49    4.26
 -13  -4 -13    2.86    1.82
 -13   4 -13   -0.92    3.55
 -13   4 -13    1.70    3.93
 -13  -4 -12   16.11    5.92
 -13   4 -12   21.13    8.39
 -13   4 -12   27.87    7.46
 -13  -4 -11   -0.65    2.40
 -13   4 -11    3.34    3.89
 -13   4 -11   -1.58    3.39
 -13  -4 -10   21.04    5.23
 -13   4 -10   26.01    7.21
 -13   4 -10   25.16    6.63
 -13   4  -9  305.03   23.47
 -13   4  -9  316.02   22.43
 -13  -4  -9  328.27   22.14
 -13  -4  -8   13.30    5.11
 -13   4  -8    8.65    3.92
 -13   4  -8    7.08    3.50
 -13  -4  -7   12.50    4.90
 -13   4  -7    8.78    5.05
 -13   4  -7   13.10    5.50
 -13   4  -6  140.40   15.66
 -13   4  -6  152.60   16.02
 -13  -4  -6  158.64   15.06
 -13  -4  -6  139.75   14.61
 -13  -4  -5   22.07    4.62
 -13  -4  -5   15.90    5.44
 -13   4  -5   11.42    4.62
 -13   4  -5   17.72    5.29
 -13  -4  -4   42.69    7.89
 -13  -4  -4   36.02    7.73
 -13   4  -4   37.33    8.47
 -13   4  -4   38.23    8.10
 -13  -4  -3   18.82    5.59
 -13  -4  -3   30.09    6.51
 -13   4  -3   35.00    6.87
 -13   4  -3   33.56    8.01
 -13   4  -2  231.04   19.85
 -13   4  -2  238.99   19.93
 -13  -4  -2  248.23   19.11
 -13  -4  -2  265.98   19.45
 -13  -4  -1  121.26   12.95
 -13   4  -1  127.19   14.64
 -13   4  -1  108.82   14.12
 -13  -4  -1  110.68   13.15
 -13  -4   0    9.08    4.48
 -13   4   0   15.21    6.17
 -13  -4   0   12.29    4.38
 -13   4   0    7.81    4.92
 -13  -4   0   12.82    6.00
 -13  -4   1  121.38   13.31
 -13  -4   1  135.66   13.99
 -13   4   1  119.11   14.48
 -13   4   1  138.49   14.79
 -13  -4   2  223.36   17.56
 -13  -4   2  291.69   20.87
 -13   4   2  234.74   19.60
 -13   4   2  236.85   19.63
 -13  -4   3   43.29    8.19
 -13   4   3   36.00    7.97
 -13  -4   3   29.32    7.10
 -13   4   3   19.16    6.29
 -13  -4   4   57.41    9.31
 -13  -4   4   43.68    8.20
 -13   4   4   49.90    9.89
 -13   4   4   44.23    7.94
 -13  -4   5    8.83    4.66
 -13   4   5   10.28    5.58
 -13  -4   5   14.45    5.63
 -13   4   5   13.61    3.76
 -13  -4   6  131.66   13.92
 -13  -4   6  155.52   15.60
 -13   4   6  171.77   16.62
 -13  -4   7    5.84    2.49
 -13   4   7   11.00    4.96
 -13  -4   7    9.30    4.81
 -13   4   7    4.74    4.24
 -13  -4   8   13.40    5.33
 -13   4   8    9.54    4.28
 -13  -4   8    6.69    3.32
 -13   4   8    6.88    4.87
 -13  -4   9  328.50   22.21
 -13  -4   9  260.92   20.64
 -13   4   9  302.00   22.92
 -13   4   9  307.39   22.32
 -13  -4  10   23.57    6.39
 -13   4  10   23.87    6.61
 -13  -4  10   11.78    4.38
 -13   4  10   11.74    4.55
 -13  -4  11   -0.06    2.87
 -13   4  11    4.49    4.39
 -13  -4  11   -0.55    3.22
 -13   4  11   -0.68    3.56
 -13  -4  12   23.35    7.56
 -13   4  12   14.45    4.99
 -13  -4  12   29.89    7.89
 -13  -4  13    1.95    2.15
 -13   4  13   -0.80    4.40
 -13  -4  13   -0.68    4.00
 -13   4  14   16.03    7.40
 -13  -4  14    3.63    3.96
 -13   4  15   30.27    8.71
 -13  -4  15   34.23    6.82
 -13   4  16    0.10    2.72
 -13  -4  16    3.75    3.77
 -13   4  17   43.19    9.81
 -13  -4  17   40.68    9.09
 -13   4  18   -3.32    5.38
 -13  -4  18   -0.29    3.30
 -13   4  19   37.09    9.74
 -13  -4  19   36.55    8.81
 -13  -4  20   19.59    6.84
 -13   4  20   15.41    6.23
 -13  -4  21   25.04    7.03
 -13   5 -20   32.64    8.28
 -13   5 -19   18.24    7.38
 -13  -5 -19   18.40    7.48
 -13   5 -18   27.89    7.04
 -13  -5 -18    8.02    5.04
 -13   5 -17   70.41   11.59
 -13  -5 -17   77.86   11.70
 -13   5 -16   38.54    8.58
 -13  -5 -16   61.72   11.18
 -13   5 -16   51.96   10.11
 -13   5 -15   22.53    7.45
 -13  -5 -15   26.30    6.99
 -13   5 -15   32.94    8.58
 -13   5 -14   42.47    9.85
 -13   5 -14   45.87    9.56
 -13  -5 -14   70.90   11.37
 -13  -5 -13    8.70    5.86
 -13   5 -13   18.18    7.13
 -13   5 -13    5.30    3.96
 -13  -5 -12   34.68    7.54
 -13   5 -12   26.97    8.36
 -13   5 -12   38.05    7.95
 -13   5 -11  168.37   17.16
 -13   5 -11  139.50   17.16
 -13  -5 -11  154.89   16.20
 -13  -5 -10   37.30    8.52
 -13   5 -10   31.20    7.75
 -13   5 -10   22.99    6.31
 -13  -5  -9    3.88    3.78
 -13   5  -9    3.17    4.45
 -13   5  -9    6.92    5.77
 -13  -5  -8   33.44    7.55
 -13   5  -8   17.76    6.83
 -13   5  -8   14.17    5.79
 -13   5  -7   88.01   12.49
 -13  -5  -7   70.94   10.53
 -13   5  -7   57.08   10.27
 -13   5  -6  104.71   14.13
 -13   5  -6  110.98   13.83
 -13  -5  -6  108.17   12.66
 -13  -5  -5   58.72    9.33
 -13   5  -5   42.54    9.21
 -13   5  -5   50.54    9.48
 -13  -5  -4  114.59   13.58
 -13   5  -4  121.41   14.98
 -13   5  -4  135.16   15.24
 -13  -5  -4  123.15   13.87
 -13  -5  -3  104.70   12.67
 -13  -5  -3  100.14   12.66
 -13   5  -3  114.94   14.72
 -13   5  -3  106.73   13.46
 -13  -5  -2  331.58   22.50
 -13   5  -2  268.02   22.25
 -13  -5  -2  307.23   21.84
 -13   5  -2  349.11   24.22
 -13  -5  -1  230.83   19.08
 -13   5  -1  244.96   20.65
 -13  -5  -1  241.16   19.29
 -13   5  -1  262.32   21.24
 -13  -5   0    5.01    3.58
 -13   5   0    6.59    2.81
 -13  -5   0    2.63    1.79
 -13  -5   1  223.35   18.04
 -13   5   1  216.31   19.66
 -13  -5   1  242.79   20.61
 -13   5   1  250.24   20.63
 -13  -5   2  311.75   21.89
 -13   5   2  310.53   23.57
 -13  -5   2  342.48   22.85
 -13   5   2  311.68   23.17
 -13  -5   3  105.08   12.37
 -13   5   3  103.09   13.59
 -13  -5   3  116.13   13.48
 -13   5   3  100.40   13.03
 -13  -5   4   96.72   11.93
 -13   5   4  106.02   13.97
 -13  -5   4  113.62   13.27
 -13   5   4   97.41   12.89
 -13  -5   5   70.06   10.01
 -13  -5   5   59.32    9.39
 -13   5   5   57.65    9.91
 -13   5   5   60.32   10.76
 -13  -5   6  119.10   13.33
 -13   5   6  119.37   14.94
 -13  -5   6  106.08   12.93
 -13   5   6  113.89   14.45
 -13  -5   7   78.00   10.43
 -13   5   7   90.93   12.90
 -13  -5   7   58.69    9.77
 -13   5   7   76.43   11.57
 -13  -5   8   28.15    6.51
 -13   5   8   20.23    6.50
 -13  -5   8   35.92    7.37
 -13   5   8   13.04    5.95
 -13  -5   9    5.04    3.40
 -13   5   9    7.84    4.84
 -13  -5   9    0.61    3.38
 -13   5   9   -0.47    4.17
 -13  -5  10   50.30    7.90
 -13  -5  10   52.63    9.15
 -13   5  10   49.26    9.95
 -13   5  10   62.92   10.83
 -13  -5  11  149.30   15.03
 -13   5  11  156.43   17.13
 -13  -5  11  153.91   16.01
 -13   5  11  134.58   15.63
 -13  -5  12   34.04    7.51
 -13   5  12   34.04    7.48
 -13  -5  12   19.30    5.82
 -13   5  12   27.22    7.41
 -13  -5  13   12.63    4.87
 -13   5  13    3.03    4.58
 -13  -5  13   11.89    4.17
 -13   5  13    0.24    3.36
 -13  -5  14   58.00    9.85
 -13   5  14   33.90    7.86
 -13   5  14   37.35    8.80
 -13   5  15    9.63    4.26
 -13  -5  15   23.07    6.56
 -13   5  15   24.43    5.89
 -13   5  16   47.40    9.54
 -13  -5  16   47.77    9.14
 -13   5  17   74.25   12.66
 -13  -5  17   55.68    9.90
 -13   5  18   21.34    8.02
 -13  -5  18   24.02    7.51
 -13  -5  19   26.72    8.28
 -13  -5  20   52.47   10.06
 -13  -6 -18    4.65    5.10
 -13   6 -18    3.22    3.32
 -13  -6 -17    2.57    6.36
 -13   6 -17    6.68    4.16
 -13   6 -17    6.15    6.55
 -13  -6 -16   -3.37    4.53
 -13   6 -16    2.74    2.79
 -13   6 -16    1.27    3.94
 -13  -6 -15    7.19    3.91
 -13   6 -15    9.07    2.93
 -13   6 -15   10.80    4.66
 -13   6 -14   24.37    7.42
 -13  -6 -14   29.69    7.55
 -13   6 -14   33.38    8.77
 -13   6 -13   17.96    7.50
 -13  -6 -13   10.34    5.20
 -13   6 -13   13.46    4.96
 -13   6 -12    5.54    5.83
 -13  -6 -12    4.78    2.15
 -13   6 -12    7.71    4.19
 -13   6 -11   23.44    7.07
 -13  -6 -11   33.47    8.40
 -13   6 -11   26.26    8.19
 -13  -6 -10    8.39    4.67
 -13   6 -10   14.53    5.26
 -13   6 -10   21.57    6.14
 -13  -6  -9    6.65    3.46
 -13   6  -9   11.00    6.69
 -13   6  -9    4.39    2.88
 -13  -6  -8    6.33    3.49
 -13   6  -8    7.71    5.43
 -13   6  -8    6.63    3.05
 -13  -6  -7   10.36    3.57
 -13   6  -7    4.41    2.98
 -13   6  -7    7.41    4.59
 -13  -6  -6   14.48    5.33
 -13   6  -6    2.93    4.55
 -13   6  -6    8.70    5.08
 -13  -6  -5    9.03    3.33
 -13   6  -5   11.46    5.42
 -13   6  -5    2.84    3.58
 -13  -6  -4   -1.09    2.63
 -13   6  -4    0.44    4.31
 -13   6  -4   -2.46    4.57
 -13  -6  -3    9.71    4.81
 -13   6  -3   16.16    4.58
 -13  -6  -3   21.55    5.89
 -13   6  -3    5.23    3.20
 -13  -6  -2   25.07    7.03
 -13   6  -2   22.79    6.27
 -13  -6  -2   25.39    8.06
 -13   6  -2   14.72    5.46
 -13  -6  -1   32.31    7.38
 -13   6  -1   29.53    8.06
 -13  -6  -1   32.69    6.94
 -13   6  -1   32.96    7.50
 -13  -6   0    0.78    3.32
 -13   6   0    4.20    2.97
 -13  -6   0    1.49    2.08
 -13   6   0    5.52    5.14
 -13  -6   1   24.40    6.22
 -13   6   1    9.71    4.70
 -13  -6   1   24.08    6.97
 -13   6   1   24.75    6.44
 -13  -6   2   31.99    7.00
 -13   6   2   25.87    8.92
 -13  -6   2   25.41    6.68
 -13   6   2   27.39    6.84
 -13  -6   3    8.43    4.70
 -13   6   3   22.57    7.04
 -13  -6   3   13.46    3.84
 -13   6   3    7.85    4.21
 -13  -6   4    3.56    3.18
 -13   6   4   -1.46    3.62
 -13  -6   4    1.82    4.12
 -13   6   4   -2.76    3.46
 -13  -6   5   14.27    4.40
 -13   6   5   11.85    4.28
 -13  -6   5    0.49    2.09
 -13   6   5    9.64    3.12
 -13  -6   6    8.56    3.56
 -13   6   6    4.85    4.42
 -13  -6   6    9.28    4.39
 -13   6   6    4.26    2.21
 -13  -6   7    8.43    4.91
 -13   6   7   11.53    4.22
 -13  -6   7    5.97    4.04
 -13   6   7    8.04    4.77
 -13  -6   8    5.41    2.22
 -13   6   8    8.11    3.59
 -13  -6   8   12.25    4.74
 -13   6   8   18.99    5.48
 -13  -6   9    1.12    3.12
 -13   6   9    3.58    3.26
 -13  -6   9    1.45    3.13
 -13   6   9    4.73    2.49
 -13  -6  10   13.12    5.72
 -13   6  10    9.10    4.90
 -13  -6  10   16.41    5.61
 -13   6  10   10.11    3.95
 -13  -6  11   19.75    5.69
 -13   6  11   23.44    5.47
 -13  -6  11   21.41    6.61
 -13   6  11   20.13    6.61
 -13  -6  12    6.64    4.21
 -13   6  12   15.85    5.31
 -13  -6  12    8.63    2.48
 -13   6  12    4.31    3.27
 -13  -6  13   18.85    5.82
 -13   6  13    8.54    3.81
 -13  -6  13   20.81    6.74
 -13   6  13    7.19    2.49
 -13  -6  14   26.81    7.51
 -13   6  14   23.17    8.37
 -13  -6  14   16.37    5.87
 -13   6  14    8.58    6.01
 -13   6  15   17.75    8.71
 -13  -6  15   -0.59    3.93
 -13   6  15   12.35    5.93
 -13   6  16   -4.97    4.78
 -13  -6  16    2.47    2.23
 -13   6  16    2.35    3.56
 -13   6  17   -3.92    4.41
 -13  -6  17    1.61    2.69
 -13   6  17    3.83    3.29
 -13  -6  18   12.83    6.00
 -13   6  18    5.69    4.09
 -13  -7 -15   13.57    5.54
 -13   7 -15   22.52    6.09
 -13  -7 -14   31.58    7.76
 -13   7 -14   29.35    6.66
 -13   7 -14   22.50    5.92
 -13  -7 -13   11.41    4.81
 -13   7 -13   16.01    6.35
 -13   7 -13   17.45    5.29
 -13   7 -12   19.69    6.70
 -13  -7 -12   29.54    8.27
 -13   7 -12   25.53    8.24
 -13   7 -11   30.51    8.36
 -13   7 -11   44.74    9.67
 -13  -7 -11   60.07   10.73
 -13  -7 -10   91.82   12.50
 -13   7 -10  133.55   16.41
 -13   7 -10  138.68   17.21
 -13   7  -9   25.06    7.12
 -13  -7  -9   30.32    7.08
 -13   7  -9   34.57    8.94
 -13   7  -8   40.79    9.61
 -13  -7  -8   28.30    7.11
 -13   7  -8   38.98    8.63
 -13   7  -7   46.20   10.68
 -13  -7  -7   32.82    7.90
 -13   7  -7   33.09    8.08
 -13  -7  -6  132.83   14.39
 -13   7  -6   90.19   13.39
 -13   7  -6   92.77   13.89
 -13   7  -5   36.14    8.95
 -13  -7  -5   28.41    7.17
 -13   7  -5   27.57    6.99
 -13  -7  -4   71.01   11.07
 -13   7  -4   67.22   11.16
 -13   7  -4   66.88   13.16
 -13  -7  -3   27.37    7.53
 -13   7  -3   46.93   10.42
 -13   7  -3   30.62    7.73
 -13  -7  -2   66.49   10.30
 -13   7  -2   35.68   10.46
 -13  -7  -2   61.32   10.92
 -13   7  -2   54.66   10.75
 -13  -7  -1   29.61    7.61
 -13   7  -1   29.99    9.50
 -13  -7  -1   18.66    6.25
 -13   7  -1   28.62    7.71
 -13  -7   0   11.82    4.84
 -13   7   0   13.13    8.29
 -13   7   0   -2.10    3.02
 -13  -7   0   10.64    5.49
 -13  -7   1   20.57    6.96
 -13   7   1   32.12    7.91
 -13   7   1   27.99    6.84
 -13  -7   1   26.03    6.44
 -13  -7   2   54.38    9.25
 -13  -7   2   81.97   11.95
 -13   7   2   59.48   10.87
 -13   7   2   71.56   11.78
 -13  -7   3   35.69    8.01
 -13   7   3   36.29    7.37
 -13   7   3   29.94    7.97
 -13  -7   3   29.33    7.36
 -13   7   4   74.98   12.37
 -13  -7   4   65.24   10.77
 -13  -7   4   88.16   12.38
 -13   7   4   56.25   10.78
 -13  -7   5   21.67    6.24
 -13   7   5   45.87   10.09
 -13   7   5   30.27    7.42
 -13  -7   5   35.64    8.24
 -13   7   6  132.41   16.66
 -13  -7   6  103.89   12.60
 -13  -7   6   99.21   13.04
 -13   7   6   94.32   14.25
 -13  -7   7   37.91    7.67
 -13   7   7   29.09    9.18
 -13   7   7   23.50    7.92
 -13  -7   7   36.63    8.57
 -13  -7   8   18.07    6.59
 -13   7   8   28.22    7.34
 -13   7   8   37.65    8.75
 -13  -7   8   28.54    6.87
 -13  -7   9   27.26    7.62
 -13   7   9   24.19    8.50
 -13   7   9   30.44    8.20
 -13  -7   9   40.90    8.81
 -13   7  10  120.00   15.92
 -13  -7  10  128.95   14.67
 -13  -7  10  116.92   14.06
 -13   7  10  118.45   16.19
 -13  -7  11   42.67    9.17
 -13   7  11   54.76   11.47
 -13   7  11   48.79   10.16
 -13  -7  11   58.70    9.97
 -13  -7  12   15.45    6.25
 -13   7  12   12.12    5.76
 -13   7  12   22.64    7.73
 -13  -7  12   13.49    6.63
 -13  -7  13    5.95    3.66
 -13   7  13   11.50    5.93
 -13   7  13   22.59    7.01
 -13  -7  13   23.42    7.07
 -13  -7  14   25.88    6.49
 -13   7  14   35.63   10.76
 -13   7  14   28.78    6.89
 -13  -7  14   20.66    5.62
 -13   7  15   10.58    5.14
 -13  -7  15   25.51    7.68
 -13  -8 -11   21.69    7.24
 -13   8 -11   24.41    7.98
 -13   8 -11   17.73    6.71
 -13  -8 -10    0.92    3.06
 -13   8 -10    5.35    6.01
 -13   8 -10    1.83    3.36
 -13   8  -9   16.60    6.72
 -13  -8  -9   16.65    6.59
 -13   8  -9    9.53    3.54
 -13   8  -8   13.01    5.19
 -13  -8  -8   12.32    3.98
 -13   8  -7   22.91    6.17
 -13  -8  -7   13.16    4.71
 -13   8  -7    6.90    4.61
 -13   8  -6   16.29    6.23
 -13  -8  -6    7.76    5.06
 -13   8  -6   11.65    4.68
 -13   8  -5   15.00    6.75
 -13  -8  -5   17.29    5.99
  13  -8  -5    7.34    4.04
 -13   8  -5   17.99    6.39
 -13   8  -4    2.03    2.77
 -13  -8  -4    2.35    3.09
  13  -8  -4   -1.76    4.08
 -13   8  -4    2.19    4.06
 -13   8  -3   16.14    6.70
 -13  -8  -3    5.45    5.03
 -13   8  -3    5.68    3.98
 -13   8  -2    8.94    5.92
 -13  -8  -2    8.72    2.93
 -13   8  -2    4.61    2.59
 -13   8  -1    7.50    5.67
 -13  -8  -1    5.59    4.33
 -13   8  -1   -2.28    4.51
 -13   8   0    4.74    6.14
 -13  -8   0    3.63    2.77
 -13   8   0    5.81    5.43
 -13  -8   0   -0.24    2.39
 -13   8   1    7.91    6.08
 -13  -8   1    4.20    4.66
 -13   8   1    8.56    5.37
 -13  -8   1    6.73    5.40
 -13   8   2   -0.11    4.15
 -13  -8   2   20.67    6.93
 -13   8   2   11.23    7.02
 -13  -8   2    9.49    5.01
 -13   8   3    5.66    5.34
 -13  -8   3   10.22    5.21
 -13   8   3    0.53    4.76
 -13  -8   3    6.65    4.10
 -13   8   4    0.29    3.34
 -13  -8   4   -2.71    4.17
 -13   8   4   -2.98    4.20
 -13  -8   4    2.83    4.42
 -13   8   5    7.37    6.27
 -13   8   5    3.28    5.76
 -13  -8   5   17.97    5.68
 -13   8   6   11.13    5.27
 -13  -8   6   10.49    4.95
 -13   8   6    7.19    3.59
 -13  -8   6    5.65    2.86
 -13  -8   7   17.36    6.11
 -13   8   7    3.38    4.24
 -13   8   7   20.58    8.07
 -13  -8   7    6.27    1.95
 -13   8   8   12.59    7.16
 -13  -8   8   21.67    5.25
 -13   8   8    5.33    4.47
 -13  -8   8   14.09    4.61
 -13  -8   9   12.94    6.32
 -13   8   9   10.20    2.79
 -13   8   9   -1.29    6.82
 -13  -8   9   13.51    3.40
 -13  -8  10    1.61    2.99
 -13   8  10    6.32    5.37
 -13  -8  10    4.58    3.64
 -13  -8  11   23.20    5.78
 -13   8  11   21.25    8.44
 -13  -8  11    7.14    2.58
 -13   9  -3   14.79    6.47
 -13  -9  -3    1.99    4.69
  13  -9  -3   12.36    4.07
 -13   9  -3   22.28    6.86
 -13   9  -2    0.02    4.47
 -13  -9  -2    1.46    2.20
  13  -9  -2   10.21    6.11
 -13   9  -2   11.90    6.17
 -13   9  -1    9.75    5.41
 -13  -9  -1   -0.69    2.38
  13  -9  -1    6.75    5.26
 -13   9  -1    1.72    2.92
 -13   9   0   44.04   10.67
 -13  -9   0   24.91    7.79
  13  -9   0   52.80   11.13
 -13   9   0   26.88    8.32
 -13   9   1   12.83    7.72
 -13  -9   1    3.51    4.62
  13  -9   1    4.65    4.84
 -13   9   1   11.51    7.33
 -13  -9   1    0.07    5.66
 -13   9   2   11.39    7.07
 -13  -9   2    2.37    3.61
  13  -9   2   16.15    6.27
 -13   9   2    4.14    4.68
 -13  -9   2   11.23    5.04
 -13   9   3   17.14    7.96
 -13  -9   3   16.58    5.82
  13  -9   3    6.55    4.26
 -13   9   3   14.51    6.91
 -13  -9   3   20.39    6.87
 -14   0 -20   50.29   11.43
 -14   0 -19   12.05    5.82
 -14   0 -18   -0.53    2.77
 -14   0 -17   10.69    4.68
 -14   0 -16  159.33   17.35
 -14   0 -15   33.97    8.57
 -14   0 -14   75.44   11.55
 -14   0 -13  169.29   16.44
 -14   0 -12  211.42   18.41
 -14   0 -11   12.37    4.23
 -14   0 -10  260.34   20.48
 -14   0 -10  251.60   19.69
 -14   0  -9   11.38    3.99
 -14   0  -9   25.10    6.29
 -14   0  -8   50.23    8.96
 -14   0  -8   43.95    8.46
 -14   0  -7  323.20   22.49
 -14   0  -7  320.02   22.42
 -14   0  -6  343.53   23.50
 -14   0  -6  375.24   24.11
 -14   0  -5  248.57   19.92
 -14   0  -5  236.60   19.20
 -14   0  -4  303.75   21.94
 -14   0  -4  289.49   21.27
 -14   0  -3  106.90   12.76
 -14   0  -3  110.64   13.03
 -14   0  -2  107.52   12.79
 -14   0  -2   81.55   11.55
 -14   0  -2   93.64   11.43
 -14   0  -1  267.95   20.00
 -14   0  -1  244.83   19.17
 -14   0  -1  198.38   16.37
 -14   0   0  211.78   17.94
 -14   0   0  163.43   15.44
 -14   0   0  195.84   16.66
 -14   0   1  230.46   18.97
 -14   0   1  221.26   18.30
 -14   0   1  230.61   17.33
 -14   0   2   96.80   12.54
 -14   0   2  104.99   12.78
 -14   0   2   93.07   11.35
 -14   0   3  127.86   14.19
 -14   0   3  136.35   14.87
 -14   0   3  131.87   13.27
 -14   0   4  292.04   21.21
 -14   0   4  285.77   19.33
 -14   0   5  274.83   21.07
 -14   0   5  257.82   18.53
 -14   0   6  384.74   24.93
 -14   0   6  321.36   20.71
 -14   0   7  296.73   21.71
 -14   0   7  306.09   20.40
 -14   0   8   39.24    8.46
 -14   0   9   24.49    7.43
 -14   0  10  284.63   21.84
 -14   0  11   13.70    5.28
 -14   0  12  229.56   19.79
 -14   0  13  148.00   16.03
 -14   0  14   47.25    9.73
 -14   0  15   35.37    8.37
 -14   0  16  138.65   15.89
 -14   0  17   11.75    5.86
 -14   0  18   10.91    5.19
 -14   0  19   13.90    5.16
 -14   0  20   47.61    9.80
 -14   0  21  127.24   16.52
 -14   0  22   42.65    9.26
 -14   1 -22   12.53    5.46
 -14   1 -21    3.44    2.61
 -14   1 -20    6.88    3.83
 -14   1 -19   28.74    7.93
 -14   1 -18   18.88    5.31
 -14   1 -17    8.62    5.34
 -14   1 -16    6.67    6.43
 -14  -1 -15   33.35    8.11
 -14   1 -15   27.98    7.10
 -14  -1 -14    5.90    3.38
 -14   1 -14    2.65    3.27
 -14  -1 -13    3.13    3.41
 -14   1 -13    7.49    4.91
 -14  -1 -12    3.85    3.95
 -14   1 -12    3.25    4.23
 -14   1 -11   -0.14    3.55
 -14   1 -11    1.87    2.16
 -14  -1 -11    4.15    4.13
 -14   1 -10   14.83    6.52
 -14   1 -10   23.35    6.45
 -14  -1 -10   12.27    4.47
 -14  -1 -10   13.84    4.81
 -14   1  -9   67.02   10.78
 -14  -1  -9   32.04    6.38
 -14   1  -9   42.76    8.25
 -14  -1  -9   32.13    7.48
 -14  -1  -9   58.50    9.38
 -14   1  -8   13.07    4.59
 -14  -1  -8    9.02    2.51
 -14   1  -8    7.27    3.90
 -14  -1  -8   10.25    4.54
 -14  -1  -8   17.23    4.97
 -14   1  -7   50.87    9.38
 -14  -1  -7   56.76    9.49
 -14   1  -7   49.69    8.98
 -14  -1  -7   59.86    9.59
 -14  -1  -7   75.08   10.81
 -14   1  -6    3.54    4.52
 -14  -1  -6    7.56    4.63
 -14   1  -6    1.41    4.47
 -14  -1  -6    4.50    4.52
 -14  -1  -6    1.37    3.05
 -14   1  -5    0.62    2.00
 -14  -1  -5   -1.15    2.50
 -14   1  -5   -0.65    1.93
 -14  -1  -5    4.43    3.89
 -14  -1  -5    0.57    2.26
 -14   1  -4   29.75    6.84
 -14   1  -4   41.14    8.72
 -14  -1  -4   29.58    6.26
 -14  -1  -4   29.19    7.39
 -14  -1  -4   31.16    6.76
 -14   1  -3    9.66    3.33
 -14   1  -3   17.28    4.58
 -14  -1  -3   22.06    6.64
 -14  -1  -3   14.64    5.27
 -14  -1  -3   18.86    5.53
 -14   1  -2   95.17   12.92
 -14  -1  -2   78.45   10.45
 -14   1  -2   82.21   11.36
 -14  -1  -2   79.74   11.23
 -14  -1  -2   68.16    9.47
 -14   1  -1  129.86   13.93
 -14  -1  -1  117.33   13.21
 -14   1  -1  135.28   14.69
 -14  -1  -1  117.31   13.62
 -14  -1  -1  124.14   13.38
 -14   1   0   75.40   10.79
 -14  -1   0   87.58   11.32
 -14   1   0  100.11   12.32
 -14  -1   0   82.62   11.16
 -14  -1   0   99.88   11.66
 -14   1   1  121.50   13.87
 -14  -1   1  109.67   13.32
 -14   1   1  101.49   12.97
 -14  -1   1  116.11   13.58
 -14  -1   1   99.75   11.89
 -14   1   2   83.70   11.52
 -14  -1   2   88.56   11.56
 -14   1   2  107.08   13.54
 -14  -1   2   87.90   11.63
 -14  -1   2   87.34   10.37
 -14  -1   3   14.71    4.85
 -14   1   3   10.67    4.71
 -14   1   3   18.43    5.38
 -14  -1   3   14.74    4.09
 -14  -1   4   28.81    6.91
 -14   1   4   29.62    7.25
 -14   1   4   27.46    7.15
 -14  -1   4   32.31    6.49
 -14  -1   5    1.50    1.76
 -14   1   5   -0.01    3.07
 -14   1   5   -1.60    4.54
 -14  -1   5    3.50    2.70
 -14  -1   6    3.76    4.36
 -14   1   6    0.81    2.62
 -14  -1   6    2.32    2.97
 -14   1   7   59.21    9.98
 -14  -1   7   60.25    9.58
 -14  -1   7   37.41    6.94
 -14  -1   8   10.52    4.64
 -14   1   8   11.39    5.41
 -14  -1   8    8.97    4.10
 -14  -1   9   44.76    8.50
 -14   1   9   50.47    8.58
 -14  -1   9   48.77    7.92
 -14  -1  10   12.34    6.95
 -14   1  10    9.95    2.82
 -14  -1  10   11.83    4.30
 -14  -1  11    0.85    2.75
 -14   1  11    1.61    4.11
 -14  -1  11    6.22    4.10
 -14  -1  12    4.85    3.97
 -14   1  12   -1.91    3.16
 -14  -1  13    1.05    2.42
 -14   1  13   -0.50    2.97
 -14  -1  14    3.74    4.85
 -14   1  14    8.09    5.36
 -14  -1  15   20.13    6.39
 -14   1  15   32.91    8.48
 -14  -1  16    6.32    3.80
 -14   1  16    4.39    4.65
 -14  -1  17    3.93    3.62
 -14   1  17    3.22    2.31
 -14  -1  18   24.22    7.25
 -14   1  18   23.03    8.65
 -14  -1  19   14.12    6.03
 -14   1  19   18.64    4.65
 -14  -1  20   14.27    5.36
 -14   1  20    1.14    3.21
 -14  -1  21   -4.68    5.33
 -14   1  21    7.00    4.19
 -14  -1  22    5.70    5.05
 -14   1  22    4.35    3.66
 -14   2 -22   38.63    9.33
 -14   2 -21   79.77   12.77
 -14   2 -20   68.66   11.44
 -14   2 -19    4.45    4.08
 -14   2 -18    7.02    4.74
 -14   2 -17   42.78    9.19
 -14   2 -16  115.95   14.51
 -14   2 -15   84.28   12.52
 -14  -2 -15   58.18    9.55
 -14   2 -14   70.74   11.15
 -14  -2 -14  122.43   13.61
 -14   2 -13   15.48    6.02
 -14  -2 -13   11.23    4.19
 -14   2 -12  102.21   14.81
 -14   2 -12  111.66   13.60
 -14  -2 -12  131.22   14.39
 -14   2 -11   34.53    8.90
 -14   2 -11   31.54    7.19
 -14  -2 -11   41.21    8.12
 -14   2 -10   65.92   10.78
 -14   2 -10   88.96   12.53
 -14  -2 -10   77.10   11.96
 -14  -2 -10   83.95   11.20
 -14   2  -9  214.75   19.10
 -14   2  -9  206.10   18.36
 -14  -2  -9  230.56   19.43
 -14  -2  -9  212.48   17.57
 -14   2  -8   26.35    7.15
 -14  -2  -8   42.78    8.86
 -14   2  -8   38.08    7.93
 -14  -2  -8   35.96    7.87
 -14  -2  -8   43.85    7.81
 -14   2  -7   15.54    5.24
 -14   2  -7   33.49    7.31
 -14  -2  -7   30.79    7.60
 -14  -2  -7   31.17    7.56
 -14  -2  -7   35.53    7.69
 -14   2  -6  145.46   15.72
 -14  -2  -6  133.95   13.90
 -14   2  -6  108.68   13.42
 -14  -2  -6  109.67   13.22
 -14  -2  -6  129.50   13.96
 -14   2  -5  173.29   17.05
 -14  -2  -5  184.92   16.76
 -14   2  -5  185.03   17.67
 -14  -2  -5  176.13   17.19
 -14  -2  -5  173.64   15.68
 -14   2  -4  158.75   16.43
 -14  -2  -4  148.42   15.33
 -14   2  -4  140.01   15.16
 -14  -2  -4  150.37   15.77
 -14  -2  -4  160.79   14.83
 -14  -2  -3   17.24    5.19
 -14   2  -3   26.57    6.69
 -14   2  -3   23.04    6.36
 -14  -2  -3   23.76    6.73
 -14  -2  -3   26.37    6.06
 -14  -2  -2   13.06    3.02
 -14  -2  -2   25.00    5.87
 -14   2  -2   10.19    5.37
 -14   2  -2   20.37    5.60
 -14  -2  -2   25.49    6.22
 -14  -2  -1   30.93    6.36
 -14  -2  -1   33.87    6.78
 -14   2  -1   24.31    6.79
 -14   2  -1   26.38    6.93
 -14  -2  -1   41.11    8.10
 -14   2   0  362.77   24.23
 -14  -2   0  381.32   23.68
 -14   2   0  363.87   24.33
 -14  -2   0  375.01   23.86
 -14  -2   0  353.07   22.35
 -14  -2   1   19.52    5.02
 -14  -2   1   29.39    6.89
 -14   2   1   19.28    5.01
 -14   2   1   36.89    8.32
 -14  -2   1   28.70    7.56
 -14  -2   2   10.58    3.33
 -14  -2   2   23.11    6.09
 -14   2   2    9.79    3.84
 -14   2   2   15.27    5.21
 -14  -2   3   21.54    5.18
 -14  -2   3   23.65    6.82
 -14   2   3   32.89    7.82
 -14   2   3   32.74    7.56
 -14   2   4  144.02   15.55
 -14   2   4  151.90   15.12
 -14  -2   4  150.24   15.15
 -14  -2   4  137.99   13.88
 -14   2   5  157.92   16.09
 -14   2   5  175.90   16.77
 -14  -2   5  162.84   15.84
 -14  -2   5  181.42   15.92
 -14   2   6   95.10   12.30
 -14   2   6  111.58   13.26
 -14  -2   6  119.16   13.33
 -14  -2   6  144.42   14.10
 -14  -2   7   34.79    6.87
 -14  -2   7   31.67    7.60
 -14   2   7   25.79    6.18
 -14   2   7   29.44    6.53
 -14  -2   8   32.36    7.18
 -14  -2   8   39.27    7.71
 -14   2   8   29.41    7.13
 -14   2   9  227.57   19.79
 -14  -2   9  217.83   18.98
 -14  -2   9  188.33   16.36
 -14   2  10   98.59   13.25
 -14  -2  10  102.46   12.91
 -14  -2  10   81.65   11.00
 -14  -2  11   33.41    6.74
 -14  -2  11   26.48    7.12
 -14   2  11   35.91    7.99
 -14   2  12  114.84   14.63
 -14  -2  12  107.41   13.83
 -14  -2  12   90.34   11.41
 -14  -2  13   26.43    6.75
 -14   2  13   17.30    5.81
 -14   2  14   89.27   12.82
 -14  -2  14  122.37   14.58
 -14   2  15   76.22   11.76
 -14  -2  15   71.86   11.30
 -14   2  16  124.34   15.70
 -14  -2  16  118.34   14.58
 -14  -2  17   40.31    9.28
 -14   2  17   35.87    9.47
 -14  -2  18    4.85    2.39
 -14   2  18    6.86    5.50
 -14  -2  19   12.84    5.81
 -14   2  19    6.64    5.02
 -14  -2  20   53.11    9.94
 -14   2  20   74.02   12.99
 -14   2  21   69.75   13.22
 -14  -2  21   73.66   12.32
 -14  -2  22   33.77    7.53
 -14   2  22   23.04    7.71
 -14   3 -21    0.15    3.17
 -14   3 -20   15.80    6.61
 -14   3 -19    7.48    5.46
 -14   3 -18   10.61    4.25
 -14  -3 -18    6.73    3.51
 -14   3 -17    9.67    4.11
 -14  -3 -17    0.85    2.29
 -14   3 -16   39.54    8.54
 -14  -3 -16   21.34    6.65
 -14   3 -15   39.45    8.74
 -14  -3 -15   25.40    6.24
 -14   3 -14   11.59    5.25
 -14  -3 -14   15.05    5.09
 -14   3 -13    6.18    5.76
 -14   3 -13   10.52    4.60
 -14  -3 -13   10.24    4.55
 -14   3 -12    3.68    3.95
 -14   3 -12    4.18    4.60
 -14  -3 -12    3.42    3.81
 -14   3 -11   15.85    5.83
 -14   3 -11   18.30    6.27
 -14  -3 -11   28.15    6.93
 -14   3 -10   78.81   12.25
 -14   3 -10   95.19   12.56
 -14  -3 -10   88.04   11.38
 -14  -3  -9   12.23    4.61
 -14   3  -9    7.07    4.04
 -14   3  -9   13.72    5.43
 -14  -3  -8   -2.12    3.58
 -14   3  -8   -1.50    3.92
 -14   3  -8   -1.05    1.57
 -14  -3  -7    8.50    4.22
 -14   3  -7    7.65    4.78
 -14   3  -7   11.25    5.29
 -14  -3  -6   21.18    5.32
 -14   3  -6   23.39    5.54
 -14   3  -6   19.79    6.10
 -14  -3  -6   10.78    4.46
 -14  -3  -5   24.79    6.46
 -14  -3  -5   41.19    7.45
 -14   3  -5   29.68    6.63
 -14   3  -5   28.25    7.40
 -14  -3  -4    6.31    3.14
 -14   3  -4    3.35    3.07
 -14   3  -4    1.18    3.47
 -14  -3  -4    0.54    2.34
 -14  -3  -3   22.12    6.52
 -14  -3  -3   36.04    7.14
 -14   3  -3   20.94    6.12
 -14   3  -3   18.95    6.41
 -14  -3  -3   31.48    7.30
 -14   3  -2  292.92   22.20
 -14   3  -2  264.41   21.01
 -14  -3  -2  303.05   21.47
 -14  -3  -2  295.54   21.66
 -14  -3  -2  307.65   21.05
 -14  -3  -1   33.07    6.32
 -14  -3  -1   37.15    7.90
 -14   3  -1   30.10    7.49
 -14   3  -1   36.72    8.06
 -14  -3  -1   30.95    7.03
 -14   3   0  211.00   19.02
 -14   3   0  232.36   20.28
 -14  -3   0  220.74   18.05
 -14  -3   0  231.57   18.86
 -14  -3   0  203.26   17.45
 -14  -3   1   38.37    7.72
 -14  -3   1   38.26    7.53
 -14   3   1   24.16    6.58
 -14   3   1   37.48    8.23
 -14  -3   1   29.97    6.42
 -14   3   2  269.85   21.05
 -14   3   2  288.68   22.23
 -14  -3   2  283.54   20.95
 -14  -3   2  278.24   20.25
 -14  -3   3   20.60    5.19
 -14  -3   3   16.26    5.23
 -14   3   3   37.23    8.17
 -14   3   3   22.40    6.59
 -14  -3   4   10.17    3.29
 -14  -3   4    2.44    2.13
 -14   3   4    3.74    2.41
 -14   3   4   10.26    4.04
 -14  -3   5   28.64    6.96
 -14  -3   5   36.05    7.91
 -14   3   5   28.90    8.85
 -14   3   5   11.60    4.87
 -14  -3   6   19.65    6.04
 -14  -3   6   18.71    5.65
 -14   3   6   16.94    5.79
 -14   3   6   21.91    6.19
 -14  -3   7    7.09    3.58
 -14  -3   7    7.30    3.71
 -14   3   7    3.36    2.34
 -14   3   7   11.98    4.74
 -14  -3   8   -0.16    3.68
 -14  -3   8    1.86    3.19
 -14   3   8   -0.98    3.89
 -14   3   8    1.27    2.17
 -14  -3   9    5.13    2.85
 -14  -3   9   10.43    3.37
 -14   3   9    9.12    4.86
 -14  -3  10   88.31   11.97
 -14   3  10   80.12   11.82
 -14  -3  10   80.18   11.43
 -14  -3  11   11.49    4.70
 -14  -3  11   13.03    4.62
 -14   3  11   15.08    5.77
 -14  -3  12   10.75    5.72
 -14  -3  12    5.37    2.65
 -14   3  12    7.90    5.08
 -14  -3  13    9.08    3.70
 -14   3  13   20.98    7.74
 -14  -3  14   14.51    5.40
 -14   3  14   18.64    6.60
 -14  -3  15   33.81    8.30
 -14   3  15   29.57    7.66
 -14  -3  16   12.73    4.34
 -14   3  16   20.92    8.09
 -14  -3  17    0.89    3.30
 -14   3  17    5.30    4.10
 -14  -3  18    9.15    3.87
 -14   3  18   12.71    4.77
 -14  -3  19    8.94    5.16
 -14   3  19    7.25    6.96
 -14  -3  20    7.74    4.81
 -14   3  20   10.83    5.82
 -14  -3  21    3.96    4.21
 -14   3  21    1.52    3.84
 -14   4 -20  111.21   14.66
 -14  -4 -20  117.84   14.84
 -14   4 -19    1.90    4.02
 -14  -4 -19   -6.37    5.69
 -14   4 -18   10.10    4.48
 -14  -4 -18   25.11    7.45
 -14   4 -17   98.48   13.32
 -14  -4 -17  111.89   14.33
 -14   4 -16   69.90   11.23
 -14  -4 -16   57.66    9.80
 -14   4 -15   67.82   10.39
 -14   4 -15   77.08   14.09
 -14  -4 -15   51.73    9.42
 -14   4 -14   69.65   10.85
 -14   4 -14   73.58   12.73
 -14  -4 -14   64.17   10.76
 -14   4 -13   19.82    7.37
 -14   4 -13    5.11    1.81
 -14  -4 -13   17.29    5.40
 -14   4 -12   83.37   12.38
 -14  -4 -12   74.45   10.98
 -14   4 -12   66.96   12.04
 -14   4 -11  178.50   17.68
 -14  -4 -11  159.99   16.38
 -14  -4 -10   42.05    7.87
 -14   4 -10   37.01    9.44
 -14   4 -10   36.67    9.43
 -14   4  -9  112.83   14.87
 -14   4  -9  132.22   14.92
 -14  -4  -9  142.31   15.12
 -14   4  -8   51.08    9.78
 -14   4  -8   56.25    9.98
 -14  -4  -8   65.99   10.19
 -14  -4  -7   10.11    5.26
 -14   4  -7    7.95    3.83
 -14   4  -7   15.01    5.64
 -14   4  -6  143.43   16.48
 -14   4  -6  157.60   16.20
 -14  -4  -6  155.88   15.42
 -14   4  -5   35.57    8.23
 -14   4  -5   70.86   10.30
 -14  -4  -5   61.34    9.94
 -14  -4  -5   65.28    9.88
 -14   4  -4   77.66   12.05
 -14   4  -4   80.55   11.94
 -14  -4  -4  102.22   12.79
 -14  -4  -4   94.44   12.15
 -14   4  -3   48.13    9.15
 -14   4  -3   49.36    9.26
 -14  -4  -3   64.19    9.72
 -14  -4  -3   62.47   10.12
 -14  -4  -2   22.23    6.41
 -14  -4  -2   17.19    6.69
 -14   4  -2   27.78    7.65
 -14   4  -2   21.59    7.40
 -14   4  -1   29.19    7.20
 -14   4  -1   35.09    7.39
 -14  -4  -1   55.30    9.46
 -14  -4  -1   49.89    8.97
 -14   4   0  877.49   39.56
 -14   4   0  935.16   40.06
 -14  -4   0  909.58   37.75
 -14  -4   0  894.71   36.63
 -14  -4   1   43.17    8.06
 -14   4   1   49.65    9.34
 -14   4   1   44.19    8.59
 -14  -4   1   55.62   10.97
 -14  -4   1   49.89    9.27
 -14  -4   2   28.46    7.22
 -14  -4   2   17.07    5.07
 -14   4   2   24.03    6.37
 -14   4   2   21.37    6.70
 -14  -4   3   77.89   10.86
 -14   4   3   68.83   10.70
 -14   4   3   82.52   12.03
 -14  -4   3   72.08   10.48
 -14  -4   4   99.74   12.63
 -14   4   4   91.16   12.93
 -14   4   4  101.39   12.99
 -14  -4   4  107.00   12.74
 -14  -4   5   56.87    9.68
 -14   4   5   66.63   10.87
 -14   4   5   60.52   10.92
 -14  -4   5   64.62    9.23
 -14  -4   6  158.23   15.97
 -14   4   6  183.26   18.19
 -14   4   6  129.01   15.12
 -14  -4   6  141.18   14.57
 -14  -4   7    9.63    4.55
 -14  -4   7    5.03    1.59
 -14   4   7    8.32    1.95
 -14   4   7   11.08    4.77
 -14  -4   8   47.39    8.99
 -14   4   8   54.86   10.13
 -14   4   8   64.64   10.99
 -14  -4   8   65.79   10.09
 -14  -4   9  152.99   15.74
 -14   4   9  161.29   17.29
 -14   4   9  131.97   15.28
 -14  -4   9  133.44   14.44
 -14  -4  10   46.05    8.40
 -14  -4  10   36.41    8.12
 -14   4  10   38.92    8.79
 -14   4  10   24.72    7.12
 -14  -4  11  194.71   17.93
 -14   4  11  150.02   16.74
 -14   4  11  184.11   18.13
 -14  -4  11  222.79   18.57
 -14  -4  12   92.40   12.35
 -14   4  12   84.07   12.97
 -14   4  12   62.73   10.51
 -14  -4  12   90.40   12.22
 -14  -4  13   14.85    6.71
 -14   4  13    5.80    2.87
 -14  -4  14   60.80   10.46
 -14   4  14   55.75   11.05
 -14  -4  15   72.65   11.18
 -14   4  15   62.30   12.47
 -14  -4  16   69.62   11.24
 -14   4  16   48.54   10.73
 -14  -4  17  119.44   14.47
 -14   4  17  105.30   15.72
 -14  -4  18   19.88    6.61
 -14   4  18   22.57    9.27
 -14  -4  19    4.16    3.40
 -14   4  19    6.48    5.62
 -14  -4  20  110.49   14.90
 -14   4  20   99.08   15.97
 -14   5 -18   -1.20    3.19
 -14  -5 -18    3.77    2.07
 -14   5 -17    5.88    4.64
 -14  -5 -17   14.22    8.13
 -14   5 -16   13.18    4.94
 -14  -5 -16    5.70    3.35
 -14  -5 -15    3.87    2.76
 -14   5 -15    0.06    4.13
 -14   5 -15   -0.69    2.79
 -14  -5 -14    8.78    4.14
 -14   5 -14   23.62    8.65
 -14   5 -14   17.57    5.90
 -14  -5 -13    2.04    2.96
 -14   5 -13    7.54    6.28
 -14   5 -13    1.91    3.65
 -14  -5 -12   39.07    8.49
 -14   5 -12   19.76    7.21
 -14   5 -12   36.13    8.61
 -14  -5 -11   36.08    7.69
 -14   5 -11   26.72    7.44
 -14   5 -11   33.72    8.79
 -14  -5 -10   13.99    4.56
 -14   5 -10   24.33    8.69
 -14   5 -10   19.26    6.50
 -14  -5  -9   25.29    6.35
 -14   5  -9   24.32    6.32
 -14   5  -9   31.59    7.51
 -14  -5  -8    1.88    2.30
 -14   5  -8    7.00    4.67
 -14   5  -8    5.16    3.99
 -14  -5  -7   19.71    6.35
 -14   5  -7   20.65    6.09
 -14   5  -7   12.49    5.63
 -14  -5  -6    0.47    2.33
 -14   5  -6    2.10    3.09
 -14   5  -6   -1.79    4.01
 -14  -5  -5    1.12    1.78
 -14   5  -5    3.47    3.52
 -14   5  -5    7.66    4.45
 -14  -5  -4   25.11    7.21
 -14   5  -4   22.74    7.23
 -14  -5  -4   26.10    6.82
 -14   5  -4   21.75    5.34
 -14  -5  -3   19.16    6.10
 -14   5  -3   19.21    6.58
 -14  -5  -3   24.57    6.83
 -14   5  -3   21.14    6.63
 -14  -5  -2   34.85    7.35
 -14   5  -2   28.71    7.07
 -14  -5  -2   16.93    5.63
 -14   5  -2   12.13    4.75
 -14  -5  -1  105.89   12.63
 -14  -5  -1  118.04   14.02
 -14   5  -1  127.34   15.42
 -14   5  -1  126.84   14.77
 -14  -5   0  189.49   16.97
 -14  -5   0  152.57   16.08
 -14   5   0  192.67   18.52
 -14   5   0  167.78   17.44
 -14  -5   1  120.26   13.38
 -14  -5   1  136.53   15.02
 -14   5   1   93.56   13.19
 -14   5   1  113.02   14.55
 -14  -5   2   45.43    8.63
 -14   5   2   32.73    7.19
 -14  -5   2   29.16    7.47
 -14   5   2   37.41    9.14
 -14  -5   3   21.21    5.98
 -14   5   3   29.83    8.00
 -14  -5   3   36.55    8.27
 -14   5   3   29.93    7.32
 -14  -5   4   28.17    6.58
 -14   5   4   20.48    5.47
 -14  -5   4   16.20    5.39
 -14   5   4   18.46    6.91
 -14  -5   5    6.04    3.43
 -14   5   5   11.24    3.36
 -14  -5   5    7.36    4.70
 -14   5   5   11.78    4.73
 -14  -5   6    0.08    4.29
 -14   5   6   -2.47    2.93
 -14  -5   6    2.15    3.63
 -14   5   6    0.82    2.42
 -14  -5   7   10.64    4.27
 -14   5   7   20.33    6.28
 -14  -5   7   22.25    6.01
 -14   5   7   22.66    7.10
 -14  -5   8   13.07    5.14
 -14   5   8    2.71    3.59
 -14  -5   8    2.58    2.89
 -14   5   8   13.28    5.88
 -14  -5   9   36.39    8.39
 -14   5   9   23.30    6.83
 -14  -5   9   28.27    7.23
 -14   5   9   25.72    6.93
 -14  -5  10   19.59    6.43
 -14   5  10   14.32    6.03
 -14  -5  10   15.32    5.98
 -14   5  10    9.80    4.30
 -14  -5  11   39.01    8.23
 -14   5  11   26.68    7.55
 -14  -5  11   42.80    8.40
 -14   5  11   35.06    8.19
 -14  -5  12   25.94    6.73
 -14   5  12   30.49    7.78
 -14  -5  12   31.34    7.74
 -14   5  12   21.96    6.98
 -14  -5  13    8.32    4.21
 -14   5  13    4.28    3.31
 -14  -5  13    2.19    2.54
 -14   5  13   -0.99    3.09
 -14   5  14   13.66    5.29
 -14  -5  14   10.61    4.56
 -14   5  14   14.15    5.94
 -14   5  15   -2.29    4.49
 -14  -5  15   -1.10    1.71
 -14   5  15   -0.08    2.62
 -14   5  16   12.03    4.48
 -14  -5  16   21.45    7.18
 -14   5  16   11.11    3.75
 -14   5  17    3.60    5.45
 -14  -5  17    3.38    4.86
 -14   5  17    1.75    2.50
 -14   5  18    4.32    3.26
 -14  -5  18    2.60    3.51
 -14   6 -16   71.31   12.51
 -14  -6 -16   85.61   13.00
 -14   6 -16   66.85   12.04
 -14  -6 -15   17.21    5.86
 -14   6 -15    4.26    3.50
 -14   6 -15   22.38    6.49
 -14   6 -14   17.48    5.87
 -14  -6 -14    8.94    4.89
 -14   6 -14   13.73    6.22
 -14   6 -13   11.11    5.46
 -14  -6 -13   16.14    5.94
 -14   6 -13   16.27    6.97
 -14  -6 -12   59.91    9.96
 -14   6 -12   54.76   10.17
 -14   6 -12   69.16   12.47
 -14  -6 -11   54.21    9.84
 -14   6 -11   60.76   11.38
 -14   6 -11   83.43   13.73
 -14   6 -10  239.88   20.88
 -14  -6 -10  199.29   18.84
 -14  -6  -9   42.70    8.20
 -14   6  -9   32.64    8.66
 -14   6  -9   34.92    8.87
 -14  -6  -8   21.21    7.62
 -14   6  -8    4.74    4.99
 -14   6  -8   21.18    7.68
 -14   6  -7   48.82   10.87
 -14   6  -7   34.74    8.66
 -14  -6  -7   53.60    9.99
 -14  -6  -6  225.08   19.18
 -14   6  -6  235.70   20.36
 -14  -6  -5   15.06    4.73
 -14   6  -5    5.44    4.49
 -14   6  -5   17.97    6.00
 -14  -6  -4  147.60   15.33
 -14   6  -4  138.13   16.06
 -14   6  -4  146.26   17.21
 -14  -6  -3   55.32    9.86
 -14   6  -3   55.99   10.13
 -14   6  -3   78.40   11.63
 -14   6  -2   72.44   12.36
 -14  -6  -2   78.15   11.64
 -14  -6  -2   61.75   10.78
 -14   6  -2   47.78    9.90
 -14  -6  -1  124.52   14.11
 -14   6  -1  136.53   15.97
 -14  -6  -1  122.06   14.73
 -14   6  -1  105.19   14.02
 -14  -6   0  411.43   25.53
 -14   6   0  395.50   27.58
 -14  -6   0  343.27   24.32
 -14   6   0  352.14   25.35
 -14  -6   1  125.37   14.26
 -14   6   1   92.12   12.92
 -14  -6   1   99.26   12.66
 -14   6   1   94.23   12.69
 -14  -6   2   67.26   10.39
 -14  -6   2   67.73   10.52
 -14   6   2   47.52    9.56
 -14   6   2   81.53   12.16
 -14   6   3   63.49   11.50
 -14  -6   3   40.25    8.23
 -14  -6   3   38.94    8.29
 -14   6   3   71.55   11.77
 -14  -6   4  134.27   14.67
 -14   6   4  145.63   16.55
 -14   6   4  156.70   16.96
 -14  -6   5    9.04    3.97
 -14   6   5   13.04    6.73
 -14  -6   5    9.18    4.47
 -14   6   5    8.36    4.96
 -14  -6   6  237.15   19.93
 -14   6   6  209.75   20.23
 -14  -6   6  240.77   20.41
 -14   6   6  251.06   21.87
 -14  -6   7   35.44    8.22
 -14   6   7   26.85    7.26
 -14  -6   7   35.40    8.10
 -14   6   7   33.06    8.49
 -14  -6   8    9.51    4.55
 -14   6   8   12.31    5.40
 -14  -6   8    8.96    3.98
 -14   6   8   15.56    5.22
 -14  -6   9   46.10    9.19
 -14   6   9   41.50    8.80
 -14  -6   9   45.93    8.60
 -14   6   9   42.73    9.92
 -14   6  10  200.94   20.14
 -14  -6  10  188.33   17.80
 -14   6  10  156.21   17.82
 -14  -6  11   58.23    9.56
 -14   6  11   66.47   11.82
 -14  -6  11   50.72    9.05
 -14   6  11   58.28   11.38
 -14  -6  12   67.56   11.03
 -14  -6  12   55.25    9.88
 -14   6  12   53.60   10.60
 -14   6  12   58.33   10.66
 -14  -6  13    2.49    4.82
 -14   6  13   17.43    7.31
 -14  -6  13   24.87    7.64
 -14   6  13   12.98    4.97
 -14   6  14   12.98    7.21
 -14  -6  14   15.33    6.48
 -14   6  14    1.36    4.77
 -14   6  15   12.62    7.32
 -14  -6  15   22.90    6.88
 -14   6  15   17.26    8.07
 -14  -6  16   61.35   11.85
 -14   6  16   67.23   11.71
 -14  -7 -13    6.56    5.70
 -14   7 -13    3.17    4.65
 -14   7 -13   15.42    6.87
 -14   7 -12   13.07    5.47
 -14  -7 -12   13.92    5.56
 -14   7 -12   25.92    7.52
 -14   7 -11   20.17    7.23
 -14  -7 -11   19.25    6.92
 -14   7 -11   10.80    5.20
 -14   7 -10    9.72    4.81
 -14  -7 -10   15.70    5.96
 -14   7 -10    9.12    6.23
 -14   7  -9   -1.29    2.86
 -14  -7  -9    3.66    2.92
 -14   7  -9    1.14    3.15
 -14   7  -8   18.21    6.58
 -14  -7  -8   34.69    7.83
 -14   7  -8   29.18    7.96
 -14   7  -7   10.21    5.35
 -14  -7  -7   -0.88    3.67
 -14   7  -7    4.77    3.80
 -14  -7  -6   59.83   10.63
 -14   7  -6   47.50   11.02
 -14   7  -6   42.83    9.54
 -14  -7  -5   32.99    7.80
 -14   7  -5   33.75    8.65
 -14   7  -5   18.81    5.51
 -14  -7  -4    0.93    2.34
 -14   7  -4    0.59    2.77
 -14   7  -4    6.13    5.48
 -14  -7  -3   24.06    6.36
 -14   7  -3   21.68    8.16
 -14   7  -3   40.11    9.62
 -14  -7  -2   48.61   10.08
 -14   7  -2   45.48   10.48
 -14   7  -2   42.28    8.86
 -14  -7  -1    2.80    4.52
 -14   7  -1    0.73    3.53
 -14  -7  -1   -0.11    4.41
 -14   7  -1   -0.16    3.32
 -14  -7   0   64.72   10.10
 -14  -7   0   61.15   10.99
 -14   7   0   53.08   10.25
 -14   7   0   76.89   13.25
 -14  -7   1    1.92    2.91
 -14   7   1    2.88    3.20
 -14  -7   1    0.59    2.55
 -14   7   1    0.88    4.31
 -14  -7   2   38.09    7.48
 -14   7   2   46.52    9.66
 -14  -7   2   37.83    8.11
 -14   7   2   30.28    7.67
 -14  -7   3   35.26    7.67
 -14   7   3   44.35   10.78
 -14  -7   3   28.83    6.58
 -14   7   3   31.50    7.88
 -14  -7   4   14.27    5.86
 -14   7   4    8.80    5.15
 -14  -7   4    7.11    4.58
 -14   7   4    2.96    3.32
 -14  -7   5   29.75    8.22
 -14   7   5   16.16    6.01
 -14  -7   5   32.26    7.28
 -14   7   5   28.62    8.99
 -14  -7   6   50.70    9.59
 -14   7   6   49.19    9.77
 -14  -7   6   41.60    8.09
 -14   7   6   36.47    8.57
 -14  -7   7    9.77    4.70
 -14   7   7    6.30    4.04
 -14  -7   7    3.92    3.94
 -14   7   7   10.08    6.56
 -14  -7   8   25.24    7.08
 -14   7   8   12.67    5.08
 -14  -7   8   32.54    7.61
 -14   7   8   16.99    5.38
 -14  -7   9   -0.87    3.81
 -14   7   9   -0.57    3.10
 -14  -7   9    2.30    2.16
 -14   7   9    3.92    4.73
 -14  -7  10    7.70    5.76
 -14   7  10    3.68    2.81
 -14  -7  10   10.55    5.74
 -14   7  10    7.73    5.77
 -14  -7  11   18.40    6.38
 -14   7  11   16.06    6.30
 -14  -7  11   20.24    6.20
 -14   7  11   20.87    6.56
 -14  -7  12   20.97    6.87
 -14   7  12   22.34    7.99
 -14  -7  12   12.30    5.48
 -14   7  12   14.11    5.76
 -14  -7  13   20.10    6.42
 -14   7  13   29.75    9.60
 -14  -7  13   19.49    6.21
 -14   7  13   24.47    8.49
 -14   8  -8   31.25    7.70
 -14  -8  -8   24.87    6.44
 -14   8  -8   33.83    8.28
 -14   8  -7   11.41    5.14
 -14  -8  -7   10.77    5.02
 -14   8  -7    9.89    3.74
 -14   8  -6   40.89    9.71
 -14  -8  -6   45.06    9.40
 -14   8  -6   27.95    7.90
 -14   8  -5    5.15    4.53
 -14  -8  -5    0.65    2.67
 -14   8  -5    6.33    4.64
 -14  -8  -4   58.19   10.82
 -14   8  -4   58.12   11.29
 -14   8  -4   52.93   10.32
 -14   8  -3    9.90    2.29
 -14  -8  -3   26.45    7.82
 -14   8  -3   35.25    9.23
 -14   8  -2   13.04    5.73
 -14  -8  -2    7.98    3.86
 -14   8  -2   14.11    4.39
 -14   8  -1   23.24    7.64
 -14  -8  -1   33.88    8.03
 -14   8  -1   22.13    6.29
 -14   8   0    1.98    4.94
 -14  -8   0    0.41    2.65
 -14   8   0    3.31    2.64
 -14   8   1    9.36    8.62
 -14  -8   1   36.63    7.90
 -14  -8   1   40.75    9.33
 -14   8   1   38.32    8.51
 -14  -8   2   18.55    6.69
 -14  -8   2   16.68    3.53
 -14   8   2    7.69    4.33
 -14  -8   3   23.97    6.77
 -14   8   3   17.58    7.69
 -14   8   3   18.21    5.22
 -14  -8   3   19.16    5.64
 -14  -8   4   31.61    8.73
 -14   8   4   41.01   10.45
 -14  -8   4   67.87   11.15
 -14   8   4   58.03   11.92
 -14  -8   5    9.45    2.85
 -14   8   5    9.40    6.40
 -14   8   5   -1.00    4.27
 -14  -8   5    1.77    3.60
 -14  -8   6   47.76    9.60
 -14   8   6   38.35    9.79
 -14   8   6   31.18    9.11
 -14  -8   6   34.00    8.03
 -14  -8   7   14.72    7.21
 -14   8   7   10.75    4.83
 -14   8   7   13.54    5.20
 -14  -8   7   17.54    6.67
 -14   8   8   12.10    5.85
 -14   8   8    7.28    5.72
 -14  -8   8   11.96    5.51
 -15   0 -19   -2.19    2.52
 -15   0 -18   -1.73    4.20
 -15   0 -17   -1.06    3.84
 -15   0 -16    9.86    4.99
 -15   0 -15    2.62    3.65
 -15   0 -14   -2.38    2.83
 -15   0 -13    0.75    3.42
 -15   0 -12   -0.13    1.99
 -15   0 -11   -1.49    2.12
 -15   0 -10    1.58    4.70
 -15   0 -10   -0.89    1.69
 -15   0  -9   -4.34    3.89
 -15   0  -9    2.02    1.73
 -15   0  -8    1.81    4.58
 -15   0  -8   -3.70    4.67
 -15   0  -7    0.89    3.07
 -15   0  -7    0.80    4.67
 -15   0  -6    0.82    3.65
 -15   0  -6    1.29    2.10
 -15   0  -5    0.42    2.47
 -15   0  -5   -3.31    4.17
 -15   0  -4   -0.28    2.52
 -15   0  -4    2.91    2.76
 -15   0  -3    0.75    2.78
 -15   0  -3   -1.85    3.55
 -15   0  -2    0.42    2.08
 -15   0  -2    0.78    2.93
 -15   0  -1   -1.65    2.55
 -15   0  -1    1.41    1.79
 -15   0   0    1.25    1.91
 -15   0   0    0.39    4.50
 -15   0   1    3.16    4.18
 -15   0   1   -0.57    2.56
 -15   0   2   -0.38    2.29
 -15   0   2    3.94    2.97
 -15   0   3    2.88    3.84
 -15   0   3   -1.89    2.98
 -15   0   4    0.18    2.93
 -15   0   4    1.88    2.09
 -15   0   5    2.14    4.13
 -15   0   6   -0.14    3.34
 -15   0   7    1.35    3.80
 -15   0   8    0.12    2.87
 -15   0   9   -0.19    1.98
 -15   0  10   -0.04    3.26
 -15   0  11    0.77    2.87
 -15   0  12    0.33    2.90
 -15   0  13   -2.66    3.70
 -15   0  14   -1.01    2.30
 -15   0  15   -0.46    2.80
 -15   0  16    0.03    3.47
 -15   0  17    0.07    4.54
 -15   0  18    1.69    3.12
 -15   0  19   -2.31    3.66
 -15   0  20   -0.50    4.04
 -15   0  21    3.49    7.46
 -15   1 -21    9.02    5.00
 -15   1 -20   -2.24    4.57
 -15   1 -19   37.43    9.30
 -15   1 -18   -2.51    4.41
 -15   1 -17   76.46   11.33
 -15   1 -16   66.20   11.33
 -15   1 -15   10.80    6.26
 -15  -1 -14   47.25   11.31
 -15   1 -14   31.25    7.97
 -15  -1 -13  307.50   23.62
 -15   1 -13  267.37   21.80
 -15   1 -12   64.79   11.38
 -15  -1 -12   55.79    9.74
 -15   1 -11    4.98    4.88
 -15   1 -11    2.52    3.76
 -15  -1 -11    3.07    2.21
 -15   1 -10   21.45    6.79
 -15   1 -10   30.77    6.25
 -15  -1 -10   16.47    6.50
 -15   1  -9    4.23    2.37
 -15  -1  -9    2.22    4.05
 -15   1  -9   15.68    6.40
 -15  -1  -9   14.44    5.80
 -15  -1  -9   13.20    4.58
 -15   1  -8   75.24   12.06
 -15  -1  -8   78.22   11.71
 -15   1  -8   75.07   10.88
 -15  -1  -8   71.50   11.38
 -15  -1  -8   76.48   11.15
 -15   1  -7  163.46   16.78
 -15  -1  -7  150.83   16.43
 -15   1  -7  143.47   15.32
 -15  -1  -7  167.81   16.52
 -15  -1  -7  180.56   16.07
 -15   1  -6    5.50    2.25
 -15  -1  -6    9.55    4.16
 -15   1  -6   10.71    4.11
 -15  -1  -6    8.31    3.53
 -15   1  -5   68.55   11.17
 -15  -1  -5   65.80   10.40
 -15   1  -5   67.65   10.66
 -15  -1  -5   59.06    9.76
 -15  -1  -5   75.78   11.22
 -15   1  -4   82.82   11.99
 -15  -1  -4   79.60   11.64
 -15   1  -4   94.00   12.17
 -15  -1  -4   86.08   12.51
 -15  -1  -4   74.44   10.08
 -15   1  -3  111.84   14.18
 -15  -1  -3   92.14   12.31
 -15   1  -3  107.16   13.45
 -15  -1  -3   96.42   12.83
 -15  -1  -3   84.63   11.65
 -15   1  -2    6.99    5.61
 -15   1  -2    7.65    4.80
 -15  -1  -2   19.20    6.53
 -15  -1  -2   11.57    5.98
 -15  -1  -2    4.86    2.85
 -15   1  -1    4.45    3.80
 -15   1  -1    5.31    3.28
 -15  -1  -1    5.41    4.00
 -15  -1  -1    0.26    3.14
 -15  -1  -1    2.12    1.66
 -15   1   0    0.39    2.39
 -15   1   0   -2.99    2.64
 -15  -1   0   -0.40    2.44
 -15  -1   0    0.74    1.99
 -15  -1   0    0.68    1.59
 -15   1   1    3.50    2.85
 -15   1   1    3.66    2.98
 -15  -1   1    7.48    3.72
 -15  -1   1    6.40    3.72
 -15  -1   1    7.83    3.29
 -15   1   2    9.57    4.39
 -15   1   2    9.06    4.53
 -15  -1   2   13.99    4.27
 -15  -1   2    5.87    2.17
 -15  -1   2   21.42    5.74
 -15   1   3   83.35   11.55
 -15  -1   3  117.78   14.32
 -15   1   3   85.26   12.04
 -15  -1   3  103.32   13.00
 -15  -1   3  105.77   12.42
 -15   1   4   69.25   10.68
 -15  -1   4   84.57   12.01
 -15   1   4   66.47   10.60
 -15  -1   4   99.60   12.00
 -15   1   5   81.93   11.76
 -15  -1   5   74.33   11.22
 -15   1   5   67.14    9.82
 -15  -1   5   69.01   10.22
 -15  -1   6   12.04    5.93
 -15   1   6   12.29    5.29
 -15   1   6   10.80    4.38
 -15  -1   6   14.58    4.74
 -15   1   7  169.93   17.15
 -15  -1   7  174.80   17.12
 -15  -1   7  148.96   14.57
 -15   1   8   68.74   11.55
 -15  -1   8   70.72   11.46
 -15  -1   8   69.27   10.09
 -15   1   9    5.14    2.10
 -15  -1   9    3.32    3.04
 -15  -1  10   38.86    8.38
 -15   1  10   16.08    4.38
 -15  -1  10   36.08    7.60
 -15  -1  11   13.36    4.96
 -15   1  11    1.82    3.12
 -15  -1  12   62.50   11.10
 -15   1  12   53.87   10.24
 -15   1  13  322.28   24.61
 -15  -1  13  306.97   23.28
 -15  -1  14   28.59    6.99
 -15   1  14   25.72    7.68
 -15  -1  15    9.90    5.02
 -15   1  15   18.34    5.96
 -15  -1  16   63.19   11.37
 -15   1  16   52.68   10.38
 -15   1  17   78.25   12.91
 -15  -1  17   68.20   11.71
 -15  -1  18   -0.21    3.77
 -15   1  18    1.30    3.01
 -15  -1  19   11.63    4.39
 -15   1  19   42.65    9.39
 -15  -1  20    4.54    3.38
 -15   1  20    2.01    3.00
 -15  -1  21    5.98    4.97
 -15   1  21    5.03    2.73
 -15   2 -20    5.21    3.34
 -15   2 -19    9.89    6.38
 -15   2 -18   10.86    4.85
 -15   2 -17    5.32    3.33
 -15   2 -16   19.01    6.86
 -15   2 -15   51.17   10.42
 -15   2 -14   34.05    7.94
 -15  -2 -14   44.02    8.87
 -15   2 -13   63.66   10.91
 -15  -2 -13   51.70    9.72
 -15   2 -12   10.12    6.16
 -15   2 -12    6.56    4.11
 -15  -2 -12    8.91    3.81
 -15   2 -11    3.28    4.41
 -15   2 -11    4.72    2.16
 -15  -2 -11    7.24    3.68
 -15   2 -10   22.07    8.57
 -15   2 -10   28.56    7.13
 -15  -2 -10   32.64    7.89
 -15   2  -9    6.54    2.67
 -15   2  -9   18.58    6.15
 -15  -2  -9   23.43    7.31
 -15  -2  -9   20.32    6.25
 -15   2  -8    5.10    3.81
 -15   2  -8   13.02    5.10
 -15  -2  -8   10.44    3.96
 -15  -2  -8    7.17    4.48
 -15   2  -7   18.10    6.29
 -15  -2  -7   32.02    7.82
 -15   2  -7   24.90    6.40
 -15  -2  -7   31.77    7.93
 -15  -2  -7   24.34    5.63
 -15   2  -6    9.01    5.84
 -15   2  -6   23.32    6.42
 -15  -2  -6   14.84    5.76
 -15  -2  -6   21.33    5.78
 -15  -2  -6   17.54    5.06
 -15   2  -5   18.60    5.92
 -15   2  -5   16.77    4.97
 -15  -2  -5   21.39    5.59
 -15  -2  -5   26.48    6.66
 -15  -2  -5   30.45    7.26
 -15   2  -4   16.69    5.54
 -15   2  -4   22.06    5.58
 -15  -2  -4   24.74    6.03
 -15  -2  -4   28.03    6.60
 -15  -2  -4   21.80    6.45
 -15   2  -3    1.80    4.44
 -15   2  -3    2.96    2.79
 -15  -2  -3    8.03    5.04
 -15  -2  -3    2.18    1.74
 -15  -2  -3   -0.39    1.57
 -15   2  -2   -0.22    3.03
 -15   2  -2    2.87    3.92
 -15  -2  -2    6.42    4.38
 -15  -2  -2    2.89    2.46
 -15  -2  -2    2.26    3.54
 -15   2  -1    0.62    2.31
 -15   2  -1    3.61    4.04
 -15  -2  -1    5.08    3.88
 -15  -2  -1    3.56    2.06
 -15  -2  -1    0.43    3.00
 -15  -2   0    2.01    3.31
 -15   2   0    2.13    2.18
 -15   2   0    2.47    2.74
 -15  -2   0    1.97    2.15
 -15  -2   0    6.30    3.59
 -15  -2   1    4.15    3.67
 -15  -2   1    0.90    3.47
 -15   2   1    3.68    3.64
 -15   2   1   -2.53    4.06
 -15  -2   1    3.59    3.88
 -15  -2   2    2.35    1.82
 -15  -2   2   -0.90    1.44
 -15   2   2    1.36    3.33
 -15   2   2   -0.96    2.92
 -15  -2   2    2.81    4.67
 -15  -2   3    0.68    2.67
 -15  -2   3    2.77    2.01
 -15   2   3    0.03    3.73
 -15   2   3   -1.18    1.95
 -15  -2   4   20.21    5.85
 -15  -2   4    8.40    3.49
 -15   2   4   23.16    7.33
 -15   2   4   19.83    6.15
 -15  -2   5   32.28    7.66
 -15  -2   5   27.37    6.64
 -15   2   5   18.50    6.38
 -15   2   5   15.62    4.82
 -15  -2   6   11.02    3.82
 -15  -2   6   12.23    5.30
 -15   2   6   19.54    6.60
 -15   2   6   17.34    6.80
 -15  -2   7   19.55    5.13
 -15  -2   7   27.38    7.02
 -15   2   7   27.71    7.21
 -15   2   7   14.03    5.40
 -15  -2   8    7.89    4.71
 -15  -2   8    5.98    4.11
 -15   2   8    4.44    3.38
 -15   2   8    2.52    3.08
 -15  -2   9   14.40    5.47
 -15   2   9   11.57    4.72
 -15  -2   9   15.58    4.86
 -15  -2  10   40.38    8.78
 -15   2  10   29.92    7.14
 -15  -2  10   34.89    7.92
 -15  -2  11   13.91    5.60
 -15   2  11    6.85    2.65
 -15  -2  11    2.73    3.72
 -15  -2  12    8.74    5.29
 -15   2  12    4.09    2.17
 -15   2  13   61.35   10.64
 -15  -2  13   64.17   10.56
 -15  -2  14   40.42    9.26
 -15   2  14   49.53    9.89
 -15  -2  15   44.64    9.12
 -15   2  15   28.44    8.01
 -15  -2  16   32.39    8.09
 -15   2  16   27.90    8.59
 -15  -2  17    7.95    5.03
 -15   2  17    6.65    4.58
 -15  -2  18   17.53    7.52
 -15   2  18    8.93    3.49
 -15  -2  19   13.27    6.14
 -15   2  19   11.53    6.29
 -15  -2  20    0.77    2.64
 -15   2  20    0.41    4.68
 -15   3 -19   13.97    4.18
 -15   3 -18   58.62   11.26
 -15   3 -17  103.18   13.34
 -15  -3 -17  161.27   17.15
 -15   3 -16   22.24    6.36
 -15  -3 -16   10.75    5.58
 -15   3 -15   40.70    7.55
 -15  -3 -15   25.87    7.10
 -15   3 -14   21.32    6.66
 -15  -3 -14   28.74    7.51
 -15   3 -13    9.48    5.34
 -15   3 -13   16.25    6.60
 -15  -3 -13    9.24    4.35
 -15   3 -12  136.42   16.29
 -15   3 -12  102.36   13.61
 -15  -3 -12  115.82   13.92
 -15   3 -11   48.50   10.78
 -15   3 -11   40.26    8.86
 -15  -3 -11   38.70    7.64
 -15   3 -10    1.39    2.49
 -15   3 -10    8.39    4.78
 -15  -3 -10    6.46    4.21
 -15   3  -9   37.75    8.81
 -15  -3  -9   25.16    7.24
 -15   3  -8   32.77    7.30
 -15   3  -8   35.73    8.50
 -15  -3  -8   47.06    8.81
 -15  -3  -7   28.52    6.23
 -15   3  -7   11.96    6.07
 -15   3  -7   23.53    7.41
 -15   3  -6   83.10   11.44
 -15  -3  -6   87.87   12.26
 -15   3  -6   85.85   12.45
 -15  -3  -6   81.33   11.19
 -15   3  -5   43.87    8.80
 -15   3  -5   42.30    7.86
 -15  -3  -5   52.68    9.18
 -15  -3  -5   36.68    8.36
 -15  -3  -4   39.81    8.08
 -15  -3  -4   43.30    8.36
 -15   3  -4   25.14    5.88
 -15   3  -4   23.07    6.56
 -15   3  -3  197.61   18.87
 -15  -3  -3  152.78   15.97
 -15   3  -3  168.90   17.26
 -15  -3  -3  151.75   16.52
 -15  -3  -3  169.43   16.54
 -15  -3  -2   29.07    7.05
 -15   3  -2   34.60    7.27
 -15  -3  -2   58.42    9.95
 -15   3  -2   31.20    7.47
 -15  -3  -2   33.25    7.50
 -15   3  -1   67.93   11.11
 -15  -3  -1   55.52    9.99
 -15   3  -1   46.36    9.24
 -15  -3  -1   45.90    9.58
 -15  -3  -1   65.94   10.26
 -15   3   0  106.70   13.74
 -15   3   0  118.28   14.56
 -15  -3   0   97.98   12.37
 -15  -3   0  125.23   14.31
 -15  -3   0  120.40   13.27
 -15   3   1   32.33    8.41
 -15   3   1   60.85    9.99
 -15  -3   1   53.25    9.11
 -15  -3   1   55.74   10.22
 -15  -3   1   58.55    9.52
 -15  -3   2   25.05    5.31
 -15   3   2   45.00    9.32
 -15  -3   2   51.26    9.57
 -15   3   2   31.87    7.45
 -15  -3   2   45.80    9.29
 -15   3   3  164.67   17.36
 -15   3   3  164.25   17.34
 -15  -3   3  162.12   15.85
 -15  -3   3  173.08   16.55
 -15  -3   4   43.56    7.71
 -15   3   4   47.02    9.20
 -15   3   4   35.12    8.44
 -15  -3   4   40.54    8.72
 -15   3   5   50.12    9.17
 -15   3   5   36.28    8.47
 -15  -3   5   57.89   10.33
 -15  -3   5   54.52    9.31
 -15   3   6   56.63   10.79
 -15   3   6   71.40   11.03
 -15  -3   6   85.05   12.19
 -15  -3   6   81.96   11.59
 -15  -3   7   20.49    6.01
 -15  -3   7   26.21    7.21
 -15   3   7   32.54    8.25
 -15   3   7   19.88    6.83
 -15  -3   8   36.03    7.67
 -15  -3   8   37.53    7.94
 -15   3   8   37.89    8.92
 -15   3   8   21.38    4.59
 -15  -3   9   28.12    6.88
 -15  -3   9   32.37    8.14
 -15   3   9   29.13    7.01
 -15   3   9   30.07    7.69
 -15  -3  10    6.64    3.45
 -15  -3  10    5.25    2.31
 -15   3  10    6.96    4.36
 -15   3  10    8.52    4.81
 -15  -3  11   39.79    8.22
 -15   3  11   38.62    8.71
 -15  -3  11   59.42    9.85
 -15   3  12  118.13   14.99
 -15  -3  12  115.17   14.98
 -15  -3  13   10.29    4.89
 -15   3  13    6.31    4.88
 -15  -3  14   29.73    7.96
 -15   3  14   25.01    7.66
 -15  -3  15   21.60    7.26
 -15   3  15   12.51    5.55
 -15  -3  16   15.72    7.35
 -15   3  16   19.56    7.90
 -15   3  17  108.73   15.79
 -15  -3  17  137.71   16.19
 -15   3  18   62.59   12.50
 -15  -3  18   77.84   12.15
 -15  -3  19   12.20    4.11
 -15   3  19    9.63    7.30
 -15   4 -18    7.68    4.43
 -15  -4 -18    6.54    4.58
 -15   4 -17   17.50    5.68
 -15  -4 -17   21.30    6.73
 -15   4 -16   50.63    9.90
 -15  -4 -16   17.99    5.73
 -15   4 -15   45.25   10.41
 -15  -4 -15   52.47    9.24
 -15   4 -14   53.42   11.67
 -15   4 -14   54.58   10.61
 -15  -4 -14   40.51    9.50
 -15   4 -13   49.39   11.14
 -15   4 -13   65.78   11.06
 -15  -4 -13   72.17   10.41
 -15   4 -12    1.80    2.19
 -15   4 -12    7.42    4.33
 -15  -4 -12    3.39    3.14
 -15   4 -11   69.24   10.82
 -15  -4 -11   61.52    9.59
 -15   4 -11   68.79   12.19
 -15   4 -10   21.70    6.32
 -15   4 -10   20.47    6.59
 -15  -4  -9   30.83    7.14
 -15   4  -9   35.49    8.98
 -15   4  -9   30.84    6.68
 -15   4  -8   55.00   10.73
 -15   4  -8   66.56   10.61
 -15  -4  -8   50.78    9.34
 -15   4  -7   70.72   11.89
 -15   4  -7   54.55   10.11
 -15  -4  -7   80.56   11.11
 -15  -4  -6   25.06    7.68
 -15   4  -6   15.64    6.09
 -15   4  -6   21.18    7.31
 -15   4  -5   58.48   11.03
 -15  -4  -5   58.32   11.59
 -15   4  -5   39.14    8.48
 -15  -4  -5   69.37   10.26
 -15  -4  -4   35.98    8.42
 -15  -4  -4    9.84    4.54
 -15   4  -4   29.29    7.11
 -15   4  -4   18.79    6.03
 -15  -4  -3   18.11    6.83
 -15  -4  -3   15.50    6.35
 -15   4  -3   26.22    7.82
 -15   4  -3   15.91    6.40
 -15  -4  -2    4.47    3.61
 -15  -4  -2    9.23    3.87
 -15   4  -2    8.58    3.57
 -15   4  -2    1.81    2.54
 -15  -4  -1   22.03    6.61
 -15  -4  -1   30.04    7.01
 -15   4  -1   15.60    5.73
 -15   4  -1   26.21    8.14
 -15  -4   0   41.64    7.89
 -15  -4   0   41.48    8.54
 -15   4   0   46.88    9.44
 -15   4   0   33.65    7.60
 -15  -4   1   24.65    6.37
 -15  -4   1   22.82    6.99
 -15   4   1   18.79    6.09
 -15   4   1   26.81    7.24
 -15  -4   2    8.93    4.28
 -15  -4   2    4.84    1.71
 -15   4   2   -1.88    2.52
 -15   4   2    7.33    3.41
 -15  -4   2   10.03    4.51
 -15  -4   3   29.92    7.26
 -15  -4   3   25.25    6.93
 -15   4   3   15.45    4.52
 -15   4   3   16.00    3.78
 -15  -4   4   13.36    5.07
 -15  -4   4   22.15    7.10
 -15   4   4   15.65    5.10
 -15   4   4   25.21    7.72
 -15   4   5   45.37   10.02
 -15   4   5   38.02    9.03
 -15  -4   5   53.88    9.55
 -15  -4   5   66.57   10.42
 -15  -4   6   13.56    4.91
 -15  -4   6   20.09    6.32
 -15   4   6   24.40    6.80
 -15   4   6   10.65    4.61
 -15  -4   7   89.60   12.06
 -15   4   7   82.08   12.86
 -15   4   7   80.65   12.78
 -15  -4   7   70.79   11.31
 -15  -4   8   69.25   11.53
 -15   4   8   57.03   10.57
 -15   4   8   70.84   11.30
 -15  -4   8   62.01   10.12
 -15  -4   9   31.28    7.49
 -15  -4   9   36.18    7.96
 -15   4   9   31.44    7.58
 -15   4   9   30.64    8.24
 -15  -4  10   37.15    8.15
 -15  -4  10   32.01    8.03
 -15   4  10   40.76    9.10
 -15   4  10   22.90    7.01
 -15  -4  11   66.14   10.96
 -15   4  11   61.52   10.75
 -15   4  11   50.09    9.66
 -15  -4  11   60.60   11.09
 -15  -4  12    0.55    4.91
 -15  -4  12    2.04    2.91
 -15   4  12    2.09    3.29
 -15   4  12   11.41    5.65
 -15  -4  13   59.28   10.78
 -15   4  13   66.34   11.98
 -15   4  13   71.20   11.43
 -15  -4  14   44.28    9.76
 -15   4  14   66.75   12.17
 -15   4  14   35.16    8.10
 -15  -4  15   44.99    9.05
 -15   4  15   41.69   10.15
 -15  -4  16   33.13    8.05
 -15   4  16    1.09    3.37
 -15  -4  17   24.40    6.70
 -15   4  17   33.16    9.84
 -15  -4  18   22.44    7.33
 -15   4  18    7.19    5.62
 -15   5 -16   18.87    6.92
 -15  -5 -16   24.82    8.30
 -15   5 -15   24.95    6.60
 -15   5 -15   23.05    6.72
 -15  -5 -15   15.62    5.13
 -15  -5 -14   34.32    8.61
 -15   5 -14   59.75   10.51
 -15   5 -14   42.11    8.95
 -15  -5 -13   52.45    9.97
 -15   5 -13   44.82   10.37
 -15   5 -13   43.76    9.68
 -15  -5 -12   33.05    7.73
 -15   5 -12   37.08    9.60
 -15   5 -12   18.63    6.23
 -15  -5 -11   19.83    5.54
 -15   5 -11    9.61    5.34
 -15   5 -11    5.65    2.96
 -15   5 -10   41.71    8.33
 -15  -5 -10   56.18    9.88
 -15   5  -9  162.99   17.26
 -15  -5  -9  151.70   16.59
 -15   5  -9  162.50   18.23
 -15  -5  -8   20.38    6.48
 -15   5  -8   24.35    6.55
 -15   5  -8   25.64    6.34
 -15  -5  -7   21.48    6.24
 -15   5  -7   18.08    5.71
 -15   5  -7   28.63    7.68
 -15  -5  -6   41.40    8.61
 -15   5  -6   41.07    9.96
 -15   5  -6   35.28    8.77
 -15  -5  -5   10.14    3.94
 -15   5  -5   12.66    4.23
 -15   5  -5   21.77    7.94
 -15   5  -4   54.40   11.23
 -15  -5  -4   33.55    7.58
 -15   5  -4   48.24   10.05
 -15   5  -3   95.71   13.36
 -15  -5  -3  125.70   14.46
 -15  -5  -3   97.51   13.01
 -15  -5  -2    2.44    1.88
 -15   5  -2    0.62    2.98
 -15  -5  -2   -0.77    2.48
 -15   5  -2    3.35    4.25
 -15   5  -1  120.68   15.81
 -15   5  -1  131.88   15.96
 -15  -5  -1  141.55   16.00
 -15  -5  -1  118.24   14.62
 -15   5   0  149.37   16.99
 -15   5   0  170.32   17.91
 -15  -5   0  146.50   16.37
 -15  -5   0  160.28   16.37
 -15  -5   1  114.37   14.12
 -15   5   1  144.52   16.26
 -15   5   1  131.09   15.71
 -15  -5   1  142.48   15.93
 -15  -5   2    2.35    3.97
 -15   5   2    5.42    3.67
 -15  -5   2    2.56    3.81
 -15   5   2    1.44    2.76
 -15  -5   3  116.13   13.57
 -15  -5   3  118.60   14.78
 -15   5   3  112.09   15.07
 -15   5   3   93.38   13.62
 -15  -5   4   44.90    9.12
 -15   5   4   34.15    7.64
 -15  -5   4   27.59    7.14
 -15   5   4   43.07    9.45
 -15  -5   5   19.60    5.42
 -15   5   5   16.38    5.78
 -15  -5   5    9.98    3.38
 -15   5   5   10.82    3.87
 -15  -5   6   45.04    7.56
 -15  -5   6   59.13    9.92
 -15   5   6   38.87    8.48
 -15   5   6   60.21   10.56
 -15  -5   7   23.11    6.54
 -15   5   7   25.37    7.15
 -15  -5   7   20.87    5.49
 -15   5   7   16.94    4.89
 -15  -5   8   24.07    6.49
 -15   5   8   21.74    7.89
 -15  -5   8   20.66    6.81
 -15   5   8   25.58    7.63
 -15  -5   9  142.02   15.73
 -15  -5   9  155.38   16.39
 -15   5   9  109.93   15.13
 -15   5   9  154.33   16.97
 -15  -5  10   44.60    9.74
 -15  -5  10   51.32   10.01
 -15   5  10   48.31    9.86
 -15   5  10   58.83    9.95
 -15  -5  11   12.37    4.95
 -15   5  11    9.87    3.60
 -15  -5  11   16.26    5.49
 -15   5  11   13.69    6.39
 -15  -5  12   15.31    5.43
 -15  -5  12   12.40    4.73
 -15   5  12   23.65    6.98
 -15   5  13   23.52    7.18
 -15  -5  13   54.48   10.09
 -15   5  13   39.56    9.68
 -15   5  14   30.40    8.64
 -15  -5  14   45.84    9.46
 -15   5  14   41.40    9.03
 -15   5  15   25.20    7.81
 -15  -5  15   23.06    7.24
 -15   5  15   37.45    8.49
 -15   5  16   22.16    7.97
 -15  -5  16   13.41    6.36
 -15   5  16   20.86    7.14
 -15  -6 -14    4.15    2.90
 -15   6 -14   -1.11    3.79
 -15   6 -14    0.84    3.39
 -15  -6 -13    1.63    4.72
 -15   6 -13   -1.27    3.72
 -15   6 -13   -0.18    3.75
 -15  -6 -12   13.29    5.92
 -15   6 -12    6.30    3.30
 -15   6 -12   12.68    6.73
 -15  -6 -11   23.51    6.77
 -15   6 -11    6.85    5.45
 -15   6 -11   11.06    4.41
 -15  -6 -10   39.49    8.84
 -15   6 -10   24.09    8.45
 -15   6 -10   30.46    7.26
 -15  -6  -9    1.52    3.62
 -15   6  -9   -1.03    3.20
 -15   6  -9    8.23    3.86
 -15  -6  -8   13.07    6.08
 -15   6  -8   -0.27    3.82
 -15   6  -8    9.96    5.10
 -15  -6  -7   12.76    4.09
 -15   6  -7   11.16    5.82
 -15   6  -7   19.05    6.59
 -15  -6  -6   16.28    5.71
 -15   6  -6   10.53    6.20
 -15   6  -6   17.25    6.11
 -15  -6  -5   20.82    6.04
 -15   6  -5   24.04    8.23
 -15   6  -5   17.56    6.94
 -15   6  -4   57.69   11.20
 -15   6  -4   57.01   10.96
 -15  -6  -4   66.25   10.97
 -15  -6  -3    8.42    5.87
 -15   6  -3    5.95    4.51
 -15   6  -3    9.20    4.54
 -15  -6  -2   70.01   11.07
 -15   6  -2   63.07   11.70
 -15   6  -2   75.74   11.66
 -15  -6  -2   59.36   12.14
 -15  -6  -1  106.79   13.03
 -15  -6  -1   87.82   13.14
 -15   6  -1   74.33   12.16
 -15   6  -1  111.97   14.53
 -15   6   0   62.88   11.52
 -15  -6   0   45.73    8.63
 -15  -6   0   49.51   10.01
 -15   6   0   54.27   10.47
 -15  -6   1   83.05   11.68
 -15  -6   1   68.11   11.01
 -15   6   1   54.92   10.21
 -15   6   1   82.21   13.24
 -15  -6   2   72.37   10.80
 -15  -6   2   62.99   10.42
 -15   6   2   69.13   11.17
 -15   6   2   70.23   12.41
 -15  -6   3    6.54    4.54
 -15   6   3   -3.67    3.83
 -15  -6   3    4.35    4.95
 -15   6   3    5.46    2.25
 -15  -6   4   71.85   11.15
 -15  -6   4   66.84   10.95
 -15   6   4   44.48    8.70
 -15   6   4   67.08   11.95
 -15  -6   5   22.33    7.16
 -15   6   5   16.75    5.61
 -15  -6   5   17.73    6.06
 -15   6   5   17.11    6.08
 -15  -6   6   16.46    6.36
 -15   6   6   15.48    5.77
 -15  -6   6   19.20    6.04
 -15   6   6    9.17    5.12
 -15  -6   7   20.62    6.65
 -15   6   7   14.72    5.72
 -15  -6   7   21.44    7.86
 -15   6   7    9.06    6.39
 -15  -6   8   13.34    6.58
 -15   6   8   13.21    5.62
 -15  -6   8   12.42    4.57
 -15   6   8   20.37    6.71
 -15   6   9    3.40    3.70
 -15  -6   9    4.86    3.04
 -15   6   9   14.10    6.42
 -15  -6  10   50.18    9.49
 -15   6  10   37.81    9.07
 -15  -6  10   32.49    7.37
 -15   6  10   37.01    7.81
 -15  -6  11    0.79    4.24
 -15   6  11   18.26    6.71
 -15  -6  11   25.66    6.69
 -15   6  11   21.10    5.89
 -15  -6  12   15.99    5.53
 -15   6  12    0.27    3.42
 -15  -6  12    8.90    5.79
 -15   6  12    5.10    5.24
 -15   6  13    2.84    3.87
 -15  -6  13   -1.01    3.14
 -15   6  13    0.68    4.02
 -15   6  14    8.43    6.95
 -15  -6  14   -1.04    2.56
 -15   6  14    1.20    4.01
 -15   7 -10   51.59   11.76
 -15  -7 -10   56.65   10.51
 -15   7 -10   61.77   11.76
 -15  -7  -9   49.39    9.51
 -15   7  -9   49.06   10.03
 -15   7  -9   53.51   10.49
 -15  -7  -8    1.84    2.26
 -15   7  -8    6.44    4.55
 -15   7  -8    9.21    5.78
 -15  -7  -7   34.91    8.50
 -15   7  -7   52.15   10.64
 -15   7  -7   42.23    9.14
 -15  -7  -6   14.78    5.30
 -15   7  -6    7.02    3.54
 -15   7  -6    6.20    6.19
 -15  -7  -5   17.04    5.76
 -15   7  -5   12.85    5.94
 -15   7  -5   23.39    6.97
 -15  -7  -4   27.05    7.45
 -15   7  -4   17.38    7.17
 -15   7  -4   18.96    6.21
 -15  -7  -3   50.80    9.66
 -15   7  -3   24.72    7.74
 -15   7  -3   34.94    8.87
 -15  -7  -2   22.01    7.69
 -15   7  -2    5.56    3.76
 -15   7  -2   18.12    7.56
 -15  -7  -1   44.70    9.21
 -15   7  -1   34.55   10.48
 -15   7  -1   21.98    5.56
 -15  -7   0   39.66    8.44
 -15   7   0   41.64    8.24
 -15  -7   0   17.39    6.14
 -15   7   0   28.54    7.19
 -15  -7   1   65.97   10.60
 -15   7   1   35.09    8.86
 -15  -7   1   57.49   10.99
 -15   7   1   51.34   10.60
 -15  -7   2   16.05    5.08
 -15   7   2   14.19    5.95
 -15  -7   2    7.09    3.93
 -15   7   2    9.89    3.71
 -15  -7   3   28.35    6.87
 -15   7   3   41.92    9.63
 -15  -7   3   46.41    9.76
 -15   7   3   35.97    8.87
 -15  -7   4   31.58    8.07
 -15   7   4   25.75    6.44
 -15  -7   4   26.40    6.78
 -15   7   4   27.74    7.38
 -15  -7   5   17.41    5.67
 -15   7   5   29.06    8.83
 -15  -7   5    5.07    2.55
 -15   7   5   22.22    6.79
 -15  -7   6   -0.93    2.77
 -15   7   6   -2.36    3.11
 -15  -7   6    2.40    2.34
 -15  -7   7   40.32    8.65
 -15   7   7   31.99    9.02
 -15  -7   7   39.29    8.46
 -15   7   7   30.58    9.24
 -15  -7   8    3.71    4.18
 -15   7   8    2.35    2.66
 -15  -7   8    2.36    3.10
 -15   7   8    0.02    3.33
 -15  -7   9   32.45    7.21
 -15  -7   9   51.59   10.51
 -15   7   9   46.88   10.83
 -15   7   9   53.32   11.69
 -15  -7  10   46.11    9.15
 -15  -7  10   54.31   10.74
 -15   7  10   60.21   12.13
 -15   7  10   35.98    9.80
 -15  -8  -1   28.88    8.16
 -15   8  -1   37.21    9.80
 -15   8  -1   31.12    9.19
 -15  -8   0   19.27    6.87
 -15   8   0   10.84    5.92
 -15   8   0    3.94    4.83
 -15  -8   1   19.26    6.58
 -15   8   1   20.39    8.75
 -15  -8   1   34.40    9.76
 -15   8   1   27.58    7.61
 -16   0 -17  137.20   16.61
 -16   0 -16   -2.36    5.08
 -16   0 -15   22.91    6.05
 -16   0 -14   -6.19    3.65
 -16   0 -13  401.76   27.47
 -16   0 -12    6.09    5.00
 -16   0 -11   47.83    9.13
 -16   0 -10   12.84    5.22
 -16   0  -9   69.78   11.85
 -16   0  -9  102.86   14.10
 -16   0  -8   15.12    5.68
 -16   0  -8   28.28    7.38
 -16   0  -7  278.53   22.66
 -16   0  -7  302.71   23.07
 -16   0  -6   15.04    4.13
 -16   0  -6    7.24    5.04
 -16   0  -5    0.95    2.20
 -16   0  -5    3.63    2.34
 -16   0  -4   49.07   10.07
 -16   0  -4   58.96   10.76
 -16   0  -3  244.21   20.70
 -16   0  -3  259.15   21.26
 -16   0  -2  176.92   16.80
 -16   0  -2  199.54   18.49
 -16   0  -1   53.70    9.56
 -16   0  -1   48.51    9.48
 -16   0   0    4.73    4.30
 -16   0   0    6.90    4.64
 -16   0   1   45.38    8.82
 -16   0   1   35.01    7.94
 -16   0   2  166.94   17.02
 -16   0   2  181.31   17.26
 -16   0   3  253.72   20.93
 -16   0   3  268.55   21.56
 -16   0   4   68.02   11.06
 -16   0   4   35.74    8.16
 -16   0   5    2.80    2.01
 -16   0   5    5.79    4.17
 -16   0   6   10.27    3.64
 -16   0   7  355.84   25.10
 -16   0   8   30.76    7.56
 -16   0   9   93.12   12.78
 -16   0  10   43.19    8.58
 -16   0  11   56.64   10.54
 -16   0  12    7.27    5.37
 -16   0  13  448.15   29.32
 -16   0  14    1.15    4.08
 -16   0  15   25.46    7.29
 -16   0  16   -1.81    4.17
 -16   0  17  148.17   17.65
 -16   0  18   70.32   12.22
 -16   0  19  233.28   22.15
 -16   1 -19    0.96    3.31
 -16   1 -18   -1.23    2.95
 -16   1 -17   18.95    7.09
 -16   1 -16    0.47    4.47
 -16   1 -15   15.10    5.19
 -16   1 -14   45.70    9.72
 -16  -1 -13   -0.41    1.37
 -16   1 -13   10.33    4.82
 -16  -1 -12   -2.70    2.32
 -16   1 -12   -0.53    3.85
 -16   1 -11    0.84    1.67
 -16  -1 -11   -0.12    2.64
 -16   1 -10   -1.04    3.35
 -16   1 -10    7.49    4.97
 -16  -1 -10    3.22    2.20
 -16   1  -9   13.34    4.89
 -16   1  -9   17.31    5.69
 -16  -1  -9   12.28    5.33
 -16   1  -8    0.59    3.49
 -16  -1  -8    2.20    3.74
 -16   1  -8   -1.51    3.09
 -16  -1  -8    0.54    3.72
 -16   1  -7    4.05    3.66
 -16  -1  -7   -2.55    2.69
 -16   1  -7   -1.32    2.04
 -16  -1  -7    2.90    4.16
 -16  -1  -7    8.19    5.35
 -16   1  -6   14.46    5.16
 -16  -1  -6    9.99    4.62
 -16   1  -6   11.08    5.39
 -16  -1  -6    2.45    1.94
 -16  -1  -6    4.42    3.52
 -16   1  -5   38.25    8.44
 -16   1  -5   48.00    9.83
 -16  -1  -5   37.25    7.71
 -16  -1  -5   39.66    8.05
 -16  -1  -5   42.28    9.01
 -16   1  -4    3.43    3.25
 -16  -1  -4    0.09    3.12
 -16   1  -4    2.08    2.56
 -16  -1  -4    0.96    2.33
 -16  -1  -4    0.93    3.27
 -16   1  -3   70.04   11.05
 -16  -1  -3   45.75    9.50
 -16   1  -3   68.42   11.37
 -16  -1  -3   35.97    8.67
 -16  -1  -3   55.40    9.38
 -16   1  -2    2.99    3.64
 -16  -1  -2    0.83    3.53
 -16   1  -2    2.78    1.82
 -16  -1  -2    7.83    5.42
 -16  -1  -2    5.47    3.09
 -16   1  -1   11.48    3.96
 -16   1  -1   17.94    4.81
 -16  -1  -1   17.44    6.26
 -16  -1  -1   11.00    5.49
 -16  -1  -1   15.58    5.10
 -16   1   0    1.07    3.12
 -16   1   0    5.06    3.94
 -16  -1   0    3.34    2.39
 -16  -1   0    2.66    3.90
 -16  -1   0   -0.62    3.77
 -16   1   1   15.21    5.50
 -16   1   1    7.29    5.89
 -16  -1   1    6.25    3.97
 -16  -1   1   13.56    5.35
 -16  -1   1   11.84    5.19
 -16   1   2    5.38    4.76
 -16   1   2    2.20    2.39
 -16  -1   2    3.27    3.49
 -16  -1   2    4.91    3.78
 -16  -1   2    3.40    1.91
 -16   1   3   55.31   10.06
 -16  -1   3   64.83   10.58
 -16   1   3   75.06   10.94
 -16  -1   3   55.97    9.62
 -16  -1   3   53.79    8.89
 -16   1   4    1.97    2.91
 -16   1   4    1.95    3.05
 -16  -1   4    0.46    1.65
 -16  -1   4    1.40    2.90
 -16  -1   4    1.96    2.61
 -16   1   5   32.74    7.63
 -16   1   5   36.80    7.43
 -16  -1   5   44.58    9.03
 -16  -1   5   37.34    7.68
 -16   1   6   15.10    5.40
 -16   1   6    2.28    4.84
 -16  -1   6    1.02    4.07
 -16  -1   6    8.34    3.58
 -16  -1   7    5.16    5.30
 -16   1   7    1.76    4.18
 -16   1   7    2.02    2.38
 -16  -1   7   -0.10    1.95
 -16  -1   8   -0.48    2.12
 -16   1   8   -4.19    5.05
 -16  -1   8    0.57    2.44
 -16  -1   9   10.69    4.51
 -16   1   9   12.68    5.83
 -16  -1   9   20.95    6.65
 -16  -1  10    2.38    2.33
 -16   1  10    0.57    2.70
 -16  -1  10    0.77    2.21
 -16  -1  11    6.23    6.00
 -16   1  11    0.77    2.81
 -16  -1  12   -3.80    4.77
 -16   1  12   -1.30    4.88
 -16  -1  13   14.08    4.98
 -16   1  13   22.88    7.60
 -16  -1  14   37.12    8.50
 -16   1  14   42.22    9.89
 -16  -1  15   12.23    5.16
 -16   1  15    9.92    4.48
 -16  -1  16    2.68    2.60
 -16   1  16   -3.75    5.33
 -16  -1  17   13.92    6.17
 -16   1  17   21.38    6.31
 -16  -1  18    0.10    2.77
 -16   1  18    1.07    4.88
 -16  -1  19   -2.10    3.58
 -16   1  19    3.48    4.44
 -16   2 -18   10.89    5.96
 -16   2 -17  131.28   15.62
 -16   2 -16   16.16    3.31
 -16   2 -15    5.44    3.59
 -16   2 -14   10.75    5.20
 -16   2 -13  263.78   21.93
 -16  -2 -13  224.15   19.43
 -16   2 -12   28.56    7.35
 -16  -2 -12   16.75    5.39
 -16   2 -11   41.27    9.69
 -16   2 -11   36.25    8.14
 -16  -2 -11   21.05    6.90
 -16   2 -10   10.15    5.03
 -16   2 -10    9.96    3.73
 -16  -2 -10   14.55    4.38
 -16   2  -9   71.37   12.48
 -16   2  -9   50.30    9.35
 -16  -2  -9   45.78    8.25
 -16   2  -8    9.63    5.69
 -16   2  -8    2.37    2.06
 -16  -2  -8    8.58    2.92
 -16   2  -7  120.86   15.22
 -16  -2  -7  144.58   17.21
 -16   2  -7  138.04   16.03
 -16  -2  -7  137.73   16.54
 -16  -2  -7  147.52   15.16
 -16   2  -6    7.07    4.21
 -16  -2  -6    1.68    3.16
 -16   2  -6    3.44    1.68
 -16  -2  -6   11.09    5.85
 -16  -2  -6    5.94    3.60
 -16   2  -5   16.92    5.96
 -16   2  -5   23.92    7.21
 -16  -2  -5    9.00    4.75
 -16  -2  -5   31.64    7.06
 -16  -2  -5   19.86    5.64
 -16   2  -4    5.69    5.02
 -16   2  -4    4.71    3.30
 -16  -2  -4   10.74    6.08
 -16  -2  -4    3.80    3.04
 -16  -2  -4    3.86    3.11
 -16   2  -3  190.54   18.71
 -16  -2  -3  183.14   17.59
 -16   2  -3  189.07   18.48
 -16  -2  -3  213.49   19.19
 -16  -2  -3  188.29   17.13
 -16   2  -2   11.14    4.15
 -16   2  -2    9.45    5.56
 -16  -2  -2   12.24    4.72
 -16  -2  -2    6.33    3.23
 -16  -2  -2    9.19    4.58
 -16   2  -1   13.92    5.69
 -16   2  -1   16.41    5.56
 -16  -2  -1   17.41    6.47
 -16  -2  -1   14.13    3.74
 -16  -2  -1   16.45    5.42
 -16   2   0   -1.29    2.30
 -16   2   0    1.73    2.84
 -16  -2   0    0.16    3.70
 -16  -2   0    0.51    2.88
 -16  -2   0    0.19    1.88
 -16  -2   1   19.94    6.11
 -16   2   1   23.25    7.35
 -16   2   1   24.42    5.97
 -16  -2   1   19.98    6.80
 -16  -2   1   19.21    5.21
 -16  -2   2    2.45    4.73
 -16   2   2    7.82    5.45
 -16   2   2    8.52    5.63
 -16  -2   2    3.02    2.59
 -16  -2   2    8.96    2.66
 -16   2   3  192.05   17.94
 -16  -2   3  190.49   18.45
 -16   2   3  199.71   18.76
 -16  -2   3  203.32   18.86
 -16  -2   3  218.22   17.98
 -16  -2   4    5.71    3.28
 -16   2   4    6.64    2.69
 -16   2   4    2.26    3.36
 -16  -2   4    0.71    2.22
 -16   2   5   18.13    5.72
 -16   2   5   10.79    4.79
 -16  -2   5   17.78    5.69
 -16  -2   6    0.63    3.17
 -16   2   6    8.14    5.61
 -16   2   6    2.51    3.36
 -16  -2   6    1.01    2.10
 -16   2   7  105.73   14.17
 -16  -2   7  141.50   15.86
 -16   2   7  119.31   14.47
 -16  -2   7  131.93   14.30
 -16  -2   8    7.04    4.73
 -16   2   8    0.61    3.01
 -16   2   8    6.05    2.26
 -16  -2   8    2.29    3.63
 -16  -2   9   32.05    7.34
 -16   2   9   41.53    8.70
 -16   2   9   43.12    9.04
 -16  -2   9   39.04    7.97
 -16   2  10    8.43    2.42
 -16  -2  10    0.34    3.03
 -16  -2  11   30.53    7.82
 -16   2  11   47.38   10.08
 -16  -2  12   32.33    7.39
 -16   2  12   30.56    8.94
 -16   2  13  243.08   21.80
 -16  -2  13  259.99   21.67
 -16  -2  14    5.21    3.32
 -16   2  14    7.76    5.08
 -16  -2  15   19.63    7.42
 -16   2  15   10.83    6.20
 -16  -2  16   15.47    5.16
 -16   2  16   20.46    6.51
 -16   2  17  182.89   19.86
 -16  -2  17  162.55   18.02
 -16  -2  18    8.31    2.40
 -16   2  18    6.72    4.30
 -16   3 -17   -0.27    4.06
 -16   3 -16    6.43    4.98
 -16  -3 -16    6.71    4.55
 -16   3 -15    0.85    3.61
 -16  -3 -15    2.72    2.49
 -16   3 -14    3.04    3.55
 -16  -3 -14    5.39    3.70
 -16   3 -13    6.40    4.04
 -16  -3 -13    5.88    3.75
 -16   3 -12   -0.56    3.66
 -16   3 -12   -2.65    3.44
 -16  -3 -12    2.71    2.49
 -16   3 -11   20.45    7.97
 -16   3 -11   16.15    6.32
 -16  -3 -11   24.98    6.71
 -16   3 -10    5.46    4.92
 -16   3 -10   -0.93    2.82
 -16  -3 -10    5.29    3.67
 -16   3  -9    1.59    3.08
 -16   3  -9    3.63    2.03
 -16   3  -8   14.46    6.28
 -16   3  -8   11.60    5.49
 -16  -3  -8   16.16    5.78
 -16   3  -7   16.52    5.55
 -16   3  -7    5.34    3.88
 -16  -3  -7    8.14    4.31
 -16   3  -6    5.46    3.71
 -16  -3  -6    1.77    2.57
 -16   3  -5    8.01    4.65
 -16   3  -5    7.67    2.28
 -16  -3  -5    6.77    4.18
 -16  -3  -5    5.97    4.58
 -16  -3  -4    2.55    3.39
 -16   3  -4   11.93    5.13
 -16   3  -4    7.17    2.93
 -16  -3  -4   12.72    5.16
 -16  -3  -3    0.85    1.90
 -16   3  -3   -2.67    3.51
 -16   3  -3    1.55    2.94
 -16  -3  -3   -0.05    1.97
 -16  -3  -2    7.60    4.65
 -16  -3  -2    7.82    5.24
 -16   3  -2    4.32    2.16
 -16  -3  -2   22.85   10.73
 -16   3  -2    9.02    5.55
 -16  -3  -1    9.45    3.39
 -16  -3  -1    1.28    2.67
 -16   3  -1    4.31    5.56
 -16   3  -1    1.81    4.15
 -16  -3  -1    2.46    3.49
 -16  -3   0    7.15    4.61
 -16  -3   0    3.69    4.92
 -16   3   0    3.34    4.69
 -16   3   0    1.10    2.96
 -16  -3   0   -0.34    2.97
 -16  -3   1    2.59    3.17
 -16  -3   1   -0.06    2.48
 -16   3   1    2.44    2.84
 -16   3   1    5.74    3.22
 -16  -3   1   -2.09    3.79
 -16  -3   2   18.11    5.89
 -16  -3   2    9.89    3.71
 -16   3   2    6.51    3.30
 -16   3   2    2.72    2.93
 -16  -3   2   11.79    5.83
 -16  -3   3   -0.97    2.05
 -16  -3   3   -0.98    2.33
 -16   3   3   -1.01    2.20
 -16   3   3   -0.69    2.27
 -16  -3   3    1.13    1.82
 -16  -3   4    9.55    4.17
 -16  -3   4    3.93    2.92
 -16   3   4    5.55    1.94
 -16  -3   5   -0.15    3.01
 -16  -3   5   10.09    2.67
 -16   3   5   10.36    5.87
 -16   3   5    3.11    4.47
 -16  -3   6    2.82    2.84
 -16  -3   6    8.01    4.82
 -16   3   6    8.10    6.19
 -16   3   6   -0.05    4.03
 -16  -3   7   13.77    4.88
 -16  -3   7    6.33    3.14
 -16   3   7    7.56    3.24
 -16   3   7   15.21    6.12
 -16  -3   8   -1.65    3.39
 -16  -3   8   11.75    5.71
 -16   3   8    8.10    4.51
 -16   3   8   12.03    4.38
 -16  -3   9    7.70    2.33
 -16   3   9    6.66    2.61
 -16   3   9    2.29    3.29
 -16  -3  10    6.39    2.81
 -16  -3  10   -0.14    2.31
 -16   3  10    2.94    4.29
 -16   3  10    9.55    5.08
 -16  -3  11   13.17    5.47
 -16  -3  11   16.71    4.98
 -16   3  11   13.11    4.99
 -16   3  11   11.03    4.86
 -16  -3  12   -1.04    1.66
 -16   3  12    0.15    2.75
 -16   3  12    3.28    3.09
 -16  -3  13    1.20    3.12
 -16   3  13    4.85    3.84
 -16  -3  14   -0.14    3.23
 -16   3  14   -2.55    3.86
 -16  -3  15    6.94    6.02
 -16   3  15    3.80    3.20
 -16  -3  16    1.99    4.05
 -16   3  16    2.12    3.04
 -16  -3  17    4.18    2.73
 -16   3  17    1.82    5.32
 -16   4 -16   13.51    6.45
 -16  -4 -16   14.51    5.85
 -16   4 -15   42.52   10.24
 -16  -4 -15   28.67    6.84
 -16   4 -14    1.55    3.25
 -16  -4 -14   10.36    3.77
 -16   4 -13  187.94   18.58
 -16  -4 -13  227.76   20.17
 -16   4 -12   -4.06    4.01
 -16   4 -12    8.58    3.54
 -16  -4 -12    9.24    5.57
 -16   4 -11   35.93    9.71
 -16   4 -11   18.82    6.54
 -16  -4 -11   18.90    5.29
 -16   4 -10   14.96    6.80
 -16   4 -10   18.99    6.05
 -16  -4 -10   13.77    5.32
 -16   4  -9   94.85   13.97
 -16   4  -9  107.00   14.47
 -16  -4  -9   83.94   12.41
 -16  -4  -8    0.57    3.32
 -16   4  -8    0.56    3.69
 -16   4  -8    0.02    5.09
 -16   4  -7   88.25   13.77
 -16   4  -7   99.08   13.42
 -16  -4  -7   96.25   12.77
 -16  -4  -6    0.67    2.12
 -16   4  -6   -0.72    2.18
 -16   4  -6    5.27    2.32
 -16  -4  -5   49.22    9.03
 -16   4  -5   39.00    8.95
 -16   4  -5   45.69    9.15
 -16  -4  -4    8.33    4.72
 -16  -4  -4    4.26    3.43
 -16   4  -4    0.13    2.78
 -16   4  -4    6.75    5.44
 -16   4  -3  229.05   20.67
 -16   4  -3  173.70   17.97
 -16  -4  -3  188.80   18.75
 -16  -4  -3  245.39   20.17
 -16  -4  -2    8.37    3.41
 -16  -4  -2   10.30    5.07
 -16   4  -2    0.99    2.62
 -16   4  -2   12.34    5.97
 -16  -4  -1   46.24    9.09
 -16   4  -1   36.58    8.23
 -16   4  -1   23.77    6.49
 -16  -4  -1   52.78    9.74
 -16  -4   0    2.89    3.43
 -16  -4   0    1.99    3.89
 -16   4   0    2.29    4.59
 -16   4   0    1.87    2.44
 -16  -4   1   34.22    7.07
 -16  -4   1   33.53    7.98
 -16   4   1   29.98    7.89
 -16   4   1   30.51    8.27
 -16  -4   2    8.96    5.03
 -16  -4   2    8.82    4.43
 -16   4   2   14.31    5.24
 -16   4   2    6.49    1.97
 -16   4   3  236.66   21.84
 -16   4   3  205.45   19.28
 -16  -4   3  171.06   17.18
 -16  -4   3  142.49   15.81
 -16  -4   4    7.23    4.15
 -16  -4   4    5.85    4.47
 -16   4   4    6.32    3.31
 -16   4   4   10.95    5.11
 -16  -4   5   50.05    9.36
 -16  -4   5   40.30    9.13
 -16   4   5   56.05   10.39
 -16   4   5   36.50    8.53
 -16  -4   6    2.56    1.94
 -16  -4   6    2.26    1.84
 -16   4   6   -2.08    4.06
 -16   4   6    2.75    3.23
 -16   4   7   99.79   14.03
 -16  -4   7  117.50   14.66
 -16  -4   7  105.27   13.49
 -16  -4   8    3.00    5.05
 -16  -4   8    1.53    1.69
 -16   4   8    0.58    3.62
 -16   4   8    1.52    3.04
 -16   4   9   84.72   13.61
 -16   4   9   94.75   14.10
 -16  -4   9   93.25   12.64
 -16  -4   9   90.74   12.64
 -16  -4  10   11.80    4.52
 -16  -4  10   22.31    5.93
 -16   4  10   22.86    6.21
 -16   4  10   18.27    7.20
 -16  -4  11   20.84    6.48
 -16  -4  11   25.75    7.10
 -16   4  11   25.72    7.48
 -16   4  11   39.03    9.16
 -16  -4  12    7.45    3.74
 -16   4  12   11.80    6.54
 -16   4  12    4.88    2.75
 -16   4  13  228.47   21.61
 -16   4  13  236.92   21.91
 -16  -4  13  236.22   21.35
 -16  -4  14    1.99    2.16
 -16   4  14    6.79    4.20
 -16   4  14    3.99    3.30
 -16   4  15   22.12    6.17
 -16   4  15   19.61    4.47
 -16  -4  16   16.48    4.85
 -16   4  16    6.64    5.12
 -16   4  16    6.24    4.86
 -16   5 -14   83.44   13.73
 -16   5 -14   71.23   12.00
 -16  -5 -14   94.47   13.45
 -16   5 -13    4.81    2.80
 -16   5 -13    1.99    3.69
 -16  -5 -13    0.39    2.78
 -16  -5 -12   12.07    5.41
 -16   5 -12   14.24    7.92
 -16   5 -12   30.31    8.47
 -16  -5 -11   10.10    4.69
 -16   5 -11    1.11    2.48
 -16  -5 -10   15.10    6.25
 -16   5 -10   17.01    8.24
 -16   5 -10   16.68    5.84
 -16  -5  -9   -1.10    3.68
 -16   5  -9    1.16    3.03
 -16   5  -9    1.18    3.94
 -16  -5  -8    0.90    3.42
 -16   5  -8    5.78    4.41
 -16   5  -8   -3.17    4.64
 -16  -5  -7    0.62    2.30
 -16   5  -7    4.36    2.85
 -16   5  -7   -3.15    4.28
 -16  -5  -6    6.23    3.63
 -16   5  -6   -4.35    3.26
 -16   5  -6   -0.61    2.80
 -16  -5  -5   36.85    8.41
 -16   5  -5   31.06    9.29
 -16   5  -5   42.24    9.99
 -16   5  -4   19.67    6.26
 -16   5  -4   26.21    7.14
 -16  -5  -3    6.76    3.69
 -16  -5  -3   21.46    9.21
 -16   5  -3   13.44    5.58
 -16   5  -3    4.81    4.53
 -16  -5  -2   16.14    5.34
 -16  -5  -2   15.76    4.59
 -16   5  -2   25.60    7.37
 -16   5  -2   27.68    8.07
 -16  -5  -1   17.66    5.67
 -16  -5  -1   42.18    8.80
 -16   5  -1   36.50    8.81
 -16   5  -1   19.30    7.09
 -16  -5   0   -2.51    3.53
 -16  -5   0    0.22    2.52
 -16   5   0    4.60    5.16
 -16   5   0   -1.95    3.59
 -16  -5   1   26.36    7.63
 -16  -5   1   16.95    6.89
 -16   5   1   31.62    7.71
 -16   5   1   14.56    4.97
 -16  -5   2   18.81    6.30
 -16  -5   2   30.81    8.85
 -16   5   2   17.06    4.73
 -16   5   2   18.56    7.08
 -16  -5   3    7.69    5.10
 -16  -5   3   11.33    5.92
 -16   5   3    5.80    4.26
 -16   5   3    7.06    3.99
 -16  -5   4   31.67    6.98
 -16   5   4   17.07    5.97
 -16  -5   4   21.44    4.99
 -16   5   4   21.68    6.36
 -16  -5   5   45.38    8.59
 -16   5   5   41.31    8.75
 -16  -5   5   45.90    9.04
 -16   5   5   32.97    8.10
 -16  -5   6    0.31    2.94
 -16   5   6   -1.83    2.59
 -16  -5   6    7.26    4.11
 -16   5   6   -2.07    4.56
 -16  -5   7    2.82    3.92
 -16   5   7    1.78    3.79
 -16  -5   7    3.18    5.05
 -16   5   7    5.35    6.07
 -16  -5   8   -0.27    2.41
 -16   5   8    1.98    2.97
 -16  -5   8   -2.98    4.67
 -16   5   8   -1.07    3.95
 -16  -5   9   -1.62    3.60
 -16   5   9    1.88    2.82
 -16  -5   9   -0.77    3.00
 -16   5   9    0.28    3.92
 -16  -5  10   14.84    5.39
 -16   5  10   23.83    7.09
 -16  -5  10   24.94    6.73
 -16   5  10   25.10    7.74
 -16  -5  11    4.53    3.32
 -16   5  11    3.63    4.47
 -16  -5  11   15.48    6.06
 -16   5  11    4.87    3.39
 -16   5  12   10.49    5.60
 -16   5  12   10.25    3.08
 -16   5  13    5.81    4.92
 -16  -5  13    2.61    2.69
 -16   5  13    6.23    4.22
 -16  -5  14   90.12   13.57
 -16   5  14   53.35   10.51
 -16   5  14   62.21   12.50
 -16  -6 -11   42.53    8.91
 -16   6 -11   37.94    9.72
 -16   6 -11   50.77   10.62
 -16  -6 -10   15.66    5.69
 -16   6 -10   16.56    7.57
 -16   6 -10   11.69    4.41
 -16   6  -9  109.11   14.97
 -16   6  -9  112.06   16.34
 -16  -6  -9  124.68   15.30
 -16  -6  -8    0.16    3.96
 -16   6  -8    5.15    4.45
 -16   6  -8    3.77    4.71
 -16   6  -7  149.83   17.32
 -16  -6  -7  135.64   15.20
 -16  -6  -6    4.14    5.70
 -16   6  -6   -1.12    4.46
 -16   6  -6    6.93    4.72
 -16  -6  -5    0.64    2.03
 -16   6  -5    6.59    4.27
 -16   6  -5   10.19    6.13
 -16   6  -4    9.85    4.30
 -16   6  -4    9.32    3.64
 -16   6  -3  102.91   14.20
 -16   6  -3  133.55   16.18
 -16  -6  -3  124.49   15.07
 -16   6  -2   62.42   11.73
 -16  -6  -2   76.91   11.62
 -16   6  -1   95.50   15.06
 -16   6  -1  100.74   14.53
 -16  -6  -1  108.86   14.65
 -16  -6  -1  128.47   15.00
 -16  -6   0    8.37    3.58
 -16   6   0    0.60    1.99
 -16  -6   0    6.12    2.48
 -16   6   0   -3.53    5.96
 -16   6   1   69.70   11.87
 -16   6   1   98.92   13.59
 -16  -6   1  100.82   13.40
 -16  -6   1   95.96   13.51
 -16  -6   2   71.22   11.77
 -16   6   2   48.32   10.90
 -16   6   2   73.71   12.63
 -16  -6   2   93.90   12.60
 -16  -6   3  121.13   14.87
 -16  -6   3  113.74   14.84
 -16   6   3  106.15   14.40
 -16   6   3  123.19   15.94
 -16  -6   4   16.38    6.43
 -16   6   4   17.88    7.63
 -16  -6   4   15.83    5.97
 -16   6   4   15.97    6.20
 -16  -6   5    3.72    3.74
 -16   6   5    5.32    3.55
 -16  -6   5    5.29    4.54
 -16   6   5    3.65    4.57
 -16  -6   6   11.37    5.34
 -16   6   6   -3.23    4.59
 -16  -6   6   -0.29    3.01
 -16   6   6    9.85    5.74
 -16  -6   7  116.46   14.31
 -16  -6   7  112.25   14.92
 -16   6   7  103.46   14.80
 -16   6   7   95.55   14.51
 -16  -6   8    8.38    3.09
 -16   6   8   -2.55    2.55
 -16  -6   8   -1.70    2.31
 -16   6   8    5.43    4.65
 -16  -6   9  138.47   16.38
 -16  -6   9  128.55   15.88
 -16   6   9  127.61   16.81
 -16   6   9  110.08   15.04
 -16  -6  10   20.29    5.16
 -16   6  10   18.93    7.34
 -16  -6  10   16.41    6.33
 -16   6  10   19.96    8.27
 -16  -6  11   41.83    7.48
 -16   6  11   58.32   11.47
 -16  -6  11   23.53    6.10
 -16   6  11   55.65   10.71
 -16  -7  -6    8.89    5.57
 -16   7  -6   -0.23    3.50
 -16   7  -6    3.87    4.24
 -16   7  -5   34.51   10.68
 -16   7  -5   45.23    9.27
 -16  -7  -4   10.21    4.75
 -16   7  -4   -0.06    4.08
 -16   7  -4    7.33    4.69
 -16  -7  -3   34.69    8.55
 -16   7  -3   30.19   10.18
 -16   7  -3   51.54    9.41
 -16  -7  -2    1.61    2.57
 -16   7  -2    5.57    4.27
 -16   7  -2    1.65    4.14
 -16  -7  -1    2.02    2.34
 -16   7  -1   -1.62    3.48
 -16   7  -1    1.86    3.90
 -16  -7   0    6.87    4.32
 -16   7   0    0.95    2.56
 -16   7   0    6.74    4.71
 -16  -7   1   -1.63    4.12
 -16   7   1   -2.18    3.59
 -16  -7   1    1.64    2.26
 -16   7   1   -2.44    3.74
 -16  -7   2    7.27    3.65
 -16   7   2    1.65    4.67
 -16  -7   2   -0.24    2.89
 -16   7   2   -1.75    4.05
 -16  -7   3   35.60    7.75
 -16   7   3   29.29    7.85
 -16  -7   3   27.61    7.85
 -16   7   3   34.11    8.72
 -16  -7   4    1.71    2.84
 -16   7   4    3.08    2.57
 -16  -7   4   10.64    4.66
 -16   7   4   11.89    4.95
 -16  -7   5   55.61   10.53
 -16   7   5   60.35   11.66
 -16  -7   5   60.19   10.83
 -16   7   5   62.44   11.64
 -16  -7   6    9.69    2.18
 -16   7   6   14.94    7.28
 -16  -7   6    3.91    3.01
 -16   7   6    3.56    4.20
 -17   0 -15    4.16    2.36
 -17   0 -14    1.18    2.73
 -17   0 -13   -3.91    2.19
 -17   0 -12   -1.93    2.96
 -17   0 -11    2.50    4.63
 -17   0 -10   -1.56    3.53
 -17   0  -9   -9.57    4.35
 -17   0  -9   -2.32    3.53
 -17   0  -8   -1.32    4.89
 -17   0  -8   -2.19    3.06
 -17   0  -7    2.11    3.76
 -17   0  -7    2.61    3.88
 -17   0  -6   -0.78    4.30
 -17   0  -6   -2.94    3.81
 -17   0  -5   -0.82    3.30
 -17   0  -5    1.97    4.24
 -17   0  -4    0.29    2.00
 -17   0  -4    2.83    4.03
 -17   0  -3   -3.92    4.16
 -17   0  -3    1.24    5.00
 -17   0  -2   -0.22    3.34
 -17   0  -2    1.18    3.86
 -17   0  -1    0.23    1.64
 -17   0  -1    1.53    2.58
 -17   0   0    1.37    2.14
 -17   0   0   -2.35    2.10
 -17   0   1   -3.25    3.95
 -17   0   1   -1.86    2.80
 -17   0   2    1.19    4.37
 -17   0   2   -1.34    2.44
 -17   0   3   -1.42    4.10
 -17   0   3    0.03    2.72
 -17   0   4   -1.51    3.17
 -17   0   4    1.43    2.72
 -17   0   5    1.98    3.43
 -17   0   5    3.27    4.65
 -17   0   6    2.76    5.08
 -17   0   6    2.38    2.88
 -17   0   7    1.41    4.14
 -17   0   7    1.51    4.72
 -17   0   8    4.78    4.69
 -17   0   9   -1.27    1.71
 -17   0  10    4.27    3.16
 -17   0  11   -1.35    2.19
 -17   0  12    1.22    3.67
 -17   0  13   -0.13    2.18
 -17   0  14   -2.68    5.03
 -17   0  15   -2.24    3.64
 -17   0  16   -0.16    3.33
 -17   0  17   -1.86    3.56
 -17   1 -17  136.89   16.47
 -17   1 -16   88.12   14.30
 -17   1 -15    2.34    3.45
 -17   1 -14   20.78    5.76
 -17   1 -13   35.50    8.55
 -17   1 -12   45.73   10.15
 -17  -1 -11   71.83   13.50
 -17   1 -11   52.41   10.31
 -17   1 -10   46.49    9.71
 -17  -1 -10   45.61    9.72
 -17   1  -9   49.08   10.09
 -17   1  -9   43.40    9.47
 -17  -1  -9   54.56    9.74
 -17   1  -8   55.38   11.06
 -17   1  -8   42.25    9.45
 -17  -1  -8   44.85    8.99
 -17   1  -7    8.20    5.36
 -17  -1  -7    2.87    2.55
 -17   1  -7   12.25    6.06
 -17  -1  -7   13.58    5.77
 -17   1  -6   19.24    5.13
 -17  -1  -6   28.23    8.65
 -17   1  -6   18.29    5.94
 -17  -1  -6   28.25    8.57
 -17   1  -5   10.61    6.13
 -17  -1  -5    0.14    2.54
 -17   1  -5    9.44    3.48
 -17  -1  -5   11.10    6.27
 -17  -1  -5    5.42    3.78
 -17   1  -4   90.05   13.28
 -17  -1  -4  116.46   14.26
 -17   1  -4  111.90   14.71
 -17  -1  -4  112.06   14.56
 -17  -1  -4  111.74   13.26
 -17   1  -3  186.49   18.94
 -17  -1  -3  203.67   19.33
 -17   1  -3  184.15   18.74
 -17  -1  -3  165.68   18.00
 -17  -1  -3  207.87   18.60
 -17   1  -2   60.86   10.68
 -17  -1  -2   80.48   12.53
 -17   1  -2   84.59   13.03
 -17  -1  -2   92.08   12.88
 -17  -1  -2   70.94   10.69
 -17   1  -1   36.07    8.81
 -17  -1  -1   31.22    7.93
 -17   1  -1   35.29    8.34
 -17  -1  -1   33.77    8.38
 -17  -1  -1   31.10    6.89
 -17   1   0  108.52   14.55
 -17  -1   0  129.58   15.43
 -17   1   0  120.46   14.71
 -17  -1   0  122.12   14.88
 -17  -1   0  116.83   13.85
 -17   1   1   37.32    9.14
 -17   1   1   19.78    6.30
 -17  -1   1   24.30    6.13
 -17  -1   1   28.07    6.81
 -17  -1   1   22.93    5.93
 -17   1   2   89.48   12.50
 -17  -1   2   74.43   12.13
 -17   1   2   84.69   13.64
 -17  -1   2   65.08   11.27
 -17  -1   2   72.19   10.96
 -17   1   3  184.19   18.43
 -17  -1   3  188.76   18.19
 -17   1   3  164.95   17.54
 -17  -1   3  200.77   19.58
 -17  -1   3  152.98   15.69
 -17   1   4  105.70   14.17
 -17  -1   4  122.56   15.18
 -17   1   4  114.67   14.95
 -17  -1   4  119.93   14.76
 -17  -1   4   97.74   12.51
 -17   1   5    4.64    2.78
 -17   1   5    2.98    2.74
 -17  -1   5    6.50    4.79
 -17  -1   5   13.80    4.84
 -17  -1   5   14.36    6.06
 -17   1   6   25.07    6.88
 -17   1   6   23.85    7.49
 -17  -1   6   26.21    7.04
 -17  -1   6   21.20    6.88
 -17  -1   6   23.84    6.75
 -17   1   7   12.18    4.78
 -17   1   7    9.67    4.60
 -17  -1   7    2.50    2.26
 -17  -1   7    8.83    4.46
 -17   1   8   59.03   10.77
 -17   1   8   71.52   11.79
 -17  -1   8   56.15    9.90
 -17  -1   8   50.79   10.14
 -17   1   9   47.18   10.17
 -17  -1   9   42.12    9.40
 -17  -1   9   53.35    9.70
 -17   1  10   47.49   10.43
 -17  -1  10   56.53    9.33
 -17  -1  11   55.66    9.80
 -17   1  11   80.39   12.38
 -17  -1  12   67.92   11.33
 -17   1  12   56.33   11.31
 -17  -1  13   29.95    7.38
 -17   1  13   26.51    8.40
 -17  -1  14   24.27    7.51
 -17   1  14   18.51    6.38
 -17  -1  15    4.35    3.46
 -17   1  15   -1.70    4.17
 -17   1  16   85.54   13.20
 -17  -1  16  113.43   15.59
 -17   1  17  106.35   15.25
 -17  -1  17  126.07   16.49
 -17   2 -16    3.52    3.43
 -17   2 -15    7.72    3.23
 -17   2 -14   11.33    4.14
 -17   2 -13   20.50    6.39
 -17   2 -12   11.35    5.77
 -17   2 -11   -0.91    2.87
 -17  -2 -11    1.63    2.83
 -17   2 -10   15.83    6.77
 -17   2 -10    7.77    5.43
 -17  -2 -10    8.23    4.21
 -17   2  -9   14.31    4.29
 -17   2  -9   10.29    5.12
 -17   2  -8   22.87    6.85
 -17   2  -8   18.77    6.15
 -17  -2  -8   37.40    8.20
 -17   2  -7   25.88    7.00
 -17   2  -7   35.34    8.39
 -17  -2  -7   18.80    4.88
 -17   2  -6   10.62    4.94
 -17  -2  -6   11.64    7.16
 -17   2  -6   12.89    5.24
 -17  -2  -6   11.49    4.14
 -17   2  -5    3.57    2.34
 -17  -2  -5    3.70    2.34
 -17   2  -5    4.67    4.58
 -17  -2  -5    1.09    2.83
 -17  -2  -5    5.66    4.77
 -17   2  -4    2.95    2.93
 -17   2  -4    3.83    3.42
 -17  -2  -4    3.84    4.47
 -17  -2  -4    4.10    2.00
 -17   2  -3    2.83    3.17
 -17   2  -3    1.11    2.99
 -17  -2  -3    8.11    6.08
 -17  -2  -3    6.46    4.20
 -17  -2  -3    1.07    2.88
 -17   2  -2    2.24    3.22
 -17  -2  -2    9.78    4.44
 -17  -2  -2   13.06    5.11
 -17  -2  -2    8.88    3.78
 -17   2  -1    3.99    3.97
 -17   2  -1   -0.02    1.92
 -17  -2  -1   -0.59    4.58
 -17  -2  -1    2.56    2.16
 -17  -2  -1    8.87    4.37
 -17   2   0    2.56    4.97
 -17   2   0    1.48    2.94
 -17  -2   0    0.73    2.23
 -17  -2   0    1.71    2.29
 -17  -2   0    1.01    2.95
 -17   2   1    5.74    3.89
 -17   2   1    7.05    3.01
 -17  -2   1    5.95    4.93
 -17  -2   1   -0.50    3.58
 -17  -2   1    5.80    3.81
 -17   2   2   12.18    4.59
 -17   2   2   11.22    5.65
 -17  -2   2    4.78    3.52
 -17  -2   2    6.40    4.43
 -17  -2   2    7.43    4.43
 -17  -2   3    9.97    6.01
 -17   2   3    4.01    4.98
 -17   2   3    4.25    5.27
 -17  -2   3   14.28    6.23
 -17  -2   3    2.29    1.79
 -17  -2   4   14.39    6.54
 -17   2   4   11.89    4.70
 -17   2   4    5.75    3.17
 -17  -2   4   10.09    4.97
 -17  -2   4   12.65    5.26
 -17  -2   5    5.14    4.42
 -17   2   5    2.78    2.47
 -17   2   5   10.28    5.43
 -17  -2   5    8.79    4.40
 -17  -2   5    4.67    4.07
 -17  -2   6   16.05    6.48
 -17   2   6   19.21    6.57
 -17   2   6   18.32    6.60
 -17  -2   6   21.84    5.93
 -17  -2   7   15.48    5.02
 -17   2   7   26.23    7.75
 -17   2   7   22.34    5.99
 -17  -2   7   27.64    7.29
 -17  -2   8   42.80    8.71
 -17   2   8   37.94    9.09
 -17   2   8   47.72    9.71
 -17  -2   8   25.53    7.43
 -17  -2   9   30.86    7.48
 -17   2   9   14.30    5.77
 -17   2   9   15.70    5.16
 -17  -2   9   11.77    5.56
 -17  -2  10   10.03    4.77
 -17   2  10   20.18    6.80
 -17   2  10   16.03    5.71
 -17  -2  10    3.13    2.35
 -17  -2  11    1.91    3.13
 -17   2  11    1.37    3.25
 -17   2  11   -3.66    4.66
 -17  -2  12   17.20    6.30
 -17   2  12    6.39    4.25
 -17  -2  13   27.06    7.93
 -17   2  13   15.01    5.09
 -17  -2  14   16.99    6.70
 -17   2  14   20.36    5.53
 -17  -2  15   14.90    7.46
 -17   2  15   24.69    7.84
 -17  -2  16    7.84    5.40
 -17   2  16   15.32    7.97
 -17   3 -15   62.76   11.42
 -17  -3 -15   35.81    9.00
 -17   3 -14   16.30    5.89
 -17  -3 -14   19.32    6.45
 -17   3 -13   33.20    7.92
 -17  -3 -13   29.72    7.95
 -17   3 -12   18.75    8.06
 -17   3 -12   11.24    4.12
 -17  -3 -12   15.62    5.14
 -17   3 -11   13.63    7.07
 -17   3 -11   16.24    6.27
 -17  -3 -11    8.63    4.82
 -17   3 -10   97.15   15.30
 -17   3 -10   93.78   13.30
 -17  -3 -10   91.57   12.16
 -17   3  -9   41.47   10.38
 -17   3  -9   32.40    8.63
 -17  -3  -9   36.58    7.41
 -17   3  -8    1.43    2.21
 -17   3  -8   -1.35    3.37
 -17  -3  -8    1.40    3.18
 -17   3  -7   48.62    9.90
 -17   3  -7   47.09   10.49
 -17  -3  -7   37.12    7.97
 -17   3  -6    5.43    2.44
 -17  -3  -6    3.86    3.02
 -17   3  -5   96.85   13.44
 -17  -3  -5  107.45   15.90
 -17   3  -5   82.28   12.46
 -17  -3  -5   89.20   12.38
 -17   3  -4  120.01   15.87
 -17  -3  -4   96.55   13.50
 -17   3  -4  123.78   14.95
 -17  -3  -4  140.61   15.69
 -17   3  -3   12.02    4.03
 -17   3  -3   15.14    6.31
 -17  -3  -3   24.53    7.54
 -17  -3  -3   25.55    5.25
 -17   3  -2  152.04   17.03
 -17  -3  -2  157.40   16.98
 -17   3  -2  144.05   16.44
 -17  -3  -2  151.37   15.92
 -17   3  -1  239.16   21.31
 -17  -3  -1  180.37   19.35
 -17   3  -1  204.15   19.84
 -17  -3  -1  189.76   17.65
 -17  -3   0    1.02    3.57
 -17  -3   0    3.47    4.97
 -17   3   0    6.42    4.51
 -17   3   0    9.66    6.02
 -17  -3   0    6.61    4.39
 -17   3   1  189.57   19.50
 -17  -3   1  208.99   19.58
 -17   3   1  199.38   19.40
 -17  -3   1  224.40   21.35
 -17  -3   1  200.06   18.04
 -17   3   2  158.63   17.42
 -17  -3   2  165.40   17.11
 -17   3   2  132.24   15.21
 -17  -3   2  147.72   16.71
 -17  -3   2  141.53   15.36
 -17  -3   3   13.72    4.80
 -17  -3   3   15.59    4.76
 -17   3   3   26.81    7.61
 -17   3   3   23.37    6.97
 -17  -3   3   14.86    3.77
 -17   3   4  110.18   14.88
 -17  -3   4  102.68   13.31
 -17   3   4  117.79   15.31
 -17  -3   4  126.12   15.77
 -17  -3   4  120.62   14.54
 -17   3   5   70.34   12.06
 -17  -3   5  108.62   14.24
 -17   3   5   81.75   12.93
 -17  -3   5   81.28   11.84
 -17  -3   6   12.10    4.88
 -17  -3   6    4.88    3.12
 -17   3   6    7.91    3.07
 -17   3   6    8.12    5.19
 -17  -3   7   42.49    8.13
 -17  -3   7   40.83    8.96
 -17   3   7   35.04    8.48
 -17   3   7   47.71    9.30
 -17  -3   8    6.75    2.45
 -17  -3   8    3.85    2.66
 -17   3   8    1.02    3.79
 -17   3   8    1.92    2.02
 -17  -3   9   34.44    8.49
 -17  -3   9   51.39    9.20
 -17   3   9   45.06    9.34
 -17   3   9   60.03   10.89
 -17   3  10   71.19   11.84
 -17   3  10   96.76   13.92
 -17  -3  10   70.52   11.61
 -17  -3  10   92.86   12.50
 -17  -3  11   11.90    4.63
 -17   3  11   11.62    5.41
 -17   3  11   10.60    2.32
 -17  -3  12   10.05    4.33
 -17   3  12   12.25    5.44
 -17   3  12   14.61    6.04
 -17  -3  13   38.52    8.37
 -17   3  13   49.58   11.15
 -17   3  13   30.04    6.76
 -17  -3  14   20.05    7.15
 -17   3  14   23.09    6.69
 -17   3  14   16.31    5.72
 -17  -3  15   49.81   10.75
 -17   3  15   31.17    8.61
 -17   4 -14   71.76   12.19
 -17  -4 -14   64.07   10.79
 -17   4 -13   68.43   11.53
 -17  -4 -13   57.40   10.18
 -17   4 -13   64.00   13.20
 -17   4 -12   15.81    6.69
 -17   4 -12   19.73    7.06
 -17  -4 -12   13.74    6.58
 -17   4 -11   19.76    8.37
 -17   4 -11   30.77    8.96
 -17  -4 -11   17.60    5.69
 -17   4 -10   16.30    6.24
 -17   4 -10   10.78    6.13
 -17  -4 -10   20.41    6.77
 -17   4  -9    5.89    6.01
 -17   4  -9    4.87    3.58
 -17  -4  -9   13.47    5.87
 -17   4  -8    6.79    4.39
 -17   4  -8    7.81    5.16
 -17  -4  -8   10.94    5.88
 -17  -4  -7    0.29    2.45
 -17   4  -7    1.16    3.25
 -17   4  -7    1.93    3.29
 -17   4  -6   34.92    8.95
 -17   4  -6   38.07    8.82
 -17  -4  -6   39.69    9.38
 -17   4  -5   61.27   11.33
 -17   4  -5   50.58    9.99
 -17  -4  -5   63.24   10.56
 -17  -4  -4   19.62    5.87
 -17   4  -4   11.58    6.24
 -17   4  -4    3.89    4.76
 -17  -4  -3   14.53    6.49
 -17  -4  -3   10.27    6.04
 -17   4  -3   12.93    4.98
 -17   4  -3   27.31    8.48
 -17  -4  -2   19.45    6.20
 -17  -4  -2   39.56    8.94
 -17   4  -2   40.40    9.36
 -17   4  -2   25.31    7.51
 -17  -4  -1   39.59    9.59
 -17  -4  -1   32.29    8.67
 -17   4  -1   31.38    7.53
 -17   4  -1   52.60    9.83
 -17  -4   0   16.26    5.03
 -17  -4   0   29.29    7.47
 -17   4   0   34.91    9.06
 -17   4   0   25.64    6.86
 -17  -4   1   27.23    8.55
 -17   4   1   38.99    8.58
 -17   4   1   43.62    9.45
 -17  -4   1   54.82   10.27
 -17  -4   2   53.56    9.89
 -17  -4   2   40.73    9.29
 -17   4   2   22.51    7.12
 -17   4   2   37.38    8.62
 -17  -4   3   20.96    6.18
 -17  -4   3   13.23    6.07
 -17   4   3   22.31    7.19
 -17   4   3   14.83    6.69
 -17  -4   4    4.13    2.47
 -17  -4   4   10.34    4.56
 -17   4   4   10.78    6.39
 -17   4   4    9.01    4.70
 -17  -4   5   56.78    9.70
 -17   4   5   42.29    9.38
 -17   4   5   78.80   12.29
 -17  -4   5   59.47   10.70
 -17  -4   6   45.62    9.29
 -17  -4   6   26.76    7.61
 -17   4   6   28.13    7.72
 -17   4   6   28.51    7.17
 -17  -4   7    7.78    4.36
 -17  -4   7    7.97    6.24
 -17   4   7    3.24    4.18
 -17   4   7    1.38    2.53
 -17  -4   8   19.32    6.45
 -17  -4   8    9.10    5.29
 -17   4   8   14.49    6.63
 -17   4   8   15.80    5.75
 -17  -4   9    3.27    4.09
 -17  -4   9   12.78    6.04
 -17   4   9    2.52    3.35
 -17   4   9    1.97    2.74
 -17  -4  10    5.09    4.52
 -17  -4  10   14.94    6.78
 -17   4  10   19.68    6.97
 -17   4  10    9.09    4.58
 -17  -4  11   18.38    6.93
 -17   4  11   11.15    7.61
 -17   4  11   24.63    8.48
 -17  -4  12   16.82    6.67
 -17   4  12   16.36    4.84
 -17   4  12   14.36    5.74
 -17   4  13   55.50   11.45
 -17   4  13   64.59   11.55
 -17  -4  13   75.21   11.88
 -17   4  14   75.08   12.77
 -17   4  14   77.81   12.34
 -17  -4  14   65.81   11.53
 -17   5 -11   38.40    8.35
 -17  -5 -11   33.82    7.62
 -17   5 -10  111.24   15.14
 -17  -5 -10   96.87   13.40
 -17   5 -10   74.06   14.62
 -17  -5  -9   25.70    7.03
 -17   5  -9   28.61    8.63
 -17   5  -9   25.44    8.00
 -17  -5  -8    9.63    5.44
 -17   5  -8   14.65    6.09
 -17   5  -8   13.24    4.05
 -17   5  -7   92.34   14.04
 -17   5  -7   62.72   10.28
 -17  -5  -7   84.67   12.34
 -17   5  -6   96.24   14.95
 -17   5  -6   94.71   13.65
 -17  -5  -6  117.64   14.65
 -17  -5  -5   24.22    6.78
 -17   5  -5   22.81    7.50
 -17   5  -5   27.69    8.91
 -17  -5  -4   16.55    6.19
 -17   5  -4   10.11    6.28
 -17   5  -4   17.91    5.52
 -17  -5  -3   38.73    7.75
 -17   5  -3   24.73    7.47
 -17   5  -3   30.52    7.86
 -17  -5  -2   17.41    7.13
 -17  -5  -2   18.19    6.32
 -17   5  -2   17.14    6.81
 -17   5  -2   34.12    8.12
 -17  -5  -1   45.64    9.03
 -17  -5  -1   21.21    5.90
 -17   5  -1   39.65    9.72
 -17   5  -1   38.50    9.29
 -17  -5   0   32.00    8.71
 -17   5   0   41.85   10.19
 -17   5   0   54.90   11.17
 -17  -5   0   58.54   10.64
 -17  -5   1   32.07    8.41
 -17  -5   1   50.91   10.55
 -17   5   1   43.21    9.95
 -17   5   1   45.29   10.00
 -17  -5   2   17.00    5.89
 -17  -5   2   16.62    6.38
 -17   5   2   16.08    5.81
 -17   5   2   13.53    5.61
 -17  -5   3   19.42    6.55
 -17  -5   3   37.02    7.58
 -17   5   3   16.93    6.82
 -17   5   3   20.87    7.42
 -17  -5   4   16.81    4.84
 -17  -5   4   29.90    8.18
 -17   5   4   25.62    7.75
 -17   5   4   14.60    6.24
 -17  -5   5   25.68    6.39
 -17  -5   5   23.77    7.04
 -17   5   5   33.69    8.29
 -17   5   5   26.07    8.60
 -17   5   6   92.68   13.01
 -17   5   6  124.71   15.78
 -17  -5   6  104.80   14.01
 -17  -5   6   86.47   12.94
 -17   5   7  107.81   15.25
 -17   5   7   85.23   13.35
 -17  -5   7   80.01   12.31
 -17  -5   7   80.26   12.10
 -17  -5   8   14.48    6.62
 -17  -5   8   17.31    5.71
 -17   5   8    8.49    3.46
 -17   5   8   11.60    5.39
 -17  -5   9   23.91    7.10
 -17  -5   9   23.78    7.18
 -17   5   9   20.60    6.40
 -17   5   9   30.74    8.26
 -17   5  10  104.62   15.36
 -17   5  10   70.49   12.19
 -17  -5  10   83.79   13.02
 -17  -5  10   97.34   14.03
 -17  -5  11   18.64    3.53
 -17  -5  11   22.88    6.57
 -17   5  11   28.43    7.82
 -17   5  11   26.88    8.66
 -17  -6  -7   14.59    5.84
 -17   6  -7    3.99    5.37
 -17   6  -7   13.68    5.18
 -17  -6  -6   16.02    5.76
 -17   6  -6   14.38    6.78
 -17   6  -6   27.49    7.50
 -17  -6  -5    9.38    3.66
 -17   6  -5    4.54    2.77
 -17   6  -5   12.16    6.57
 -17  -6  -4   17.79    6.90
 -17   6  -4    9.51    3.87
 -17   6  -4   10.10    5.50
 -17  -6  -3   21.72    6.44
 -17   6  -3   18.76    6.26
 -17   6  -3   22.00    7.36
 -17  -6  -2   10.76    4.85
 -17   6  -2    6.25    5.37
 -17   6  -2    6.66    6.68
 -17  -6  -1    8.72    6.88
 -17   6  -1    3.07    5.45
 -17   6  -1   -4.21    3.92
 -17  -6   0    8.35    5.42
 -17   6   0    7.69    5.19
 -17  -6   0    0.03    2.64
 -17   6   0   -2.60    4.19
 -17  -6   1   -1.39    3.38
 -17   6   1    2.19    4.18
 -17  -6   1    1.72    3.73
 -17   6   1    0.91    2.62
 -17  -6   2    6.82    3.87
 -17   6   2    9.16    4.79
 -17  -6   2    6.00    5.41
 -17   6   2    5.55    3.83
 -17  -6   3   24.66    5.75
 -17   6   3   26.88    7.45
 -17  -6   3   32.03    7.87
 -17   6   3   30.35    8.19
 -17  -6   4   13.12    5.24
 -17   6   4   17.17    6.93
 -17  -6   4   10.58    5.83
 -17   6   4    3.13    3.88
 -17  -6   5   12.40    4.66
 -17   6   5   10.04    4.97
 -17  -6   5    9.62    5.43
 -17   6   5   16.73    7.09
 -17  -6   6   18.63    7.21
 -17   6   6   21.56    7.46
 -17  -6   6   13.98    5.43
 -17   6   6   13.55    6.79
 -17   6   7    3.37    5.07
 -17  -6   7    6.64    4.85
 -17   6   7   11.68    4.73
 -18   0 -14   10.11    4.54
 -18   0 -13   96.80   14.25
 -18   0 -12  104.24   14.95
 -18   0 -11  579.40   33.89
 -18   0 -10  136.22   16.26
 -18   0  -9  133.52   16.10
 -18   0  -8   35.57   11.63
 -18   0  -8   31.81    8.46
 -18   0  -7   29.32    9.30
 -18   0  -7   29.24    7.53
 -18   0  -6   10.31    5.97
 -18   0  -6    8.78    5.31
 -18   0  -5  269.68   23.29
 -18   0  -5  203.35   20.06
 -18   0  -4  345.33   26.78
 -18   0  -4  321.54   24.98
 -18   0  -3  219.01   21.22
 -18   0  -3  195.11   19.44
 -18   0  -2   79.23   12.49
 -18   0  -2   69.15   10.84
 -18   0  -1   69.06   11.89
 -18   0  -1   92.31   13.29
 -18   0   0  124.88   15.45
 -18   0   0  120.99   14.90
 -18   0   1   64.99   11.38
 -18   0   1   56.70   11.40
 -18   0   2   83.39   12.37
 -18   0   2   70.82   11.72
 -18   0   3  219.71   20.65
 -18   0   3  219.91   20.69
 -18   0   4  314.21   24.56
 -18   0   4  329.72   24.59
 -18   0   5  192.08   19.43
 -18   0   5  213.80   19.93
 -18   0   6   21.46    5.88
 -18   0   6   13.75    5.55
 -18   0   7   33.04    8.58
 -18   0   7   37.08    8.74
 -18   0   8   32.63    8.34
 -18   0   8   46.99    9.83
 -18   0   9  127.63   16.10
 -18   0  10  130.62   16.81
 -18   0  11  588.25   33.95
 -18   0  12  135.81   17.02
 -18   0  13  112.36   15.28
 -18   0  14   18.41    7.46
 -18   0  15  879.56   42.67
 -18   1 -15   81.53   13.52
 -18   1 -14   -5.82    4.55
 -18   1 -13    8.14    5.96
 -18   1 -12    5.58    3.70
 -18   1 -11    5.72    4.07
 -18   1 -10   83.56   12.70
 -18  -1 -10   26.23    7.20
 -18   1  -9    2.77    2.92
 -18   1  -9   14.78    6.93
 -18  -1  -9    4.30    5.35
 -18   1  -8    9.85    5.25
 -18   1  -8    8.05    3.48
 -18  -1  -8    2.30    3.60
 -18   1  -7    6.80    2.87
 -18  -1  -7   11.21    7.05
 -18   1  -7    9.21    4.46
 -18  -1  -7   14.05    6.54
 -18   1  -6   54.62   11.24
 -18  -1  -6   63.75   10.94
 -18   1  -6   68.30   11.12
 -18  -1  -6   53.99   12.18
 -18   1  -5   -0.58    4.11
 -18  -1  -5    2.77    2.33
 -18   1  -5    2.49    4.22
 -18  -1  -5   -1.18    2.18
 -18   1  -4    5.14    3.82
 -18  -1  -4    2.52    4.91
 -18   1  -4   -3.04    2.88
 -18  -1  -4    3.12    2.58
 -18   1  -3    5.45    3.87
 -18  -1  -3   -2.07    5.33
 -18   1  -3    0.07    3.71
 -18  -1  -3   -1.37    3.14
 -18   1  -2   -1.06    3.06
 -18  -1  -2    5.06    5.75
 -18   1  -2    1.04    5.03
 -18  -1  -2   -0.76    3.08
 -18   1  -1    9.57    4.93
 -18  -1  -1    8.75    4.35
 -18   1  -1    4.26    2.63
 -18  -1  -1    7.50    4.63
 -18  -1  -1    6.08    4.05
 -18   1   0    7.56    3.81
 -18  -1   0   17.36    6.32
 -18   1   0   10.26    5.03
 -18  -1   0    9.19    6.01
 -18  -1   0    4.08    4.10
 -18   1   1   12.10    4.38
 -18  -1   1   11.64    5.89
 -18   1   1    8.79    3.97
 -18  -1   1    6.62    6.43
 -18  -1   1    5.75    2.29
 -18   1   2   -0.95    3.47
 -18  -1   2    1.29    5.00
 -18   1   2    3.08    4.08
 -18  -1   2   -0.14    3.37
 -18  -1   2    1.20    2.90
 -18   1   3    0.02    2.28
 -18   1   3    2.66    3.54
 -18  -1   3    1.77    1.85
 -18  -1   3    1.14    3.41
 -18  -1   3   -1.59    3.85
 -18   1   4   -1.40    2.46
 -18   1   4    0.78    2.60
 -18  -1   4   -1.42    4.14
 -18  -1   4    1.41    2.28
 -18  -1   4   -0.76    4.02
 -18   1   5    0.73    4.66
 -18   1   5    1.03    4.15
 -18  -1   5   -0.11    3.61
 -18  -1   5   -0.65    2.67
 -18  -1   5   -0.98    4.04
 -18  -1   6   66.86   11.99
 -18   1   6   50.06    9.46
 -18   1   6   75.35   11.82
 -18  -1   6   77.28   12.17
 -18  -1   6   75.79   11.58
 -18   1   7   16.69    6.88
 -18   1   7    5.90    5.06
 -18  -1   7   13.72    4.98
 -18  -1   7   16.08    6.68
 -18   1   8    1.23    2.34
 -18   1   8    6.46    3.91
 -18  -1   8   -0.89    3.68
 -18   1   9    6.58    3.45
 -18   1   9   13.17    5.62
 -18  -1   9   18.01    7.13
 -18   1  10   74.58   12.14
 -18  -1  10   58.42   11.34
 -18   1  10   66.59   10.92
 -18   1  11    9.64    5.66
 -18  -1  11   19.54    6.99
 -18   1  12   -2.28    3.26
 -18  -1  12    2.53    2.56
 -18   1  13   10.52    5.42
 -18  -1  13    5.23    2.95
 -18   1  14    0.85    2.88
 -18  -1  14   -0.29    4.13
 -18  -1  15   66.01   12.16
 -18   1  15   40.24    8.93
 -18   2 -14   25.43    7.46
 -18   2 -13   23.34    7.68
 -18   2 -12    5.53    3.58
 -18   2 -11   50.15   10.97
 -18   2 -10  105.49   14.98
 -18   2 -10  110.02   14.39
 -18  -2 -10  112.57   14.40
 -18   2  -9   -1.16    3.08
 -18   2  -9    2.30    3.56
 -18  -2  -9    2.18    1.86
 -18   2  -8   -0.42    2.26
 -18  -2  -8    0.57    3.75
 -18   2  -7    5.07    3.64
 -18   2  -7    2.53    2.58
 -18  -2  -7    0.87    3.51
 -18   2  -6   73.90   12.75
 -18   2  -6   69.98   12.28
 -18  -2  -6   90.89   12.20
 -18   2  -5  109.08   15.47
 -18  -2  -5   94.08   14.19
 -18   2  -5   90.85   12.98
 -18  -2  -5   90.88   12.54
 -18   2  -4  119.86   15.83
 -18  -2  -4  132.72   15.81
 -18   2  -4  101.02   14.37
 -18  -2  -4   90.86   14.14
 -18  -2  -4   99.88   12.43
 -18   2  -3    8.35    5.83
 -18   2  -3    9.22    3.15
 -18  -2  -3   25.71    7.81
 -18  -2  -3   15.13    7.93
 -18  -2  -3   10.58    4.64
 -18   2  -2   44.09    9.97
 -18   2  -2   33.72    8.37
 -18  -2  -2   57.23   10.45
 -18  -2  -2   54.86   10.94
 -18  -2  -2   51.96    8.94
 -18   2  -1  118.06   15.62
 -18  -2  -1  120.24   15.36
 -18   2  -1  135.01   16.30
 -18  -2  -1  108.97   14.98
 -18  -2  -1  118.31   14.20
 -18   2   0  200.48   19.82
 -18  -2   0  178.51   19.09
 -18   2   0  195.71   19.46
 -18  -2   0  181.79   19.21
 -18  -2   0  171.47   16.85
 -18   2   1  130.34   16.45
 -18  -2   1  134.37   15.66
 -18   2   1  135.22   15.93
 -18  -2   1  125.36   15.36
 -18  -2   1  132.71   14.69
 -18   2   2   54.24   10.60
 -18  -2   2   56.96   11.05
 -18   2   2   54.70   11.16
 -18  -2   2   48.30   10.12
 -18  -2   2   43.19    9.09
 -18   2   3   11.01    6.08
 -18   2   3   28.47    6.67
 -18  -2   3   24.57    7.03
 -18  -2   3   24.22    7.68
 -18  -2   3   10.13    4.05
 -18   2   4  116.78   15.66
 -18  -2   4   92.67   13.97
 -18   2   4  120.12   15.66
 -18  -2   4  109.90   14.97
 -18  -2   4  104.98   13.57
 -18   2   5  107.16   14.60
 -18  -2   5  124.64   15.76
 -18   2   5   79.24   11.97
 -18  -2   5   83.51   13.61
 -18  -2   5   93.04   13.09
 -18   2   6   83.87   12.68
 -18  -2   6   99.99   14.70
 -18   2   6   71.54   11.54
 -18  -2   6   79.90   12.40
 -18  -2   6   48.82    9.47
 -18  -2   7   15.25    5.95
 -18   2   7    6.97    4.44
 -18   2   7    7.92    4.92
 -18  -2   7    3.47    3.01
 -18  -2   8    2.39    4.92
 -18   2   8    3.84    3.48
 -18   2   8    3.92    4.69
 -18  -2   8   -2.39    2.80
 -18  -2   9    0.56    2.59
 -18   2   9    0.89    4.75
 -18   2   9   -0.35    2.71
 -18  -2   9   -1.26    5.69
 -18   2  10  152.23   18.07
 -18  -2  10  119.95   15.46
 -18   2  10  116.60   14.68
 -18   2  11   77.26   13.40
 -18  -2  11   62.54   11.02
 -18   2  11   65.62   11.69
 -18  -2  12   25.36    7.32
 -18   2  12   18.50    6.98
 -18   2  12    5.29    3.18
 -18  -2  13   33.83    8.24
 -18   2  13   31.63    8.15
 -18   2  13   27.87    7.92
 -18  -2  14   36.01    9.43
 -18   2  14   13.24    6.02
 -18   3 -12   35.48    8.06
 -18  -3 -12   50.88    9.61
 -18   3 -11    0.59    3.31
 -18   3 -11    1.90    5.49
 -18  -3 -11   -2.18    4.65
 -18   3 -10    9.37    5.01
 -18   3 -10   12.24    4.07
 -18  -3 -10   12.84    5.88
 -18   3  -9    7.46    5.16
 -18   3  -9    6.40    6.01
 -18  -3  -9    0.52    2.02
 -18   3  -8   -0.75    4.08
 -18   3  -8   -1.97    3.99
 -18  -3  -8   -0.25    3.79
 -18   3  -7   10.83    4.51
 -18   3  -7   21.53    5.99
 -18  -3  -7   10.59    4.33
 -18   3  -6  113.03   15.24
 -18   3  -6  113.43   14.31
 -18  -3  -6  119.49   14.83
 -18   3  -5   -5.03    4.13
 -18   3  -5   11.37    7.13
 -18  -3  -5    6.42    3.62
 -18   3  -4   40.83    9.15
 -18   3  -4   55.67   10.33
 -18  -3  -4   22.08    6.61
 -18  -3  -4   36.96    8.61
 -18   3  -3   -1.53    2.51
 -18   3  -3   -2.00    4.85
 -18  -3  -3   -0.09    2.88
 -18  -3  -3   -2.98    4.56
 -18   3  -2    9.93    4.27
 -18   3  -2    1.56    2.60
 -18  -3  -2    6.07    3.40
 -18  -3  -2    2.40    3.21
 -18   3  -1    2.27    2.13
 -18   3  -1    0.60    2.99
 -18  -3  -1    4.97    5.53
 -18  -3  -1    2.16    3.74
 -18   3   0   12.93    4.03
 -18   3   0   20.22    7.59
 -18  -3   0   13.32    3.29
 -18  -3   0   29.05    7.11
 -18  -3   1    0.25    4.87
 -18   3   1    5.70    4.87
 -18   3   1   -0.76    2.99
 -18  -3   1    4.74    4.52
 -18  -3   2    1.87    4.72
 -18   3   2   -0.41    3.14
 -18   3   2    0.10    3.88
 -18  -3   2   -0.14    5.43
 -18  -3   2    7.57    4.96
 -18  -3   3    0.38    2.54
 -18   3   3   -2.35    3.69
 -18   3   3   -0.45    3.97
 -18  -3   3    2.44    6.07
 -18  -3   3    5.57    2.80
 -18  -3   4   39.10    8.94
 -18   3   4   38.06    8.11
 -18   3   4   40.41    9.47
 -18  -3   4   42.65    9.24
 -18  -3   4   34.95    7.90
 -18  -3   5    5.51    4.60
 -18   3   5    2.09    2.16
 -18   3   5    1.90    3.98
 -18  -3   5    4.50    5.50
 -18  -3   5    5.92    5.06
 -18   3   6  104.89   14.50
 -18  -3   6  125.48   15.60
 -18   3   6  134.73   16.59
 -18  -3   6   99.02   13.28
 -18  -3   7   15.12    6.12
 -18   3   7   15.25    6.76
 -18   3   7   12.76    7.34
 -18  -3   7    5.34    3.10
 -18  -3   8   -2.33    4.06
 -18   3   8   -1.36    4.21
 -18   3   8   -0.40    3.33
 -18  -3   8   -4.77    2.95
 -18  -3   9    8.28    5.81
 -18   3   9    5.03    4.73
 -18   3   9    7.53    3.53
 -18  -3   9   10.66    5.22
 -18  -3  10   18.62    7.41
 -18   3  10   11.03    4.53
 -18   3  10   26.67    7.96
 -18  -3  11    0.96    3.57
 -18   3  11   -1.43    3.43
 -18   3  11    1.53    4.77
 -18  -3  12   43.25    9.56
 -18   3  12   47.54   10.65
 -18   3  12   65.32   11.81
 -18   4 -10  111.66   16.17
 -18   4 -10   85.91   12.64
 -18  -4 -10  112.63   13.80
 -18   4  -9   21.29    6.58
 -18   4  -9   19.90    6.89
 -18  -4  -9   11.43    4.16
 -18   4  -8    1.91    4.84
 -18   4  -8    3.84    2.27
 -18  -4  -8    2.79    2.30
 -18   4  -7   69.73   12.67
 -18   4  -7   87.81   13.19
 -18  -4  -7   96.09   13.92
 -18   4  -6  223.83   21.45
 -18   4  -6  257.30   22.46
 -18  -4  -6  241.73   20.21
 -18   4  -5   91.66   14.14
 -18   4  -5  100.12   14.29
 -18  -4  -5   98.55   13.28
 -18   4  -4    9.35    5.29
 -18   4  -4   11.07    4.59
 -18  -4  -4    4.39    2.91
 -18  -4  -3    4.95    4.13
 -18   4  -3    2.93    2.75
 -18   4  -3   -0.64    3.83
 -18  -4  -2    8.52    5.31
 -18  -4  -2   10.81    5.60
 -18   4  -2    5.52    4.28
 -18   4  -2    9.50    5.53
 -18   4  -1  134.18   16.58
 -18  -4  -1  108.74   15.29
 -18   4  -1   88.49   14.32
 -18  -4  -1  112.45   14.16
 -18   4   0  157.87   17.70
 -18  -4   0  200.76   19.90
 -18  -4   0  177.21   17.75
 -18   4   1  136.90   16.93
 -18  -4   1  135.65   15.84
 -18   4   1  138.20   16.51
 -18  -4   1  123.22   15.06
 -18  -4   2    8.26    4.43
 -18  -4   2   14.60    5.72
 -18   4   2    0.70    4.65
 -18   4   2   11.81    5.13
 -18  -4   3    1.47    2.33
 -18  -4   3    3.97    4.13
 -18   4   3    2.22    3.04
 -18   4   3   -2.23    2.39
 -18  -4   4    6.50    3.80
 -18  -4   4    7.70    3.80
 -18   4   4    6.20    3.21
 -18   4   4   14.71    6.39
 -18   4   5  131.15   16.85
 -18   4   5  106.02   14.73
 -18  -4   5  108.28   14.26
 -18  -4   5  115.98   14.58
 -18   4   6  232.17   21.69
 -18   4   6  235.58   21.73
 -18  -4   6  204.98   19.82
 -18  -4   6  259.39   22.15
 -18   4   7   99.94   15.00
 -18   4   7  109.35   15.03
 -18  -4   7   93.75   13.80
 -18  -4   7   89.58   13.15
 -18  -4   8    6.48    6.84
 -18  -4   8    6.49    4.63
 -18   4   8    2.44    3.81
 -18   4   8    5.53    3.44
 -18  -4   9   20.64    6.91
 -18  -4   9   22.19    6.97
 -18   4   9    9.82    5.58
 -18   4   9    7.84    5.73
 -18   4  10   78.05   13.52
 -18   4  10  122.72   16.18
 -18  -4  10  108.78   14.05
 -18  -4  10   93.56   13.74
 -18  -5  -7   -1.68    2.19
 -18   5  -7   -0.36    2.93
 -18   5  -7    2.21    4.46
 -18   5  -6    6.38    4.69
 -18   5  -6    4.24    4.46
 -18  -5  -5    0.95    4.95
 -18   5  -5    2.17    3.98
 -18   5  -5    0.92    4.70
 -18  -5  -4   21.64    7.07
 -18   5  -4   17.35    6.56
 -18   5  -4   22.39    8.35
 -18  -5  -3    3.78    3.29
 -18   5  -3    6.87    5.54
 -18   5  -3    0.26    4.02
 -18  -5  -2   13.63    7.07
 -18   5  -2    7.57    4.09
 -18   5  -2    1.69    2.63
 -18  -5  -1    9.03    5.19
 -18  -5  -1    0.21    4.86
 -18   5  -1    9.55    6.33
 -18   5  -1   -1.32    3.99
 -18  -5   0   -0.53    4.08
 -18  -5   0    3.47    5.18
 -18   5   0    1.75    3.32
 -18   5   0   -1.84    3.46
 -18  -5   1    8.54    2.66
 -18  -5   1    2.67    3.63
 -18   5   1    4.16    3.36
 -18   5   1    5.18    5.40
 -18  -5   2   17.07    5.89
 -18  -5   2    6.78    4.68
 -18   5   2   -0.53    4.00
 -18   5   2    2.97    4.93
 -18  -5   3    3.61    2.65
 -18  -5   3   -1.12    2.83
 -18   5   3    8.87    7.22
 -18   5   3    1.70    3.65
 -18  -5   4   26.00    8.16
 -18  -5   4   27.13    8.41
 -18   5   4   15.53    5.33
 -18   5   4   11.97    5.31
 -18  -5   5    3.52    3.88
 -18  -5   5   -0.38    4.31
 -18   5   5   -1.96    4.47
 -18   5   5    0.21    3.97
 -18  -5   6   10.53    6.42
 -18  -5   6   12.43    6.03
 -18   5   6    0.95    5.58
 -18   5   6   13.25    6.14
 -18  -5   7    0.54    4.28
 -18  -5   7    0.03    3.68
 -18   5   7   -0.38    3.19
 -18   5   7    2.37    4.43
 -19   0 -12   -6.60    5.41
 -19   0 -11    0.59    4.27
 -19   0 -10   -3.38    3.60
 -19   0  -9    3.59    5.23
 -19   0  -8    0.72    2.45
 -19   0  -7   -2.01    4.39
 -19   0  -7    0.78    3.05
 -19   0  -6    2.87    4.48
 -19   0  -6   -0.58    2.20
 -19   0  -5    0.95    3.06
 -19   0  -5   -4.30    4.38
 -19   0  -4   -3.00    4.82
 -19   0  -4    1.75    5.07
 -19   0  -3    2.63    5.32
 -19   0  -3    2.24    2.49
 -19   0  -2    5.58    4.15
 -19   0  -2    0.38    2.89
 -19   0  -1    2.40    4.34
 -19   0  -1    2.77    4.44
 -19   0   0   -1.57    1.87
 -19   0   0   -2.67    3.87
 -19   0   1   -1.81    3.18
 -19   0   1    0.12    5.70
 -19   0   2   -1.75    2.64
 -19   0   2   -0.81    2.36
 -19   0   3   -1.04    1.90
 -19   0   3   -1.53    3.74
 -19   0   4    1.47    4.47
 -19   0   4    0.85    3.52
 -19   0   5   -0.30    3.04
 -19   0   5    4.87    6.14
 -19   0   6    1.24    2.42
 -19   0   6   -1.48    3.56
 -19   0   7    4.47    5.75
 -19   0   7    1.57    2.92
 -19   0   8   -0.73    2.33
 -19   0   8   -2.92    2.54
 -19   0   9    4.82    4.80
 -19   0   9   -3.41    4.84
 -19   0  10    3.06    4.76
 -19   0  10   -2.53    5.43
 -19   0  11    3.20    3.71
 -19   0  12    1.66    4.60
 -19   1 -11   47.32    9.74
 -19   1 -10  184.46   18.94
 -19   1  -9   39.90    9.02
 -19   1  -8   12.69    6.65
 -19   1  -8   15.34    4.96
 -19   1  -7   33.44    8.43
 -19   1  -7   43.03   10.02
 -19  -1  -7   64.93   12.36
 -19   1  -6   99.60   14.38
 -19  -1  -6  107.30   16.62
 -19   1  -6  100.95   14.35
 -19  -1  -6   99.09   14.43
 -19   1  -5  102.80   14.70
 -19  -1  -5   59.97   11.37
 -19   1  -5   89.26   13.62
 -19  -1  -5  107.42   15.52
 -19   1  -4   45.33    9.38
 -19  -1  -4   56.51   11.28
 -19   1  -4   32.99    7.59
 -19  -1  -4   28.31    7.85
 -19   1  -3   31.30    8.47
 -19  -1  -3   23.48    7.26
 -19   1  -3   29.51    7.91
 -19  -1  -3   26.27    7.06
 -19   1  -2   98.92   13.90
 -19  -1  -2  100.63   14.90
 -19   1  -2   63.39   12.12
 -19  -1  -2   58.11   10.72
 -19   1  -1   98.99   14.21
 -19  -1  -1  101.79   14.54
 -19   1  -1   81.03   13.15
 -19  -1  -1   99.82   14.77
 -19   1   0   35.87    9.49
 -19  -1   0   33.74    8.63
 -19   1   0   51.37   10.72
 -19  -1   0   30.33    7.94
 -19   1   1  131.44   15.84
 -19  -1   1  126.97   16.49
 -19   1   1  128.22   15.44
 -19  -1   1  139.70   17.09
 -19   1   2   70.46   11.96
 -19  -1   2   81.00   13.18
 -19   1   2   72.27   12.53
 -19  -1   2   97.23   14.11
 -19   1   3   35.16    8.04
 -19  -1   3   22.18    7.06
 -19   1   3   27.76    8.09
 -19  -1   3   20.89    6.62
 -19   1   4   39.44   10.08
 -19  -1   4   43.72    9.65
 -19   1   4   41.47    9.68
 -19  -1   4   25.33    7.25
 -19   1   5  105.10   15.10
 -19  -1   5  104.68   14.39
 -19   1   5   92.42   13.12
 -19  -1   5   85.02   12.78
 -19   1   6   82.97   12.70
 -19  -1   6   89.81   13.32
 -19   1   6  103.26   14.41
 -19  -1   6   87.59   13.15
 -19   1   7   62.41   11.36
 -19   1   7   60.36   12.23
 -19  -1   7   29.11    8.67
 -19  -1   7   51.40    9.81
 -19   1   8   19.78    5.75
 -19   1   8   22.11    6.83
 -19  -1   8   15.52    5.81
 -19  -1   8   13.41    4.82
 -19   1   9   34.19    7.98
 -19   1   9   56.34   11.31
 -19  -1   9   40.49    8.65
 -19   1  10  165.42   18.81
 -19  -1  10  185.67   20.24
 -19   1  10  198.95   19.97
 -19  -1  11   71.50   12.25
 -19   1  11   53.06   10.49
 -19   1  11   71.96   12.23
 -19   2 -10    3.93    3.78
 -19   2  -9   -2.12    4.30
 -19   2  -9    8.07    4.16
 -19   2  -8    7.53    3.72
 -19   2  -8    6.03    4.52
 -19   2  -7    9.43    3.80
 -19   2  -7   22.55    6.66
 -19  -2  -7   22.76    5.25
 -19   2  -6   42.90   10.06
 -19   2  -6   45.73   10.19
 -19  -2  -6   64.32   10.62
 -19   2  -5   52.04    9.25
 -19   2  -5   57.12    9.53
 -19  -2  -5   31.39    8.55
 -19   2  -4   29.78    7.25
 -19  -2  -4   25.49    7.91
 -19   2  -4   31.39    8.97
 -19  -2  -4   35.28    8.29
 -19   2  -3   31.77    8.46
 -19  -2  -3   14.13    5.97
 -19   2  -3   23.91    9.15
 -19  -2  -3   27.57    8.82
 -19  -2  -3   22.62    7.25
 -19   2  -2    9.02    5.31
 -19  -2  -2    7.86    3.78
 -19   2  -2   -0.21    2.81
 -19  -2  -2    5.42    3.95
 -19  -2  -2   11.22    4.27
 -19   2  -1   16.84    6.99
 -19   2  -1   29.18    8.19
 -19  -2  -1    7.47    2.86
 -19  -2  -1   10.11    6.43
 -19  -2  -1   17.74    5.55
 -19   2   0    9.48    4.32
 -19   2   0   12.29    3.06
 -19  -2   0   14.01    6.41
 -19  -2   0    4.53    4.52
 -19  -2   0    4.87    2.61
 -19   2   1   18.57    6.87
 -19   2   1   29.46    8.26
 -19  -2   1   15.48    5.90
 -19  -2   1    5.91    2.61
 -19  -2   1   15.29    6.52
 -19   2   2    6.66    5.66
 -19   2   2   15.43    6.61
 -19  -2   2    6.04    2.78
 -19  -2   2    7.55    4.79
 -19  -2   2    9.71    3.92
 -19   2   3   18.86    7.39
 -19   2   3   14.25    6.36
 -19  -2   3   21.08    7.52
 -19  -2   3   10.21    4.19
 -19  -2   3   25.14    6.84
 -19   2   4   25.05    6.48
 -19   2   4   41.90    9.64
 -19  -2   4   35.12    8.48
 -19  -2   4   34.51    8.75
 -19  -2   4   25.31    6.86
 -19   2   5   36.85    8.46
 -19  -2   5   59.91   12.08
 -19   2   5   53.91   10.65
 -19  -2   5   51.25   10.84
 -19  -2   5   48.61    9.49
 -19   2   6   65.34   11.92
 -19   2   6   47.38    9.83
 -19  -2   6   48.22    9.82
 -19  -2   6   59.76   10.74
 -19  -2   6   46.51   10.09
 -19   2   7   15.24    6.01
 -19   2   7   19.66    5.50
 -19  -2   7   22.51    7.20
 -19  -2   7   19.75    6.82
 -19  -2   7   12.26    5.04
 -19   2   8    4.72    3.65
 -19   2   8    7.41    5.31
 -19  -2   8   -0.90    2.58
 -19  -2   8    0.41    3.99
 -19  -2   8    3.27    2.60
 -19   2   9    6.77    6.06
 -19   2   9    4.71    4.99
 -19  -2   9    8.53    4.87
 -19   2  10    0.21    4.58
 -19   2  10    6.36    4.04
 -19  -2  10    5.20    3.92
 -19   3  -9   21.62    8.38
 -19   3  -9   25.18    7.80
 -19  -3  -9   27.20    6.77
 -19   3  -8   49.16   10.76
 -19   3  -8   43.62    9.23
 -19  -3  -8   54.88   10.25
 -19   3  -7   14.29    6.97
 -19   3  -7   23.73    7.66
 -19  -3  -7   12.58    3.44
 -19   3  -6   11.07    5.91
 -19   3  -6   15.97    5.53
 -19  -3  -6   11.84    6.95
 -19   3  -5   36.34    9.22
 -19   3  -5   31.80    8.16
 -19  -3  -5   35.03    8.33
 -19   3  -4   19.86    6.28
 -19   3  -4   10.51    3.60
 -19  -3  -4   23.93    6.70
 -19   3  -3   16.84    6.13
 -19   3  -3   17.64    7.13
 -19  -3  -3   19.87    7.78
 -19  -3  -3   20.75    6.14
 -19   3  -2   22.37    7.48
 -19   3  -2   18.73    6.08
 -19  -3  -2   23.29    6.79
 -19  -3  -2   30.91    7.66
 -19   3  -1   26.74    7.82
 -19   3  -1   14.69    5.39
 -19  -3  -1   20.80    6.20
 -19  -3  -1   33.14    7.26
 -19   3   0   12.86    5.87
 -19   3   0    8.43    4.72
 -19  -3   0    8.44    5.70
 -19  -3   0    0.86    3.23
 -19   3   1   19.32    7.83
 -19   3   1   19.33    6.33
 -19  -3   1   20.85    6.87
 -19  -3   1   20.28    6.83
 -19   3   2   26.23    8.28
 -19   3   2   34.03    8.75
 -19  -3   2   22.59    7.16
 -19  -3   2   18.42    6.29
 -19   3   3   11.07    5.31
 -19   3   3    9.38    5.09
 -19  -3   3   23.31    6.94
 -19  -3   3    7.26    2.50
 -19  -3   4   34.33    9.64
 -19   3   4   13.74    5.70
 -19   3   4   25.31    6.95
 -19  -3   4   18.02    7.16
 -19  -3   4   32.81    8.25
 -19  -3   5   42.30    9.46
 -19   3   5   32.30    8.02
 -19   3   5   38.68   10.15
 -19  -3   5   31.49    8.42
 -19  -3   5   17.61    6.32
 -19  -3   6    4.87    3.73
 -19   3   6    9.06    4.96
 -19   3   6   10.16    4.11
 -19  -3   6   12.50    5.27
 -19  -3   6   13.77    5.84
 -19  -3   7    6.13    5.32
 -19   3   7   18.92    6.08
 -19   3   7   18.38    7.54
 -19  -3   7   19.86    7.14
 -19  -3   7   15.89    5.72
 -19  -3   8   50.63    9.59
 -19   3   8   48.60   10.45
 -19   3   8   40.92    9.52
 -19  -3   8   36.71    9.16
 -19  -3   9   26.20    6.88
 -19   3   9   23.32    8.57
 -19   3   9   25.81    6.55
 -19  -3   9   32.80    9.39
 -19   4  -5    2.73    2.41
 -19   4  -5   -0.36    4.11
 -19  -4  -5    2.70    3.98
 -19   4  -4   21.05    7.15
 -19   4  -4   28.49    7.36
 -19  -4  -4   17.90    5.90
 -19   4  -3   10.69    4.37
 -19   4  -3   13.98    4.88
 -19  -4  -3   17.78    6.64
 -19   4  -2   11.46    5.20
 -19   4  -2   40.36    8.79
 -19  -4  -2   37.46   11.34
 -19  -4  -2   14.01    4.70
 -19   4  -1    6.00    3.41
 -19   4  -1    7.62    4.65
 -19  -4  -1    6.37    4.84
 -19  -4  -1    4.78    2.08
 -19  -4   0   13.76    6.58
 -19   4   0   22.12    7.38
 -19   4   0   14.73    6.41
 -19  -4   0   14.54    6.35
 -19  -4   1    7.82    5.81
 -19   4   1   11.22    6.48
 -19   4   1   13.48    4.19
 -19  -4   1   13.94    5.97
 -19  -4   2   13.43    8.09
 -19   4   2   28.44    7.83
 -19   4   2   18.06    5.60
 -19  -4   2   25.56    7.31
 -19  -4   3    2.22    2.43
 -19  -4   3   26.60    7.52
 -19   4   3   16.11    6.51
 -19   4   3   17.65    7.57
 -19  -4   4   22.26    6.66
 -19  -4   4   10.57    5.53
 -19   4   4   38.76    9.64
 -19   4   4   31.97    8.80
 -19  -4   5    7.10    2.90
 -19  -4   5    2.06    2.33
 -19   4   5   10.15    6.22
 -19   4   5    4.09    5.41
 -20   0  -7   20.42    7.93
 -20   0  -6    9.96    5.24
 -20   0  -6    2.41    3.59
 -20   0  -5  201.40   21.99
 -20   0  -5  256.64   23.38
 -20   0  -4  392.19   29.89
 -20   0  -4  403.46   29.29
 -20   0  -3   19.60    7.23
 -20   0  -3   12.92    6.00
 -20   0  -2  576.03   35.14
 -20   0  -2  474.62   32.52
 -20   0  -1   93.78   14.21
 -20   0  -1   85.68   14.64
 -20   0   0   12.79    6.00
 -20   0   0   -2.38    2.84
 -20   0   1   91.24   15.28
 -20   0   1   99.44   13.97
 -20   0   2  496.50   32.37
 -20   0   2  520.97   33.34
 -20   0   3   34.74    8.48
 -20   0   3   26.38    8.05
 -20   0   4  478.61   31.13
 -20   0   4  411.41   29.07
 -20   0   5  205.41   21.02
 -20   0   5  243.76   22.29
 -20   0   6    5.50    2.20
 -20   0   6    2.68    6.16
 -20   0   7   42.01    9.87
 -20   0   7   26.95    7.03
 -20   1  -7    0.17    3.08
 -20   1  -7    3.63    2.59
 -20   1  -6   -0.76    3.50
 -20   1  -6    4.25    5.14
 -20  -1  -6    3.84    3.18
 -20   1  -5   11.43    5.78
 -20  -1  -5    6.03    4.00
 -20   1  -5    8.91    4.26
 -20  -1  -5   12.30    5.34
 -20   1  -4   -3.34    4.55
 -20  -1  -4   -1.22    3.20
 -20   1  -4   -1.41    3.80
 -20  -1  -4   -0.58    2.70
 -20   1  -3   44.53    9.99
 -20  -1  -3   53.64   11.59
 -20   1  -3   54.10   11.46
 -20  -1  -3   41.53   10.00
 -20   1  -2   12.64    6.86
 -20  -1  -2   14.46    6.43
 -20   1  -2   16.25    6.45
 -20  -1  -2   14.54    7.26
 -20   1  -1    5.84    5.89
 -20  -1  -1    8.87    3.96
 -20   1  -1    9.76    5.08
 -20  -1  -1   12.99    8.06
 -20   1   0    3.75    4.30
 -20  -1   0    3.14    3.50
 -20   1   0    0.75    3.04
 -20  -1   0   -1.70    3.25
 -20   1   1    9.55    4.66
 -20  -1   1   21.87    7.50
 -20   1   1    7.00    5.82
 -20  -1   1    4.65    5.25
 -20   1   2   15.88    7.83
 -20  -1   2   15.53    5.62
 -20   1   2   11.82    5.91
 -20  -1   2   18.13    5.89
 -20   1   3   45.62   10.29
 -20  -1   3   51.42   10.12
 -20   1   3   48.69   10.35
 -20  -1   3   52.84   10.11
 -20   1   4   -0.04    3.27
 -20  -1   4    3.14    3.55
 -20   1   4   -3.41    5.65
 -20  -1   4    0.58    4.55
 -20   1   5    5.01    3.01
 -20  -1   5   12.70    6.15
 -20   1   5    9.62    6.34
 -20  -1   5   12.45    5.33
 -20   1   6    3.91    3.02
 -20  -1   6    3.21    4.82
 -20   1   6   -3.70    4.56
 -20  -1   6    0.48    3.56
 -20   1   7    2.99    5.29
 -20  -1   7    4.34    5.17
 -20   1   7    2.12    2.31
 -20  -1   7    4.42    5.38
 -20   2  -5   13.58    6.14
 -20   2  -5   11.97    5.19
 -20   2  -4   54.18   11.04
 -20   2  -4   31.35    8.32
 -20  -2  -4   47.65    9.46
 -20   2  -3   37.77    9.12
 -20  -2  -3   23.45    7.13
 -20   2  -3   27.90    8.08
 -20  -2  -3   35.01    8.61
 -20   2  -2  193.50   20.73
 -20  -2  -2  167.10   18.91
 -20   2  -2  210.58   21.35
 -20  -2  -2  176.55   17.86
 -20   2  -1   23.18    7.20
 -20  -2  -1   27.87    7.57
 -20   2  -1   23.56    7.42
 -20  -2  -1   31.98   10.78
 -20  -2  -1   14.08    6.25
 -20   2   0   -0.86    2.64
 -20  -2   0   -0.16    3.25
 -20   2   0    5.72    3.73
 -20  -2   0   -2.65    5.66
 -20  -2   0    4.44    3.01
 -20   2   1   17.22    5.65
 -20  -2   1   11.21    5.17
 -20   2   1   27.23    8.55
 -20  -2   1   27.72    8.34
 -20  -2   1   28.27    6.55
 -20   2   2  221.95   21.62
 -20  -2   2  198.35   20.25
 -20   2   2  194.81   20.66
 -20  -2   2  186.97   20.33
 -20  -2   2  183.67   18.27
 -20   2   3   29.27    9.03
 -20   2   3   38.64    8.52
 -20  -2   3   47.18   10.67
 -20  -2   3   27.38    8.25
 -20  -2   3   35.86    9.40
 -20   2   4   51.43   10.98
 -20   2   4   35.65    7.48
 -20  -2   4   38.51    9.57
 -20  -2   4   43.11    9.44
 -20  -2   4   46.46   10.08
 -20   2   5   16.64    6.48
 -20   2   5   19.31    6.92
 -20  -2   5   14.19    6.93
 -20  -2   5    4.51    2.94
 -20  -2   5    5.84    3.45
   0   0   0    0.00    0.00
TITL 017_150K_SulfamerazineF1_ in Pna2(1)
REM Pna2(1) (#33, found as Pbn2(1) in ba-c setting)
CELL 0.68890  14.458818   8.180014  21.766425  90.0000  90.0000  90.0000
ZERR    8.00   0.000104   0.000069   0.000229   0.0000   0.0000   0.0000
LATT -1
SYMM -x,-y, z+1/2
SYMM  x+1/2,-y+1/2, z
SYMM -x+1/2, y+1/2, z+1/2
SFAC C H N O S
UNIT 88.00 96.00 32.00 16.00 8.00
TREF
HKLF 4
END
_computing_structure_solution     'SHELXT 2014/5 (Sheldrick, 2014)'
;
_shelx_hkl_checksum              18257
loop_
_space_group_symop_operation_xyz
'x, y, z'
'-x, -y, z+1/2'
'x+1/2, -y+1/2, z'
'-x+1/2, y+1/2, z+1/2'
loop_
_atom_site_label
_atom_site_type_symbol
_atom_site_fract_x
_atom_site_fract_y
_atom_site_fract_z
_atom_site_U_iso_or_equiv
_atom_site_adp_type
_atom_site_occupancy
_atom_site_site_symmetry_order
_atom_site_calc_flag
_atom_site_refinement_flags_posn
_atom_site_refinement_flags_adp
_atom_site_refinement_flags_occupancy
_atom_site_disorder_assembly
_atom_site_disorder_group
S1 S 0.64346(5) 0.49430(8) 0.34348(4) 0.01921(15) Uani 1 1 d . . . . .
S2 S 0.57819(5) 0.49858(8) 0.65339(4) 0.01881(15) Uani 1 1 d . . . . .
O1 O 0.68668(15) 0.3694(2) 0.30742(11) 0.0257(5) Uani 1 1 d . . . . .
O2 O 0.54584(14) 0.5217(3) 0.33694(12) 0.0252(5) Uani 1 1 d . . . . .
O3 O 0.67601(14) 0.4712(3) 0.65980(12) 0.0243(5) Uani 1 1 d . . . . .
O4 O 0.53582(15) 0.6254(2) 0.68902(11) 0.0248(5) Uani 1 1 d . . . . .
N1 N 0.8409(2) 1.1178(3) 0.31220(15) 0.0293(6) Uani 1 1 d . . . . .
N2 N 0.65294(18) 0.4465(3) 0.41700(14) 0.0220(5) Uani 1 1 d . . . . .
N3 N 0.81269(17) 0.4077(3) 0.41625(13) 0.0229(5) Uani 1 1 d . . . . .
N4 N 0.7275(2) 0.4326(4) 0.50974(14) 0.0337(7) Uani 1 1 d . . . . .
N5 N 0.3800(2) -0.1206(3) 0.69435(16) 0.0365(7) Uani 1 1 d . . . . .
H5A H 0.4070 -0.2122 0.6869 0.047 Uiso 1 1 calc R U . . .
H5B H 0.3238 -0.1194 0.7073 0.047 Uiso 1 1 calc R U . . .
N6 N 0.56844(18) 0.5423(3) 0.57970(13) 0.0237(5) Uani 1 1 d . . . . .
N7 N 0.40923(17) 0.5887(3) 0.58088(13) 0.0241(5) Uani 1 1 d . . . . .
N8 N 0.49457(19) 0.5657(4) 0.48726(14) 0.0328(7) Uani 1 1 d . . . . .
C1 C 0.70247(19) 0.6771(3) 0.33367(16) 0.0194(6) Uani 1 1 d . . . . .
C2 C 0.79235(19) 0.6785(3) 0.31012(15) 0.0197(6) Uani 1 1 d . . . . .
H2 H 0.8212 0.5809 0.2994 0.026 Uiso 1 1 calc R U . . .
C3 C 0.8382(2) 0.8249(3) 0.30283(16) 0.0199(6) Uani 1 1 d . . . . .
H3 H 0.8980 0.8257 0.2872 0.026 Uiso 1 1 calc R U . . .
C4 C 0.7953(2) 0.9733(3) 0.31888(14) 0.0209(6) Uani 1 1 d . . . . .
C5 C 0.7044(2) 0.9701(3) 0.34266(17) 0.0225(6) Uani 1 1 d . . . . .
H5 H 0.6751 1.0673 0.3533 0.029 Uiso 1 1 calc R U . . .
C6 C 0.65898(19) 0.8227(3) 0.35012(16) 0.0218(6) Uani 1 1 d . . . . .
H6 H 0.5993 0.8207 0.3661 0.028 Uiso 1 1 calc R U . . .
C7 C 0.7357(2) 0.4279(3) 0.44874(14) 0.0218(6) Uani 1 1 d . . . . .
C8 C 0.8063(3) 0.4093(6) 0.5409(2) 0.0462(11) Uani 1 1 d . . . . .
H8 H 0.8043 0.4088 0.5836 0.060 Uiso 1 1 calc R U . . .
C9 C 0.8902(2) 0.3861(6) 0.51203(19) 0.0420(9) Uani 1 1 d . . . . .
H9 H 0.9441 0.3699 0.5345 0.055 Uiso 1 1 calc R U . . .
C10 C 0.8914(2) 0.3877(4) 0.44863(17) 0.0291(7) Uani 1 1 d . . . . .
C11 C 0.9779(2) 0.3668(5) 0.41252(19) 0.0380(8) Uani 1 1 d . . . . .
H11A H 0.9790 0.2594 0.3947 0.049 Uiso 1 1 calc R U . . .
H11B H 1.0303 0.3801 0.4391 0.049 Uiso 1 1 calc R U . . .
H11C H 0.9801 0.4472 0.3805 0.049 Uiso 1 1 calc R U . . .
C12 C 0.51910(19) 0.3175(3) 0.66606(14) 0.0193(5) Uani 1 1 d . . . . .
C13 C 0.5639(2) 0.1694(3) 0.65521(19) 0.0246(6) Uani 1 1 d . . . . .
H13 H 0.6249 0.1690 0.6416 0.032 Uiso 1 1 calc R U . . .
C14 C 0.5181(2) 0.0237(3) 0.66452(17) 0.0279(7) Uani 1 1 d . . . . .
H14 H 0.5483 -0.0746 0.6568 0.036 Uiso 1 1 calc R U . . .
C15 C 0.4263(2) 0.0226(3) 0.68561(16) 0.0230(6) Uani 1 1 d . . . . .
C16 C 0.3817(2) 0.1728(3) 0.69646(15) 0.0216(6) Uani 1 1 d . . . . .
H16 H 0.3207 0.1739 0.7100 0.028 Uiso 1 1 calc R U . . .
C17 C 0.42805(19) 0.3191(4) 0.68714(16) 0.0203(6) Uani 1 1 d . . . . .
H17 H 0.3985 0.4179 0.6949 0.026 Uiso 1 1 calc R U . . .
C18 C 0.4863(2) 0.5669(3) 0.54854(15) 0.0216(6) Uani 1 1 d . . . . .
C19 C 0.4163(3) 0.5953(6) 0.4566(2) 0.0459(10) Uani 1 1 d . . . . .
H19 H 0.4182 0.5980 0.4139 0.060 Uiso 1 1 calc R U . . .
C20 C 0.3331(2) 0.6219(6) 0.4854(2) 0.0465(11) Uani 1 1 d . . . . .
H20 H 0.2798 0.6434 0.4629 0.060 Uiso 1 1 calc R U . . .
C21 C 0.3314(2) 0.6155(4) 0.54888(17) 0.0298(7) Uani 1 1 d . . . . .
C22 C 0.2448(2) 0.6377(5) 0.5857(2) 0.0412(9) Uani 1 1 d . . . . .
H22A H 0.2463 0.7419 0.6059 0.054 Uiso 1 1 calc R U . . .
H22B H 0.2404 0.5524 0.6159 0.054 Uiso 1 1 calc R U . . .
H22C H 0.1921 0.6328 0.5589 0.054 Uiso 1 1 calc R U . . .
H1N1 H 0.891(3) 1.119(5) 0.2924(19) 0.033(10) Uiso 1 1 d . . . . .
H2N1 H 0.810(3) 1.208(5) 0.3175(19) 0.042(11) Uiso 1 1 d . . . . .
H1N2 H 0.613(3) 0.476(4) 0.437(2) 0.027(10) Uiso 1 1 d . . . . .
H1N6 H 0.622(3) 0.504(5) 0.556(2) 0.049(14) Uiso 1 1 d . . . . .
loop_
_atom_site_aniso_label
_atom_site_aniso_U_11
_atom_site_aniso_U_22
_atom_site_aniso_U_33
_atom_site_aniso_U_23
_atom_site_aniso_U_13
_atom_site_aniso_U_12
S1 0.0185(3) 0.0203(3) 0.0189(4) 0.0016(3) -0.0008(3) -0.0011(2)
S2 0.0184(3) 0.0198(3) 0.0181(4) 0.0021(3) -0.0009(3) -0.0015(2)
O1 0.0316(11) 0.0205(9) 0.0250(12) -0.0039(8) -0.0001(10) -0.0009(8)
O2 0.0196(9) 0.0311(10) 0.0251(13) 0.0055(10) -0.0031(10) -0.0023(8)
O3 0.0178(9) 0.0317(11) 0.0234(12) 0.0038(10) -0.0035(9) -0.0024(8)
O4 0.0286(11) 0.0201(9) 0.0258(12) -0.0013(8) -0.0004(10) -0.0011(8)
N1 0.0273(13) 0.0213(12) 0.0391(18) -0.0050(11) 0.0111(13) -0.0032(10)
N2 0.0171(11) 0.0283(12) 0.0206(14) 0.0054(11) 0.0005(10) 0.0006(9)
N3 0.0185(11) 0.0250(12) 0.0252(14) 0.0015(10) 0.0004(10) 0.0010(9)
N4 0.0255(13) 0.0534(18) 0.0224(16) 0.0029(13) -0.0014(12) 0.0110(12)
N5 0.0316(14) 0.0207(11) 0.057(2) -0.0028(13) 0.0112(14) -0.0050(10)
N6 0.0185(11) 0.0323(13) 0.0202(14) 0.0066(11) 0.0008(10) 0.0010(10)
N7 0.0204(12) 0.0267(12) 0.0253(15) -0.0004(11) -0.0007(10) 0.0027(9)
N8 0.0235(12) 0.0529(18) 0.0221(16) 0.0025(13) -0.0013(12) 0.0086(12)
C1 0.0183(12) 0.0196(11) 0.0202(15) 0.0021(11) 0.0015(11) -0.0001(9)
C2 0.0208(12) 0.0202(12) 0.0181(15) 0.0004(10) -0.0014(11) 0.0024(9)
C3 0.0185(12) 0.0231(13) 0.0181(16) -0.0010(11) 0.0042(11) 0.0008(9)
C4 0.0222(13) 0.0227(12) 0.0178(15) -0.0024(10) -0.0008(11) -0.0015(10)
C5 0.0224(13) 0.0216(12) 0.0237(16) -0.0024(12) 0.0043(14) 0.0011(9)
C6 0.0188(12) 0.0230(12) 0.0237(17) 0.0004(11) 0.0049(12) 0.0022(9)
C7 0.0198(13) 0.0225(13) 0.0231(17) 0.0019(11) -0.0018(12) 0.0025(10)
C8 0.0352(19) 0.083(3) 0.0205(19) 0.0010(19) -0.0062(15) 0.0162(19)
C9 0.0231(15) 0.074(3) 0.029(2) -0.0041(19) -0.0086(15) 0.0135(16)
C10 0.0222(14) 0.0309(15) 0.034(2) -0.0027(14) -0.0012(14) 0.0049(12)
C11 0.0223(15) 0.048(2) 0.044(2) -0.0051(18) 0.0013(15) 0.0084(13)
C12 0.0192(11) 0.0202(11) 0.0185(15) 0.0007(10) -0.0002(11) 0.0000(9)
C13 0.0193(12) 0.0230(13) 0.0316(19) 0.0000(13) 0.0044(14) 0.0018(9)
C14 0.0275(14) 0.0183(12) 0.038(2) -0.0006(12) 0.0050(14) 0.0025(10)
C15 0.0242(14) 0.0206(12) 0.0244(17) 0.0000(11) 0.0006(12) -0.0016(10)
C16 0.0212(13) 0.0232(13) 0.0203(16) -0.0021(11) 0.0019(11) -0.0019(10)
C17 0.0207(13) 0.0211(12) 0.0191(16) -0.0016(11) 0.0007(12) 0.0017(10)
C18 0.0206(13) 0.0244(13) 0.0197(16) 0.0028(11) -0.0013(11) 0.0013(10)
C19 0.0313(19) 0.081(3) 0.026(2) -0.001(2) -0.0058(16) 0.0169(19)
C20 0.0266(16) 0.078(3) 0.035(2) -0.006(2) -0.0084(16) 0.0215(18)
C21 0.0208(14) 0.0340(16) 0.035(2) -0.0044(14) -0.0009(13) 0.0066(12)
C22 0.0231(15) 0.052(2) 0.049(2) -0.0043(19) 0.0041(16) 0.0075(15)
loop_
_atom_type_symbol
_atom_type_description
_atom_type_scat_dispersion_real
_atom_type_scat_dispersion_imag
_atom_type_scat_source
C C 0.0033 0.0016 'International Tables Vol C Tables 4.2.6.8 and 6.1.1.4'
H H 0.0000 0.0000 'International Tables Vol C Tables 4.2.6.8 and 6.1.1.4'
N N 0.0061 0.0033 'International Tables Vol C Tables 4.2.6.8 and 6.1.1.4'
O O 0.0106 0.0060 'International Tables Vol C Tables 4.2.6.8 and 6.1.1.4'
S S 0.1246 0.1234 'International Tables Vol C Tables 4.2.6.8 and 6.1.1.4'
loop_
_geom_angle_atom_site_label_1
_geom_angle_atom_site_label_2
_geom_angle_atom_site_label_3
_geom_angle
_geom_angle_site_symmetry_1
_geom_angle_site_symmetry_3
O1 S1 O2 119.07(14) . .
O1 S1 N2 109.01(15) . .
O2 S1 N2 102.39(14) . .
O1 S1 C1 109.44(15) . .
O2 S1 C1 109.66(13) . .
N2 S1 C1 106.40(15) . .
O4 S2 O3 118.72(14) . .
O4 S2 N6 109.45(14) . .
O3 S2 N6 102.24(14) . .
O4 S2 C12 108.80(14) . .
O3 S2 C12 109.65(13) . .
N6 S2 C12 107.34(15) . .
C4 N1 H1N1 119(3) . .
C4 N1 H2N1 118(3) . .
H1N1 N1 H2N1 120(4) . .
C7 N2 S1 125.3(2) . .
C7 N2 H1N2 114(3) . .
S1 N2 H1N2 114(3) . .
C7 N3 C10 116.4(3) . .
C7 N4 C8 115.1(3) . .
C15 N5 H5A 120.0 . .
C15 N5 H5B 120.0 . .
H5A N5 H5B 120.0 . .
C18 N6 S2 125.6(2) . .
C18 N6 H1N6 118(3) . .
S2 N6 H1N6 112(3) . .
C18 N7 C21 116.7(3) . .
C19 N8 C18 114.8(3) . .
C6 C1 C2 120.5(2) . .
C6 C1 S1 118.9(2) . .
C2 C1 S1 120.6(2) . .
C3 C2 C1 119.7(2) . .
C3 C2 H2 120.1 . .
C1 C2 H2 120.1 . .
C2 C3 C4 120.6(3) . .
C2 C3 H3 119.7 . .
C4 C3 H3 119.7 . .
N1 C4 C3 120.6(3) . .
N1 C4 C5 120.4(3) . .
C3 C4 C5 119.0(2) . .
C6 C5 C4 120.1(3) . .
C6 C5 H5 120.0 . .
C4 C5 H5 120.0 . .
C5 C6 C1 120.0(3) . .
C5 C6 H6 120.0 . .
C1 C6 H6 120.0 . .
N3 C7 N4 127.4(3) . .
N3 C7 N2 118.1(3) . .
N4 C7 N2 114.5(3) . .
N4 C8 C9 122.5(4) . .
N4 C8 H8 118.7 . .
C9 C8 H8 118.7 . .
C8 C9 C10 117.7(3) . .
C8 C9 H9 121.2 . .
C10 C9 H9 121.2 . .
N3 C10 C9 120.9(3) . .
N3 C10 C11 116.6(3) . .
C9 C10 C11 122.5(3) . .
C10 C11 H11A 109.5 . .
C10 C11 H11B 109.5 . .
H11A C11 H11B 109.5 . .
C10 C11 H11C 109.5 . .
H11A C11 H11C 109.5 . .
H11B C11 H11C 109.5 . .
C13 C12 C17 120.2(3) . .
C13 C12 S2 119.2(2) . .
C17 C12 S2 120.7(2) . .
C14 C13 C12 120.3(3) . .
C14 C13 H13 119.9 . .
C12 C13 H13 119.9 . .
C13 C14 C15 120.5(3) . .
C13 C14 H14 119.8 . .
C15 C14 H14 119.8 . .
N5 C15 C14 121.0(3) . .
N5 C15 C16 120.1(3) . .
C14 C15 C16 118.8(3) . .
C17 C16 C15 120.5(3) . .
C17 C16 H16 119.8 . .
C15 C16 H16 119.8 . .
C16 C17 C12 119.8(3) . .
C16 C17 H17 120.1 . .
C12 C17 H17 120.1 . .
N7 C18 N8 127.1(3) . .
N7 C18 N6 118.7(3) . .
N8 C18 N6 114.3(3) . .
N8 C19 C20 122.9(4) . .
N8 C19 H19 118.5 . .
C20 C19 H19 118.5 . .
C19 C20 C21 117.7(3) . .
C19 C20 H20 121.1 . .
C21 C20 H20 121.1 . .
N7 C21 C20 120.7(3) . .
N7 C21 C22 116.3(3) . .
C20 C21 C22 123.0(3) . .
C21 C22 H22A 109.5 . .
C21 C22 H22B 109.5 . .
H22A C22 H22B 109.5 . .
C21 C22 H22C 109.5 . .
H22A C22 H22C 109.5 . .
H22B C22 H22C 109.5 . .
loop_
_geom_bond_atom_site_label_1
_geom_bond_atom_site_label_2
_geom_bond_distance
_geom_bond_site_symmetry_2
S1 O1 1.432(2) .
S1 O2 1.436(2) .
S1 N2 1.653(3) .
S1 C1 1.735(3) .
S2 O4 1.433(2) .
S2 O3 1.439(2) .
S2 N6 1.649(3) .
S2 C12 1.732(3) .
N1 C4 1.362(4) .
N1 H1N1 0.85(4) .
N1 H2N1 0.87(4) .
N2 C7 1.390(4) .
N2 H1N2 0.76(4) .
N3 C7 1.329(4) .
N3 C10 1.348(4) .
N4 C7 1.334(4) .
N4 C8 1.339(5) .
N5 C15 1.362(4) .
N5 H5A 0.8600 .
N5 H5B 0.8600 .
N6 C18 1.382(4) .
N6 H1N6 0.97(5) .
N7 C18 1.330(4) .
N7 C21 1.341(4) .
N8 C19 1.336(4) .
N8 C18 1.339(4) .
C1 C6 1.394(4) .
C1 C2 1.397(4) .
C2 C3 1.378(4) .
C2 H2 0.9300 .
C3 C4 1.407(4) .
C3 H3 0.9300 .
C4 C5 1.412(4) .
C5 C6 1.383(4) .
C5 H5 0.9300 .
C6 H6 0.9300 .
C8 C9 1.380(5) .
C8 H8 0.9300 .
C9 C10 1.380(5) .
C9 H9 0.9300 .
C10 C11 1.487(5) .
C11 H11A 0.9600 .
C11 H11B 0.9600 .
C11 H11C 0.9600 .
C12 C13 1.393(4) .
C12 C17 1.394(4) .
C13 C14 1.378(4) .
C13 H13 0.9300 .
C14 C15 1.405(4) .
C14 H14 0.9300 .
C15 C16 1.408(4) .
C16 C17 1.386(4) .
C16 H16 0.9300 .
C17 H17 0.9300 .
C19 C20 1.372(5) .
C19 H19 0.9300 .
C20 C21 1.384(6) .
C20 H20 0.9300 .
C21 C22 1.498(5) .
C22 H22A 0.9600 .
C22 H22B 0.9600 .
C22 H22C 0.9600 .
loop_
_geom_hbond_atom_site_label_D
_geom_hbond_atom_site_label_H
_geom_hbond_atom_site_label_A
_geom_hbond_distance_DH
_geom_hbond_distance_HA
_geom_hbond_distance_DA
_geom_hbond_angle_DHA
_geom_hbond_site_symmetry_A
N5 H5A O4 0.86 2.29 3.067(4) 150.6 1_545
N1 H1N1 O4 0.85(4) 2.49(4) 3.220(4) 146(3) 4_654
N1 H2N1 O1 0.87(4) 2.23(4) 3.036(4) 154(4) 1_565
N2 H1N2 N8 0.76(4) 2.16(4) 2.921(4) 176(5) .
N6 H1N6 N4 0.97(5) 1.93(5) 2.900(4) 179(4) .
loop_
_geom_torsion_atom_site_label_1
_geom_torsion_atom_site_label_2
_geom_torsion_atom_site_label_3
_geom_torsion_atom_site_label_4
_geom_torsion
_geom_torsion_site_symmetry_1
_geom_torsion_site_symmetry_2
_geom_torsion_site_symmetry_3
_geom_torsion_site_symmetry_4
O1 S1 N2 C7 61.4(3) . . . .
O2 S1 N2 C7 -171.6(3) . . . .
C1 S1 N2 C7 -56.6(3) . . . .
O4 S2 N6 C18 -58.5(3) . . . .
O3 S2 N6 C18 174.8(3) . . . .
C12 S2 N6 C18 59.4(3) . . . .
O1 S1 C1 C6 162.3(3) . . . .
O2 S1 C1 C6 30.0(3) . . . .
N2 S1 C1 C6 -80.0(3) . . . .
O1 S1 C1 C2 -18.2(3) . . . .
O2 S1 C1 C2 -150.5(3) . . . .
N2 S1 C1 C2 99.5(3) . . . .
C6 C1 C2 C3 -0.3(5) . . . .
S1 C1 C2 C3 -179.8(3) . . . .
C1 C2 C3 C4 0.0(5) . . . .
C2 C3 C4 N1 179.4(3) . . . .
C2 C3 C4 C5 0.1(5) . . . .
N1 C4 C5 C6 -179.1(3) . . . .
C3 C4 C5 C6 0.2(5) . . . .
C4 C5 C6 C1 -0.6(5) . . . .
C2 C1 C6 C5 0.6(5) . . . .
S1 C1 C6 C5 -179.9(3) . . . .
C10 N3 C7 N4 0.8(5) . . . .
C10 N3 C7 N2 -179.1(3) . . . .
C8 N4 C7 N3 -2.0(5) . . . .
C8 N4 C7 N2 177.9(3) . . . .
S1 N2 C7 N3 -17.1(4) . . . .
S1 N2 C7 N4 163.0(2) . . . .
C7 N4 C8 C9 1.5(6) . . . .
N4 C8 C9 C10 0.1(7) . . . .
C7 N3 C10 C9 1.0(5) . . . .
C7 N3 C10 C11 -179.4(3) . . . .
C8 C9 C10 N3 -1.5(6) . . . .
C8 C9 C10 C11 179.0(4) . . . .
O4 S2 C12 C13 -157.3(3) . . . .
O3 S2 C12 C13 -26.0(3) . . . .
N6 S2 C12 C13 84.4(3) . . . .
O4 S2 C12 C17 22.4(3) . . . .
O3 S2 C12 C17 153.7(3) . . . .
N6 S2 C12 C17 -96.0(3) . . . .
C17 C12 C13 C14 0.8(5) . . . .
S2 C12 C13 C14 -179.5(3) . . . .
C12 C13 C14 C15 -0.6(6) . . . .
C13 C14 C15 N5 179.3(4) . . . .
C13 C14 C15 C16 0.6(5) . . . .
N5 C15 C16 C17 -179.4(3) . . . .
C14 C15 C16 C17 -0.7(5) . . . .
C15 C16 C17 C12 0.9(5) . . . .
C13 C12 C17 C16 -0.9(5) . . . .
S2 C12 C17 C16 179.4(2) . . . .
C21 N7 C18 N8 -1.4(5) . . . .
C21 N7 C18 N6 178.7(3) . . . .
C19 N8 C18 N7 2.4(5) . . . .
C19 N8 C18 N6 -177.7(3) . . . .
S2 N6 C18 N7 13.7(4) . . . .
S2 N6 C18 N8 -166.3(3) . . . .
C18 N8 C19 C20 -1.2(7) . . . .
N8 C19 C20 C21 -0.7(7) . . . .
C18 N7 C21 C20 -0.8(5) . . . .
C18 N7 C21 C22 179.2(3) . . . .
C19 C20 C21 N7 1.8(7) . . . .
C19 C20 C21 C22 -178.2(4) . . . .
