#------------------------------------------------------------------------------
#$Date: 2019-05-13 10:49:06 +0300 (Mon, 13 May 2019) $
#$Revision: 215051 $
#$URL: file:///home/coder/svn-repositories/cod/cif/1/54/74/1547432.cif $
#------------------------------------------------------------------------------
#
# This file is available in the Crystallography Open Database (COD),
# http://www.crystallography.net/
#
# All data on this site have been placed in the public domain by the
# contributors.
#
data_1547432
loop_
_publ_author_name
'Anuradha R. Pallipurath'
'Jonathan M. Skelton'
'Mark R. Warren'
'Naghmeh Kamali'
'Patrick McArdle'
'Andrea Erxleben'
_publ_section_title
;
 Sulfamerazine: Understanding the Influence of Slip Planes in the
 Polymorphic Phase Transformation through X-Ray Crystallographic Studies
 and ab Initio Lattice Dynamics
;
_journal_name_full               'Molecular Pharmaceutics'
_journal_page_first              3735
_journal_page_last               3748
_journal_paper_doi               10.1021/acs.molpharmaceut.5b00504
_journal_volume                  12
_journal_year                    2015
_chemical_formula_moiety         'C11 H12 N4 O2 S'
_chemical_formula_sum            'C11 H12 N4 O2 S'
_chemical_formula_weight         264.303
_chemical_name_common            Sulfamerazine
_chemical_name_systematic        4-amino-N-(4-methylpyrimidin-2-yl)
_space_group_crystal_system      orthorhombic
_space_group_IT_number           61
_space_group_name_Hall           '-P 2ac 2ab'
_space_group_name_H-M_alt        'P b c a'
_symmetry_space_group_name_Hall  '-P 2ac 2ab'
_symmetry_space_group_name_H-M   'P b c a'
_atom_sites_solution_hydrogens   mixed
_cell_angle_alpha                90
_cell_angle_beta                 90
_cell_angle_gamma                90
_cell_formula_units_Z            8
_cell_length_a                   9.0907(3)
_cell_length_b                   11.5779(4)
_cell_length_c                   22.8104(7)
_cell_measurement_reflns_used    6858
_cell_measurement_temperature    199.0(1)
_cell_measurement_theta_max      29.1960
_cell_measurement_theta_min      3.9020
_cell_volume                     2400.82(14)
_computing_cell_refinement
;
'Mon Dec 01 17:40:52 2014'
;
_computing_data_collection
;
'Mon Dec 01 17:40:52 2014'
;
_computing_data_reduction
;
'Mon Dec 01 17:40:52 2014'
;
_computing_molecular_graphics    OSCAIL
_computing_structure_refinement  'SHELXL-2014/7 (Sheldrick, 2014)'
_computing_structure_solution    SHELXT
_diffrn_ambient_temperature      199.0(1)
_diffrn_detector_area_resol_mean 16.1048
_diffrn_measured_fraction_theta_full 0.999
_diffrn_measured_fraction_theta_max 0.925
_diffrn_measurement_device_type  'Xcalibur, Sapphire3'
_diffrn_measurement_method       '\w scans'
_diffrn_radiation_type           MoK\a
_diffrn_radiation_wavelength     0.71073
_diffrn_reflns_av_R_equivalents  0.0256
_diffrn_reflns_av_unetI/netI     0.0194
_diffrn_reflns_Laue_measured_fraction_full 0.999
_diffrn_reflns_Laue_measured_fraction_max 0.925
_diffrn_reflns_limit_h_max       11
_diffrn_reflns_limit_h_min       -12
_diffrn_reflns_limit_k_max       14
_diffrn_reflns_limit_k_min       -15
_diffrn_reflns_limit_l_max       29
_diffrn_reflns_limit_l_min       -31
_diffrn_reflns_number            21745
_diffrn_reflns_point_group_measured_fraction_full 0.999
_diffrn_reflns_point_group_measured_fraction_max 0.925
_diffrn_reflns_theta_full        25.242
_diffrn_reflns_theta_max         29.250
_diffrn_reflns_theta_min         3.363
_diffrn_source                   'Enhance (Mo) X-ray Source'
_exptl_absorpt_coefficient_mu    0.270
_exptl_absorpt_correction_T_max  1.00000
_exptl_absorpt_correction_T_min  0.97965
_exptl_absorpt_correction_type   multi-scan
_exptl_absorpt_process_details
;
crysalispro, agilent technologies,
version 1.171.37.31 (release 14-01-2014 crysalis171 .net)
(compiled jan 14 2014,18:38:05)
empirical absorption correction using spherical harmonics,
 implemented in scale3 abspack scaling algorithm.
;
_exptl_crystal_colour            Colourless
_exptl_crystal_density_diffrn    1.462
_exptl_crystal_description       Parallelepiped
_exptl_crystal_F_000             1104
_exptl_crystal_size_max          0.50
_exptl_crystal_size_mid          0.40
_exptl_crystal_size_min          0.20
_refine_diff_density_max         0.353
_refine_diff_density_min         -0.392
_refine_diff_density_rms         0.048
_refine_ls_extinction_coef       .
_refine_ls_extinction_method     none
_refine_ls_goodness_of_fit_ref   1.029
_refine_ls_hydrogen_treatment    mixed
_refine_ls_matrix_type           full
_refine_ls_number_parameters     176
_refine_ls_number_reflns         3028
_refine_ls_number_restraints     0
_refine_ls_restrained_S_all      1.029
_refine_ls_R_factor_all          0.0465
_refine_ls_R_factor_gt           0.0373
_refine_ls_shift/su_max          0.000
_refine_ls_shift/su_mean         0.000
_refine_ls_structure_factor_coef Fsqd
_refine_ls_weighting_details
'w=1/[\s^2^(Fo^2^)+(0.0463P)^2^+1.4827P] where P=(Fo^2^+2Fc^2^)/3'
_refine_ls_weighting_scheme      calc
_refine_ls_wR_factor_gt          0.0954
_refine_ls_wR_factor_ref         0.1017
_reflns_Friedel_coverage         0.000
_reflns_Friedel_fraction_full    .
_reflns_Friedel_fraction_max     .
_reflns_number_gt                2567
_reflns_number_total             3028
_reflns_threshold_expression     'I > 2\s(I)'
_cod_data_source_file            Exp_Form-II2FInHouse_Form-II_200K.cif
_cod_data_source_block           smz_fiilt200_a
_cod_depositor_comments
;

2019-03-25
Changing wrong Z value
                 miguel
;
_cod_original_formula_units_Z            6
_cod_database_code               1547432
_shelx_space_group_comment
;
The symmetry employed for this shelxl refinement is uniquely defined
by the following loop, which should always be used as a source of
symmetry information in preference to the above space-group names.
They are only intended as comments.
;
_shelx_estimated_absorpt_t_min   0.877
_shelx_estimated_absorpt_t_max   0.948
_shelxl_version_number           2014/6
_shelx_res_file
;
TITL smz_fiilt200_a.res in Pbca
REM Old TITL smz_fiilt200 in Pbca
REM SHELXT solution in Pbca
REM R1 0.106,  Rweak 0.394,  Alpha 0.022,  Orientation as input
REM Formula found by SHELXT:  C12 N3 O2 S
CELL  0.71073   9.0907  11.5779  22.8104   90.000   90.000   90.000
ZERR    6.000   0.0003   0.0004   0.0007    0.000    0.000    0.000
REM SG 61 8 8 Pbca P21/b21/c21/a PGmmm Orthorhombic
LATT 1
REM SG  ASUN  1  .5 .5 .5
REM SG  ORGN  at Inv.cen.
SYMM 0.5-X,-Y,0.5+Z
SYMM -X,0.5+Y,0.5-Z
SYMM 0.5+X,0.5-Y,-Z
SFAC C H N O S
UNIT 88 96  32  16  8
FMAP 2
PLAN -32
BOND $H
L.S. 12
SIZE    0.50  0.40  0.20
ACTA
CONF
HTAB
LIST 4
WGHT    0.046300    1.482700
FVAR       0.55343
S1    5    0.331930    0.346158    0.389667    11.00000    0.02432    0.02515 =
         0.02195   -0.00194   -0.00060   -0.00311
O2    4    0.196771    0.397087    0.409586    11.00000    0.02259    0.04130 =
         0.02671   -0.00191    0.00081   -0.00230
O1    4    0.342007    0.223243    0.386423    11.00000    0.04358    0.02469 =
         0.03106   -0.00163   -0.00066   -0.00698
N4    3    0.666564    0.426163    0.485386    11.00000    0.02381    0.03176 =
         0.02544   -0.00202   -0.00152    0.00185
N3    3    0.655946    0.285057    0.408874    11.00000    0.02926    0.02824 =
         0.02724   -0.00069    0.00231    0.00392
N2    3    0.451205    0.395106    0.437279    11.00000    0.02375    0.02904 =
         0.02557   -0.00851   -0.00294    0.00362
N1    3    0.454828    0.532640    0.154556    11.00000    0.05028    0.03466 =
         0.03077    0.00479    0.01233    0.00251
C1    1    0.375116    0.403705    0.321530    11.00000    0.02600    0.02548 =
         0.02214   -0.00178   -0.00011   -0.00173
C2    1    0.448240    0.336892    0.280239    11.00000    0.04071    0.02780 =
         0.03170   -0.00038    0.00564    0.00877
AFIX  43
H2    2    0.477555    0.262157    0.289558    11.00000   -1.30000
AFIX   0
C3    1    0.477272    0.381338    0.225548    11.00000    0.04287    0.03168 =
         0.03011   -0.00306    0.01175    0.00627
AFIX  43
H3    2    0.528002    0.336614    0.198378    11.00000   -1.30000
AFIX   0
C4    1    0.431774    0.492765    0.210061    11.00000    0.03063    0.03003 =
         0.02760   -0.00003    0.00417   -0.00356
C5    1    0.358324    0.559298    0.252440    11.00000    0.03649    0.02292 =
         0.03206    0.00009    0.00444    0.00054
AFIX  43
H5    2    0.327627    0.633724    0.243191    11.00000   -1.30000
AFIX   0
C6    1    0.331238    0.515428    0.307626    11.00000    0.03044    0.02395 =
         0.02837   -0.00485    0.00529   -0.00060
AFIX  43
H6    2    0.283651    0.560566    0.335513    11.00000   -1.30000
AFIX   0
C7    1    0.598117    0.365981    0.443227    11.00000    0.02482    0.02473 =
         0.02172    0.00274    0.00047    0.00045
C8    1    0.808515    0.400669    0.492907    11.00000    0.02666    0.04050 =
         0.02859    0.00132   -0.00317    0.00036
AFIX  43
H8    2    0.861170    0.440199    0.521531    11.00000   -1.30000
AFIX   0
C9    1    0.879850    0.318774    0.460254    11.00000    0.02414    0.04292 =
         0.03156    0.00774    0.00173    0.00627
AFIX  43
H9    2    0.978880    0.302491    0.466281    11.00000   -1.30000
AFIX   0
C10   1    0.799257    0.261199    0.418006    11.00000    0.03115    0.02936 =
         0.03086    0.00655    0.00729    0.00646
C11   1    0.866890    0.168083    0.381518    11.00000    0.04079    0.04184 =
         0.04828   -0.00333    0.01034    0.01361
AFIX 137
H11A  2    0.820923    0.095554    0.390483    11.00000   -1.30000
H11B  2    0.970210    0.163322    0.389878    11.00000   -1.30000
H11C  2    0.852986    0.185554    0.340751    11.00000   -1.30000
AFIX   0
H1N2  2    0.418548    0.446431    0.459353    11.00000    0.04148
H1N1  2    0.515592    0.493101    0.134089    11.00000    0.05150
H2N1  2    0.447609    0.606157    0.146414    11.00000    0.05927
HKLF 4
  
REM  smz_fiilt200_a.res in Pbca
REM R1 =  0.0373 for    2567 Fo > 4sig(Fo)  and  0.0465 for all    3028 data
REM    176 parameters refined using      0 restraints
  
END
  
WGHT      0.0392      1.3858
  
REM Instructions for potential hydrogen bonds
EQIV $1 -x+1/2, y+1/2, z
HTAB C6 O1_$1
EQIV $2 -x+1, -y+1, -z+1
HTAB C8 O2_$2
EQIV $3 x+1, y, z
HTAB C9 O2_$3
HTAB N2 N4_$2
EQIV $4 x+1/2, y, -z+1/2
HTAB N1 O2_$4
EQIV $5 -x+1, y+1/2, -z+1/2
HTAB N1 O1_$5
HTAB N1 N3_$5
  
REM Highest difference peak  0.353,  deepest hole -0.392,  1-sigma level  0.048
Q1    1   0.3524  0.3802  0.3520  11.00000  0.05    0.35
Q2    1   0.3711  0.4585  0.3217  11.00000  0.05    0.24
Q3    1   0.6344  0.3824  0.4709  11.00000  0.05    0.24
Q4    1   0.3809  0.5477  0.2855  11.00000  0.05    0.23
Q5    1   0.3877  0.5179  0.2310  11.00000  0.05    0.22
Q6    1   0.4485  0.4388  0.2190  11.00000  0.05    0.22
Q7    1   0.2252  0.3621  0.3918  11.00000  0.05    0.21
Q8    1   0.6352  0.3370  0.4162  11.00000  0.05    0.21
Q9    1   0.4478  0.3586  0.2536  11.00000  0.05    0.21
Q10   1   0.8340  0.2721  0.4451  11.00000  0.05    0.20
Q11   1   0.3999  0.3595  0.4181  11.00000  0.05    0.20
Q12   1   0.7234  0.2687  0.4206  11.00000  0.05    0.20
Q13   1   0.6351  0.2844  0.3752  11.00000  0.05    0.18
Q14   1   0.6195  0.3000  0.4384  11.00000  0.05    0.18
Q15   1   0.3610  0.2716  0.3911  11.00000  0.05    0.18
Q16   1   0.4213  0.5074  0.1842  11.00000  0.05    0.18
Q17   1   0.8251  0.2037  0.4082  11.00000  0.05    0.17
Q18   1   0.3792  0.3642  0.2947  11.00000  0.05    0.17
Q19   1   0.7513  0.4330  0.4777  11.00000  0.05    0.17
Q20   1   0.8352  0.3346  0.4796  11.00000  0.05    0.16
Q21   1   0.2542  0.3603  0.4176  11.00000  0.05    0.16
Q22   1   0.8586  0.4727  0.5174  11.00000  0.05    0.16
Q23   1   0.1620  0.3930  0.4102  11.00000  0.05    0.15
Q24   1   0.5786  0.3750  0.2020  11.00000  0.05    0.15
Q25   1   0.8472  0.3769  0.4630  11.00000  0.05    0.15
Q26   1   0.2174  0.3997  0.4413  11.00000  0.05    0.14
Q27   1   0.6606  0.4841  0.4799  11.00000  0.05    0.14
Q28   1   0.4286  0.2513  0.2812  11.00000  0.05    0.13
Q29   1   0.6201  0.4414  0.5133  11.00000  0.05    0.13
Q30   1   0.2652  0.4148  0.3991  11.00000  0.05    0.13
Q31   1   0.1577  0.3997  0.3722  11.00000  0.05    0.13
Q32   1   0.2247  0.4530  0.4036  11.00000  0.05    0.13
;
_shelx_res_checksum              30547
_shelx_hkl_file
;
   0   0   4 2434.61   16.90
   0   0   5    8.03    2.75
   0   0   5    8.21    1.71
   0   0   6 7545.94   33.55
   0   0  -6 7351.97   35.59
   0   0   6 7518.15   36.26
   0   0   7   22.20    3.82
   0   0   7   17.40    1.41
   0   0   7   14.27    2.63
   0   0   7   17.27    2.71
   0   0   8 1159.28   15.32
   0   0   8 1217.65   16.72
   0   0   8 1164.84   16.51
   0   0  -8 1180.48   16.49
   0   0  -9   15.21    3.80
   0   0   9    9.51    2.41
   0   0   9   19.92    3.57
   0   0   9    9.30    2.49
   0   0  10 5750.48   40.46
   0   0  10 5626.05   37.93
   0   0 -10 5580.66   40.58
   0   0  10 5763.97   40.81
   0   0  11   83.43    5.52
   0   0  11   79.72    5.62
   0   0  11   86.16    6.75
   0   0  12    1.92    1.43
   0   0 -12    0.20    1.44
   0   0  13    3.36    1.97
   0   0 -13    5.70    2.53
   0   0 -14  873.98   19.14
   0   0  14  857.85   17.65
   0   0 -15   21.13    4.40
   0   0  15   24.17    3.73
   0   0  16   15.91    3.01
   0   0 -16   20.43    3.69
   0   0 -17    8.43    3.94
   0   0  17    5.09    3.29
   0   0  18 1489.69   26.72
   0   0 -18 1485.25   28.93
   0   0  19   43.42    5.68
   0   0 -19   65.49    7.02
   0   0  20  166.17    9.69
   0   0 -20  166.97   10.39
   0   0 -21    8.33    3.21
   0   0  21    3.85    2.38
   0   0  21    3.06    3.21
   0   0  22  244.27   14.72
   0   0 -22  239.99   13.18
   0   0  22  232.55   12.04
   0   0 -23    9.10    3.47
   0   0  23    7.78    3.90
   0   0  23    4.88    2.75
   0   0  24   87.66    7.81
   0   0  24   80.29    9.21
   0   0 -24   87.83    8.52
   0   0 -25    1.42    2.35
   0   0  25   -2.19    3.84
   0   0  26   52.61    7.96
   0   0 -26   60.23    7.39
   0   0  27    0.03    3.77
   0   0 -27    6.30    3.58
   0   0 -28   65.60    8.54
   0   0  28   65.50    9.39
   0   1  -4    0.86    0.74
   0   1   4    0.14    0.87
   0  -1  -4    0.25    0.83
   0  -1   4    0.93    0.96
   0   1   4    2.43    1.10
   0   1   4    1.29    0.85
   0  -1  -4   -0.35    1.13
   0  -1   4    1.25    0.77
   0  -1  -5    0.16    0.99
   0   1  -5    0.53    0.81
   0  -1   5   -2.25    1.73
   0  -1  -5    3.20    1.10
   0   1   5    1.44    0.86
   0   1   5    0.23    1.31
   0  -1   5    3.11    1.14
   0   1  -5   -0.84    1.23
   0  -1   5    1.87    1.14
   0   1   5   -0.46    1.07
   0   1  -6    0.79    0.98
   0   1  -6    1.71    1.26
   0  -1  -6    0.77    1.18
   0   1   6    1.50    1.61
   0  -1   6    0.31    0.94
   0  -1   6    2.14    1.02
   0   1   6   -1.64    1.04
   0  -1   7    3.10    1.21
   0  -1   7    0.75    1.12
   0  -1  -7    1.10    1.16
   0   1   7   -0.78    1.05
   0   1  -7    1.84    1.29
   0   1   7    0.85    1.73
   0   1   8   -0.31    1.55
   0   1   8    0.32    1.03
   0  -1  -8    0.62    1.25
   0   1  -8    0.07    0.44
   0  -1   8    2.28    1.18
   0  -1   8    0.58    0.94
   0   1  -8    0.04    1.23
   0   1   9    0.33    1.22
   0  -1  -9    0.59    0.47
   0  -1  -9    1.05    1.27
   0   1  -9    0.35    0.43
   0  -1   9    0.63    0.93
   0   1  -9    0.95    1.38
   0  -1   9    0.67    1.01
   0   1   9   -0.81    1.52
   0  -1 -10    0.10    0.38
   0   1  10    0.07    1.56
   0  -1  10    1.30    1.15
   0   1 -10    0.34    0.42
   0   1  10    0.62    0.97
   0   1 -10   -0.21    1.53
   0  -1 -10   -0.58    1.28
   0  -1  10    0.37    1.24
   0  -1  10    1.10    0.78
   0  -1  11    1.59    0.75
   0  -1 -11    1.03    0.56
   0   1 -11   -0.38    1.77
   0  -1 -11    2.35    1.88
   0   1  11    1.66    1.86
   0  -1  11    1.82    1.16
   0  -1  11    2.97    1.27
   0   1  11   -0.46    1.16
   0   1  12   -0.37    0.53
   0   1  12    3.51    2.07
   0  -1  12   -1.25    1.23
   0  -1  12   -0.92    1.49
   0  -1  12    0.09    0.62
   0  -1 -12    3.51    1.94
   0   1 -12    0.58    1.69
   0   1  13   -0.01    0.50
   0   1 -13   -0.58    1.58
   0  -1 -13    2.06    1.94
   0   1  13    0.87    1.74
   0  -1  13   -0.55    1.80
   0  -1  13   -0.21    0.56
   0   1  14    0.42    0.55
   0   1 -14    0.34    1.75
   0  -1 -14   -2.83    2.13
   0   1  14   -1.27    1.85
   0  -1  14   -1.34    1.77
   0  -1  15   -1.93    2.74
   0   1  15    1.33    0.63
   0   1 -15   -0.96    2.23
   0   1  15    1.03    1.90
   0  -1 -15    0.12    1.75
   0  -1  15    0.38    1.50
   0   1  16   -0.75    2.51
   0  -1  16   -3.90    3.18
   0  -1  16    0.42    1.69
   0  -1 -16   -0.38    1.72
   0   1 -16    1.89    2.33
   0  -1 -17    1.97    2.05
   0   1  17   -0.88    2.43
   0  -1  17   -5.32    3.71
   0  -1  17    2.34    1.94
   0   1 -17    0.56    2.24
   0  -1  18   -1.23    2.89
   0   1 -18    1.94    2.28
   0  -1 -18   -1.07    2.09
   0  -1  18    4.91    2.18
   0   1  18   -4.57    3.39
   0  -1  19   -0.33    1.85
   0  -1 -19   -0.74    2.02
   0  -1  19   -1.93    3.79
   0   1  19   -1.43    3.20
   0   1 -19    0.73    2.36
   0  -1  20   -2.68    2.66
   0   1 -20    2.12    2.44
   0  -1 -20   -2.05    2.10
   0  -1  20   -2.88    3.80
   0   1  20   -9.09    3.81
   0  -1 -21   -0.77    2.46
   0  -1  21    0.26    2.50
   0   1 -21   -1.44    2.68
   0   1  21   -3.03    2.84
   0  -1  21   -3.19    4.03
   0  -1  22   -1.40    2.74
   0   1 -22    2.90    2.64
   0   1  22   -3.47    3.04
   0  -1 -22   -2.94    2.33
   0  -1  22    0.04    2.52
   0  -1  23   -4.16    3.40
   0  -1 -23   -1.63    2.94
   0  -1  23   -0.92    2.55
   0   1  23    0.14    2.57
   0   1 -23   -6.87    3.04
   0   1  24    0.98    2.69
   0   1 -24   -1.64    2.45
   0  -1  24    5.05    3.54
   0  -1 -24    3.69    2.63
   0  -1 -25   -0.91    2.69
   0  -1  25   -8.28    4.67
   0   1  25   -4.24    3.88
   0   1 -25    2.54    2.92
   0   1  25   -2.00    2.66
   0   1  26   -7.17    5.40
   0   1 -26   -0.49    2.38
   0  -1 -26    0.39    2.78
   0  -1  26   -6.22    4.96
   0  -1 -27   -2.55    2.67
   0  -1  27  -10.34    5.66
   0   1 -27   -0.30    2.45
   0   1  27   -3.40    4.28
   0   1 -28   -1.26    2.90
   0  -1  28   -3.94    4.34
   0  -1 -28   -0.58    2.63
   0   1  28   -5.18    4.66
   0   1 -29    0.05    2.38
   0  -2   0    9.22    1.37
   0  -2   0    7.18    1.26
   0  -2  -1 8033.29   33.63
   0   2   1 8220.72   34.13
   0   2  -2 4311.72   25.20
   0   2   2 4350.20   26.11
   0  -2   2 4286.24   25.52
   0  -2  -2 4261.98   25.77
   0  -2  -2 4245.57   26.35
   0   2   2 4304.86   25.45
   0   2  -2 4282.07   21.64
   0   2  -3 9540.08   35.22
   0   2   3 9808.30   41.86
   0   2   3 9727.15   39.78
   0  -2  -3 9999.00   42.03
   0   2  -3 9975.21   39.64
   0  -2   3 9648.89   35.12
   0  -2   3 9384.09   39.12
   0  -2  -3 9455.55   39.85
   0  -2  -3 9675.36   42.12
   0   2  -4 7619.28   38.06
   0   2   4 7796.25   37.30
   0  -2   4 7907.59   34.97
   0   2   4 7720.47   39.83
   0   2   4 7807.19   37.49
   0  -2  -4 7866.51   39.83
   0   2  -4 7958.12   37.08
   0   2  -4 7822.83   35.13
   0   2   4 7991.38   40.15
   0  -2  -4 7688.94   40.02
   0  -2   4 7815.16   37.10
   0  -2   5 8622.00   40.77
   0   2   5 8259.90   40.07
   0   2  -5 8318.00   39.32
   0   2   5 8499.68   43.85
   0   2  -5 8197.97   41.48
   0  -2   5 8177.20   38.64
   0  -2  -5 8161.20   42.75
   0   2   5 8481.91   43.67
   0  -2  -5 8383.56   40.16
   0   2   5 8185.10   40.17
   0  -2  -5 8512.47   44.42
   0  -2  -6 7911.56   41.72
   0   2   6 8088.53   45.05
   0   2  -6 7896.41   33.81
   0  -2   6 7914.00   41.19
   0   2   6 7938.28   41.36
   0   2  -6 8165.39   43.54
   0  -2  -6 8159.84   45.71
   0  -2   6 7904.81   41.26
   0   2   6 8143.18   45.50
   0  -2   7   88.96    4.92
   0  -2   7   91.96    4.95
   0  -2  -7   85.31    4.97
   0  -2   7   88.38    4.68
   0   2   7   87.04    5.06
   0   2  -7   83.92    4.85
   0  -2  -7   80.56    4.64
   0   2  -7   89.29    3.93
   0   2   7  118.68    6.53
   0   2   7   84.69    4.60
   0  -2   8  583.74   12.92
   0   2   8  557.62   12.12
   0  -2   8  538.88   11.77
   0  -2  -8  574.43   12.21
   0   2  -8  564.92   10.53
   0   2   8  600.15   13.53
   0  -2   8  553.57   12.59
   0  -2  -8  570.49   13.21
   0   2   8  582.94   13.45
   0   2  -8  565.16   13.04
   0   2  -9 1916.50   24.53
   0  -2   9 1878.02   24.58
   0   2  -9 1866.61   20.11
   0  -2   9 1960.01   24.75
   0   2   9 1865.16   23.30
   0  -2  -9 1875.67   23.28
   0   2   9 1938.31   25.35
   0  -2 -10  982.83   17.52
   0   2 -10  942.53   14.95
   0   2  10 1016.18   19.22
   0   2  10  979.40   17.59
   0   2 -10  914.70   17.69
   0  -2  10  938.85   18.49
   0   2  11 1373.58   22.86
   0  -2  11 1313.05   22.79
   0  -2 -11 1352.34   21.39
   0   2 -11 1299.22   21.88
   0   2 -12  581.46   15.47
   0  -2 -12  598.20   14.95
   0   2  12  641.45   16.31
   0   2 -12  609.67    9.85
   0  -2  12  624.49   16.70
   0  -2  13  164.52    9.29
   0   2 -13  152.76    8.22
   0  -2 -13  156.69    8.34
   0   2 -13  146.61    4.82
   0   2  13  158.95    8.82
   0  -2  14  781.14   20.11
   0   2 -14  720.64    7.80
   0  -2 -14  781.36   18.41
   0   2  14  764.20    8.33
   0   2  14  802.68   19.36
   0  -2  14  798.30   12.50
   0   2 -14  801.89   11.13
   0  -2 -14  792.46   10.01
   0  -2  14  820.50   15.14
   0   2 -14  718.83    8.12
   0   2 -14  791.34   19.40
   0   2  14  748.58    8.15
   0  -2  15   30.44    3.65
   0  -2 -15   29.65    1.91
   0  -2 -15   45.76    5.54
   0  -2  15   32.42    5.72
   0   2  15   36.48    5.25
   0   2 -15   32.08    4.55
   0  -2  15   27.37    2.35
   0  -2  16   91.91    4.27
   0   2  16   93.17    4.13
   0  -2 -16   92.11    3.05
   0  -2 -16  103.52    7.46
   0  -2  16  101.43    6.04
   0  -2  16  102.54    8.36
   0   2  16   97.40    7.44
   0   2 -16   97.46    7.35
   0   2  17  531.11    9.60
   0  -2 -17  563.40   17.37
   0   2  17  528.50   17.54
   0  -2  17  549.05   18.77
   0  -2  17  534.43   10.07
   0   2 -17  542.46   17.52
   0  -2  17  549.25   14.06
   0  -2  18  300.00   10.93
   0   2 -18  322.61   14.02
   0  -2  18  326.09   15.37
   0  -2  18  303.33    7.42
   0   2  18  297.19    7.06
   0  -2 -18  328.72   14.14
   0   2  18  333.88   14.32
   0   2  19  786.52   22.14
   0  -2 -19  780.00   21.60
   0   2 -19  788.56   22.33
   0  -2  19  784.10   23.90
   0  -2  19  771.87   17.98
   0  -2  20  137.81   10.88
   0  -2  20  139.08    8.19
   0  -2 -20  124.78    9.31
   0   2  20  141.91    9.99
   0   2 -20  112.67    9.54
   0  -2 -21   81.74    7.63
   0   2  21   86.44    8.03
   0  -2  21   81.98    6.28
   0   2 -21   76.84    7.78
   0  -2  21   74.89    8.14
   0  -2 -22   15.87    4.39
   0  -2  22    7.88    2.27
   0  -2  22   12.64    5.14
   0   2  22    6.38    3.23
   0   2 -22   13.03    3.92
   0  -2  23  564.02   23.27
   0   2  23  543.72   20.69
   0   2 -23  549.94   21.02
   0  -2 -23  567.04   20.99
   0  -2 -24   23.64    5.25
   0   2  24   21.62    5.21
   0  -2  24   34.24    7.17
   0   2 -24   24.84    5.62
   0  -2  25   18.42    5.84
   0  -2 -25   19.56    4.59
   0   2 -25   19.08    5.02
   0   2  25   25.87    5.58
   0   2  26  124.06   10.72
   0  -2 -26  130.29   10.92
   0   2 -26  134.26   11.26
   0  -2  26  118.18   11.87
   0   2  27    1.71    3.53
   0  -2 -27   16.44    4.33
   0   2 -27   12.16    4.32
   0  -2  27   14.91    4.74
   0   2  28    9.63    4.11
   0  -2 -28   15.19    4.79
   0   2 -28   18.19    4.66
   0  -2  28   17.15    5.56
   0   2 -29   93.60   10.04
   0   3   0    0.79    1.46
   0  -3   0   -1.00    0.92
   0  -3   0    2.21    1.36
   0   3  -1    1.02    1.35
   0  -3   1    1.91    1.23
   0   3   1    8.61    2.62
   0  -3  -1    0.35    1.42
   0  -3  -1    7.17    1.82
   0  -3   1    4.43    1.71
   0   3   1   -0.68    1.42
   0   3  -2    0.27    1.35
   0  -3  -2   -2.16    2.01
   0   3   2    1.56    1.37
   0  -3  -2   -0.56    1.23
   0  -3   2    0.83    1.31
   0   3   2    4.77    2.42
   0  -3  -3   -2.13    1.59
   0   3   3   -1.42    1.98
   0   3   3   -1.84    1.49
   0   3  -3    0.72    1.31
   0  -3  -3    2.09    1.40
   0   3  -3   -0.42    1.22
   0  -3   3   -0.89    1.29
   0  -3   4    2.39    1.33
   0  -3  -4    0.54    1.09
   0   3  -4    3.12    1.46
   0   3  -4    1.27    1.60
   0  -3  -4    0.80    1.58
   0  -3   4    0.40    1.42
   0   3   4    0.67    1.51
   0  -3  -4    2.28    1.64
   0   3   4   -2.97    2.51
   0  -3   5   -0.12    1.61
   0  -3  -5    0.42    1.18
   0  -3  -5   -1.13    1.88
   0   3  -5   -0.80    1.38
   0   3   5    3.27    1.64
   0   3   5   -1.35    1.42
   0  -3   5    1.10    1.13
   0  -3  -5    0.49    1.45
   0   3   5   -3.04    2.50
   0   3  -5   -0.27    1.02
   0   3   6    1.69    1.25
   0   3   6    1.79    1.56
   0   3   6    4.06    2.13
   0   3  -6    3.52    1.49
   0   3  -6    2.12    1.53
   0  -3  -6    2.67    1.58
   0  -3   6    5.97    1.72
   0   3   6    2.60    1.51
   0  -3   6   -2.22    2.16
   0  -3  -6    3.29    1.74
   0   3  -6    2.28    1.60
   0   3   7   -0.31    1.42
   0  -3   7    3.38    1.89
   0  -3  -7    0.45    1.85
   0   3  -7   -1.89    1.45
   0   3   7    1.30    1.10
   0   3   7    0.89    1.27
   0   3   7   -2.74    2.66
   0   3  -7    0.95    1.49
   0  -3   7   -1.10    1.24
   0   3  -8    1.38    1.89
   0   3   8   -0.41    1.35
   0  -3   8   -1.27    1.02
   0  -3   8    1.12    1.56
   0   3   8   -1.68    2.32
   0   3   8   -1.01    1.18
   0   3  -8   -0.15    1.03
   0   3   9   -0.68    1.61
   0   3   9   -1.03    2.37
   0  -3   9   -0.76    1.36
   0   3  -9    0.51    0.99
   0   3  -9   -0.76    1.94
   0   3   9    0.72    1.18
   0  -3   9    0.98    1.68
   0  -3  -9    0.35    1.53
   0   3  10   -4.53    2.94
   0   3  10    1.07    1.51
   0  -3 -10   -0.71    1.50
   0   3 -10    0.35    1.07
   0  -3  10   -1.35    1.89
   0   3 -10    2.25    2.01
   0   3 -11   -0.77    1.93
   0  -3  11   -0.08    1.74
   0   3  11    1.09    1.53
   0  -3 -11    0.70    1.67
   0   3 -11    0.37    1.18
   0   3  11   -0.80    2.50
   0  -3 -12    0.40    1.85
   0  -3  12   -0.31    1.77
   0   3 -12    0.52    1.91
   0   3 -12   -0.17    1.24
   0   3  12   -4.80    3.29
   0  -3 -13   -0.70    1.58
   0   3  13   -0.62    2.84
   0  -3  13    0.65    1.99
   0   3 -13   -2.55    1.92
   0   3 -14   -0.97    2.14
   0   3  14   -2.73    3.00
   0  -3  14    0.63    2.04
   0  -3 -14   -0.21    1.75
   0  -3 -15   -0.92    1.84
   0  -3  15    0.39    2.37
   0   3 -15    0.26    0.73
   0   3  15   -1.98    3.24
   0   3 -15    1.15    2.23
   0   3 -16   -0.55    0.76
   0   3  16    0.35    0.61
   0  -3  16   -2.78    1.75
   0  -3 -16   -3.34    2.54
   0   3 -16    0.76    0.66
   0   3 -16   -1.05    2.21
   0   3  16   -3.25    3.27
   0  -3  16    1.61    2.59
   0  -3  17    0.87    1.06
   0   3 -17   -1.65    2.27
   0  -3  17   -1.11    1.59
   0   3 -17    0.92    0.60
   0  -3 -17   -0.34    2.02
   0  -3  17   -0.95    2.88
   0   3 -17    0.23    0.54
   0   3  17    0.96    0.61
   0   3  17    0.41    0.54
   0   3  17   -3.97    3.82
   0   3 -18   -2.98    2.86
   0   3  18   -2.66    3.00
   0  -3 -18   -0.75    2.50
   0  -3  18   -5.69    3.42
   0   3 -18    0.38    0.37
   0  -3  18   -0.18    1.10
   0  -3  18   -1.41    1.63
   0  -3  19    0.97    2.92
   0   3  19   -2.27    2.94
   0  -3  19    2.11    1.87
   0  -3 -19   -0.98    2.39
   0   3 -19   -0.33    2.43
   0  -3  19    0.88    1.27
   0  -3  20   -3.38    2.77
   0  -3 -20   -0.41    2.36
   0   3  20   -3.38    3.74
   0  -3  20    0.13    1.71
   0   3 -20    5.87    3.35
   0   3 -21   -1.91    2.92
   0   3  21   -4.63    4.03
   0  -3 -21   -1.00    2.10
   0  -3  21    2.73    3.00
   0   3  22   -2.69    3.23
   0  -3  22   -1.92    2.66
   0  -3 -22   -0.81    2.30
   0   3 -22   -0.46    2.36
   0  -3  23    0.08    2.83
   0   3  23    1.59    2.81
   0   3 -23   -1.94    3.13
   0  -3 -23    0.63    2.47
   0  -3  24    3.08    2.95
   0   3 -24   -2.46    2.71
   0   3  24    2.40    2.70
   0  -3 -24   -3.06    2.57
   0  -3  25    0.71    3.18
   0   3  25   -0.33    2.31
   0   3  25    4.41    3.40
   0  -3 -25   -4.03    3.27
   0   3 -25   -1.65    2.99
   0   3 -26    0.43    2.39
   0  -3 -26   -2.63    2.74
   0  -3  26   -1.29    3.05
   0   3  26   -1.57    2.85
   0   3  26   -3.48    3.33
   0  -3  27   -6.87    4.55
   0  -3 -27    0.20    2.72
   0   3 -27   -1.02    2.79
   0   3  27   -0.40    2.74
   0  -3  28   -5.79    4.64
   0   3 -28   -2.47    2.47
   0   3 -29    1.16    2.75
   0  -4   0 4243.46   31.97
   0   4   0 4180.47   34.66
   0  -4   0 4334.93   35.39
   0  -4   1 1561.19   18.58
   0  -4  -1 1583.21   20.35
   0   4   1 1513.96   19.91
   0   4  -1 1574.87   21.15
   0   4   1 1543.38   21.29
   0  -4   1 1595.66   21.48
   0  -4  -1 1575.54   21.30
   0   4  -2 1767.71   22.65
   0  -4  -2 1806.42   22.55
   0   4   2 1735.61   22.69
   0   4   2 1759.01   22.13
   0  -4   2 1790.06   19.25
   0  -4  -2 1787.30   22.93
   0   4  -2 1767.41   18.55
   0  -4   2 1790.34   22.97
   0  -4   3  135.80    5.26
   0  -4   3  136.44    6.42
   0   4   3  128.65    6.40
   0   4  -3  131.54    6.38
   0   4  -3  129.15    5.26
   0  -4  -3  131.05    6.39
   0  -4  -3  132.26    6.32
   0   4   3  136.80    6.66
   0   4  -4  212.20    8.14
   0  -4   4  222.10    8.20
   0   4   4  209.55    8.49
   0  -4  -4  222.57    8.70
   0   4   4  211.45    8.21
   0   4  -4  202.42    6.79
   0  -4  -4  221.54    8.39
   0  -4  -4  224.47    8.64
   0   4   5  266.44    9.35
   0   4   5  264.68    9.79
   0  -4   5  262.35    8.02
   0   4  -5  281.93    8.21
   0  -4  -5  268.70    9.33
   0   4  -5  263.28    9.14
   0  -4   5  276.68    9.35
   0  -4  -5  282.11    9.94
   0   4  -6  783.21   16.01
   0   4   6  806.69   17.30
   0   4  -6  801.34   14.57
   0   4   6  826.37   16.23
   0  -4  -6  792.04   17.28
   0   4   6  796.33   16.31
   0  -4   6  773.27   14.24
   0   4   7  350.15   12.01
   0   4  -7  361.78   11.70
   0   4  -7  346.90   10.96
   0   4   7  352.54   11.17
   0  -4   7  351.31   10.05
   0  -4  -7  359.20   11.92
   0   4  -7  348.88   10.08
   0   4  -8  294.05    9.64
   0   4   8  295.89   10.58
   0   4   8  306.58   11.43
   0   4  -8  279.56   10.62
   0  -4  -8  290.34   11.04
   0  -4   8  307.72    9.98
   0  -4  -9   22.72    3.49
   0   4   9   23.23    3.32
   0  -4   9   18.84    2.56
   0   4   9   22.22    3.69
   0   4  -9   24.78    3.57
   0   4  10   -1.86    2.58
   0  -4  10   -0.21    2.32
   0   4  10   -0.36    1.72
   0   4 -10    0.01    1.87
   0   4 -10    2.10    1.30
   0   4 -11   94.97    5.21
   0   4 -11  100.15    7.39
   0   4  11  105.23    6.88
   0  -4  11  105.77    6.99
   0   4  11  110.19    7.66
   0   4  12    1.30    1.64
   0   4 -12    4.31    1.60
   0   4  12   -1.08    2.53
   0  -4  12    1.80    2.29
   0   4 -12   -0.12    2.10
   0   4  13    0.99    2.71
   0   4 -13    2.41    2.14
   0  -4  13    4.40    2.59
   0   4 -13    4.20    1.63
   0   4  13    3.71    2.15
   0   4  14  180.51   10.61
   0   4 -14  191.82   10.51
   0   4  14  197.51   10.14
   0   4 -14  182.46    7.94
   0  -4  14  181.44    9.94
   0  -4 -14  201.88   10.00
   0   4 -15   98.91    7.93
   0  -4  15  101.22    7.94
   0   4  15  103.58    8.38
   0  -4 -15  110.84    7.80
   0   4  15  100.39    7.50
   0   4  16  205.96   12.01
   0   4 -16  206.95   11.37
   0  -4 -16  213.84   11.21
   0  -4  16  210.38   11.51
   0   4  16  199.33   10.81
   0   4  17  655.77   19.89
   0  -4 -17  688.66   20.29
   0   4 -17  661.70   21.10
   0  -4  17  709.79   21.46
   0   4  17  668.36   21.59
   0  -4  17  649.55   13.62
   0   4  18 1612.25   34.21
   0   4  18 1626.25   31.89
   0   4 -18 1634.09   33.35
   0  -4  18 1629.86   22.00
   0  -4 -18 1585.47   31.49
   0  -4  18 1618.73   33.47
   0  -4  19  453.85   12.48
   0  -4  19  462.02   18.86
   0  -4 -19  484.01   18.00
   0   4 -19  478.05   18.91
   0   4  19  493.38   19.48
   0  -4  19  465.88   12.48
   0   4  19  502.84   18.46
   0   4 -20    8.50    3.96
   0  -4 -20   17.99    4.64
   0  -4  20   19.02    5.49
   0   4  20   18.81    5.01
   0   4  20   21.36    5.44
   0   4  21   49.54    6.20
   0   4  21   47.53    6.73
   0  -4  21   55.69    7.17
   0  -4 -21   56.88    6.48
   0   4 -21   54.39    7.02
   0   4 -22   -1.03    2.66
   0  -4 -22    4.12    2.93
   0   4  22   -1.39    2.19
   0   4  22    3.43    3.31
   0  -4  22    9.41    4.27
   0   4  23   99.94    9.75
   0  -4 -23  108.80    9.77
   0   4  23  107.31    9.41
   0  -4  23  124.39   11.20
   0   4 -23  116.92   10.44
   0  -4 -24  339.34   17.08
   0   4  24  346.66   18.18
   0  -4  24  331.89   18.40
   0   4  24  329.84   16.56
   0   4 -24  328.27   17.52
   0   4 -25  126.85   11.25
   0   4  25  138.65   12.04
   0  -4 -25  152.08   11.73
   0  -4  25  147.65   12.75
   0   4  25  132.83   11.02
   0  -4 -26   15.36    4.68
   0   4  26   12.18    4.52
   0  -4  26   10.32    4.14
   0   4  26   13.04    3.94
   0   4 -26   11.79    4.27
   0   4 -27    0.80    3.00
   0   4  27   -1.32    3.16
   0  -4  27    5.00    3.89
   0  -4  28   53.32    8.51
   0   4 -28   46.35    7.52
   0   4  28   54.31    8.26
   0   4 -29   39.68    7.28
   0  -5   0   -1.06    1.45
   0   5   0    7.08    2.92
   0  -5  -1   -2.40    1.75
   0   5  -1    3.26    2.40
   0  -5   1    1.30    1.50
   0   5   1   -1.28    1.75
   0   5  -2    1.26    1.94
   0  -5   2    2.34    1.87
   0   5   2    1.46    2.00
   0   5   2    4.16    2.83
   0  -5   3    2.51    1.66
   0   5  -3    4.90    2.42
   0   5   3    4.05    2.77
   0   5   3    2.87    2.22
   0   5  -3    1.50    1.54
   0   5  -4   -0.09    1.60
   0   5   4    3.62    2.75
   0  -5   4    3.94    1.81
   0   5  -4    0.70    1.26
   0   5   4   -0.33    1.86
   0   5   5    0.98    2.44
   0   5  -5   -2.14    1.76
   0   5   5    2.14    1.64
   0   5  -5    1.79    2.22
   0  -5  -5    0.14    1.87
   0   5  -6    1.85    1.36
   0   5   6   -0.74    1.81
   0  -5  -6   -0.63    1.85
   0   5  -6   -0.59    1.86
   0   5  -7    1.43    1.44
   0   5   7    0.90    3.01
   0   5  -7    0.57    1.59
   0  -5   7    1.88    1.89
   0  -5  -7   -1.21    2.22
   0   5   7    0.20    3.48
   0   5  -8    0.45    1.94
   0   5   8    0.46    1.78
   0  -5  -8    0.47    2.05
   0   5  -8   -3.53    2.70
   0  -5   8    1.72    2.05
   0   5   8   -4.58    3.15
   0   5  -9   -0.26    2.02
   0  -5   9    0.18    1.89
   0  -5  -9   -0.95    2.06
   0   5   9    0.10    1.81
   0   5   9    0.47    2.54
   0   5  -9    1.14    2.38
   0   5 -10    2.17    2.14
   0   5  10   -0.05    2.49
   0  -5  10   -0.77    2.19
   0   5  10    0.06    1.80
   0  -5 -10   -0.56    1.74
   0   5  11    1.23    2.51
   0   5 -11    0.31    2.00
   0  -5  11   -1.23    2.46
   0   5  11    1.64    2.00
   0  -5  12   -3.33    3.03
   0   5 -12    0.91    2.01
   0   5  12    2.22    1.90
   0   5 -12    1.29    1.38
   0   5  12   -1.09    2.82
   0   5  13   -2.20    3.53
   0   5  13    0.33    2.02
   0  -5  13   -2.40    3.18
   0   5 -13   -0.06    2.55
   0   5 -13    1.24    1.34
   0   5 -14   -0.77    1.44
   0   5 -14   -5.50    3.44
   0   5  14   -0.77    3.13
   0   5  14    3.14    2.73
   0  -5  14   -6.43    4.17
   0   5 -15   -1.82    3.01
   0   5 -15   -0.89    1.96
   0   5  15    3.03    3.37
   0   5  15    0.71    2.05
   0  -5  15   -5.11    3.66
   0  -5  16    0.15    3.03
   0   5  16    0.38    2.27
   0   5 -16   -2.34    2.90
   0   5 -16   -1.91    2.13
   0   5  16    3.03    3.05
   0   5  17    2.77    3.80
   0   5  17    0.12    2.35
   0   5 -17   -5.57    3.40
   0  -5  17    2.98    2.82
   0  -5  18   -0.04    2.59
   0   5  18   -2.38    3.44
   0   5 -18   -4.56    3.83
   0   5  18   -4.03    2.89
   0   5  19   -2.47    2.83
   0   5  19    1.81    2.95
   0  -5  19    0.82    3.17
   0   5 -19    0.74    2.62
   0   5 -20    1.87    2.85
   0   5  20    1.23    2.23
   0   5  20    0.09    2.91
   0  -5  20    4.46    3.49
   0   5 -21   -1.68    2.89
   0   5  21    0.90    2.29
   0   5  21    4.85    3.92
   0   5  22    3.25    3.70
   0  -5  22    7.20    4.08
   0   5 -22    1.66    2.66
   0   5  22    0.28    2.46
   0   5  23   -4.35    3.57
   0  -5  23    6.20    3.86
   0   5  23   -0.65    3.05
   0   5 -23   -3.92    3.51
   0   5 -24   -1.91    2.93
   0   5  24   -2.45    2.43
   0   5  24    1.81    3.11
   0  -5  24    1.08    2.92
   0   5  25   -1.44    2.62
   0   5  25    4.89    3.79
   0   5 -25    1.15    2.81
   0  -5  25    1.42    3.33
   0   5  26   -2.71    2.54
   0   5  26    1.18    2.87
   0  -5  26    3.98    3.96
   0   5 -26    2.68    2.55
   0   5  27   -2.05    3.34
   0   5 -27   -0.66    2.85
   0  -5  27    3.85    3.72
   0   5  28    5.06    3.96
   0   5 -28    2.87    3.56
   0  -5  28    1.63    3.52
   0   5 -29    4.75    3.49
   0   5  29    2.14    3.44
   0   6   0   31.47    4.56
   0   6  -1 3946.35   41.87
   0   6   1 4015.55   42.34
   0  -6   2 1420.85   21.72
   0   6  -2 1423.24   25.30
   0   6   2 1386.40   25.18
   0  -6   3  259.25    9.06
   0   6   3  267.29   11.20
   0   6  -3  263.27   10.98
   0   6  -3  282.30    9.15
   0   6   3  290.38   11.39
   0  -6   4  672.65   14.14
   0   6  -4  685.02   14.36
   0   6   4  706.90   17.86
   0   6  -4  667.48   17.56
   0   6   4  683.00   17.82
   0   6   5   31.48    4.22
   0  -6   5   29.99    3.14
   0   6   5   34.04    4.79
   0  -6  -5   25.56    3.81
   0   6  -5   27.64    2.97
   0   6  -5   32.98    4.34
   0   6   6    5.28    3.00
   0  -6   6    5.49    1.73
   0   6  -6    1.68    2.27
   0  -6  -6    4.58    2.46
   0   6   6    1.23    2.08
   0   6  -7  353.75   13.16
   0   6   7  354.30   13.26
   0   6   7  353.21   13.87
   0  -6  -7  333.03   13.40
   0  -6   7  349.44    9.55
   0   6   8   55.39    5.44
   0  -6   8   75.13    5.70
   0  -6  -8   80.38    6.95
   0   6   8   59.82    6.21
   0   6  -8   63.68    5.78
   0  -6  -9   36.53    4.80
   0   6   9   40.98    5.51
   0  -6   9   51.32    5.07
   0   6  -9   43.20    4.86
   0   6  -9   44.66    5.42
   0   6   9   36.77    4.63
   0   6 -10   54.36    5.67
   0   6  10   59.47    6.00
   0   6  10   58.49    6.51
   0  -6  10   64.60    5.77
   0  -6 -10   50.94    5.82
   0   6 -10   63.75    6.46
   0  -6 -11    3.11    2.82
   0   6  11    8.08    3.78
   0  -6  11    2.09    2.84
   0   6 -11    4.57    3.68
   0  -6  12 3506.64   41.53
   0   6  12 3522.85   45.23
   0   6  12 3503.82   48.15
   0   6 -12 3487.86   46.36
   0  -6 -12 3478.40   47.81
   0   6 -13    2.22    2.20
   0  -6  13    0.05    2.43
   0   6 -13    3.24    2.91
   0  -6  14  324.89   13.70
   0   6  14  349.91   14.92
   0   6 -14  341.31   11.17
   0   6  14  361.01   16.50
   0   6 -14  329.90   14.95
   0   6  15  586.11   19.57
   0   6 -15  561.06   14.55
   0   6  15  599.19   21.30
   0   6 -15  567.75   20.49
   0  -6  15  584.32   18.73
   0   6  16   74.92    8.71
   0   6 -16   62.56    5.11
   0  -6  16   62.58    6.50
   0   6  16   58.47    6.73
   0   6 -16   71.19    7.48
   0   6  17   83.50    9.04
   0   6 -17   80.87    7.96
   0   6 -17   79.85    5.85
   0  -6  17   81.30    7.71
   0   6  17   87.21    8.26
   0   6  18  569.53   22.21
   0  -6  18  561.60   20.42
   0   6  18  586.38   20.93
   0   6 -18  566.05   21.64
   0   6 -19  337.02   16.94
   0   6  19  370.02   18.43
   0  -6  19  357.82   16.76
   0   6  19  350.76   16.43
   0   6 -20   71.90    8.38
   0   6  20   82.73    9.57
   0   6  20   82.38    8.67
   0  -6  20   60.16    7.46
   0   6  21  469.49   19.83
   0  -6  21  459.76   20.14
   0   6 -21  453.04   20.76
   0   6  21  482.00   21.75
   0   6  22  318.11   16.70
   0   6 -22  323.35   17.60
   0   6  22  292.49   17.51
   0  -6  22  325.17   17.39
   0   6  23   18.16    4.90
   0  -6  23    0.80    3.02
   0   6  23   14.75    5.18
   0   6 -23   15.74    4.82
   0   6  24   75.88    9.76
   0   6  24   71.13    8.42
   0  -6  24   62.36    8.44
   0   6 -24   64.11    8.55
   0   6 -25  159.59   13.33
   0  -6  25  156.69   13.12
   0   6  25  198.72   15.36
   0   6  25  160.56   12.67
   0   6  26  243.87   15.64
   0  -6  26  201.54   15.32
   0   6 -26  224.56   15.93
   0   6  26  228.46   16.97
   0  -6  27   -0.96    3.01
   0   6 -27    1.01    2.97
   0   6  28  137.82   13.50
   0   6 -28  117.09   12.12
   0   7   0    2.24    2.36
   0   7  -1    8.58    3.58
   0   7   1    3.41    2.78
   0   7   2    3.31    2.40
   0   7  -2   24.76    4.26
   0   7   3   -0.56    2.14
   0   7  -3    4.41    2.70
   0   7  -4    0.80    2.29
   0   7   4   -1.40    2.60
   0   7  -5   -1.21    2.19
   0   7   5    3.12    2.16
   0  -7  -5    2.15    2.32
   0   7  -6   -0.91    2.66
   0  -7   6    0.17    1.47
   0  -7  -6    1.05    2.39
   0   7   6   -0.87    2.34
   0   7   7    5.51    4.00
   0  -7   7    2.19    1.55
   0   7   7   -1.45    2.67
   0   7  -7   -1.37    2.39
   0  -7  -7    3.46    3.03
   0   7   8   -1.66    2.55
   0   7  -8   -0.29    2.19
   0  -7   8    1.72    1.54
   0   7   8    1.95    3.85
   0  -7  -8   -1.70    2.34
   0  -7  -9   -2.72    2.68
   0   7  -9    0.32    2.44
   0  -7   9    3.63    1.99
   0   7   9   -1.21    2.86
   0   7 -10   -1.26    2.59
   0   7  10   -2.62    2.97
   0  -7  10    2.97    1.84
   0   7  10    1.18    3.53
   0  -7 -10   -2.82    3.18
   0   7 -10   -0.63    2.80
   0   7 -11   -0.11    3.02
   0   7 -11    8.92    3.56
   0  -7 -11   -0.50    2.84
   0   7  11    5.46    4.62
   0  -7  11    5.34    3.43
   0   7  11    8.40    3.93
   0  -7 -12   -2.01    3.58
   0   7 -12    1.35    2.90
   0   7  12   -4.37    3.58
   0   7  12    4.37    4.42
   0  -7  12    1.25    2.82
   0  -7  13    4.36    3.32
   0  -7 -13   -3.97    3.80
   0   7 -13    0.69    2.94
   0   7  13   -2.94    2.71
   0   7  13    3.84    4.54
   0   7  14    6.24    4.35
   0   7 -14   -0.29    2.48
   0   7  14    0.20    2.19
   0   7 -14    1.94    1.60
   0  -7  14   -0.34    2.69
   0   7 -15    0.72    1.42
   0   7  15   -1.29    2.38
   0   7 -15   -4.53    3.61
   0   7  15    6.42    4.52
   0  -7  15    2.96    2.83
   0   7  16   -1.53    2.26
   0   7  16   -2.93    3.43
   0  -7  16   -0.21    2.66
   0   7 -16   -0.64    2.68
   0   7 -16    0.84    1.43
   0   7  17    6.14    4.33
   0   7 -17   -1.03    3.27
   0  -7  17    0.13    2.69
   0   7  17   -0.67    2.49
   0   7  18    1.23    3.23
   0   7  18    3.70    3.33
   0  -7  18   -1.49    2.93
   0   7 -18    1.68    3.10
   0   7  19    6.34    4.63
   0   7 -19    0.72    2.70
   0   7  19    1.51    2.98
   0  -7  19   -2.26    3.11
   0   7  20   -1.10    2.75
   0   7  20    0.53    3.86
   0  -7  20    2.91    2.69
   0   7 -20   -1.88    3.02
   0  -7  21    0.60    3.00
   0   7 -21    4.01    3.38
   0   7  21    3.78    3.76
   0   7  21    0.01    2.42
   0   7  22   -0.18    2.61
   0  -7  22    0.21    3.13
   0   7  22    5.12    4.44
   0   7 -22    1.44    3.09
   0   7 -23    1.25    2.65
   0  -7  23   -1.91    3.94
   0   7  23    3.89    3.60
   0   7  23    3.12    3.63
   0  -7  24   -4.63    3.95
   0   7  24    2.51    2.74
   0   7 -24   -4.14    3.31
   0   7  24    5.01    4.64
   0   7 -25    0.87    3.53
   0  -7  25    0.67    3.25
   0   7  25    2.99    3.25
   0   7  25    4.41    4.29
   0   7 -26   -0.18    3.15
   0  -7  26    4.73    3.76
   0   7  26    5.60    4.01
   0  -7  27   -1.00    3.67
   0   7 -27    2.95    3.78
   0   8   0  498.39   17.50
   0   8   1   18.09    3.79
   0   8  -1   11.69    3.41
   0   8   2   40.15    5.27
   0   8  -2   47.84    5.78
   0   8  -3   10.76    3.04
   0   8   3    7.95    2.86
   0   8   4  211.77   11.71
   0   8  -4  201.20   11.44
   0  -8  -5   79.61    7.48
   0   8   5   83.51    7.71
   0   8  -5   78.82    7.34
   0   8  -6  256.42   12.99
   0  -8  -6  250.88   13.12
   0   8   6  265.02   13.42
   0   8   7 1242.16   28.94
   0  -8  -7 1229.68   29.41
   0   8  -7 1240.90   28.48
   0   8   7 1225.17   28.61
   0  -8  -8  529.58   19.45
   0   8   8  521.47   19.42
   0   8  -8  524.75   18.76
   0   8   8  521.22   18.77
   0  -8  -9  223.81   12.92
   0   8  -9  205.34   11.99
   0   8   9  225.71   13.13
   0   8   9  215.76   12.43
   0   8 -10  183.74   11.52
   0  -8  10  180.52    7.90
   0  -8 -10  182.03   12.00
   0   8  10  198.15   12.93
   0   8  10  178.29   11.51
   0   8 -10  193.51   12.46
   0  -8 -11 1542.13   34.62
   0   8 -11 1517.02   32.70
   0   8  11 1481.21   34.34
   0   8  11 1505.89   32.94
   0   8 -11 1525.17   34.01
   0   8  12   33.53    5.48
   0   8 -12   41.34    6.29
   0  -8 -12   32.74    5.32
   0   8  13  198.06   13.43
   0   8  13  194.72   12.33
   0  -8 -13  197.23   13.00
   0   8 -13  206.32   12.80
   0  -8  14  218.44   12.13
   0   8 -14  217.83   13.70
   0   8  14  225.27   13.62
   0   8  14  243.51   15.14
   0   8  15  862.57   28.19
   0  -8  15  903.98   24.33
   0   8 -15  897.97   27.70
   0   8  15  870.59   26.64
   0  -8  16    9.63    4.25
   0   8  16   11.36    5.58
   0   8  16    9.13    4.32
   0   8 -16    8.92    4.43
   0   8  17  750.08   25.42
   0   8  17  776.35   27.90
   0  -8  17  756.21   23.67
   0   8 -17  739.80   26.48
   0   8 -18   77.02    9.18
   0  -8  18   81.35    8.69
   0   8  18   83.21    9.26
   0   8  18   94.46   10.96
   0   8  19  244.78   16.49
   0   8 -19  243.46   15.75
   0  -8  19  236.18   14.05
   0   8  19  243.79   14.98
   0   8 -20    3.52    3.71
   0  -8  20   10.02    4.54
   0   8  20    0.77    2.89
   0   8  20   10.41    5.20
   0   8  21  236.42   15.40
   0   8  21  233.85   16.79
   0  -8  21  222.20   14.51
   0   8 -21  210.13   15.09
   0   8  22   17.57    4.98
   0   8  22   20.86    6.48
   0  -8  22   11.87    4.67
   0   8 -22   17.76    5.64
   0  -8  23  172.86   13.46
   0   8 -23  164.56   13.78
   0   8  23  148.19   13.92
   0   8  23  154.36   12.78
   0   8 -24   30.36    6.81
   0   8  24   42.69    8.37
   0  -8  24   28.07    6.40
   0   8  24   45.63    7.61
   0   8 -25  293.60   19.12
   0  -8  25  320.32   18.88
   0   8  25  297.22   18.08
   0  -8  26    8.48    4.86
   0   9   0    2.97    2.76
   0   9   1   -0.33    2.68
   0   9  -1   -1.97    3.30
   0   9  -2   -1.64    2.92
   0   9   2   -0.63    2.82
   0   9  -3   -0.47    2.52
   0   9   3   -4.03    3.77
   0   9   4   -4.18    4.01
   0   9  -4    4.57    3.23
   0  -9  -5   -7.00    3.76
   0   9   5    1.16    3.40
   0   9  -5   -0.11    2.80
   0   9   6   -8.52    4.71
   0  -9  -6   -1.85    2.88
   0   9  -6    0.03    2.80
   0   9  -7    6.15    3.94
   0   9   7   -0.02    3.48
   0  -9  -7    0.50    3.03
   0   9   8    1.65    2.63
   0  -9  -8    3.80    3.62
   0   9  -8   -0.73    3.02
   0  -9  -9   -0.08    3.48
   0   9   9    4.98    3.48
   0   9  -9   -1.25    2.83
   0   9 -10    0.94    3.32
   0   9 -10    0.53    2.77
   0  -9 -10    3.55    3.33
   0   9  10   -0.34    2.85
   0   9  11    8.33    4.96
   0   9 -11    3.38    3.82
   0  -9 -11   -1.82    3.19
   0   9  11    0.47    2.95
   0   9 -11   -3.85    3.29
   0   9 -12    1.76    3.34
   0   9 -12   -3.41    3.23
   0   9  12   -1.48    2.64
   0  -9 -12   -0.07    2.55
   0   9  13   -3.23    3.53
   0   9 -13   -0.32    3.36
   0  -9 -13    1.03    3.40
   0   9  13    7.93    4.87
   0   9  14    7.20    4.17
   0   9  14   -2.89    2.65
   0  -9 -14    0.37    2.57
   0   9 -14   -0.82    3.01
   0   9 -15   -1.38    2.85
   0   9  15   -2.36    3.41
   0   9 -16   -1.97    3.62
   0   9  16    5.47    5.22
   0   9  16   -4.36    3.54
   0  -9  17    3.95    3.09
   0   9  17   -2.04    4.14
   0   9  17    1.64    3.23
   0   9 -17   -1.78    3.31
   0   9  18    4.47    4.13
   0   9 -18   -3.62    3.32
   0   9  18   -1.06    3.16
   0  -9  18    7.55    3.83
   0   9 -19   -1.10    3.11
   0  -9  19    5.85    3.74
   0   9  19   -3.06    3.38
   0   9  19    1.40    4.16
   0   9 -20    0.48    3.28
   0  -9  20    2.65    3.04
   0   9  20    9.24    5.50
   0   9  20    1.00    2.80
   0   9  21   12.08    5.71
   0   9  21    4.14    3.06
   0  -9  21    9.74    4.61
   0   9 -21    4.42    3.89
   0  -9  22    4.54    3.86
   0   9  22    4.27    5.02
   0   9 -22    0.88    3.83
   0   9  22   -2.98    3.51
   0   9 -23    5.07    4.16
   0   9  23   -0.93    2.99
   0   9  23    4.81    5.49
   0   9  24   -0.42    2.56
   0   9 -24   -2.54    4.07
   0   9  25    4.24    3.72
   0  10   0   29.21    5.49
   0  10   1   11.83    3.68
   0  10  -1   12.33    3.86
   0  10  -2   11.74    3.90
   0  10   2   13.77    4.10
   0  10   3   -2.29    2.75
   0  10  -3   -1.37    2.65
   0  10   4  287.83   15.59
   0  10  -4  297.45   15.70
   0 -10  -5  288.85   15.65
   0  10   5  289.13   15.53
   0  10  -5  289.41   15.43
   0  10   6  270.08   15.14
   0 -10  -6  271.24   15.28
   0  10  -6  269.43   15.19
   0  10   7   91.36    9.17
   0 -10  -7   97.99    9.50
   0  10  -7  105.41    9.72
   0  10   8  794.45   26.12
   0  10  -8  749.82   25.35
   0 -10  -8  769.34   26.21
   0  10  -9   78.33    8.47
   0  10   9   81.47    8.95
   0 -10  -9   74.04    8.64
   0  10  10    3.33    3.47
   0  10 -10    1.77    2.75
   0  10 -10    4.59    2.83
   0 -10 -10    6.53    3.67
   0  10 -11  393.50   19.30
   0  10 -11  391.88   18.75
   0  10  11  388.07   18.91
   0 -10 -11  397.38   19.68
   0  10 -12   86.12    9.02
   0 -10 -12   98.00   10.19
   0  10  12  106.95   10.22
   0  10 -12   95.97   10.19
   0 -10 -13   61.86    8.24
   0  10 -13   63.20    8.25
   0  10  13   62.21    8.28
   0  10  14  341.81   18.28
   0 -10 -14  307.99   18.16
   0  10 -14  327.71   18.24
   0  10 -15   12.61    4.44
   0  10  15    8.93    3.89
   0  10 -16  -11.83    4.35
   0  10  16    0.18    2.35
   0  10 -17    7.56    3.76
   0  10  17   10.00    4.29
   0  10 -18  176.64   14.47
   0  10  18  168.85   13.62
   0  10 -19   20.83    5.76
   0  10  19   22.58    6.08
   0  10  20   12.96    4.52
   0  10 -20   13.20    5.14
   0  10  21   52.25    8.17
   0  10 -21   56.58    8.81
   0  10 -22  367.79   21.78
   0  10  22  387.24   21.48
   0  10  23    1.69    3.47
   0  10  24   22.17    5.81
   0  11   0   -3.00    3.28
   0  11  -1   -0.30    2.51
   0  11   1    2.29    2.83
   0  11  -2   -0.29    2.49
   0  11   2   -0.66    2.66
   0  11  -3   -2.31    2.80
   0  11   3    0.92    2.85
   0  11   4    1.76    3.48
   0  11  -4    0.73    3.46
   0 -11  -4   -1.36    2.77
   0  11  -5   -3.53    3.65
   0  11   5   -0.58    2.57
   0 -11  -5    0.58    2.55
   0  11   6   -0.09    3.31
   0 -11  -6   -1.00    3.03
   0  11  -6   -2.51    3.03
   0  11   7   -2.41    3.22
   0 -11  -7   -1.88    2.90
   0  11  -7    0.66    2.85
   0 -11  -8   -2.55    3.12
   0  11   8    0.04    3.49
   0  11  -8    4.17    3.53
   0  11   9    5.96    4.45
   0  11  -9    2.73    3.99
   0 -11  -9   -0.02    2.99
   0  11 -10    1.35    3.42
   0  11 -10   -1.66    2.91
   0 -11 -10    0.88    3.14
   0  11  10    4.10    3.24
   0  11 -11   -6.00    3.88
   0 -11 -11    1.00    2.52
   0  11 -11   -3.56    4.08
   0  11  11    0.27    2.95
   0 -11 -12    4.71    3.62
   0  11  12    6.27    3.45
   0  11 -12    2.79    3.73
   0  11 -12    0.24    3.07
   0  11  13   -3.41    3.23
   0  11 -13    0.36    3.33
   0 -11 -13   -0.99    3.31
   0 -11 -14   -6.63    4.78
   0  11 -14   -0.86    3.21
   0  11  14    0.47    3.19
   0  11 -15    3.04    2.85
   0  11  15    0.27    3.33
   0 -11 -15    2.20    3.09
   0  11 -16   -1.18    3.16
   0  11  16    0.25    2.85
   0  11 -17    0.36    3.00
   0  11  17    1.33    3.80
   0  11  18    0.86    2.87
   0  11 -18   -1.43    3.34
   0  11  19   -1.86    3.60
   0  11 -19   -1.65    3.85
   0  11  20    1.71    3.60
   0  11  21   -1.42    3.39
   0  12   0  225.61   15.25
   0  12   1    3.09    2.99
   0  12  -1    0.92    3.30
   0  12   2    1.15    3.14
   0  12  -2   -4.65    3.99
   0  12  -3  169.98   13.33
   0  12   3  154.93   12.63
   0 -12  -4    1.09    2.95
   0  12   4    7.82    3.85
   0  12  -4    1.67    3.20
   0  12   5  128.25   11.88
   0 -12  -5  131.20   11.83
   0  12  -5  131.73   11.89
   0 -12  -6    4.84    3.38
   0  12  -6    9.85    4.39
   0  12   6    8.74    3.58
   0  12   7   45.76    7.49
   0  12  -7   47.14    7.10
   0 -12  -7   42.78    7.14
   0  12  -8   36.96    6.64
   0  12   8   31.13    6.66
   0 -12  -8   33.66    6.48
   0 -12  -9   18.73    5.17
   0  12   9   26.20    5.75
   0  12  -9   28.84    6.36
   0  12 -10  396.74   20.79
   0 -12 -10  371.79   20.81
   0  12  10  386.52   20.69
   0  12 -10  403.84   21.44
   0  12 -11  167.31   14.10
   0 -12 -11  155.60   13.64
   0  12  11  169.74   14.24
   0  12 -11  160.43   13.44
   0  12 -12   49.17    7.80
   0  12 -12   58.04    8.80
   0 -12 -12   41.73    7.32
   0  12  12   50.40    8.00
   0  12 -13   -2.81    3.81
   0 -12 -13    3.96    3.03
   0  12  13    1.01    3.36
   0  12  14   28.18    6.34
   0 -12 -14   12.63    4.51
   0  12 -14   31.24    6.72
   0  12 -15    0.45    3.22
   0  12  15    3.54    3.65
   0 -12 -15   -2.09    3.92
   0  12  16    3.11    2.91
   0  12 -16    4.29    3.51
   0  12  17   15.26    5.25
   0  12  18    3.56    3.52
   0  13   0    0.16    3.66
   0  13   1   -3.25    3.46
   0  13  -1   -0.35    3.25
   0  13  -2   -3.80    3.33
   0  13   2    0.94    3.39
   0  13   3    3.74    2.84
   0  13  -3   -1.10    2.72
   0 -13  -3   -1.99    3.69
   0  13   4   -2.09    3.89
   0 -13  -4   -0.12    3.25
   0  13  -4   -0.25    3.01
   0  13  -5   -4.18    4.57
   0 -13  -5    1.70    2.51
   0  13   5   -1.20    3.27
   0  13  -6    3.53    4.31
   0 -13  -6    0.25    2.93
   0  13   6    0.00    3.39
   0  13   7   -5.30    4.23
   0 -13  -7    6.26    4.37
   0  13  -7    2.70    2.98
   0  13  -8    0.40    3.16
   0 -13  -8   -1.16    3.76
   0  13   8   -7.46    4.71
   0 -13  -9    3.59    3.15
   0  13  -9    2.11    3.21
   0  13   9   -0.54    4.00
   0  13 -10    7.05    3.18
   0 -13 -10    4.58    4.22
   0  13  10    1.48    3.02
   0  13 -10    0.85    3.58
   0  13 -11    9.88    4.54
   0  13 -11    2.83    3.29
   0 -13 -11    2.76    3.48
   0  13  11   14.58    6.48
   0 -13 -12   -1.87    3.43
   0  13  12    3.58    3.90
   0  13 -12    3.65    4.07
   0  13 -12    3.55    3.63
   0  13  13   -2.06    3.74
   0  13  14   -0.59    3.04
   0  14   0   41.43    8.23
   0  14  -1   87.12   10.59
   0  14   1   76.68   10.32
   0 -14  -2    0.30    3.21
   0  14  -2    0.90    3.19
   0  14   2    0.88    3.48
   0  14  -3   14.95    5.55
   0  14   3   20.55    5.57
   0 -14  -3   12.53    4.72
   0  14   4   24.81    6.37
   0  14  -4   27.53    6.54
   0 -14  -4   19.15    5.64
   0  14  -5    3.14    3.54
   0  14   5    2.06    3.46
   0 -14  -5    3.53    3.42
   0  14   6   54.33    8.97
   0 -14  -6   61.85    9.32
   0  14  -6   43.23    8.00
   0  14   7  135.76   13.63
   0  14  -7  147.28   13.93
   0 -14  -7  147.37   14.07
   0  14   8  125.63   13.17
   0  14  -8  138.19   13.67
   0  14  -9   13.06    5.56
   1   0   3    0.90    0.71
   1   0   3    9.90    1.75
   1   0  -3    6.58    1.48
   1   0   3   -0.21    0.77
  -1   0   3    0.50    0.56
   1   0   3    2.79    0.73
  -1   0  -3    4.16    1.14
   1   0  -4 1809.07   17.43
   1   0   4 1769.64   16.91
   1   0   4 1781.15   10.58
   1   0  -4 1694.67   12.42
   1   0   4 1706.34   14.57
  -1   0   4 1752.63   12.24
  -1   0  -4 1771.87   10.49
  -1   0   4 1774.13   14.62
  -1   0   4 1716.96   17.27
  -1   0  -4 1750.61   17.03
   1   0  -4 1729.66   14.85
  -1   0  -4 1785.11   17.23
  -1   0  -4 1813.99   12.51
   1   0  -4 1735.34   13.27
   1   0   4 1770.34   17.23
   1   0   4 1759.93   12.80
  -1   0  -5    4.46    1.48
  -1   0   5    5.63    1.50
   1   0   5    7.57    1.66
   1   0  -5    9.40    1.28
   1   0   5    5.83    0.94
   1   0   5    3.74    1.42
   1   0   5    5.50    1.64
  -1   0  -5    3.53    0.91
  -1   0   5    6.10    0.95
   1   0   5    5.58    0.87
   1   0  -5    5.46    1.18
  -1   0  -5    3.60    0.88
   1   0  -5    3.91    0.87
   1   0  -6 3234.46   16.87
   1   0   6 3394.26   27.73
   1   0  -6 3270.76   21.36
  -1   0  -6 3371.71   19.92
   1   0   6 3310.62   27.07
  -1   0   6 3367.19   16.77
   1   0  -6 3325.82   21.58
   1   0   6 3281.46   21.64
   1   0   6 3256.80   19.93
  -1   0   6 3413.71   27.92
  -1   0  -6 3426.25   17.21
   1   0  -6 3332.04   27.35
  -1   0  -6 3260.57   26.59
   1   0   6 3284.17   17.38
  -1   0   6 3358.20   21.31
   1   0  -7    1.58    0.90
  -1   0   7    3.23    1.57
   1   0   7    5.54    1.56
   1   0   7    3.83    1.74
   1   0   7    5.63    1.63
   1   0   7    2.48    1.95
   1   0  -7    0.82    0.93
   1   0   7    1.25    0.63
  -1   0  -7    1.24    1.59
  -1   0   7    1.25    0.63
  -1   0  -7    3.08    1.74
   1   0  -7    0.85    0.62
  -1   0   7    0.64    1.29
  -1   0  -7    1.29    0.64
   1   0  -8 3233.26   24.44
   1   0   8 3253.11   24.28
   1   0   8 3240.42   16.92
   1   0   8 3280.76   30.10
   1   0   8 3224.58   31.22
   1   0  -8 3106.52   16.07
   1   0   8 3253.68   23.00
  -1   0  -8 3304.94   16.69
  -1   0   8 3312.94   30.89
   1   0  -8 3231.51   22.56
   1   0  -8 3305.78   30.70
  -1   0  -8 3291.53   24.14
  -1   0   8 3202.15   16.07
  -1   0   8 3301.27   24.41
   1   0  -9    1.14    0.90
   1   0  -9    0.28    0.97
  -1   0  -9   14.76    3.32
  -1   0   9    1.67    1.53
   1   0   9    0.10    0.44
   1   0   9   14.38    4.16
   1   0   9    8.95    3.18
   1   0   9    5.78    2.11
   1   0   9    7.74    1.95
  -1   0   9    1.11    0.46
  -1   0   9    2.17    1.60
   1   0  -9    0.96    0.43
  -1   0  -9   -0.11    0.44
   1   0 -10    8.39    2.24
   1   0  10    5.65    1.24
   1   0  10    6.62    1.39
  -1   0 -10    7.11    1.60
  -1   0 -10    5.48    0.70
   1   0  10    7.65    2.01
  -1   0  10    5.08    1.82
   1   0  11    3.87    1.53
   1   0  11    0.29    1.02
  -1   0  11    7.68    2.41
   1   0 -11    8.58    3.07
   1   0  11   10.46    4.21
  -1   0 -11    1.27    1.62
  -1   0  12 1769.66   22.32
   1   0  12 1774.57   28.27
   1   0 -12 1720.33   26.72
  -1   0 -12 1779.07   23.00
   1   0  12 1842.06   23.32
   1   0  13   55.61    7.31
  -1   0  13   16.43    4.43
  -1   0 -13   47.87    4.92
   1   0 -13   54.84    6.32
   1   0  13   18.73    3.63
  -1   0  14  767.85   16.06
   1   0  14  764.58   20.16
  -1   0 -14  775.00   16.76
   1   0 -14  808.44   19.74
   1   0  14  804.41   18.24
  -1   0  15   28.86    5.04
   1   0 -15   44.09    6.43
  -1   0 -15   24.82    4.54
   1   0  15   17.15    3.63
   1   0  15   57.89    7.44
   1   0  16 2250.27   37.15
   1   0  16 2295.73   32.76
  -1   0 -16 2189.65   30.58
  -1   0  16 2244.60   29.39
   1   0 -16 2278.87   35.36
  -1   0 -17   61.35    6.56
   1   0 -17   88.44    8.34
  -1   0  17   41.25    6.80
   1   0  17   84.55    8.72
   1   0  17   24.83    4.93
   1   0 -18   -0.03    2.55
  -1   0 -18    2.52    2.51
  -1   0  18    0.73    1.96
   1   0  18   -1.62    2.24
   1   0  18   -0.54    3.22
   1   0  19   -1.63    2.70
   1   0  19    0.48    2.20
   1   0 -19   -2.48    2.74
  -1   0 -19    1.68    2.16
  -1   0  19    2.42    2.62
  -1   0 -20  120.13    8.40
   1   0 -20  100.45    8.40
   1   0  20  119.15    8.75
   1   0  20  127.70   10.50
  -1   0  20  113.43    7.74
   1   0 -21    0.86    2.57
   1   0  21    4.25    2.63
  -1   0 -21    2.18    2.28
   1   0  21    2.18    3.16
  -1   0  21    7.36    3.08
  -1   0 -22   81.19    7.43
   1   0 -22   72.53    7.76
   1   0  22   64.10    8.01
   1   0  22   55.56    6.33
  -1   0  22   72.03    6.63
  -1   0  23    6.20    3.25
  -1   0 -23   13.05    3.74
   1   0  23   11.85    4.57
   1   0 -23    6.85    3.63
   1   0  23    1.45    2.42
   1   0 -24  390.90   18.53
   1   0  24  411.91   17.44
  -1   0 -24  407.11   17.27
   1   0  24  397.03   20.22
  -1   0  25   23.69    6.66
   1   0  25   26.78    7.18
  -1   0 -25   29.53    5.51
   1   0 -25   23.93    5.84
   1   0  25   21.20    5.31
  -1   0 -26  497.94   20.12
   1   0  26  516.40   24.49
   1   0 -26  506.24   22.26
  -1   0  26  539.92   24.53
   1   0  27   12.04    5.14
   1   0 -27   19.82    6.07
  -1   0  27   22.05    6.22
   1   0 -28    8.03    4.13
  -1   0  28   -0.77    4.10
   1   0  28    3.17    2.79
   1   0 -29    5.37    3.33
   1   0 -30   51.06    7.92
   1   1   2 2977.09   14.55
   1  -1   2 2627.58   13.60
   1   1   3  539.58    6.35
   1   1  -3  536.99    9.01
  -1   1   3  616.16   10.16
   1   1   3  522.09    9.10
   1  -1   3  560.87    9.22
   1   1  -3  514.79    7.79
  -1  -1   3  527.80    9.18
   1   1   3  534.72    7.92
  -1   1  -3  529.22    9.28
   1  -1   3  530.57    6.14
  -1   1  -4  171.05    4.49
  -1  -1  -4  176.18    4.79
  -1   1  -4  170.23    5.73
   1  -1  -4  176.62    5.74
   1   1   4  166.86    3.58
   1  -1   4  182.84    5.94
   1   1   4  167.51    5.62
  -1  -1   4  174.21    5.71
   1   1   4  174.25    3.88
  -1   1  -4  184.73    3.80
   1   1  -4  174.73    5.67
   1   1   4  172.92    4.53
  -1   1   4  172.19    5.74
   1   1  -4  162.30    4.42
   1  -1  -4  171.71    5.41
   1  -1   4  171.46    3.76
   1   1   5  654.85    8.79
  -1  -1  -5  649.73    9.95
   1   1  -5  643.20    8.64
  -1  -1  -5  661.52    8.01
  -1   1   5  688.97   11.02
  -1   1  -5  673.04   12.06
  -1   1  -5  651.42   10.03
   1   1   5  655.44   11.80
  -1  -1   5  641.92   10.00
  -1   1   5  660.31   11.82
   1  -1  -5  647.36   11.67
   1  -1  -5  633.08   10.77
  -1   1  -5  636.75   11.04
  -1   1  -5  643.08    8.60
   1  -1   5  641.56   11.68
  -1  -1   5  672.06   12.04
   1  -1   5  659.00    8.04
   1   1   5  658.60   10.09
  -1   1  -5  641.03    9.05
   1   1  -5  648.86   11.64
   1   1   5  640.19    8.02
  -1   1   5  662.43    8.62
   1   1   5  660.03    8.21
   1   1   6  137.41    4.01
   1   1   6  140.58    5.97
  -1   1   6  144.04    4.02
   1   1  -6  140.82    5.91
   1  -1   6  134.96    5.95
  -1   1   6  159.46    5.81
  -1   1   6  142.44    5.81
  -1  -1  -6  140.60    4.13
   1  -1  -6  143.23    5.40
   1  -1   6  143.72    4.17
   1   1   6  143.87    4.26
  -1   1  -6  147.36    5.66
  -1   1  -6  138.10    5.91
  -1   1  -6  140.87    4.73
  -1  -1   6  149.95    3.45
   1  -1  -6  132.25    5.74
  -1   1  -6  137.98    4.85
   1   1   6  144.01    5.11
  -1   1  -6  139.55    4.03
  -1  -1   6  143.08    5.96
   1   1  -6  137.97    3.98
  -1  -1   6  142.36    4.84
  -1   1  -7  380.03    6.54
  -1  -1  -7  397.54    7.65
   1   1   7  390.94    9.00
  -1  -1   7  387.64    6.25
  -1   1   7  383.89    6.51
  -1  -1   7  381.65    8.07
   1   1   7  371.33    7.59
  -1   1   7  376.31    9.24
   1   1   7  393.42    6.73
   1   1  -7  372.93    6.43
   1   1   7  382.28   10.20
  -1   1  -7  382.63    8.08
  -1   1  -7  377.73    9.49
  -1   1   7  390.69   10.24
   1  -1  -7  386.02    9.23
   1  -1  -7  380.98   10.06
   1  -1   7  389.55    8.40
  -1  -1   7  400.53   10.51
  -1   1  -7  376.77    8.24
   1  -1   7  384.73   10.32
   1   1  -7  383.53   10.11
   1  -1  -8  416.27   10.10
   1  -1  -8  423.40   11.15
  -1   1  -8  409.85   10.41
   1   1  -8  407.48   10.94
   1  -1   8  412.52    9.18
  -1  -1  -8  413.48    8.55
   1   1   8  425.48    6.87
   1   1   8  416.96    9.96
   1   1   8  412.62    8.65
  -1   1  -8  380.14    8.83
  -1  -1   8  423.35    7.23
  -1  -1   8  415.54    8.12
  -1  -1   8  412.85    8.57
  -1   1  -8  408.23    6.75
  -1   1   8  422.83    6.69
  -1   1   8  435.13   11.33
   1   1  -8  398.58    6.60
  -1   1   8  405.20   10.05
  -1   1  -8  409.52    8.53
   1   1   8  422.87   11.19
   1  -1   8  426.51   11.44
  -1  -1   8  428.81   11.33
   1  -1  -9  103.91    6.19
   1  -1  -9  107.47    5.40
  -1   1  -9  101.28    3.34
   1   1   9  102.91    4.65
   1   1  -9  113.23    6.12
  -1  -1  -9  108.20    4.72
   1  -1  -9  106.91    4.37
   1  -1   9   89.32    5.78
  -1  -1   9  107.43    4.53
  -1   1   9  108.56    6.05
   1   1  -9  101.40    3.28
  -1   1  -9  103.36    5.52
  -1   1   9  105.75    3.36
  -1  -1   9  102.82    4.43
   1   1   9  107.39    3.42
  -1   1  -9  103.69    4.41
  -1   1  -9   99.11    4.86
   1  -1   9  104.08    4.97
  -1   1   9  105.70    5.54
  -1  -1   9  107.17    3.97
   1   1   9  118.05    5.67
  -1  -1 -10   34.44    2.99
   1  -1  10   36.53    4.50
  -1   1  10   29.85    3.33
  -1  -1  10   32.03    2.47
  -1   1 -10   29.51    2.40
   1  -1 -10   31.39    2.50
   1   1  10   32.37    1.89
  -1   1 -10   30.53    3.46
   1   1 -10   28.68    1.73
  -1   1 -10   31.05    1.84
  -1   1 -10   30.81    3.03
   1   1  10   32.48    2.85
  -1   1  10   31.97    1.84
   1  -1 -10   34.38    3.26
   1   1  10   34.18    3.36
   1   1 -10   31.20    3.64
  -1  -1  10   28.90    2.58
  -1  -1  10   31.60    2.60
   1  -1  10   34.12    3.11
   1  -1 -10   36.35    4.10
   1  -1 -11  302.85    7.53
   1   1  11  304.06    8.97
   1   1 -11  296.56   11.15
   1  -1  11  304.31    9.29
   1  -1  11  305.24   11.28
  -1  -1  11  289.22    8.37
   1   1  11  292.44   10.43
   1   1  11  286.81    9.73
  -1  -1 -11  297.34    8.90
  -1  -1  11  293.26    7.70
   1   1 -11  267.93    5.01
  -1   1 -11  294.70    9.24
   1   1  11  284.15    5.31
  -1   1  11  276.16    5.00
   1   1  11  300.52    7.87
  -1  -1  11  291.95    7.72
   1  -1 -11  292.61    9.62
  -1   1 -11  286.76    5.28
  -1   1  11  290.79    9.65
   1  -1 -11  312.01   10.99
  -1  -1  12   40.61    3.11
   1   1 -12   44.55    4.87
   1   1 -12   31.97    1.66
  -1  -1  12   41.21    3.50
   1  -1  12   40.20    3.66
   1  -1 -12   37.94    2.77
   1   1  12   36.97    2.85
   1   1  12   41.42    4.39
  -1   1  12   32.39    1.62
  -1   1 -12   38.65    3.65
  -1  -1 -12   42.13    3.91
  -1   1  12   46.31    4.64
   1  -1 -12   48.97    5.21
  -1   1 -12   33.69    1.75
  -1  -1  12   34.95    3.21
   1   1  12   32.86    1.77
   1  -1  12   45.84    5.70
   1   1  12   38.50    3.50
   1  -1  12   30.11    1.48
   1  -1 -13  700.60   17.62
   1  -1  13  672.15   18.32
  -1  -1  13  683.81   13.06
  -1  -1  13  693.69   12.27
   1   1 -13  678.77   17.65
   1   1  13  671.61   16.85
   1   1  13  670.28   12.11
  -1   1  13  689.40   15.84
   1   1  13  695.70   14.99
   1   1  13  625.37    6.56
  -1   1 -13  663.08   15.45
  -1  -1 -13  689.60   15.08
  -1  -1  13  705.88   14.63
   1  -1 -13  689.09   11.58
  -1   1  14   83.53    6.25
   1  -1 -14   75.78    3.95
   1   1  14   89.69    6.95
  -1  -1 -14   88.25    6.08
  -1   1 -14   87.46    6.04
   1  -1 -14  100.65    7.50
   1   1  14   72.71    4.21
   1   1 -14   80.32    7.08
   1  -1  14   82.10    7.21
  -1  -1  14   84.72    5.19
  -1  -1  15   86.56    5.25
   1   1 -15   77.19    6.59
   1  -1  15   87.46    7.53
  -1   1  15   97.90    6.63
   1  -1 -15   81.36    6.83
   1   1  15   92.76    4.69
   1   1  15   78.78    6.37
  -1  -1 -15   84.13    5.91
  -1   1 -15   87.35    6.19
   1   1 -16  188.99   10.40
   1   1  16  193.84   10.13
   1  -1  16  198.67   11.50
  -1   1 -16  185.40    9.19
  -1  -1  16  187.44    8.03
   1  -1 -16  192.71   10.57
   1   1  16  178.48    6.49
  -1   1  16  182.22    9.52
  -1  -1 -16  186.26    9.06
  -1   1 -17  923.36   21.07
  -1  -1 -17  928.76   20.69
   1   1 -17  900.34   23.42
  -1   1  17  933.35   21.16
   1  -1  17  897.69   20.48
   1  -1  17  912.29   24.57
  -1  -1  17  912.49   18.07
   1  -1 -17  917.38   23.19
   1   1  17  900.26   22.33
   1   1  18   19.32    4.98
  -1   1  18   22.98    5.70
   1  -1 -18   31.59    5.73
  -1  -1 -18   37.09    5.18
   1  -1  18   35.37    6.05
   1  -1  18   10.50    4.18
  -1   1 -18   23.91    4.17
   1   1 -18   44.37    6.33
  -1  -1  18   26.88    4.44
  -1   1 -19   18.80    4.20
   1   1  19   15.12    4.25
   1  -1 -19   27.88    5.15
   1  -1  19   11.59    2.93
   1  -1  19   22.01    5.71
  -1  -1  19   20.75    3.62
   1   1  19   20.12    5.12
  -1  -1 -19   25.03    4.26
   1   1 -19   18.68    4.48
  -1   1  19   22.48    4.62
   1  -1  20  569.06   17.86
   1   1  20  534.00   20.94
  -1   1 -20  552.48   18.08
   1   1  20  569.35   19.09
  -1  -1  20  568.97   15.87
   1  -1  20  576.46   21.45
  -1  -1 -20  543.56   17.50
  -1   1  20  557.33   17.93
   1  -1 -20  568.76   19.92
   1   1 -20  581.71   20.34
   1   1  21   17.87    4.62
   1   1  21   25.96    5.77
  -1   1 -21   22.67    4.53
   1  -1  21   22.70    6.38
   1  -1 -21   27.84    5.43
   1   1 -21   27.92    5.63
  -1  -1 -21   16.47    4.40
  -1  -1  21   17.93    4.29
   1  -1  21   19.48    3.79
  -1   1  21   24.08    5.08
   1  -1 -22  125.32   10.23
   1  -1  22  119.59    8.79
   1  -1  22  123.05   10.75
  -1   1 -22  130.77    9.56
  -1  -1 -22  116.16    8.79
  -1  -1  22  126.52    8.14
   1   1 -22  123.60   10.33
  -1   1  22  120.06    8.89
  -1  -1  22  125.38   10.78
   1   1  22  122.05    9.58
   1   1  22  119.81   10.65
  -1  -1  23  123.85   11.00
  -1   1 -23  132.85    9.91
  -1  -1 -23  103.79    8.64
   1   1 -23  129.24   10.63
   1  -1  23  114.58    8.83
   1  -1 -23  119.75   10.28
  -1   1  23  126.30    9.40
   1  -1  23  116.02   10.68
   1   1  23  116.74   11.07
   1   1  23  117.53    9.70
  -1  -1  24    0.73    3.34
  -1   1 -24    6.81    3.24
   1  -1  24   11.74    3.58
   1   1  24    4.28    4.23
   1  -1 -24    2.19    2.87
   1   1  24    5.33    3.46
   1   1 -24    4.86    3.95
  -1  -1 -24    5.79    2.89
  -1   1  24    8.17    3.76
   1  -1  24    3.74    3.88
   1  -1  25  107.55   11.51
   1  -1 -25   99.53    9.82
   1   1 -25   94.06    9.79
  -1  -1  25   94.00   10.30
  -1  -1 -25  107.66    9.21
   1   1  25   98.72   10.61
  -1   1 -25  107.71    9.41
   1   1  25   91.85    9.10
   1   1 -26  104.29   10.42
   1  -1 -26  105.41   10.43
  -1  -1  26  106.84   11.30
   1  -1  26  108.65   11.47
  -1  -1 -26  103.56    9.08
   1   1  26  104.04    9.70
  -1   1 -26  104.08    9.29
   1   1  26   97.07   10.98
   1  -1 -27    3.86    3.04
   1  -1  27    4.44    3.64
   1   1 -27    4.04    3.14
  -1  -1  27    4.41    3.85
   1   1  27    3.47    3.62
   1   1 -28    3.61    3.54
   1  -1  28    4.47    4.50
   1  -1 -28    0.39    2.51
  -1   1  28    5.30    4.51
   1   1  28   -2.22    3.69
  -1  -1  28    2.58    3.81
   1   1 -29    1.62    3.31
   1  -1 -29    3.35    3.06
   1   1 -30    1.65    2.59
   1  -1 -30    3.92    2.95
   1   1 -31   12.83    4.47
   1   2   0   -0.61    1.02
  -1  -2   0    1.94    1.11
  -1   2   0   -0.38    0.98
   1   2   0    1.76    1.11
   1  -2   0    1.09    0.85
   1   2  -1  135.80    3.56
   1   2  -1  130.99    4.72
   1  -2   1  130.12    4.43
   1   2   1  133.03    4.44
  -1  -2   1  129.01    4.75
  -1  -2  -1  133.01    4.58
   1  -2  -1  127.73    4.73
   1  -2  -1  132.12    4.51
  -1   2  -1  135.60    4.38
   1   2   1  143.14    4.64
  -1   2   1  133.02    4.74
   1   2  -2  456.97    9.10
  -1   2  -2  449.73    8.95
  -1   2   2  449.93    9.20
   1   2   2  496.54    9.34
  -1   2   2  450.26    8.93
  -1  -2  -2  447.74    8.15
  -1  -2   2  469.16    9.29
   1   2   2  468.43    8.10
   1   2  -2  433.87    5.46
  -1   2  -2  463.36    7.98
   1  -2   2  449.51    7.97
  -1   2   2  451.33    9.08
   1  -2  -2  469.71    8.89
   1   2  -2  456.28    8.89
  -1  -2  -3 8269.52   35.08
  -1   2   3 8234.10   41.21
   1  -2  -3 8052.46   40.42
  -1   2   3 8014.80   40.19
   1  -2  -3 8208.73   40.09
  -1   2   3 8307.89   40.62
   1  -2   3 8217.07   34.24
   1  -2   3 8419.60   39.54
  -1  -2   3 8233.55   25.77
   1   2   3 8221.39   39.88
   1   2   3 8337.91   34.72
  -1  -2   3 8257.50   40.99
  -1   2  -3 8483.56   40.45
  -1   2  -3 8396.55   33.81
   1   2  -3 8262.73   39.79
  -1  -2   4  364.56    9.09
   1   2  -4  369.66    9.06
  -1  -2  -4  366.47    8.45
   1   2   4  468.66   10.89
   1   2   4  370.06    7.50
   1  -2   4  366.14    8.88
  -1   2  -4  363.30    7.25
   1  -2  -4  376.79    9.24
   1  -2  -4  351.42    9.06
  -1  -2   4  354.76    6.38
  -1  -2  -4  349.23    7.40
   1  -2   4  361.97    7.27
  -1   2   4  368.52    9.07
  -1  -2   4  359.36    9.02
  -1   2  -4  355.17    8.80
  -1   2   4  376.67    9.23
   1   2  -5 7186.74   42.00
   1  -2  -5 7446.91   42.29
  -1  -2  -5 7237.62   38.90
  -1   2  -5 7329.25   33.50
   1  -2   5 7281.28   41.20
  -1   2   5 7465.92   43.46
  -1  -2   5 7072.23   32.66
   1   2   5 7311.40   42.36
   1   2   5 7484.51   33.12
  -1  -2  -5 7375.96   34.91
  -1   2   5 7296.09   41.24
  -1  -2   5 7313.66   42.14
   1   2   5 7184.11   34.32
  -1   2  -5 7426.03   42.04
   1  -2   5 7254.82   33.64
  -1   2   5 7193.24   41.93
   1  -2  -5 7254.11   41.74
  -1  -2   5 7253.87   42.46
  -1   2   6 1041.92   16.81
   1  -2  -6 1083.38   16.97
  -1   2  -6 1096.58   17.09
   1  -2  -6 1004.35   16.49
  -1  -2  -6 1018.95   15.31
  -1   2  -6 1093.28   15.08
   1   2   6 1028.07   13.55
  -1   2   6 1102.45   16.71
   1   2  -6 1066.33   17.03
   1  -2   6 1089.71   13.52
   1  -2   6 1029.05   16.43
   1   2   6 1042.61   13.02
  -1  -2   6 1109.55   17.28
  -1   2  -6 1001.29   12.96
  -1   2   6 1094.30   17.66
   1   2   6 1071.82   17.47
  -1   2  -7  398.36   10.86
  -1   2   7  406.28   10.88
   1   2   7  392.47   11.04
   1  -2   7  388.60   10.64
  -1  -2   7  380.42   10.70
   1  -2  -7  390.88   10.60
  -1   2   7  383.55   10.53
   1   2  -7  378.74   10.65
   1   2   7  361.36    8.51
   1   2   7  405.14   10.24
  -1   2   7  381.58   11.03
  -1   2  -7  368.43    9.15
   1   2   7  387.03    8.41
   1  -2  -7  391.28   10.48
   1  -2   7  383.15    8.45
  -1  -2  -7  374.60    9.79
  -1   2  -8   88.65    5.34
   1   2   8   97.04    5.31
  -1  -2   8   88.45    2.49
   1   2   8   90.60    4.52
   1   2   8   90.97    4.34
  -1  -2  -8   92.09    4.46
   1   2  -8   98.70    5.89
   1   2   8   92.10    3.96
   1   2  -8   88.41    3.84
  -1   2  -8   95.53    5.04
  -1   2  -8   89.94    4.99
   1  -2  -8   93.11    5.34
   1  -2   8   94.61    5.81
   1   2   8   89.72    5.89
   1  -2  -8   95.73    5.53
   1  -2   8   88.41    4.32
  -1   2   8  104.22    5.81
  -1   2   8   97.91    5.55
  -1   2  -9  594.02   12.70
  -1  -2  -9  547.96   11.43
   1   2   9  576.98   11.53
   1   2  -9  579.41   14.43
   1   2  -9  547.35    9.41
  -1   2  -9  559.68   12.72
   1   2   9  544.91   11.41
  -1   2   9  584.93   14.02
   1  -2   9  573.77   14.22
   1   2   9  496.86    9.10
  -1  -2   9  567.79    7.41
   1  -2   9  579.79   11.44
   1  -2  -9  583.45   13.74
   1   2   9  583.15   13.39
   1  -2  -9  552.97   13.99
   1   2   9  596.29   14.72
   1   2  10 2750.53   32.39
   1   2 -10 2573.88   20.32
  -1   2  10 2659.57   20.75
  -1  -2  10 2692.30   17.98
  -1   2 -10 2675.06   28.48
   1   2  10 2700.04   21.00
   1  -2 -10 2723.34   31.63
  -1  -2  10 2676.97   22.02
   1   2 -10 2611.77   31.78
  -1  -2 -10 2731.38   26.39
  -1   2 -10 2701.61   21.03
   1  -2  10 2684.70   25.75
  -1   2 -10 2702.43   24.79
   1   2  10 2742.14   26.29
  -1   2 -10 2683.79   28.86
   1  -2  10 2647.73   32.24
  -1   2  10 2704.77   30.66
   1   2  10 2665.55   26.10
  -1  -2  11  188.58    6.89
   1   2  11  215.66    9.83
  -1   2  11  213.46    9.51
   1   2  11  195.36    5.58
  -1   2 -11  188.97    6.67
  -1   2 -11  179.88    5.45
  -1   2  11  187.24    5.51
   1   2 -11  183.88    5.30
  -1  -2 -11  183.38    7.26
  -1  -2  11  188.06    6.32
   1  -2  11  176.77    8.86
   1   2 -11  198.69    9.16
  -1  -2  11  201.40    5.56
  -1   2 -11  180.75    7.98
  -1   2 -11  187.61    7.94
   1   2  11  192.58    7.39
   1  -2 -11  192.38    8.89
   1  -2  11  180.96    7.03
  -1   2  12   46.32    5.13
  -1   2 -12   39.35    3.15
   1  -2  12   37.57    3.40
  -1  -2 -12   40.72    4.01
   1  -2  12   36.01    4.55
  -1   2  12   42.14    2.62
  -1  -2  12   44.61    3.38
  -1  -2  12   45.09    2.98
   1  -2 -12   49.11    4.89
   1   2  12   45.91    4.22
   1   2  12   69.31    6.07
  -1   2 -12   38.85    2.53
  -1   2 -12   37.41    3.95
  -1  -2  12   40.20    3.33
   1   2 -12   38.04    4.45
  -1   2 -12   41.63    4.14
   1   2 -12   42.34    2.52
   1   2  12   50.71    2.91
   1  -2 -13  729.63   12.87
  -1   2  13  712.80    9.99
   1   2 -13  727.47   18.64
   1  -2  13  727.52   15.26
   1   2 -13  701.71    9.80
  -1   2 -13  731.67   16.76
  -1  -2  13  726.50   13.92
  -1   2 -13  731.46   13.29
   1   2  13  722.88   18.49
   1  -2 -13  711.91   18.26
  -1  -2  13  738.65   13.92
  -1   2 -13  751.95   17.14
  -1  -2 -13  737.15   15.99
  -1   2  13  706.62   17.28
  -1  -2  13  716.40   11.85
  -1   2 -13  704.34   10.16
   1  -2  13  714.89   18.91
   1   2  13  736.33   10.24
  -1  -2 -14   80.83    5.72
  -1   2  14   67.52    2.96
  -1   2 -14   71.29    3.10
  -1   2  14   97.54    7.39
   1  -2 -14   97.07    7.49
   1   2 -14   76.41    6.97
  -1  -2  14   68.69    4.37
  -1  -2  14   78.31    4.90
   1   2  14   71.38    3.05
   1  -2 -14   70.60    4.06
  -1   2 -14   72.08    4.26
  -1  -2  14   84.24    4.66
  -1   2 -14   72.18    5.73
   1   2  14   90.16    7.33
   1  -2  14   72.69    6.91
   1   2 -14   66.24    2.90
  -1  -2  15  560.76   11.82
  -1  -2  15  574.57   12.61
   1  -2 -15  577.19   11.45
   1  -2  15  617.13   18.86
  -1  -2 -15  591.73   15.47
   1  -2 -15  570.03   17.38
  -1   2  15  585.28   16.79
  -1   2 -15  579.26   12.00
  -1   2  15  510.45    7.41
   1   2  15  542.03    7.88
  -1   2 -15  543.12    7.89
   1   2 -15  529.81    7.46
   1   2  15  586.98   17.57
   1   2 -15  578.77   17.84
  -1   2 -15  554.40   15.83
  -1  -2  16  172.23    7.03
  -1  -2 -16  184.03    9.17
  -1   2 -16  181.70    9.36
  -1   2  16  185.68   10.33
   1   2  16  143.18    3.56
   1  -2  16  193.25   11.48
   1   2  16  175.22   10.33
   1   2  16  157.40    6.69
   1   2 -16  173.53   10.32
  -1   2 -16  147.25    3.46
   1  -2 -16  177.20   10.20
   1  -2 -16  175.21    6.27
  -1  -2  16  188.12   10.70
  -1  -2  16  176.38    7.06
   1  -2  16  168.86    4.64
   1   2  17   93.82    5.10
  -1   2  17   94.01    7.51
  -1  -2  17   93.33    8.04
   1  -2 -17   97.38    8.11
  -1   2 -17   92.37    7.21
  -1  -2  17   98.13    5.48
  -1  -2 -17   94.18    6.83
   1  -2  17   87.95    3.07
   1  -2  17   95.41    8.36
   1   2 -17   99.83    8.12
   1   2  17   95.68    7.86
  -1  -2  17   94.93    5.26
   1  -2 -17   95.46    4.56
  -1  -2 -18   15.77    3.52
  -1  -2  18   16.18    4.23
  -1   2 -18   14.71    3.37
  -1  -2  18   14.61    2.55
   1  -2 -18   13.20    3.90
   1   2  18   14.25    4.18
   1  -2  18   18.90    4.87
   1   2  18   14.77    2.23
  -1   2  18   15.32    3.69
   1   2 -18   14.04    4.08
   1   2  19  106.97    9.16
  -1   2  19  106.94    8.66
  -1   2 -19   98.61    7.91
   1  -2  19  112.21   10.23
   1   2  19   87.26    4.99
   1  -2  19  100.90    7.38
  -1  -2  19   91.88    6.00
  -1  -2 -19  103.49    7.81
  -1  -2  19   93.38    8.70
   1  -2 -19  113.14    9.28
   1   2 -19  110.07    9.11
  -1  -2  20 1218.08   30.24
  -1   2  20 1205.39   27.95
  -1   2 -20 1240.56   27.72
   1  -2 -20 1186.86   28.91
  -1  -2  20 1179.01   20.95
   1   2 -20 1210.29   29.83
  -1  -2 -20 1193.10   26.09
   1   2  20 1206.69   28.93
   1  -2  20 1210.03   31.13
   1  -2  20 1175.21   24.64
   1  -2 -21  139.97   10.59
  -1  -2 -21  115.19    9.24
   1   2  21  118.44   10.17
  -1   2 -21  117.62    9.21
  -1  -2  21  123.78   10.63
   1  -2  21  110.16    8.07
  -1   2  21  142.80   10.14
   1   2 -21  123.01   10.84
   1  -2  21  134.91   11.77
  -1  -2  22   50.93    7.15
  -1   2  22   63.19    7.20
  -1   2 -22   56.00    6.58
   1  -2 -22   56.59    7.08
   1  -2  22   54.12    6.07
   1   2 -22   50.17    6.88
   1   2  22   58.12    6.95
   1  -2  22   57.65    7.57
  -1  -2 -22   54.42    6.21
  -1   2 -23  108.30    9.05
   1  -2 -23  100.47    9.33
   1   2  23  101.29    9.42
  -1  -2  23  114.54   10.46
  -1  -2 -23  113.13    8.86
   1   2 -23  108.81    9.86
   1   2  23  102.25   10.45
   1  -2  23  114.02    8.39
   1  -2  23  108.22   10.65
  -1   2  23  121.26    9.66
   1   2  24   43.23    6.49
   1  -2  24   38.73    6.88
  -1  -2 -24   35.20    5.25
  -1   2 -24   39.15    5.86
  -1   2  24   38.31    5.75
  -1  -2  24   36.97    6.38
   1   2 -24   35.28    6.05
   1   2  24   25.27    5.46
   1  -2 -24   32.99    5.89
  -1  -2  25    4.46    3.65
   1   2  25    0.77    3.69
   1  -2 -25    7.25    3.46
   1  -2  25    8.73    5.08
  -1  -2 -25    5.94    2.58
   1   2  25    8.29    3.78
  -1   2 -25    5.54    3.58
  -1   2  25   12.27    4.19
   1   2 -25    4.27    2.77
   1  -2  26   78.58    9.91
   1   2 -26   66.52    8.46
   1  -2 -26   73.53    8.80
   1   2  26   71.20    8.43
  -1  -2  26   74.86    9.32
   1   2  26   65.12    9.02
  -1   2 -26   68.12    7.69
   1  -2  27  150.37   13.69
   1   2 -27  154.16   13.00
   1   2  27  154.44   12.41
   1   2  27  159.09   14.10
  -1   2 -27  163.73   12.10
   1  -2 -27  173.67   13.35
  -1  -2  27  161.92   13.87
   1  -2 -28    6.88    2.98
   1  -2  28   19.69    6.28
   1   2  28    5.94    4.22
  -1  -2  28    5.60    4.28
   1   2 -28   14.02    5.18
   1  -2 -29   11.54    4.30
   1   2 -29   19.70    5.40
   1  -2 -30   94.20   10.47
   1   2 -30   93.86   10.62
   1  -3   0    0.50    0.99
   1   3   0    1.66    1.44
  -1  -3   0   -0.72    1.04
  -1   3   0    0.01    1.47
   1   3   0    1.44    1.21
  -1  -3   0    1.10    1.00
   1   3  -1 1922.52   20.94
   1   3   1 1940.44   20.38
   1  -3   1 1965.55   20.56
   1  -3  -1 1924.35   20.23
   1   3  -1 1883.17   16.62
   1   3   1 1888.71   19.21
  -1  -3  -1 1934.35   20.79
  -1   3  -1 1880.68   20.02
  -1  -3  -1 1898.24   19.36
  -1   3   1 1912.00   20.91
  -1  -3   1 1871.48   16.74
  -1  -3   1 1929.33   21.28
   1  -3  -1 1939.83   21.32
   1   3   2  399.25    9.30
  -1   3   2  399.04    9.92
   1   3  -2  404.82    9.93
  -1   3  -2  418.27    9.70
  -1   3  -2  401.77    9.29
   1  -3  -2  403.27    9.77
  -1  -3   2  424.20   10.17
   1  -3   2  408.93    9.34
   1  -3  -2  438.35   10.57
   1  -3  -2  407.78   10.08
  -1  -3  -2  407.61    9.54
  -1  -3  -2  400.09    9.43
   1   3  -2  411.48    7.04
   1   3   2  410.83    9.65
   1   3  -2  396.74    5.64
  -1  -3   2  410.59    7.18
  -1  -3   3 2617.82   16.15
   1   3   3 2708.72   25.55
  -1   3   3 2638.02   26.14
   1   3   3 2660.59   24.07
  -1   3  -3 2646.18   23.55
  -1  -3   3 2736.65   26.52
  -1  -3   3 2695.76   16.21
   1  -3  -3 2641.80   26.59
   1   3  -3 2671.45   16.37
   1  -3   3 2696.90   24.01
   1  -3  -3 2664.13   25.79
  -1  -3  -3 2703.18   24.48
  -1   3  -3 2680.21   25.02
   1   3  -3 2671.45   16.01
   1   3  -3 2645.13   26.10
   1  -3  -3 2659.36   26.51
   1   3  -4  309.57    9.22
  -1  -3   4  305.29    6.25
   1   3  -4  305.40    6.24
  -1   3  -4  310.79    8.14
   1  -3  -4  311.01    9.56
  -1  -3   4  307.61    4.83
  -1   3   4  316.18    9.41
  -1   3   4  307.38    9.29
   1  -3   4  313.98    8.32
  -1  -3   4  322.44    9.34
   1   3   4  304.97    9.33
  -1   3  -4  322.32    8.96
   1   3  -4  310.30    9.28
   1  -3  -4  305.90    9.21
  -1  -3  -4  313.88    8.46
   1  -3   4  332.53    9.25
  -1   3   4  303.28    9.21
   1   3   4  302.63    8.28
   1  -3  -5  878.79   16.38
   1   3   5  846.80   14.04
  -1   3   5  850.23   15.83
  -1   3  -5  889.47   15.47
   1  -3  -5  862.75   16.25
  -1   3  -5  851.47   13.70
   1   3  -5  904.96   16.19
  -1  -3   5  896.82   16.05
   1  -3   5  885.39   15.33
  -1   3   5  905.18   16.21
   1  -3   5  854.80   13.78
  -1  -3   5  841.90   11.58
  -1  -3  -5  888.11   15.55
  -1   3   5  866.90   16.26
   1   3   5  872.65   16.13
  -1  -3  -5  872.95   14.32
   1   3   6  535.76   11.46
  -1   3  -6  541.67   12.57
   1  -3   6  540.41   11.21
  -1  -3   6  550.52   12.99
   1   3   6  567.48   11.15
   1   3   6  536.80   13.39
  -1  -3  -6  532.82   11.47
   1  -3   6  523.15   12.37
  -1   3   6  549.27   13.46
  -1   3  -6  518.98   10.96
  -1   3   6  543.82   13.08
  -1  -3   6  509.53    9.91
  -1  -3  -6  553.35   12.74
  -1   3   6  525.49   13.21
   1  -3  -6  536.42   13.23
  -1   3   6  527.25   12.98
   1   3  -6  547.08   13.13
   1   3   7   95.42    6.85
   1  -3   7   59.77    4.62
   1   3   7   68.77    4.28
   1  -3  -7   63.52    4.94
  -1  -3   7   72.22    4.20
  -1   3   7   76.73    5.66
  -1   3   7   75.49    5.27
   1   3   7   74.57    4.22
  -1  -3  -7   69.67    4.83
   1   3  -7   66.03    5.02
   1   3  -7   64.65    2.49
  -1   3  -7   67.80    4.18
   1  -3   7   70.34    4.25
  -1   3  -7   67.49    4.83
  -1   3   8 2779.22   31.69
  -1  -3  -8 2763.44   30.63
   1   3  -8 2737.30   17.35
  -1  -3   8 2701.15   26.55
  -1   3  -8 2814.95   29.37
   1   3   8 2795.76   26.56
   1   3  -8 2713.46   31.91
   1   3   8 2780.64   32.37
   1  -3   8 2765.76   26.77
   1  -3   8 2767.53   30.87
   1   3   8 2709.23   27.43
   1  -3  -8 2784.37   31.53
   1   3  -9  266.14   10.48
  -1  -3   9  255.17    8.89
   1   3   9  263.00    8.56
  -1  -3  -9  256.07    9.79
   1  -3   9  273.19    8.67
  -1   3   9  286.16   10.88
   1   3   9  281.60   11.39
   1  -3  -9  259.66   10.10
   1   3   9  259.87    8.77
   1  -3   9  247.97    9.69
  -1   3  -9  268.54    9.31
  -1   3 -10  641.46   14.25
   1  -3 -10  654.24   16.35
   1  -3  10  645.31   13.80
   1   3 -10  635.90   16.49
  -1   3  10  679.01   16.68
   1   3  10  657.67   16.96
  -1  -3  10  644.79   14.59
  -1   3 -10  644.05   15.19
   1   3  10  628.98   14.01
   1  -3  10  631.36   16.19
   1   3  10  665.21   13.91
  -1  -3  10  599.25    6.51
   1  -3  11   70.51    4.68
   1  -3  11   78.57    6.19
  -1   3 -11   72.22    5.29
   1   3  11   73.30    4.82
  -1  -3  11   73.08    2.67
   1   3 -11   70.94    5.94
   1  -3 -11   75.05    6.03
   1   3  11   65.45    4.82
   1   3  11   85.86    6.86
  -1   3  11   84.88    6.49
  -1  -3  11   74.31    5.59
  -1   3 -11   73.08    5.03
   1   3  12  143.68    7.28
  -1   3  12  152.63    8.74
   1   3  12  153.73    8.81
  -1   3 -12  150.22    7.48
  -1  -3 -12  144.88    7.22
   1  -3 -12  147.31    8.41
   1   3 -12  143.82    8.41
   1  -3  12  159.39    8.98
  -1  -3  12  147.30    7.76
   1   3 -12  144.77    5.61
   1   3  12  149.15    5.79
  -1  -3  12  141.17    4.09
  -1   3 -12  147.81    7.77
  -1  -3  13    8.65    2.86
   1   3  13    2.65    1.63
  -1  -3  13    3.73    0.90
  -1  -3 -13    4.43    1.79
   1  -3  13    6.34    2.52
  -1   3  13    7.03    2.99
   1   3  13    5.61    1.22
   1   3  13    3.04    2.85
  -1   3 -13    5.65    2.11
   1   3 -13    5.29    1.21
  -1   3 -13    4.42    1.96
   1   3 -13    6.87    2.29
   1  -3 -13    4.43    2.37
  -1  -3 -14  105.60    6.51
   1   3  14   93.12    7.57
   1  -3 -14  100.81    7.58
  -1   3 -14  102.14    7.19
  -1   3  14  113.54    8.01
  -1   3  14  112.55    4.91
  -1   3 -14  103.81    6.71
   1  -3  14  106.82    7.94
  -1  -3  14  109.72    6.07
   1   3  14  109.81    4.81
   1   3  14  104.92    6.48
   1   3 -14  120.53    8.60
  -1   3 -14  110.48    5.75
  -1   3 -14  105.72    4.83
   1   3 -14  105.74    4.63
  -1  -3  14  113.54    7.65
  -1  -3  14  104.31    4.11
  -1   3 -15    2.10    1.05
   1   3  15    0.29    2.31
  -1   3 -15    0.19    1.84
  -1  -3  15    1.15    2.30
   1   3  15    2.43    1.85
   1  -3 -15    1.68    2.19
  -1  -3  15    0.73    1.13
  -1   3  15    5.44    3.19
   1   3 -15    2.14    2.24
  -1   3  15    4.13    1.22
  -1   3 -15    2.04    0.91
   1   3 -15    4.22    1.03
   1   3  15    2.82    1.05
  -1  -3 -15    0.37    1.59
  -1  -3  15    1.99    1.02
   1  -3  15    2.33    2.78
  -1   3 -15    0.71    1.84
   1  -3 -16    0.95    0.86
   1  -3 -16   -1.05    2.31
  -1   3 -16   -2.12    2.29
  -1   3 -16    0.11    0.86
   1   3  16   -2.03    2.56
   1  -3  16    3.12    2.65
  -1  -3 -16    1.93    1.94
  -1   3 -16    0.96    0.76
  -1  -3  16   -0.04    2.33
   1   3  16    0.66    1.65
   1   3  16    0.49    0.68
   1   3 -16    0.42    0.57
   1   3 -16    0.34    0.52
  -1  -3  16    2.42    1.58
  -1  -3  16   -0.20    1.32
  -1   3  16    2.09    2.82
  -1   3  16    0.90    0.78
   1   3 -16    0.69    2.34
   1  -3 -17   55.88    6.25
   1   3  17   59.76    3.15
  -1  -3  17   50.30    5.81
   1   3 -17   56.41    2.98
  -1   3 -17   57.11    3.11
  -1   3  17   55.99    2.99
  -1   3  17   63.71    6.46
  -1  -3  17   60.01    3.83
   1   3  17   59.30    6.61
  -1   3 -17   60.87    5.98
   1   3  17   59.77    5.69
  -1  -3 -17   66.39    5.90
   1   3 -17   55.56    6.42
   1  -3  17   61.15    7.02
  -1  -3  17   60.61    4.67
  -1   3 -18   67.10    6.63
  -1  -3  18   72.07    4.45
  -1  -3  18   72.79    7.42
   1   3  18   78.85    8.02
  -1  -3 -18   64.83    6.29
  -1  -3  18   65.05    4.86
   1  -3  18   76.74    8.26
   1  -3  18   64.58    3.68
  -1   3 -18   67.55    3.04
  -1   3  18   82.27    7.92
   1   3  18   76.77    6.70
   1   3 -18   69.03    7.40
   1  -3 -18   77.80    7.77
  -1  -3 -19  655.44   19.34
   1   3  19  674.38   14.95
   1   3  19  697.91   19.30
  -1  -3  19  695.01   22.34
  -1  -3  19  710.99   15.67
  -1   3  19  688.96   21.76
   1  -3  19  702.96   23.15
   1   3  19  670.88   21.96
  -1   3 -19  715.83   21.00
  -1  -3  19  709.08   13.92
   1   3 -19  699.23   22.83
   1  -3 -19  692.77   22.24
  -1   3 -20  121.45   10.00
   1   3  20  120.75    8.89
   1  -3  20  148.35   11.42
   1   3  20  123.81   10.17
  -1  -3  20  135.83   10.70
   1  -3  20  126.84    8.01
  -1  -3 -20  120.35    9.04
   1  -3 -20  133.32   10.68
   1   3 -20  131.58   10.71
  -1   3  20  149.62   10.82
  -1   3 -21  194.97   11.76
   1   3  21  200.81   12.72
   1  -3  21  210.18   13.59
  -1  -3  21  186.18   12.47
   1   3 -21  189.52   12.52
   1  -3  21  200.04   10.09
  -1  -3 -21  184.57   10.91
   1  -3 -21  201.19   12.45
  -1   3  21  193.06   12.52
   1   3  21  179.73   10.67
   1  -3 -22   36.08    5.76
   1   3  22   38.28    5.27
  -1   3 -22   46.08    6.15
  -1   3  22   38.62    6.07
   1  -3  22   31.72    6.12
   1   3  22   32.93    5.79
  -1  -3 -22   33.32    5.04
   1   3 -22   37.25    6.22
  -1  -3  22   35.08    6.00
   1   3  23   65.70    8.07
  -1   3  23   64.80    7.63
  -1  -3  23   66.68    8.16
   1  -3  23   70.10    8.76
  -1   3 -23   61.38    7.08
  -1  -3 -23   70.76    7.34
   1   3  23   74.51    7.18
   1  -3 -23   70.34    7.82
   1   3 -23   60.25    7.59
   1   3  24    1.39    2.16
  -1   3  24    8.58    4.31
  -1  -3 -24   -0.42    2.33
   1  -3  24    2.49    3.09
  -1  -3  24    1.10    2.63
   1   3 -24    1.78    3.13
   1  -3 -24    2.46    2.60
  -1   3 -24    9.79    3.55
   1   3  24    0.06    2.81
  -1   3 -25   48.64    6.67
   1   3  25   43.58    7.54
   1   3  25   42.40    6.66
  -1   3  25   57.50    7.70
  -1  -3  25   54.50    7.74
  -1  -3 -25   44.08    6.18
   1   3 -25   51.11    7.33
   1  -3  25   45.17    7.68
   1  -3 -25   53.05    7.29
   1   3  26   15.49    4.61
  -1   3 -26   24.00    5.04
  -1  -3  26   13.54    4.98
   1  -3  26   27.28    6.34
   1   3 -26   19.78    4.60
   1   3  26   18.78    4.89
   1  -3 -26   16.40    4.61
  -1   3  26   28.23    5.86
   1   3  27   -4.79    4.90
  -1  -3  27    2.65    3.03
  -1   3 -27    0.94    2.37
   1  -3 -27    2.52    3.16
   1   3  27    0.23    3.07
   1  -3  27    6.52    4.12
   1   3 -27    3.24    3.04
   1   3 -28   -3.19    3.94
   1   3  28    3.63    2.73
   1  -3 -28    5.70    3.49
  -1  -3  28    1.30    3.05
   1  -3  28    4.37    3.78
   1   3 -29    1.30    2.83
   1  -3 -29    2.31    2.75
   1   3 -30    2.73    3.61
  -1  -4   0   -1.80    1.40
  -1   4   0    0.56    1.52
   1  -4   0   -0.25    1.37
   1   4   0   -3.19    2.03
   1   4   0   -1.61    1.84
  -1  -4   0    1.17    1.60
  -1   4  -1   14.54    2.61
  -1  -4  -1   13.31    2.01
  -1  -4  -1   13.08    2.19
   1   4   1   14.64    2.40
   1   4  -1   15.12    2.72
   1   4  -1   12.59    2.00
   1  -4  -1   19.16    3.01
  -1   4   1   10.98    2.27
  -1  -4   1   14.21    1.90
   1  -4   1   10.66    2.02
   1   4   1   10.62    2.09
   1  -4  -1   13.79    2.40
  -1  -4   1   14.76    2.30
   1   4   2 2105.60   24.66
  -1   4  -2 2126.39   24.69
  -1   4   2 2042.41   25.38
   1   4  -2 2101.40   15.86
   1  -4  -2 2152.42   25.83
  -1  -4  -2 2139.09   25.00
   1  -4  -2 2104.90   25.13
   1   4   2 2109.93   24.12
  -1  -4   2 2153.57   25.75
   1  -4   2 2132.49   24.77
   1   4  -2 2073.22   19.31
   1  -4  -2 2142.11   25.71
  -1  -4  -2 2161.11   24.37
  -1  -4   2 2086.34   19.46
   1   4  -2 2095.11   25.43
  -1  -4  -3   38.55    3.46
  -1   4   3   35.00    3.73
  -1  -4   3   33.97    2.44
   1  -4  -3   33.52    3.67
  -1  -4   3   35.75    3.46
  -1   4  -3   34.55    3.48
   1  -4  -3   37.43    3.60
   1  -4  -3   34.44    3.62
   1   4  -3   34.14    3.64
  -1  -4  -3   35.90    3.39
   1  -4   3   37.51    3.41
   1   4  -3   37.71    2.35
  -1   4  -3   34.83    3.32
   1   4   3   31.59    3.29
   1   4   3   31.22    3.43
  -1  -4  -4  751.32   14.90
  -1  -4   4  732.35   10.56
   1   4   4  740.52   15.68
   1  -4  -4  716.82   15.65
   1   4   4  746.11   14.95
   1   4  -4  752.79   10.74
  -1   4   4  715.41   15.71
  -1  -4  -4  760.49   15.69
   1  -4   4  764.62   14.96
  -1  -4   4  749.18    9.96
   1   4  -4  758.29   16.05
  -1   4  -4  747.32   14.76
  -1   4  -4  720.10   14.45
   1   4  -5  981.03   13.18
  -1   4  -5 1000.70   17.47
  -1  -4   5  978.20   10.40
   1   4  -5 1001.85   18.92
   1   4   5  972.74   17.22
  -1   4   5  946.27   18.34
  -1  -4   5  944.87   13.01
  -1   4  -5  978.55   16.83
   1  -4  -5  980.45   18.70
  -1  -4  -5  972.72   17.26
   1   4   5  980.91   18.69
   1  -4   5 1010.20   17.20
   1   4  -5  950.23   18.34
  -1   4  -6  512.88   12.93
  -1  -4   6  499.87    6.72
  -1   4   6  492.95   13.65
   1  -4   6  540.87   12.79
  -1  -4  -6  512.78   13.80
  -1   4  -6  496.38   12.19
   1   4   6  505.70   14.05
   1   4  -6  507.69   13.60
   1   4  -6  496.62   13.66
  -1  -4  -6  506.78   12.65
   1  -4  -6  480.07   13.73
  -1  -4   6  487.58   10.05
   1  -4   6  505.62   12.89
   1   4   6  504.05   12.56
   1   4   7 1136.64   19.13
   1  -4   7 1169.60   18.99
   1  -4   7 1112.00   19.65
   1   4   7 1161.92   21.88
   1   4   7 1156.80   18.52
  -1  -4   7 1066.57    8.72
  -1  -4   7 1106.19   16.22
  -1   4   7 1173.80   21.45
   1  -4  -7 1119.12   21.60
  -1   4  -7 1136.19   18.91
   1   4  -7 1125.23   21.09
  -1  -4  -7 1132.35   20.87
  -1   4   7 1125.16   21.41
  -1  -4  -7 1190.48   19.57
   1   4   8 2012.94   25.05
   1   4  -8 1982.23   28.81
   1   4   8 1951.27   25.64
  -1   4  -8 1965.61   25.24
  -1   4   8 2011.57   29.37
   1   4   8 2035.39   29.61
   1  -4   8 2003.59   25.42
  -1   4   8 1940.06   28.33
   1  -4   8 1966.23   27.00
  -1  -4  -8 2005.41   28.27
  -1  -4   8 1830.15   22.23
   1  -4   9 1709.13   26.17
  -1   4  -9 1713.78   23.96
   1   4   9 1726.80   28.14
   1   4   9 1714.32   23.67
   1   4  -9 1695.37   15.36
   1   4   9 1720.25   24.63
  -1   4   9 1700.97   27.65
  -1   4   9 1703.24   27.28
  -1  -4  -9 1700.54   26.91
   1   4  -9 1704.71   27.61
  -1  -4   9 1685.59   22.53
  -1   4  -9 1661.27   25.66
   1  -4  10  529.28   15.02
  -1  -4 -10  533.94   15.56
  -1   4 -10  535.36   14.80
   1   4 -10  550.25   16.20
  -1   4  10  564.61   16.40
  -1  -4  10  538.63   13.56
   1   4  10  543.04   14.27
   1   4 -10  526.73    9.11
  -1   4  10  536.41   15.89
   1   4  10  584.84   17.08
   1  -4  11   -1.35    3.14
   1   4  11    3.86    2.29
   1   4 -11   -0.12    2.17
   1  -4 -11    3.15    3.49
  -1   4 -11    3.04    2.04
   1   4  11   11.16    4.57
  -1  -4  11    2.72    1.85
  -1  -4 -11    2.70    1.96
  -1   4  11    2.35    2.19
  -1   4 -11    6.33    2.27
  -1   4  12   88.76    6.86
   1   4  12   90.32    6.24
   1  -4 -12   88.16    7.01
  -1   4 -12   97.67    6.10
  -1  -4  12   91.78    6.29
   1   4 -12   81.08    6.68
  -1   4 -12   84.12    6.40
   1  -4  12   83.27    6.57
   1   4  12   86.50    7.32
  -1   4  12   96.13    7.47
  -1  -4  13   83.90    6.52
  -1   4 -13   84.90    6.00
   1   4  13   84.03    6.20
   1  -4  13   72.62    6.48
  -1   4 -13   86.20    6.73
   1  -4 -13   79.88    7.11
  -1   4  13   92.44    7.96
  -1   4  13   85.38    7.03
   1   4 -13   74.37    6.73
   1   4  13   97.31    8.08
  -1  -4  13   82.50    2.65
  -1  -4  14  436.92    6.76
  -1   4 -14  450.84   15.26
   1   4 -14  455.63   16.63
   1   4  14  459.82   17.06
   1  -4 -14  442.44   15.94
   1   4  14  467.88   14.60
  -1  -4  14  463.01   15.18
   1  -4  14  457.12   16.09
  -1   4 -14  458.11   13.95
  -1   4  14  440.71   16.04
  -1   4  14  450.24   16.56
   1   4  15   42.06    4.75
   1   4 -15   41.52    3.39
   1   4  15   41.50    6.05
  -1   4  15   48.49    6.27
  -1  -4  15   35.17    2.14
   1   4  15   41.31    3.44
   1   4 -15   42.29    5.65
  -1  -4  15   36.69    4.70
  -1   4 -15   40.44    4.45
   1  -4  15   47.97    6.10
   1  -4 -15   39.66    5.67
  -1   4 -15   40.66    5.16
  -1   4  16   43.78    6.10
  -1   4 -16   37.15    4.56
  -1  -4  16   38.69    2.48
   1   4  16   39.13    3.36
   1   4  16   40.84    4.87
   1   4 -16   44.51    5.91
   1  -4 -16   45.07    6.07
   1  -4  16   37.93    5.87
   1   4  16   29.01    4.44
  -1  -4  16   42.38    5.51
  -1   4 -16   36.63    4.90
  -1   4  16   39.50    3.43
   1   4 -16   36.57    3.18
  -1   4 -16   39.36    3.40
  -1   4 -17  340.63    9.62
  -1   4  17  353.05   15.87
  -1  -4  17  333.26    7.35
  -1   4 -17  336.83   13.06
  -1   4  17  366.94    9.80
   1  -4  17  374.67   16.24
  -1   4 -17  351.65   14.44
  -1  -4  17  356.56   14.90
   1  -4 -17  354.79   15.29
   1   4 -17  350.84   15.79
   1   4  17  347.57   15.89
   1   4  17  356.21   13.76
  -1  -4  17  347.97   12.08
  -1   4 -18  241.51    7.71
  -1   4  18  242.67    7.61
   1   4  18  243.68   11.60
  -1   4  18  269.62   13.97
   1  -4  18  249.19   13.78
  -1   4 -18  221.74   12.05
   1   4  18  236.04   13.50
   1   4 -18  216.46   13.08
   1  -4 -18  245.55   13.51
  -1  -4  18  246.64   12.86
  -1  -4  18  236.86   10.03
   1  -4  19  151.92   11.14
   1   4  19  153.08    9.59
  -1   4  19  155.79   10.98
  -1  -4  19  140.96    7.77
  -1  -4  19  158.71   10.64
  -1   4 -19  133.35    9.85
   1   4  19  144.96   10.95
   1   4 -19  140.79   10.81
   1  -4 -19  132.98   10.21
  -1  -4  20    2.60    2.73
   1   4  20    3.04    3.13
  -1   4 -20    1.39    2.12
   1  -4 -20    4.81    3.38
  -1   4  20    2.83    3.08
   1   4 -20    3.92    3.19
   1  -4  20    8.13    4.26
   1   4  20    2.45    2.05
   1   4  21   87.59    7.64
   1  -4 -21   99.47    9.42
  -1   4 -21   98.30    8.59
  -1  -4  21  101.88    9.57
   1  -4  21  107.80   10.03
   1   4  21   96.23    9.23
  -1   4  21  108.10    9.71
   1   4 -21  101.99    9.55
   1   4  22   54.86    6.42
  -1   4 -22   58.36    7.26
   1  -4 -22   61.32    7.77
  -1   4  22   64.85    8.11
  -1   4  22   60.99    7.67
   1   4 -22   53.23    7.11
  -1  -4  22   69.55    8.08
   1   4  22   60.57    7.84
   1  -4  22   64.79    8.37
  -1   4  23  295.71   16.06
   1   4  23  313.10   14.78
   1  -4  23  303.54   17.45
  -1   4 -23  300.20   15.78
   1   4 -23  317.48   17.33
   1  -4 -23  307.97   16.52
  -1  -4  23  311.02   17.07
  -1   4  23  288.53   16.06
   1   4  23  318.21   17.44
  -1   4  24   10.90    4.79
  -1   4  24    7.38    4.52
   1   4  24   -0.45    2.84
  -1  -4  24    6.99    4.00
   1  -4  24   20.04    6.05
   1   4 -24   -1.06    3.19
   1   4  24    7.67    4.28
   1  -4 -24   13.46    4.44
  -1   4 -24    2.92    3.02
  -1   4 -25    0.85    2.20
  -1   4  25    3.76    3.42
  -1  -4  25    5.18    3.31
   1  -4 -25   -3.52    3.21
   1  -4  25    2.67    3.56
   1   4 -25   -4.41    4.14
   1   4  25   -1.90    3.29
  -1   4  25    0.60    2.56
  -1   4  26   26.71    5.67
   1  -4  26   30.64    6.75
   1   4  26   40.63    7.17
   1   4 -26   18.86    4.79
  -1   4  26   35.87    6.69
  -1   4 -26   23.04    4.89
  -1  -4  26   26.36    5.80
   1  -4 -26   24.56    5.66
  -1   4 -27   38.29    6.55
  -1  -4  27   36.69    6.94
  -1   4  27   38.03    6.57
   1  -4 -27   43.84    7.15
   1   4  27   44.90    7.47
  -1   4  27   46.07    7.71
   1   4 -27   43.15    7.24
   1   4  27   37.99    7.09
   1  -4  27   45.94    8.12
  -1  -4  28   -1.43    2.86
   1   4 -28    1.08    3.12
   1   4  28    2.21    3.25
   1  -4  28    2.33    3.89
  -1   4  28   -1.42    2.96
   1  -4 -28    0.47    2.62
   1   4  29   -0.23    3.09
   1   4 -29    2.49    2.99
   1  -4 -29   -1.40    3.20
   1   5   0    0.00    1.56
   1   5   0    1.90    1.83
  -1  -5   0    2.69    1.42
  -1   5   0    0.91    1.93
  -1   5   1  746.33   16.74
  -1   5  -1  747.45   16.56
   1   5   1  749.60   16.67
   1   5   1  735.72   15.23
   1   5  -1  747.13   14.07
  -1  -5  -1  770.52   15.46
   1   5  -1  734.40   16.72
  -1  -5   1  738.88   13.93
   1   5   2    8.00    2.11
   1   5  -2    8.78    2.62
   1   5  -2   14.40    2.63
  -1   5  -2    7.73    1.98
  -1   5   2    7.13    1.95
   1   5   2    5.90    2.31
   1   5  -2   10.89    1.70
  -1  -5   2   10.70    1.93
   1   5   3   29.46    3.73
  -1   5  -3   30.37    3.58
   1   5   3   22.54    3.27
   1   5  -3   28.23    2.28
  -1   5   3   21.95    3.07
   1  -5  -3   29.63    3.74
  -1   5  -3   33.89    3.72
  -1  -5   3   31.74    2.76
   1   5  -3   28.59    3.62
  -1   5   4   84.38    6.10
  -1  -5   4   95.33    4.41
   1   5  -4   88.91    6.26
   1   5   4   79.42    5.71
   1   5  -4   93.26    4.22
  -1   5  -4   91.61    5.89
   1   5   4   85.12    5.88
   1  -5  -4   87.50    6.06
  -1   5   5   78.18    6.01
  -1  -5   5   86.94    3.94
   1  -5  -5   81.45    6.18
   1   5   5   76.12    5.89
   1   5  -5   78.03    5.86
   1   5   5   82.20    5.80
  -1   5  -5   84.38    5.80
   1   5  -5   80.73    4.13
  -1  -5  -6   70.68    5.82
   1   5  -6   81.36    6.17
   1   5   6   78.81    6.16
   1   5  -6   75.66    6.10
   1   5  -6   75.32    4.27
  -1   5   6   73.60    6.03
   1  -5  -6   81.41    6.30
  -1  -5   6   80.80    4.53
  -1  -5   6   82.00    3.54
   1   5   6   75.75    5.59
  -1   5  -6   75.98    5.60
   1   5  -7    1.68    2.34
   1   5  -7    0.01    1.00
  -1   5  -7   -0.65    1.84
   1   5   7    0.13    2.30
  -1  -5  -7   -0.14    1.86
   1  -5  -7    1.10    1.97
   1  -5   7    4.62    2.93
  -1   5   7   -0.42    2.24
  -1  -5   7   -0.56    0.84
   1   5   7   -0.28    1.57
  -1  -5   7    2.25    1.55
   1   5  -7    3.68    2.64
   1  -5   8  719.26   17.29
  -1  -5   8  694.36   14.16
  -1  -5   8  698.67    8.72
   1   5   8  711.50   18.85
  -1   5  -8  711.59   16.79
  -1   5   8  699.95   18.99
  -1   5   8  704.81   18.39
   1   5   8  703.74   17.11
   1   5  -8  711.41   18.72
   1  -5  -8  701.05   18.63
  -1  -5  -8  713.97   18.46
  -1  -5   9 1111.69   10.00
   1  -5  -9 1187.36   24.90
  -1   5   9 1182.86   24.85
  -1  -5  -9 1125.29   23.70
   1   5   9 1201.40   25.14
   1   5  -9 1149.32   24.31
  -1   5   9 1158.62   24.11
  -1   5  -9 1194.17   22.02
   1  -5   9 1176.34   22.59
  -1  -5   9 1182.40   19.44
   1   5   9 1176.27   22.29
  -1  -5 -10    2.81    2.41
  -1  -5  10    1.44    0.52
   1   5 -10    2.56    2.41
  -1   5 -10    2.09    1.60
  -1   5  10    0.02    2.20
   1   5  10   -1.41    2.32
   1   5 -10    2.18    1.02
   1  -5  10    4.76    2.63
  -1   5 -10    2.81    2.49
  -1   5  10    9.50    4.39
   1   5  10    3.15    3.09
  -1  -5  10   -0.60    2.29
  -1   5  11  151.71    9.76
  -1  -5  11  138.77    7.35
  -1   5 -11  126.95    8.20
   1  -5  11  147.15    8.65
  -1   5  11  137.37    8.85
   1   5 -11  136.87    5.10
   1   5  11  137.57    9.28
   1   5 -11  150.17    9.25
  -1  -5 -11  125.80    8.42
   1   5  11  135.20    7.96
  -1   5  12    2.19    2.44
  -1  -5  12    6.82    2.69
  -1   5  12    7.55    3.93
   1   5 -12    0.89    0.89
   1   5  12    5.84    2.54
  -1  -5 -12    0.97    2.26
  -1   5 -12    0.76    2.04
   1   5  12   -1.18    3.53
   1   5 -12    3.10    2.59
   1  -5  12    0.76    2.42
   1  -5  13   63.35    6.43
  -1   5  13   78.08    7.85
  -1   5 -13   65.82    6.24
  -1  -5  13   72.59    6.07
   1   5  13   69.17    5.98
   1   5 -13   55.13    6.07
  -1   5 -13   71.64    5.76
   1   5  13   55.04    6.33
  -1   5  13   67.52    6.62
  -1   5 -14  229.37   10.18
   1   5  14  221.65   10.90
  -1   5  14  218.06   12.38
  -1  -5  14  227.68   10.87
  -1   5 -14  219.12   11.39
   1   5 -14  214.02   12.05
   1   5  14  217.09   12.16
  -1   5  14  228.83   12.06
   1  -5  14  217.58   11.36
   1   5  15  111.33    9.35
  -1  -5  15  127.92    8.52
  -1   5  15  124.14    9.14
  -1   5 -15  121.99    7.57
  -1   5 -15  118.91    8.73
   1  -5  15  103.62    8.33
   1   5 -15  118.62    9.23
  -1   5  15  119.26    9.68
   1   5  15  120.09    8.28
   1   5  16   82.71    8.10
  -1  -5  16   93.72    7.64
  -1   5 -16   71.78    6.94
   1   5 -16   81.77    7.96
   1   5  16   76.24    6.77
  -1   5 -16   87.20    6.78
  -1   5  16   79.33    7.62
  -1   5  16   87.46    8.63
   1  -5  16   79.46    7.58
  -1   5  17   46.65    6.61
  -1  -5  17   49.32    6.00
   1   5 -17   43.84    6.10
  -1   5 -17   42.90    5.38
   1   5  17   54.08    5.77
  -1   5 -17   41.85    4.80
   1  -5  17   44.45    5.83
  -1   5  17   52.50    6.43
   1   5  17   51.71    6.62
  -1  -5  18    1.50    2.73
  -1   5  18    6.00    3.26
   1  -5  18   -4.24    4.03
   1   5  18   -3.47    3.31
  -1   5  18    1.90    1.26
   1   5 -18    0.10    2.75
  -1   5 -18    0.85    1.06
  -1   5 -18    0.47    2.27
  -1   5 -18   -1.75    2.47
   1   5  18    0.90    1.97
  -1   5  18    2.08    3.48
   1   5 -19   47.20    6.48
  -1   5  19   44.25    6.30
  -1   5 -19   43.69    6.06
   1   5  19   41.97    6.67
  -1  -5  19   48.58    6.38
   1  -5  19   49.74    6.49
   1   5  19   53.31    6.13
  -1   5  19   52.51    7.22
  -1  -5  19   44.55    4.86
  -1   5  20   96.30    9.50
  -1  -5  20   93.62    6.86
  -1   5 -20   95.28    8.78
   1   5 -20   92.50    9.10
   1  -5  20   93.03    9.12
   1   5  20   99.05    8.58
  -1   5  20   98.49    9.08
   1   5  20   90.98    9.44
  -1  -5  20  104.29    9.28
  -1   5 -21   60.55    7.29
  -1   5  21   65.10    7.55
  -1  -5  21   73.89    8.06
   1   5  21   67.94    7.07
   1   5 -21   68.05    7.99
   1  -5  21   51.92    7.24
  -1   5  21   70.10    8.71
   1   5  21   68.02    8.39
  -1   5 -22   19.75    4.75
  -1   5  22   18.51    5.07
   1   5  22   17.66    3.90
   1   5 -22   28.45    5.71
  -1  -5  22   21.90    4.80
   1  -5  22   14.32    4.12
  -1   5  22   20.06    4.47
   1   5  22   15.38    4.71
   1  -5  23   33.81    5.84
   1   5  23   32.56    5.27
   1   5  23   36.09    6.19
   1   5 -23   35.34    6.34
  -1   5 -23   28.89    5.74
  -1   5  23   42.85    7.04
  -1  -5  23   30.44    5.84
  -1   5  23   46.57    6.93
  -1   5  24    2.49    2.58
   1   5  24    0.37    2.04
   1   5 -24   -4.40    3.71
  -1   5  24    2.76    3.06
  -1  -5  24    2.04    3.23
  -1   5 -24   -0.93    2.42
   1   5  24   -2.55    3.30
   1  -5  24   -7.91    4.81
   1  -5  25   -2.91    5.08
   1   5 -25   -1.29    3.39
  -1   5  25    6.23    4.19
  -1   5 -25    0.82    2.42
  -1   5  25    1.62    2.47
  -1  -5  25    1.63    2.86
   1   5  25    3.26    3.66
   1   5  26   43.99    7.78
  -1   5  26   41.33    6.89
   1  -5  26   32.34    6.36
  -1   5 -26   35.34    6.10
  -1  -5  26   36.90    6.72
  -1   5  26   48.14    7.85
   1   5 -26   37.57    6.64
  -1   5  27    4.95    2.63
  -1  -5  27    1.78    2.73
  -1   5 -27    8.37    3.92
   1   5 -27   -1.60    3.56
   1   5  27    4.30    3.98
   1  -5  27   -4.86    4.61
  -1  -5  28   10.26    4.78
   1   5  28    9.38    5.08
  -1   5  28    4.89    3.38
   1   5 -28    0.59    3.18
   1   5  29   43.33    8.00
  -1   6   0    0.24    2.21
   1   6   0    3.61    2.49
   1   6   0    1.49    2.40
   1   6  -1 2071.09   26.09
   1   6   1 2123.34   28.14
   1   6  -1 2170.49   31.23
  -1   6  -1 2206.29   31.38
   1   6   1 2147.39   31.01
  -1  -6   1 2194.62   26.60
  -1   6   1 2103.91   31.15
  -1   6  -2   39.42    4.68
   1   6   2   48.96    5.08
   1   6   2   33.58    4.49
   1   6  -2   40.24    3.10
  -1  -6   2   43.05    3.77
   1   6  -2   38.99    4.58
  -1   6   2   41.16    4.93
  -1   6   3  526.75   15.92
   1   6  -3  536.10   10.78
   1   6   3  542.64   15.60
   1   6   3  549.32   15.25
  -1  -6   3  540.97   12.27
   1  -6  -3  542.35   15.84
  -1   6  -3  561.92   15.72
   1   6  -3  574.22   16.31
   1   6  -4   39.28    3.00
   1  -6  -4   44.24    5.05
  -1   6  -4   46.39    4.92
   1   6   4   44.49    5.05
  -1  -6   4   43.47    3.63
   1   6   4   48.32    5.06
   1   6  -4   45.28    5.05
  -1   6   4   46.32    5.14
  -1  -6   5 1448.47   18.29
   1   6   5 1466.68   26.31
   1   6   5 1444.96   25.72
  -1   6   5 1436.67   26.77
   1  -6  -5 1423.99   26.61
  -1   6  -5 1403.28   25.15
   1   6  -5 1469.04   26.73
   1   6  -5 1458.20   18.79
   1  -6  -6   49.82    5.33
   1   6   6   51.59    5.30
  -1   6   6   47.47    5.27
   1   6   6   57.80    6.16
   1   6  -6   53.06    3.78
  -1  -6   6   58.43    3.67
  -1   6  -6   52.03    5.23
   1   6  -6   53.23    5.53
  -1  -6  -7  259.83   11.91
  -1  -6   7  268.46    7.09
   1  -6  -7  246.30   11.58
  -1   6   7  259.95   11.88
   1   6   7  269.25   11.52
   1   6  -7  270.85   12.04
   1   6  -7  267.08    8.73
  -1   6  -7  272.55   11.20
   1   6  -7  263.19   11.83
   1   6   7  274.21   12.10
   1   6  -8  188.47   10.13
   1   6   8  180.74   10.56
  -1   6   8  187.06   10.35
  -1  -6  -8  184.78   10.36
  -1  -6   8  178.43    7.63
   1   6  -8  180.61    7.61
   1  -6  -8  192.44   10.54
  -1  -6   8  184.83    5.58
  -1   6  -8  177.20    9.28
   1   6  -8  196.31   10.48
   1   6   8  190.04    9.77
   1  -6   9  694.55   18.24
  -1   6   9  722.34   20.32
  -1  -6   9  710.34   10.07
  -1   6  -9  731.79   18.77
  -1  -6  -9  721.52   20.15
   1  -6  -9  733.95   20.89
   1   6   9  741.48   20.85
   1   6  -9  736.47   20.57
  -1  -6   9  705.39   15.56
   1   6   9  721.29   18.90
   1  -6  10  189.20   10.01
  -1   6 -10  199.46   10.76
   1   6  10  180.35    9.70
   1   6  10  191.94   11.30
   1  -6 -10  175.58   10.61
  -1   6  10  170.25   10.19
  -1   6 -10  178.51    9.45
  -1   6  10  201.99   11.95
  -1  -6 -10  178.87   10.49
  -1  -6  10  183.65    8.38
  -1  -6  10  177.88    4.65
   1   6 -10  206.11   11.21
  -1   6 -11  478.58   15.63
  -1   6 -11  457.10   16.34
  -1   6  11  487.50   17.21
   1   6  11  472.63   15.77
   1   6  11  475.82   17.80
   1  -6  11  458.16   15.60
   1   6 -11  450.96   16.98
  -1  -6  11  438.01    6.48
  -1   6  11  492.66   18.05
  -1  -6 -11  467.68   17.02
  -1  -6  11  459.68   13.66
  -1  -6 -12  521.55   18.26
   1   6  12  491.99   18.55
   1   6 -12  519.64   10.80
   1  -6  12  526.72   17.18
  -1   6 -12  505.36   17.61
  -1   6  12  520.98   19.14
   1   6 -12  550.48   18.88
  -1   6  12  508.64   18.12
  -1  -6  12  499.14   15.03
   1   6  12  520.46   17.02
   1   6 -13  293.06    8.29
  -1   6  13  297.11   14.13
   1  -6  13  286.85   13.19
  -1   6  13  309.32   15.04
   1   6  13  293.98   14.69
  -1   6 -13  295.97   13.58
   1   6 -13  280.97   14.26
  -1  -6 -13  283.34   13.80
  -1  -6  13  286.23   12.00
   1   6  13  269.51   12.37
  -1   6 -14   44.21    4.90
   1   6 -14   42.61    5.79
   1   6  14   35.98    4.89
  -1   6 -14   48.08    6.02
   1   6 -14   40.78    3.20
   1   6  14   42.19    6.24
  -1   6  14   52.44    7.52
   1  -6  14   37.19    5.49
  -1  -6  14   35.38    4.16
  -1   6  14   37.11    5.81
  -1   6  15  228.81   12.74
   1   6  15  235.35   11.90
   1   6 -15  212.24   12.79
  -1   6 -15  215.12   12.38
   1  -6  15  241.39   12.72
  -1   6  15  229.76   13.67
  -1   6 -15  232.94   10.66
  -1  -6  15  216.30   11.09
   1   6  15  237.88   13.72
   1   6  16    1.07    3.28
  -1  -6  16    1.21    3.04
  -1   6  16    7.50    3.45
   1   6 -16    5.65    3.15
  -1   6 -16    4.60    2.34
   1  -6  16   -2.62    3.31
  -1   6 -16    4.96    2.21
   1   6  16    4.20    2.33
   1   6  17   -4.59    4.12
  -1  -6  17   -4.98    3.82
  -1   6  17    3.05    3.59
   1   6  17    0.11    2.31
   1  -6  17   -2.12    3.34
  -1   6 -17    1.76    1.81
  -1   6 -17    0.97    2.54
   1   6 -17    0.63    2.56
  -1   6 -18   28.70    4.15
  -1   6 -18   33.53    5.38
   1   6 -18   21.08    4.70
   1   6  18   24.33    4.88
  -1  -6  18   16.20    3.55
  -1   6  18   28.13    5.86
   1  -6  18   28.30    5.08
   1   6  18   26.49    4.70
  -1   6  18   19.92    4.39
  -1   6 -19   -0.42    2.78
   1   6  19   -2.27    3.74
  -1   6 -19   -2.02    2.18
   1   6  19    0.32    2.73
  -1   6  19    0.64    2.61
   1  -6  19   -3.57    3.62
   1   6 -19    1.82    2.96
  -1  -6  19   -4.89    3.91
  -1   6  19    9.69    5.26
  -1  -6  20  205.46   12.74
   1   6 -20  216.38   14.35
   1   6  20  208.18   14.49
  -1   6  20  232.29   14.93
  -1   6  20  233.14   14.29
   1  -6  20  218.64   13.94
   1   6  20  241.99   13.34
  -1   6 -20  206.27   13.11
  -1   6 -21    2.28    3.03
  -1   6  21    2.96    3.49
  -1  -6  21   -1.04    2.63
   1   6  21   11.68    4.94
   1   6  21    2.80    3.15
   1   6 -21    0.20    2.80
  -1   6  21    1.35    4.08
   1  -6  21   -0.18    3.11
   1   6  22  161.34   11.51
  -1   6  22  184.99   13.90
   1   6  22  170.81   13.49
  -1   6 -22  158.16   12.08
   1   6 -22  167.61   13.06
  -1  -6  22  157.66   11.88
   1  -6  22  168.55   12.95
  -1   6  22  158.03   12.48
  -1   6  23   28.08    6.48
  -1  -6  23   23.05    5.37
   1   6 -23   20.12    5.15
   1   6  23   17.82    5.22
  -1   6 -23   16.97    5.02
   1   6  23   21.19    5.15
  -1   6  23   20.71    5.36
   1  -6  23   16.08    4.78
   1  -6  24   37.02    6.83
   1   6  24   33.61    6.60
  -1   6 -24   39.51    6.66
   1   6 -24   31.74    6.28
  -1  -6  24   33.85    6.62
  -1   6  24   42.96    6.88
  -1   6  24   59.66    8.89
  -1  -6  25    3.81    3.48
   1   6  25    6.90    4.21
  -1   6  25    6.12    3.54
   1  -6  25    7.36    4.02
   1   6 -25   11.74    4.75
  -1   6 -25   10.30    3.97
  -1   6  26   18.43    4.99
  -1   6 -26    9.08    3.61
   1   6  26   18.58    6.39
   1  -6  26    9.24    3.84
  -1  -6  26   11.62    3.76
   1   6 -26    9.98    4.34
  -1   6  27    9.65    3.98
  -1   6 -27   11.59    4.11
   1   6 -27    5.22    3.48
   1   6  27    5.59    4.57
   1  -6  27    7.28    4.31
  -1  -6  27    1.18    3.74
  -1  -6  28  135.77   12.86
   1   7   0    1.16    2.28
  -1   7   0   -0.07    2.22
   1   7   1  186.22   10.12
  -1   7   1  188.49   10.19
  -1   7  -1  182.32    9.96
   1   7   1  180.92    9.25
   1   7  -1  195.16   10.40
   1   7  -2   11.81    3.52
   1   7   2   17.62    3.97
   1   7   2   12.78    3.24
  -1   7   2   12.04    3.16
  -1   7  -2   12.62    3.38
   1   7  -2   10.79    2.11
   1   7   3   14.36    3.04
   1   7   3   19.24    3.89
  -1   7  -3   16.46    3.64
   1   7  -3   18.19    3.60
  -1   7   3   16.44    3.58
   1   7  -3   18.36    2.43
   1  -7  -3   17.35    3.77
   1   7   4  180.77    9.84
   1   7  -4  176.12   10.16
   1  -7  -4  168.57    9.75
  -1   7   4  176.49   10.14
  -1   7  -4  170.33    9.68
   1   7   4  184.32   10.10
   1   7  -4  177.82    6.98
  -1  -7   4  181.88    7.65
  -1   7  -5  660.23   18.81
   1   7   5  662.46   19.04
  -1  -7   5  677.10   14.15
   1  -7  -5  679.32   19.70
   1   7  -5  673.48   19.70
   1   7   5  655.90   19.04
  -1   7   5  688.45   19.84
   1   7  -5  659.78   13.61
   1  -7  -6  216.78   11.43
   1   7   6  198.03   10.77
   1   7  -6  196.39    7.63
   1   7  -6  202.69   11.10
  -1   7   6  198.39   10.98
  -1   7  -6  196.76   10.36
  -1  -7   6  214.13    7.69
   1   7   6  202.75   10.70
  -1   7   7   -0.72    2.30
   1   7  -7    4.73    1.48
   1  -7  -7    2.37    2.80
   1   7   7    8.61    3.24
  -1  -7  -7    8.38    3.31
   1   7  -7    2.55    2.56
  -1  -7   7    5.75    1.67
   1   7   7    3.50    3.13
  -1   7  -7    4.88    2.37
  -1   7  -8  167.97    9.80
  -1  -7  -8  169.61   10.56
  -1  -7   8  177.13    6.34
   1   7   8  180.16   10.28
   1  -7  -8  167.27   10.53
   1   7   8  187.86   11.10
  -1   7   8  175.21   10.48
   1   7  -8  184.26   10.93
   1   7  -8  180.20   10.92
  -1  -7   9   59.98    3.54
   1   7   9   53.46    5.95
   1  -7  -9   52.65    6.33
   1   7  -9   53.09    6.45
  -1   7  -9   50.12    5.40
  -1   7   9   54.16    6.31
   1   7   9   61.50    6.83
  -1  -7  -9   40.87    5.63
   1   7  -9   55.65    6.28
  -1  -7 -10  123.13    9.62
  -1  -7  10  113.11    4.48
  -1   7 -10  116.76    8.49
   1   7  10  116.47    9.67
  -1   7  10  110.98    8.99
   1  -7 -10  117.93    9.26
   1   7 -10  114.59    9.07
   1   7  10  116.61    8.60
  -1  -7  10  114.60    7.14
  -1  -7  11   17.29    3.54
  -1  -7 -11   18.10    4.43
  -1   7 -11   11.30    3.52
   1   7 -11    4.54    2.89
  -1   7 -11   14.61    4.11
   1  -7 -11   11.74    3.44
  -1  -7  11   14.25    1.60
  -1   7  11   14.22    4.04
   1   7  11   17.47    4.77
   1   7  11   15.93    3.99
   1   7 -12   15.22    4.24
  -1   7  12   20.82    4.96
   1  -7  12   25.82    5.33
  -1  -7  12   16.54    3.58
  -1   7 -12    7.55    2.93
   1   7  12   14.47    3.45
  -1  -7 -12   13.18    4.12
  -1   7 -12   12.89    3.80
   1   7  12   13.43    4.44
   1   7 -13  423.76   10.36
  -1   7  13  432.36   17.76
  -1  -7 -13  403.32   17.54
   1   7 -13  403.51   17.57
   1   7  13  412.87   18.10
   1  -7  13  426.08   16.48
  -1   7  13  430.33   18.72
  -1   7 -13  423.04   17.20
   1   7  13  449.00   16.88
  -1  -7  13  424.38   14.59
   1   7 -14  654.31   22.53
   1  -7  14  634.26   20.50
   1   7 -14  657.28   12.95
   1   7  14  617.82   22.59
  -1   7 -14  639.26   21.47
  -1  -7 -14  637.28   22.27
  -1   7  14  643.91   22.01
   1   7  14  631.97   20.50
  -1  -7  14  643.04   18.50
  -1   7  14  698.57   23.77
   1   7  15    5.21    2.88
   1   7  15    5.27    3.00
   1   7 -15    2.54    3.61
  -1   7 -15    6.48    3.25
  -1  -7  15    8.75    2.95
   1  -7  15   12.68    4.35
  -1   7 -15    8.51    3.09
  -1   7  15    6.97    4.03
  -1   7  16    8.88    4.97
   1   7  16    0.39    2.34
  -1   7  16    5.39    3.95
   1  -7  16    0.72    2.77
   1   7  16   -0.07    3.42
  -1  -7  16    0.87    2.47
  -1   7 -16    2.16    2.14
  -1   7 -16    3.89    3.43
   1   7 -16    2.15    2.91
   1   7  17  284.25   14.51
   1   7  17  278.36   16.24
  -1   7  17  275.09   15.34
  -1   7 -17  278.91   12.27
   1   7 -17  286.49   15.86
  -1   7  17  270.66   15.98
   1  -7  17  265.09   14.45
  -1  -7  17  272.36   13.52
  -1   7 -17  290.59   15.26
  -1   7  18   96.74    9.70
   1   7  18   84.31    8.32
   1   7 -18   85.44    9.30
  -1   7 -18   81.32    8.83
  -1   7 -18   98.53    7.47
  -1  -7  18   78.95    7.77
   1  -7  18   86.72    8.62
  -1   7  18   95.48   10.14
   1   7  18   93.86   10.10
   1   7 -19  113.84   10.70
  -1  -7  19  111.82    9.33
   1   7  19  120.35    9.77
  -1   7 -19  108.68   10.06
  -1   7  19  127.87   11.12
   1   7  19  118.05   11.20
  -1   7  19  133.10   11.85
   1  -7  19  123.54   10.52
   1  -7  20    2.15    3.29
   1   7  20    8.23    3.14
  -1   7  20    8.24    3.32
   1   7 -20    7.65    3.51
   1   7  20    8.70    4.60
  -1   7  20   21.66    6.56
  -1  -7  20    3.82    3.35
  -1   7 -20   10.23    4.29
  -1   7  21   18.24    5.58
  -1   7 -21    4.84    3.07
  -1  -7  21    4.27    2.72
   1  -7  21    5.04    2.90
  -1   7  21    7.67    3.39
   1   7 -21   10.93    4.17
   1   7  21    4.65    2.33
   1   7  21   13.53    5.21
  -1   7  22    1.67    2.68
   1   7  22   -2.01    2.36
   1  -7  22   -1.21    3.04
   1   7 -22    1.70    3.06
  -1   7 -22   -2.29    2.87
   1   7  22    1.79    3.66
  -1  -7  22   -6.66    4.13
  -1   7  23   80.18    9.48
   1   7 -23   92.93   10.42
   1   7  23   99.88   11.29
  -1  -7  23   88.78    9.46
  -1   7 -23   89.99    9.70
   1   7  23   95.50    9.37
   1  -7  23   76.68    9.17
  -1  -7  24    3.63    3.20
  -1   7 -24    0.96    2.77
   1  -7  24    2.33    3.32
   1   7  24   -4.08    4.26
   1   7 -24   -1.34    3.06
  -1   7  24   -0.76    2.70
  -1   7 -25    5.97    3.59
   1  -7  25   -2.50    3.95
   1   7 -25    1.93    3.18
  -1   7  25   -0.10    2.77
  -1  -7  25   -3.89    4.37
   1   7  25    4.03    3.99
  -1   7  26    2.51    3.07
   1   7  26   12.75    5.04
  -1   7 -26    3.79    3.53
   1  -7  26   -3.02    4.50
  -1  -7  26   -2.27    3.68
   1   7 -26    6.05    4.50
  -1   7  27   65.02    9.16
  -1   7 -27   52.10    8.09
  -1   8   0    2.75    3.12
   1   8   0    0.58    2.52
  -1   8  -1 1185.68   26.88
   1   8   1 1170.11   27.05
   1   8  -1 1208.22   27.31
  -1   8   1 1190.37   27.29
   1   8  -2  138.60    6.62
  -1   8   2  141.45    9.60
   1   8   2  135.87    8.87
  -1   8  -2  139.13    9.37
   1   8  -2  131.94    9.33
   1   8   2  136.26    9.40
  -1   8  -3   27.16    4.29
   1   8  -3   28.29    4.78
   1   8   3   33.16    5.08
   1   8   3   31.79    4.58
   1  -8  -3   30.57    4.54
  -1   8   3   23.40    4.45
   1   8  -3   28.05    3.01
   1   8   4    8.65    2.81
   1  -8  -4    6.39    2.85
   1   8   4   13.31    4.31
   1   8  -4    7.08    1.62
  -1   8  -4    5.05    2.70
  -1   8   4    6.20    3.06
   1   8   5 1045.70   25.44
  -1   8  -5 1087.58   25.83
   1   8  -5 1061.56   18.38
   1  -8  -5 1079.14   26.44
   1   8  -5 1102.66   26.79
   1   8   5 1077.05   26.02
  -1   8   5 1068.11   26.59
   1   8   6   45.86    6.30
   1   8  -6   33.05    5.40
  -1   8   6   46.28    6.52
   1  -8  -6   42.92    6.02
   1   8   6   37.10    5.23
  -1   8  -6   41.51    5.41
  -1   8  -7  352.35   15.04
  -1   8   7  358.02   15.79
  -1  -8  -7  333.64   15.36
   1   8   7  368.68   15.80
   1   8  -7  345.59   15.55
  -1  -8   7  340.53   10.34
   1   8   7  357.04   15.19
   1  -8  -7  346.05   15.65
  -1  -8  -8   25.56    4.94
  -1   8  -8   26.18    4.65
   1  -8  -8   31.92    5.46
  -1  -8   8   30.79    3.40
   1   8   8   20.26    4.64
   1   8   8   31.26    6.03
  -1   8   8   27.11    5.70
   1   8  -8   26.05    5.02
   1   8  -8   24.97    4.96
  -1   8  -9 1991.66   35.82
  -1  -8  -9 2009.24   38.36
   1   8   9 2026.99   38.13
   1   8  -9 2068.27   38.17
   1   8   9 2016.45   36.84
  -1  -8   9 2014.84   22.70
  -1   8   9 2041.26   38.11
   1   8  -9 2055.95   38.78
   1  -8  -9 1953.97   38.07
  -1   8  10   47.27    6.88
  -1  -8 -10   38.23    5.81
   1   8 -10   48.69    6.79
   1   8 -10   38.89    6.10
   1  -8 -10   52.49    6.96
   1   8  10   38.29    5.94
  -1   8 -10   41.57    5.83
   1   8  10   50.45    7.46
  -1  -8 -11   17.21    3.72
   1  -8 -11   19.54    4.62
  -1   8 -11   38.04    6.41
   1   8 -11   21.89    5.00
  -1   8 -11   16.98    3.61
   1   8  11   26.20    5.10
  -1   8  11   18.09    4.85
   1   8  11   16.85    4.89
  -1   8 -12  296.80   14.34
   1   8 -12  274.32   15.03
  -1  -8 -12  266.98   14.71
   1  -8 -12  282.26   15.34
  -1   8 -12  285.62   15.05
   1   8  12  274.61   15.18
  -1   8  12  291.08   15.25
   1   8  12  282.00   14.30
  -1   8 -13  137.90   10.83
  -1  -8  13  147.32    8.90
  -1  -8 -13  143.91   11.03
   1   8 -13  153.82   11.63
  -1   8  13  151.04   11.35
   1   8  13  150.73   10.59
   1   8  13  135.75   11.24
   1   8  14   11.53    4.53
  -1   8 -14    3.01    2.86
   1   8 -14    9.41    4.06
  -1  -8 -14    3.77    2.46
  -1  -8  14   13.67    3.79
   1   8  14    4.00    2.29
  -1   8  14   11.95    4.25
   1   8  15  111.84    9.37
   1  -8  15  114.73    9.50
  -1   8  15  100.30    9.41
  -1  -8  15  116.44    8.60
  -1  -8 -15  112.18   10.23
  -1   8 -15  114.59    9.69
   1   8  15  106.10   10.43
   1   8 -15  103.89   10.03
  -1   8  16   10.58    4.25
  -1  -8  16   10.52    3.72
  -1   8 -16    7.73    2.69
  -1   8 -16    0.04    3.23
   1   8 -16    3.54    3.05
   1  -8  16    8.27    4.17
   1   8  16    5.27    3.66
   1   8  16    9.26    4.72
  -1   8 -17  220.65   14.33
   1  -8  17  215.60   13.32
   1   8 -17  214.73   14.64
  -1   8  17  240.79   14.94
   1   8  17  215.07   13.30
   1   8  17  217.89   15.01
  -1  -8  17  210.02   11.96
  -1   8  18    7.75    4.82
   1   8  18    3.98    3.13
  -1   8 -18    2.28    2.67
   1   8  18    4.17    4.26
  -1  -8  18    1.04    2.94
   1  -8  18    3.56    3.31
   1   8 -18    3.05    3.86
   1  -8  19  349.07   17.83
   1   8  19  345.59   17.27
   1   8 -19  368.59   19.53
   1   8  19  343.47   19.47
  -1   8  19  336.77   18.30
  -1   8 -19  330.53   18.02
  -1  -8  19  346.47   16.42
  -1   8  20    4.47    4.00
  -1   8 -20   -0.97    2.57
   1   8 -20    1.59    3.67
   1  -8  20    5.61    4.33
  -1  -8  20   -1.77    2.80
   1   8  20    0.93    3.34
   1   8  20   13.59    5.56
   1   8  21  111.72   10.51
  -1   8 -21  112.34   10.95
   1   8 -21  117.46   11.56
   1   8  21  111.89   11.72
  -1   8  21  110.08   10.89
   1  -8  21  110.35   10.62
  -1  -8  21  121.29   10.29
  -1   8  22   14.10    4.83
  -1   8 -22   11.92    4.29
   1   8  22   12.40    5.02
  -1  -8  22    9.77    4.37
   1  -8  22   17.21    5.51
   1   8  22   10.33    4.07
   1   8 -22   16.21    5.73
  -1   8  23  153.00   13.26
   1  -8  23  163.77   13.46
  -1   8 -23  150.45   13.14
   1   8  23  166.37   14.87
   1   8 -23  161.61   13.93
   1   8  23  142.30   11.85
   1  -8  24   10.13    4.94
   1   8 -24    0.86    3.05
  -1   8  24    8.32    4.65
   1   8  24   16.94    5.56
  -1   8 -24    4.61    3.92
  -1   8  25   38.89    7.21
   1   8 -25   28.31    6.18
  -1   8 -25   31.61    6.40
   1  -8  25   32.36    6.75
  -1   8  26    2.10    3.33
   1  -8  26   -0.35    3.45
  -1   8 -26    1.76    2.72
  -1   8  27  164.46   14.36
   1   9   0   -1.07    2.80
  -1   9   0   -1.36    2.43
  -1   9   1   64.87    7.20
  -1   9  -1   55.03    6.71
   1   9   1   57.82    6.96
   1   9  -1   59.61    7.32
   1   9  -2  129.71    9.84
   1   9   2  133.81    9.92
  -1   9  -2  123.86    9.68
  -1   9   2  120.70    9.56
   1  -9  -3  205.75   12.13
   1   9   3  193.25   12.11
   1   9  -3  204.36   12.40
  -1   9  -3  193.65   11.90
  -1   9   3  195.04   12.22
  -1   9   4   66.35    7.54
  -1   9  -4   64.77    6.98
   1   9  -4   86.62    8.59
   1  -9  -4   60.74    6.92
   1   9   4   76.19    7.77
   1   9   4   70.59    7.49
   1  -9  -5   15.31    4.28
  -1   9   5   10.89    3.09
   1   9   5   25.30    5.18
  -1   9  -5   17.91    4.46
   1   9   5   11.69    3.77
   1   9  -5   14.57    4.35
   1   9   6  105.71    8.88
  -1   9   6  102.73    9.14
   1  -9  -6  103.38    9.13
   1   9  -6  115.04    9.52
   1   9   6  143.62   10.50
  -1   9  -6  118.96    9.43
  -1  -9  -7   -2.02    3.38
   1   9  -7    0.58    2.70
   1   9   7   -5.37    3.86
   1   9   7    1.79    3.79
   1  -9  -7    1.48    2.77
  -1   9  -7    3.84    3.37
  -1   9   7    2.44    3.58
  -1   9  -8   41.27    6.45
   1  -9  -8   40.44    6.17
  -1  -9  -8   41.95    6.71
  -1   9   8   42.09    6.61
   1   9  -8   41.03    6.36
   1   9   8   44.97    7.24
   1   9   8   39.22    6.61
  -1  -9  -9 1655.95   36.97
   1   9  -9 1650.27   36.27
   1  -9  -9 1624.40   36.58
   1   9  -9 1698.31   37.11
  -1   9  -9 1634.58   34.89
  -1   9   9 1678.84   36.72
   1   9   9 1690.32   35.44
   1   9   9 1657.50   36.82
   1   9  10   44.33    6.55
  -1  -9 -10   42.17    6.79
   1   9 -10   50.04    7.26
   1   9  10   64.55    8.56
   1   9 -10   50.50    7.49
  -1   9 -10   40.77    6.26
  -1   9  10   49.85    7.98
   1  -9 -10   72.88    8.70
  -1  -9 -11   55.06    7.23
  -1   9 -11   43.78    5.88
   1   9  11   44.74    7.06
   1   9 -11   49.36    7.11
   1   9  11   52.67    6.96
  -1   9  11   54.61    7.32
   1  -9 -11   53.16    7.11
  -1   9  12   10.35    3.36
   1   9 -12   10.63    4.38
  -1   9 -12    8.22    2.75
  -1  -9 -12   16.92    4.68
   1   9  12   20.67    5.56
   1  -9 -12    3.72    2.67
   1   9  12   10.57    3.79
  -1   9 -12    7.76    3.61
  -1   9 -13   12.26    3.64
  -1   9  13    8.66    3.52
   1   9 -13    7.87    3.68
  -1   9 -13    2.97    3.45
   1   9  13    6.27    3.63
  -1  -9 -13    5.03    3.46
   1   9  13   17.57    5.37
   1   9 -14    9.94    3.68
  -1  -9 -14   10.14    3.93
   1   9  14   12.35    3.87
   1   9  14   19.21    5.49
  -1   9 -14    9.60    3.93
  -1   9  14   12.28    4.45
   1   9  15   58.84    8.35
  -1   9  15   55.28    7.68
   1   9 -15   55.87    8.01
  -1   9 -15   54.30    7.30
   1   9  15   55.93    7.38
  -1  -9 -15   51.10    7.58
  -1   9 -16  110.21   10.33
   1   9  16  108.76    9.85
  -1   9  16  109.52   10.58
   1   9 -16  114.26   11.08
   1   9  16  108.48   11.04
   1   9  17    9.23    3.94
   1   9 -17   14.65    4.97
  -1  -9  17   24.01    4.79
  -1   9  17   11.47    4.19
  -1   9 -17   10.68    4.06
   1   9  17   19.15    6.22
   1   9  18   80.01   10.02
  -1   9  18   82.95    9.47
  -1   9 -18   55.81    7.76
   1   9 -18   74.64    9.59
   1   9  18   69.62    8.27
   1   9 -19   70.73    9.24
   1  -9  19   72.10    8.78
  -1   9  19   74.37    9.37
  -1   9 -19   53.17    8.05
   1   9  19   60.00    8.91
   1   9  19   61.46    7.89
   1   9  20   39.98    7.67
   1   9  20   47.06    6.98
  -1   9 -20   48.12    7.99
   1  -9  20   47.20    7.51
  -1   9  20   38.26    6.93
   1   9 -20   42.30    7.68
   1   9  21   84.70    9.46
   1   9  21   99.55   11.64
   1   9 -21  112.39   11.75
  -1   9 -21   96.00   10.72
  -1   9  21  109.76   11.43
   1  -9  21  117.57   11.21
   1   9  22   20.42    4.99
  -1   9  22   33.58    6.86
   1  -9  22   20.63    6.29
   1   9  22   23.99    6.99
  -1   9 -22   19.47    5.36
   1   9 -22   20.08    5.77
   1  -9  23    8.11    4.50
  -1   9 -23    2.02    3.04
  -1   9  23    8.17    4.33
   1   9 -23   -2.51    3.69
   1   9  23    1.01    2.94
  -1   9  24   19.54    5.43
   1  -9  24   37.83    7.17
  -1   9 -24   38.10    7.43
   1  -9  25    6.34    3.87
  -1   9  25    2.32    2.66
  -1  10   0   -1.20    3.18
   1  10   0    0.61    2.54
   1  10  -1  123.36   10.23
  -1  10   1  117.81   10.03
   1  10   1  117.99    9.98
  -1  10  -1  119.13    9.92
   1  10   2   46.86    6.69
  -1  10  -2   47.67    6.50
  -1  10   2   38.52    6.02
   1  10  -2   57.55    7.56
   1 -10  -3  307.18   15.77
  -1  10  -3  326.43   16.25
   1  10   3  323.13   16.31
  -1  10   3  317.21   16.39
   1  10  -3  342.39   16.80
   1  10   4   12.66    4.49
   1 -10  -4    6.61    2.61
  -1  10   4    8.19    3.06
   1  10  -4   11.25    4.09
  -1  10  -4    7.98    3.11
   1  10   5  296.26   15.70
   1 -10  -5  293.70   15.70
  -1  10  -5  301.66   15.76
   1  10  -5  289.90   15.85
  -1  10   5  296.83   15.99
   1 -10  -6  200.72   13.16
   1  10   6  178.29   12.35
   1  10  -6  192.53   13.00
  -1 -10  -6  211.00   13.67
  -1  10  -6  189.37   12.67
  -1  10   6  194.14   13.11
   1  10  -7  154.95   11.75
   1 -10  -7  146.53   11.54
  -1  10   7  167.30   12.20
   1  10   7  161.65   11.86
   1  10   7  159.28   12.02
  -1 -10  -7  139.66   11.34
  -1  10  -7  164.49   11.76
   1 -10  -8   89.18    9.33
   1  10   8   82.67    8.64
  -1  10   8   78.74    8.82
   1  10   8   82.10    9.15
  -1 -10  -8   76.70    8.71
  -1  10  -8   90.20    9.09
   1  10  -8   86.50    9.25
   1  10  -9  126.77   10.80
  -1 -10  -9  108.17   10.25
   1  10  -9  132.85   11.47
   1 -10  -9  120.22   10.75
   1  10   9  142.89   11.85
  -1  10  -9  111.93    9.87
   1  10   9  129.91   10.87
  -1  10   9  127.41   11.17
   1 -10 -10  542.03   22.66
   1  10  10  536.42   21.82
   1  10 -10  572.04   22.82
  -1  10  10  561.82   22.75
   1  10  10  575.47   23.02
  -1  10 -10  548.93   21.67
  -1 -10 -10  569.35   23.03
   1  10 -10  565.85   23.17
   1  10  11   30.26    5.71
  -1 -10 -11   28.17    5.68
   1  10  11   38.00    7.30
   1  10 -11   39.41    6.62
   1 -10 -11   25.93    5.39
   1  10 -11   28.35    5.86
  -1  10  11   32.98    6.10
  -1  10 -11   23.94    5.17
   1  10  12  119.29   10.55
   1  10  12  138.89   12.14
  -1  10  12  126.78   11.28
  -1 -10 -12  129.85   11.56
  -1  10 -12  115.43   10.83
  -1  10 -12  124.19   10.50
   1  10 -12  122.48   11.21
   1 -10 -12  129.03   11.71
  -1 -10 -13  111.37   10.93
   1  10  13  106.57   10.90
   1  10 -13  103.32   10.66
  -1  10  13  110.65   10.78
   1 -10 -13  110.70   10.98
  -1  10 -13  111.83   10.74
   1  10  13  112.03   10.39
  -1  10 -13   93.89    9.38
   1  10  14   14.21    5.79
  -1  10 -14    5.99    3.63
   1  10 -14   12.01    4.43
  -1  10  14   13.29    4.58
   1  10  14   10.77    3.92
  -1 -10 -14    5.46    3.26
   1  10  15    1.83    4.59
  -1  10  15    6.16    4.06
   1  10  15   -3.10    3.07
  -1  10 -15   -0.43    2.68
   1  10 -15   -5.10    3.83
  -1 -10 -15    2.35    2.78
   1  10  16  164.83   13.79
  -1  10 -16  168.09   13.22
  -1  10  16  154.48   12.90
  -1 -10 -16  165.34   13.70
   1  10 -16  178.28   14.12
   1  10  16  174.10   13.32
   1  10  17   31.70    6.30
  -1  10  17   33.92    6.75
  -1  10 -17   23.71    5.93
   1  10 -17   33.20    6.52
   1  10  17   25.79    6.54
   1  10 -18   20.74    5.42
   1  10  18   22.72    6.76
  -1  10  18   16.14    4.93
   1  10  18   16.67    4.47
  -1  10 -18   14.22    4.45
   1  10  19    9.62    3.94
   1  10  19   10.08    5.13
   1  10 -19   16.63    5.62
  -1  10 -19    3.97    3.25
   1  10 -20  243.74   17.62
  -1  10  20  234.01   16.64
   1  10  20  238.14   17.90
   1  10  20  229.41   16.08
  -1  10 -20  239.46   17.02
  -1  10  21    3.63    3.47
  -1  10 -21    3.79    3.98
   1  10 -21    4.23    3.56
   1  10  21    2.69    3.12
  -1  10  22   16.96    5.15
  -1  10 -22   23.97    6.13
   1  10  22   28.86    6.14
  -1  10  23    4.45    3.57
  -1  11   0   -0.45    2.88
   1  11   0    0.75    3.02
  -1  11   1    5.05    3.72
   1  11  -1    1.56    2.95
  -1  11  -1    4.91    3.84
   1  11   1    2.87    3.27
  -1  11   2    6.54    3.50
   1 -11  -2    2.22    3.02
  -1  11  -2    3.48    2.86
   1  11   2    5.94    3.82
   1  11  -2    1.10    2.92
   1  11   3   76.00    8.78
   1  11  -3   72.59    8.65
  -1  11  -3   68.16    8.29
  -1  11   3   62.96    7.74
   1 -11  -3   78.99    8.50
  -1  11   4   48.88    6.84
  -1  11  -4   52.94    7.34
   1  11   4   45.81    6.90
   1  11  -4   45.24    7.21
   1 -11  -4   43.55    6.61
  -1  11   5    7.68    4.03
   1 -11  -5   -0.15    2.45
  -1  11  -5    6.96    3.68
   1  11  -5   10.33    4.35
   1  11   5    3.46    3.63
  -1  11   6   12.72    3.89
   1  11  -6   23.05    5.53
   1 -11  -6   16.98    4.60
   1  11   6   16.51    4.88
  -1  11  -6   16.38    4.56
  -1 -11  -6   18.67    4.78
  -1  11  -7   19.23    4.77
  -1 -11  -7   28.87    5.78
   1  11   7   28.60    5.36
  -1  11   7   28.74    5.97
   1 -11  -7   40.17    6.68
   1  11  -7   26.67    5.37
   1 -11  -8  226.31   15.05
   1  11  -8  214.06   14.60
  -1 -11  -8  219.90   14.89
   1  11   8  211.70   14.08
  -1  11   8  217.39   14.68
  -1  11  -8  204.15   13.87
  -1 -11  -9    6.30    3.07
   1 -11  -9    8.58    4.34
   1  11   9    7.17    3.24
   1  11  -9   17.27    5.88
   1  11  -9   12.09    4.57
  -1  11  -9    3.46    3.24
  -1  11   9    5.45    3.70
   1 -11 -10  256.94   16.58
  -1  11  10  272.17   16.86
  -1 -11 -10  292.01   17.63
   1  11 -10  288.47   17.11
   1  11 -10  277.99   17.18
  -1  11 -10  277.94   16.41
   1  11  10  263.26   16.20
   1  11  11   17.00    5.25
   1 -11 -11   13.70    4.75
  -1  11 -11   16.24    5.01
   1  11 -11   18.04    5.14
   1  11 -11    6.35    4.14
   1  11  11   20.32    6.10
  -1 -11 -11    9.80    4.78
  -1  11  11   12.68    4.55
   1  11  12   69.44    9.40
  -1  11 -12   60.59    7.90
   1  11  12   63.76    8.24
  -1  11 -12   77.55    9.47
   1 -11 -12   56.20    8.24
   1  11 -12   68.38    9.21
  -1 -11 -12   67.77    8.89
  -1  11  12   69.53    8.93
  -1  11 -13   16.50    5.10
   1  11  13   18.77    6.14
  -1 -11 -13   16.31    4.54
  -1  11  13    9.02    3.63
   1 -11 -13   19.22    5.61
  -1  11 -13   19.94    4.86
   1  11  13   18.05    5.24
   1  11 -13   13.58    4.31
  -1 -11 -14    7.13    4.14
   1  11 -14    6.96    4.00
  -1  11  14   -0.10    3.52
  -1  11 -14    7.61    4.13
   1  11  14   10.29    5.17
   1  11  14    6.75    3.58
   1  11  15   -5.00    3.55
  -1  11 -15   -1.48    3.29
  -1  11  15   -0.59    3.40
   1  11 -15    1.45    2.72
  -1 -11 -15   -1.49    3.58
   1  11  15    7.79    5.43
   1  11  16    7.27    4.07
   1  11 -16    8.86    4.20
  -1  11 -16    5.05    3.38
  -1  11  16    2.99    3.23
  -1 -11 -16    7.95    3.94
   1  11  17   24.89    5.87
  -1  11  17   27.60    6.35
   1  11 -17   26.86    6.46
  -1  11 -17   26.51    6.12
   1  11  17   26.75    7.52
   1  11  18   -1.17    3.14
  -1  11  18    2.97    3.76
  -1  11 -18   -0.58    2.94
   1  11  18    9.40    5.66
   1  11 -18   -4.43    3.29
  -1  11  19   32.84    6.95
  -1  11 -19   35.68    7.02
   1  11  19   32.80    6.55
   1  11  20   32.56    6.77
  -1  11 -20   31.13    7.45
  -1  11  20   30.44    6.71
   1  11  21   11.82    4.53
   1  11  22    2.16    3.06
  -1  12   0    0.51    2.54
   1  12   0   -1.83    3.14
  -1  12   1   -0.78    3.38
   1  12  -1   -1.27    2.89
   1  12   1   -0.95    3.31
  -1  12  -1    1.83    3.32
   1  12  -2   76.70    9.11
  -1  12  -2   69.96    8.76
   1 -12  -2   63.35    7.94
  -1  12   2   62.91    8.43
   1  12   2   66.15    8.56
   1 -12  -3    8.39    3.27
  -1  12   3   17.73    5.36
   1  12   3   11.89    4.56
  -1  12  -3    6.08    3.00
   1  12  -3    7.71    4.51
   1  12  -4   -1.95    3.60
   1 -12  -4    0.37    2.58
  -1  12   4   -3.03    3.31
   1  12   4    2.31    3.23
  -1  12  -4   -2.90    3.41
   1 -12  -5   12.29    4.56
  -1  12  -5    6.95    4.02
  -1  12   5    7.00    4.11
   1  12  -5   19.59    5.35
  -1 -12  -5    5.62    3.57
   1  12   5    8.97    3.42
  -1  12   6   12.30    4.32
   1  12  -6   14.18    5.22
   1 -12  -6    7.56    3.36
  -1 -12  -6    7.56    3.93
  -1  12  -6    6.01    3.61
   1  12   6   11.81    4.75
  -1  12   7   28.02    5.97
   1  12  -7   28.45    6.03
   1  12   7   30.13    6.19
  -1 -12  -7   30.09    6.29
  -1  12  -7   28.89    5.97
   1 -12  -7   28.71    5.70
   1 -12  -8   46.96    7.60
  -1 -12  -8   50.28    7.81
  -1  12   8   55.12    8.24
  -1  12  -8   45.53    7.18
   1  12   8   41.18    7.03
   1  12  -8   45.77    7.46
   1  12   9  132.30   12.22
   1 -12  -9  125.15   12.09
  -1  12  -9  131.82   12.03
   1  12  -9  131.61   12.41
   1  12  -9  127.17   12.30
  -1 -12  -9  122.16   12.08
  -1  12   9  131.66   12.33
  -1  12  10    9.88    4.67
   1  12 -10    6.89    3.88
   1  12 -10   11.37    4.57
  -1 -12 -10   12.03    4.57
   1 -12 -10   11.01    4.89
   1  12  10   19.63    5.57
  -1  12 -10   11.55    4.51
  -1  12 -11    2.46    2.80
   1 -12 -11    2.05    3.07
   1  12 -11    7.49    3.69
  -1 -12 -11    7.97    3.47
   1  12  11    9.24    4.63
   1  12 -11   12.38    4.83
  -1  12  11    8.17    4.53
  -1 -12 -12   11.50    4.38
   1 -12 -12   14.21    5.25
   1  12  12   12.40    5.43
   1  12 -12   10.50    4.32
  -1  12 -12   14.66    5.62
  -1  12  12    8.26    4.42
  -1  12 -12   10.40    4.37
  -1 -12 -13  214.71   16.31
  -1  12 -13  216.39   16.25
  -1  12  13  216.11   16.19
  -1  12 -13  206.56   15.18
   1  12 -13  200.83   15.68
   1  12  13  201.09   15.24
   1 -12 -13  203.68   16.04
   1  12  14    2.41    3.99
  -1 -12 -14   -5.42    4.73
   1  12 -14    8.31    4.61
  -1  12  14    7.96    4.57
  -1  12 -14   -0.12    2.81
   1  12  15    0.09    3.31
  -1  12 -15    0.38    2.75
  -1  12  15   -1.41    3.09
  -1 -12 -15   -3.81    3.90
   1  12 -15    1.81    3.74
  -1  12  16   97.99   11.27
  -1  12 -16   98.10   11.26
   1  12 -16   99.85   11.68
  -1 -12 -16   99.88   11.97
   1  12  16   88.57   10.59
  -1  12 -17   25.45    6.50
   1  12  17   24.22    5.90
  -1  12  17   34.60    7.27
   1  12  18    2.81    3.31
   1  12  19   85.75   10.58
   1  13   0   -4.38    3.08
  -1  13   0    0.48    3.30
  -1  13   1   63.91    9.06
   1  13   1   58.17    8.49
   1  13  -1   54.22    8.35
   1 -13  -1   57.72    8.24
  -1  13  -1   56.82    8.52
  -1  13   2   18.97    5.13
   1  13  -2   13.18    4.70
   1  13   2   29.08    6.57
   1 -13  -2   19.89    5.01
  -1  13  -2   18.74    5.50
   1  13   3   22.68    5.28
   1  13  -3   32.84    6.75
   1 -13  -3   26.53    6.00
  -1  13   3   34.37    7.03
  -1  13  -3   22.47    5.69
   1  13  -4   66.97    9.16
  -1  13   4   62.40    8.74
   1  13   4   59.42    8.65
   1 -13  -4   51.75    7.97
  -1  13  -4   65.19    9.14
   1  13   5    2.67    3.75
   1  13  -5    1.60    3.39
   1 -13  -5    4.59    4.12
  -1 -13  -5   -0.39    2.70
  -1  13   5   -0.29    3.59
  -1  13  -5   -2.67    4.13
   1 -13  -6    4.44    3.63
  -1  13   6    3.33    3.41
  -1  13  -6   -1.90    3.71
  -1 -13  -6    1.54    2.91
   1  13  -6    1.04    2.89
   1  13   6    0.18    2.92
   1  13  -7   12.77    4.85
   1 -13  -7   11.54    4.72
  -1 -13  -7    8.02    3.70
   1  13   7   13.40    4.73
  -1  13   7    8.63    4.53
  -1  13  -7    7.20    3.64
   1  13   8    1.27    3.47
  -1  13  -8    5.20    3.59
   1  13  -8    8.05    4.33
   1 -13  -8    7.91    4.21
  -1  13   8    7.20    4.26
  -1 -13  -8    1.30    3.00
   1  13  -8    8.76    4.31
   1  13   9  104.94   11.35
   1 -13  -9   93.58   11.13
  -1  13   9   97.15   11.42
   1  13  -9  116.05   12.32
  -1 -13  -9   93.96   11.21
  -1  13  -9  107.06   11.35
   1  13  -9  106.68   11.78
   1  13  10    5.86    4.08
   1 -13 -10    5.52    3.94
  -1  13  10    7.64    4.59
  -1 -13 -10   10.19    5.26
  -1  13 -10   10.99    4.40
   1  13 -10   13.07    5.25
   1  13 -10    9.62    4.67
   1  13  11   -1.72    3.60
  -1  13 -11    0.15    3.11
   1 -13 -11   -3.36    3.56
  -1 -13 -11    4.33    4.65
   1  13 -11   -2.41    3.16
   1  13 -11   -3.72    3.90
  -1  13  11   11.57    5.19
  -1  13  12   53.36    8.84
  -1  13 -12   36.46    7.19
   1 -13 -12   46.27    8.25
  -1 -13 -12   54.57    8.85
   1  13  12   40.12    7.26
   1  13 -12   52.46    8.87
  -1  13 -12   46.57    8.31
  -1  13  13    3.14    3.14
  -1  13 -13    1.06    2.90
   1  13  13   -5.28    4.48
  -1  13 -13    1.73    3.44
   1  13  14   19.95    5.76
   1  13  15   89.19   11.07
   1  14   0    1.81    3.47
  -1  14   0    0.59    4.15
   1 -14   0   -0.80    3.01
   1  14  -1   22.60    5.86
  -1  14   1   34.55    6.98
  -1  14  -1   25.56    6.07
   1 -14  -1   22.87    5.48
   1  14   1   33.82    7.29
   1 -14  -2   23.53    5.59
  -1  14   2   34.54    7.20
  -1  14  -2   23.89    6.13
   1  14  -2   36.35    7.46
   1  14   2   20.65    6.03
  -1  14   3   25.38    6.45
   1  14   3   21.97    5.49
  -1  14  -3   21.51    5.82
   1  14  -3   24.34    6.12
   1 -14  -3   23.09    5.59
  -1 -14  -4   -2.48    3.54
   1  14  -4    0.90    3.98
   1 -14  -4   -4.82    4.04
   1  14   4   -1.46    3.33
  -1  14  -4   -1.97    4.02
  -1  14   4   -0.84    3.40
   1 -14  -5   96.13   11.25
  -1  14  -5  101.97   11.51
   1  14   5   98.85   11.47
  -1  14   5   85.76   10.89
   1  14  -5   97.05   11.32
  -1 -14  -5  105.57   11.90
   1 -14  -6  114.05   12.26
  -1 -14  -6  114.04   12.39
   1  14  -6  110.76   12.11
  -1  14   6  118.94   12.86
  -1  14  -6   99.58   11.49
   1  14   6  108.68   12.15
  -1  14   7   -2.01    3.78
   1  14   7   -3.30    3.80
   1 -14  -7    5.51    4.42
  -1  14  -7    5.45    4.03
  -1 -14  -7    3.02    3.41
   1  14  -7   -1.09    3.28
   1  14   8    4.64    3.98
  -1  14  -8    3.75    3.79
  -1  14  -9   31.24    6.89
   1  14   9   21.30    6.00
   1 -15   1   -1.85    3.92
   1 -15   2   91.17   11.11
  -2   0   0  799.14    9.41
   2   0   0  816.10   12.28
   2   0   0  788.55   11.86
  -2   0   0  779.70   11.91
  -2   0   0  795.86   11.85
   2   0   0  792.46    9.34
   2   0   0  800.23   11.73
   2   0  -1    0.29    1.28
   2   0  -1    0.65    1.58
  -2   0  -1    1.41    1.36
   2   0   1    2.43    0.73
  -2   0  -1   19.42    3.09
  -2   0   1   10.91    2.10
   2   0   1   29.48    3.29
   2   0   1   12.86    2.21
  -2   0   1   -0.35    0.83
   2   0  -1   -0.15    0.96
  -2   0  -1    7.24    1.87
   2   0  -1    6.71    2.36
  -2   0   1    8.18    2.47
   2   0   1    5.32    2.29
  -2   0  -1    0.45    0.65
  -2   0  -2 5669.41   30.63
   2   0  -2 5683.52   33.26
   2   0   2 5819.86   30.42
  -2   0   2 5510.62   31.20
   2   0  -2 5700.55   32.32
   2   0   2 5832.53   30.62
   2   0  -2 5549.05   30.44
   2   0  -2 5710.36   29.55
   2   0   2 5728.60   33.01
  -2   0  -2 5643.63   31.68
   2   0   2 5852.17   32.86
  -2   0   2 5716.55   30.96
  -2   0   3    1.10    1.22
   2   0   3   14.21    2.36
   2   0  -3    1.71    1.32
   2   0   3   -1.43    1.81
   2   0  -3    2.61    2.28
  -2   0   3   20.27    2.89
  -2   0  -3   20.43    2.88
  -2   0  -3    0.86    1.39
   2   0  -3    2.28    2.29
   2   0  -3   -0.06    1.00
   2   0   3    2.48    2.15
  -2   0  -4 3174.69   25.85
   2   0   4 3123.86   25.53
  -2   0   4 3108.94   26.55
  -2   0  -4 2971.95   22.97
   2   0   4 3166.38   24.33
   2   0  -4 3118.88   25.87
   2   0  -4 3112.82   20.47
   2   0  -4 3024.72   23.66
   2   0   4 3113.26   25.86
   2   0  -4 3137.53   26.33
   2   0   4 3079.02   20.77
  -2   0   4 3064.80   23.12
  -2   0  -4 3013.31   26.57
   2   0   5    4.65    2.34
   2   0  -5    3.16    2.89
  -2   0  -5    1.63    1.46
   2   0  -5    2.37    0.86
   2   0  -5    2.19    1.33
  -2   0  -5   -0.75    1.15
  -2   0   5    0.14    1.07
  -2   0   5    1.77    1.41
   2   0   5    0.66    0.70
   2   0   5    0.03    0.93
   2   0   5    2.53    2.40
   2   0  -5    0.79    1.02
  -2   0  -5   -0.17    1.37
   2   0   6  499.09    9.63
  -2   0   6  503.60    9.38
  -2   0   6  502.72   12.01
  -2   0  -6  487.61   11.79
   2   0  -6  498.65   12.01
   2   0   6  481.28    7.69
   2   0   6  500.44    7.24
   2   0  -6  506.86   10.85
   2   0   6  498.33   10.86
  -2   0  -6  511.85    9.54
  -2   0  -6  498.92    5.81
  -2   0  -6  495.48   11.64
   2   0   6  487.83   11.55
   2   0  -6  498.35    9.52
   2   0   7    3.87    2.42
   2   0  -7    1.87    1.30
  -2   0  -7    3.61    1.75
  -2   0   7    2.03    1.64
   2   0  -7    1.79    1.26
  -2   0  -7    3.18    1.26
   2   0   7    1.94    0.71
   2   0   7    2.35    1.16
   2   0   7    1.60    1.98
  -2   0  -7    2.53    0.80
   2   0   7    1.62    0.92
  -2   0   7    2.00    1.10
   2   0  -7    2.52    1.10
  -2   0  -8 2191.63   27.32
   2   0  -8 2190.18   27.57
   2   0   8 2194.54   16.46
  -2   0  -8 2207.99   16.37
   2   0  -8 2206.29   21.02
  -2   0   8 2161.93   19.47
   2   0   8 2212.72   20.31
   2   0  -8 2172.73   19.76
   2   0   8 2142.12   23.56
   2   0   8 2099.80   14.32
   2   0   8 2185.01   18.62
   2   0  -8 2220.72   23.47
   2   0   8 2249.17   27.19
  -2   0  -8 2193.86   19.69
  -2   0  -9    4.31    2.03
  -2   0  -9   -0.83    0.83
   2   0  -9    1.58    1.15
   2   0   9    1.91    2.21
   2   0  -9    0.45    0.73
   2   0   9    0.25    0.39
  -2   0   9   -0.02    0.89
  -2   0  -9    1.78    2.19
   2   0   9   -0.47    0.81
   2   0   9    1.86    2.29
   2   0  -9    1.36    1.17
   2   0   9    0.19    0.65
   2   0   9    0.55    0.96
  -2   0 -10 5379.92   30.71
   2   0  10 5280.98   34.46
   2   0 -10 5326.37   46.66
   2   0  10 5292.80   30.98
   2   0 -10 5167.64   30.09
  -2   0 -10 5341.10   31.15
   2   0  10 5259.86   38.14
   2   0  10 5395.35   30.81
   2   0  10 5323.43   46.57
   2   0 -10 5413.80   37.95
   2   0 -10 5263.27   35.31
  -2   0  10 5313.45   30.07
  -2   0 -10 5415.47   46.22
   2   0 -11    0.10    1.03
  -2   0 -11    0.46    0.84
   2   0 -11   -0.07    0.69
   2   0 -11    0.91    1.09
   2   0  11    1.35    1.65
   2   0  11   15.45    6.46
   2   0  11   12.74    3.21
   2   0  11    3.57    1.81
   2   0  11    0.02    0.94
  -2   0  11    0.57    1.08
   2   0 -12 1160.48   17.95
  -2   0 -12 1188.28   14.08
  -2   0  12 1183.00   13.67
   2   0  12 1175.38   18.66
   2   0  12 1210.32   18.57
   2   0 -12 1152.35   13.71
   2   0  12 1208.07   14.33
  -2   0 -12 1154.50   16.71
   2   0  12 1195.03   23.78
   2   0  12 1176.41   16.66
   2   0 -12 1198.93   23.74
   2   0 -12 1209.57   18.59
   2   0  13    6.03    2.24
  -2   0 -13    0.31    0.86
  -2   0 -13   11.77    3.19
   2   0  13    7.22    2.39
   2   0  13   24.63    7.03
  -2   0  13   -0.44    0.74
   2   0  13    2.97    1.67
   2   0 -13   24.76    5.98
   2   0 -13    1.50    1.40
   2   0 -14 1705.49   30.45
   2   0  14 1702.92   22.42
  -2   0 -14 1711.11   22.70
   2   0  14 1691.27   30.87
   2   0  15   17.08    5.65
  -2   0 -15   16.34    3.96
   2   0  16   93.61    8.16
   2   0 -16  100.68    8.32
  -2   0 -16   94.11    5.95
  -2   0 -17    0.86    1.74
   2   0 -17   -2.26    2.65
   2   0  17    0.87    3.35
   2   0 -18  163.02   10.73
  -2   0 -18  160.59    8.40
   2   0  18  164.20   11.20
  -2   0 -19    1.00    2.04
   2   0  19   -3.28    2.57
   2   0  19    3.67    3.60
   2   0 -19    1.62    2.74
   2   0  20   67.03    6.84
   2   0 -20   70.10    7.66
   2   0  20   70.91    7.91
  -2   0 -20   73.61    6.28
   2   0 -21    1.72    2.56
  -2   0 -21   -0.74    1.66
   2   0  21   -4.52    2.84
   2   0  21   -4.00    4.03
   2   0  22    0.66    2.93
  -2   0 -22    4.47    2.24
   2   0 -22    0.49    2.66
   2   0  22    2.21    2.61
  -2   0 -23   -0.07    1.64
   2   0  23   -1.39    4.09
   2   0 -23    1.09    2.69
   2   0  23    0.75    2.53
   2   0  24   27.85    6.45
   2   0 -24   31.10    5.96
   2   0  24   24.20    4.83
   2   0  25    4.60    4.03
   2   0 -25    3.12    3.45
   2   0  25    5.40    3.44
   2   0  26   61.48    8.92
   2   0  26   59.66    7.37
   2   0 -26   78.42    9.50
   2   0  27    1.40    3.62
   2   0 -27    0.33    3.16
   2   0  28    0.26    3.59
  -2   0  28   12.05    5.53
   2   0 -28    3.39    3.43
   2   0 -29    0.94    3.28
   2   0 -30   19.77    5.20
  -2  -1   0 8463.35   31.72
  -2   1   0 8499.06   40.48
  -2  -1   0 8592.75   39.91
   2   1   0 8374.30   39.98
  -2  -1   0 8640.96   40.63
   2   1   0 8215.00   30.84
   2   1   0 8589.05   41.10
   2  -1   0 8398.35   34.38
   2  -1   0 8698.76   41.70
  -2   1   0 8296.80   34.78
  -2  -1   0 8227.52   27.82
  -2  -1   0 8583.92   33.97
  -2   1   0 8182.73   40.14
  -2   1  -1 6945.74   29.79
   2  -1  -1 7088.82   33.93
   2   1   1 6954.70   27.19
  -2  -1  -1 7040.18   33.48
  -2  -1   1 7277.47   37.39
   2  -1   1 7075.01   37.67
  -2   1  -1 6980.85   37.87
  -2  -1  -1 6859.94   27.51
   2   1  -1 7022.60   37.18
   2  -1  -1 7067.71   37.57
  -2  -1  -1 7025.22   35.04
  -2   1   1 6787.52   33.92
   2   1   1 7118.35   37.27
  -2  -1   1 6894.15   32.02
  -2   1   1 6722.06   35.63
   2   1  -1 7103.41   31.79
  -2   1  -1 7356.36   37.85
  -2  -1  -1 7009.45   29.21
   2   1  -1 7086.74   37.38
  -2   1   1 7210.84   37.38
  -2  -1  -1 6984.17   25.07
  -2  -1   1 7040.25   37.01
  -2  -1  -1 7255.36   37.32
   2   1   1 7199.88   25.09
   2   1   2   48.41    2.59
   2   1  -2   67.55    4.27
  -2   1  -2   50.42    3.58
  -2  -1  -2  102.21    5.53
  -2   1  -2   51.73    2.22
  -2  -1   2  104.60    5.42
  -2   1  -2   44.62    3.25
  -2  -1  -2   54.65    3.95
  -2  -1   2   70.02    5.24
   2  -1  -2   49.57    3.27
   2   1   2   59.76    4.07
   2   1   2   50.50    1.83
  -2   1   2  101.73    5.36
  -2  -1  -2   54.96    3.64
   2  -1  -2   57.92    4.07
   2  -1   2   67.11    4.40
   2   1   2   57.64    3.50
  -2   1   2   46.00    3.16
  -2   1  -2  110.31    5.59
  -2  -1   2   48.84    3.09
   2   1  -2   45.77    3.06
  -2  -1  -2   48.86    2.33
  -2  -1  -2   46.23    2.63
   2   1  -2   74.03    4.35
  -2   1  -3 2863.54   14.56
  -2  -1  -3 2805.13   21.21
  -2  -1   3 2830.73   23.37
  -2  -1   3 2795.72   24.45
   2   1   3 2816.06   24.46
   2   1  -3 2778.17   24.63
  -2   1  -3 2940.61   24.08
   2  -1   3 2856.68   23.92
   2   1  -3 2817.84   23.74
  -2  -1   3 2829.63   24.10
  -2  -1  -3 2751.98   15.32
   2  -1  -3 2785.78   24.25
   2   1   3 2880.00   23.62
   2   1   3 2868.43   21.17
  -2   1   3 2811.99   24.62
  -2   1  -3 2789.30   24.69
  -2  -1  -3 2903.10   23.72
  -2  -1  -3 2840.34   21.13
  -2   1  -3 2868.07   25.11
  -2  -1  -3 2765.38   24.02
  -2   1   3 2780.77   23.31
   2   1   3 2901.48   15.37
   2   1  -3 2741.58   23.24
   2  -1   3 2841.71   24.81
   2  -1  -3 2768.41   23.51
   2  -1  -4 2663.45   25.23
   2   1   4 2772.11   14.13
  -2  -1  -4 2726.72   22.90
  -2  -1  -4 2556.83   13.82
  -2  -1  -4 2646.23   19.76
   2   1  -4 2620.84   24.57
  -2  -1  -4 2675.93   25.09
  -2   1  -4 2666.83   24.82
  -2   1  -4 2717.95   25.71
   2  -1  -4 2700.64   23.14
   2  -1   4 2672.48   23.34
   2   1   4 2723.26   25.57
   2   1   4 2679.94   22.47
  -2   1   4 2623.55   22.61
   2   1  -4 2638.84   22.70
  -2  -1   4 2697.32   22.72
  -2  -1  -4 2725.80   22.78
   2   1   4 2712.75   22.86
  -2   1  -4 2699.90   23.03
   2  -1   4 2678.61   25.27
  -2  -1   4 2692.23   24.44
  -2   1   4 2704.68   25.64
  -2  -1   4 2717.72   25.21
  -2   1  -4 2689.77   12.89
   2  -1   4 2608.73   13.04
   2  -1   5   10.37    0.89
  -2  -1   5   15.78    2.49
  -2   1  -5   12.66    2.45
  -2   1   5   10.75    1.88
   2   1   5   10.90    0.97
  -2  -1  -5   10.04    2.07
  -2  -1   5   29.47    3.82
  -2   1  -5   11.30    2.02
   2  -1   5    7.98    2.39
   2   1   5    9.25    1.86
  -2  -1  -5    8.66    1.36
   2  -1  -5   10.47    2.12
   2   1   5   12.14    1.72
   2   1   5   10.83    2.16
   2   1  -5    9.23    1.83
  -2  -1  -5   12.40    1.59
  -2   1   5   10.46    1.99
   2  -1   5   11.58    2.00
   2   1  -5   14.23    2.99
   2  -1  -5   11.05    1.75
  -2  -1  -5    8.53    0.87
  -2   1  -5   11.98    2.00
  -2   1  -5   11.76    0.92
  -2  -1  -5   11.13    1.92
  -2  -1   6    6.65    1.62
   2  -1   6    8.76    0.87
   2  -1   6   10.62    1.63
   2   1   6    9.31    0.95
  -2   1   6   11.67    2.15
  -2   1  -6   11.66    1.37
  -2   1  -6   10.50    2.21
  -2   1  -6   11.72    2.05
   2  -1  -6   10.70    2.11
  -2  -1   6   10.74    1.73
   2   1  -6    9.22    1.59
   2   1   6    9.09    0.84
  -2  -1  -6    9.29    1.30
  -2  -1  -6   10.50    1.78
   2  -1  -6   10.67    2.36
  -2   1  -6   10.77    1.74
  -2  -1  -6    9.82    2.22
  -2  -1  -6   11.43    1.61
   2   1   6   10.02    1.87
  -2   1  -6    9.95    2.18
   2  -1  -6   12.37    1.81
   2   1  -6    7.66    2.01
   2   1   6   10.73    1.96
  -2  -1   6   11.07    2.11
   2   1   6    8.80    1.48
  -2   1   6    8.27    1.53
   2  -1   6    2.75    2.72
  -2  -1  -7  130.85    3.91
  -2  -1   7  126.61    5.77
  -2   1  -7  128.01    5.12
   2  -1   7  126.71    3.25
  -2   1   7  126.08    4.19
   2   1   7  131.63    3.41
   2  -1  -7  127.29    5.08
   2  -1   7  125.30    5.09
   2   1   7  152.37    7.01
  -2   1  -7  141.33    6.70
   2   1  -7  121.66    3.97
   2  -1  -7  124.48    6.50
   2   1   7  132.17    3.57
  -2   1  -7  143.85    6.12
  -2   1   7  141.01    6.81
   2  -1   7  133.00    6.86
  -2  -1   7  132.21    5.13
  -2  -1  -7  133.33    5.15
  -2   1  -7  137.03    4.40
   2   1   7  133.29    5.11
  -2  -1  -7  134.19    3.50
   2   1   7  135.01    6.35
   2  -1  -7  135.76    5.87
   2   1  -7  129.36    5.03
  -2   1   7  131.03    5.06
   2   1  -7  133.53    6.72
  -2   1  -7  135.82    6.67
  -2  -1   7  146.22    6.86
   2   1   8 1261.28   16.25
   2  -1  -8 1263.86   17.99
  -2  -1   8 1232.40   18.05
   2   1  -8 1231.37   12.95
  -2  -1  -8 1292.39   15.73
   2  -1   8 1225.06   11.14
  -2   1  -8 1267.21   20.56
  -2   1  -8 1243.58   18.06
   2   1  -8 1280.83   21.21
  -2   1  -8 1220.29   14.29
  -2   1  -8 1210.21   15.44
   2   1  -8 1215.76   15.20
  -2  -1  -8 1254.07   12.01
   2  -1  -8 1229.33   20.81
   2  -1  -8 1234.90   18.16
  -2   1   8 1203.42   12.18
   2   1   8 1257.13   20.57
   2   1   8 1230.47   11.95
  -2  -1   8 1259.87   15.38
   2   1   8 1306.67   15.92
   2  -1   8 1218.96   20.72
   2   1   8 1260.60   11.90
  -2   1   8 1234.65   15.44
  -2   1  -9    3.94    1.10
   2  -1  -9   13.00    3.78
  -2  -1  -9    5.33    1.07
   2   1   9    4.48    1.04
   2   1   9    5.00    1.24
  -2   1  -9    5.90    1.63
   2   1  -9    6.36    1.33
   2  -1   9    4.39    0.86
   2  -1   9    5.76    2.57
  -2  -1   9    4.51    1.22
   2   1  -9    4.87    1.16
   2  -1  -9    4.69    1.41
   2   1  -9    4.85    3.17
   2   1   9    5.10    1.73
  -2  -1   9    6.46    1.92
   2   1   9    6.30    2.87
   2  -1  -9    4.84    1.40
  -2   1   9    5.50    0.95
  -2   1  -9    4.76    1.19
  -2   1  -9    3.08    1.79
   2   1  -9    5.34    0.78
   2   1   9    4.56    1.13
  -2  -1  -9    4.87    1.31
  -2   1   9    4.30    1.27
   2   1   9    4.23    1.22
   2   1  10  735.30   11.90
  -2  -1  10  697.28   14.12
   2   1  10  704.42   16.74
   2  -1 -10  727.12   14.09
  -2   1  10  668.99    8.13
   2  -1  10  717.66   10.25
  -2   1 -10  720.99   16.92
  -2   1 -10  688.42   11.56
   2   1  10  735.62   10.93
  -2  -1 -10  727.70   11.23
  -2   1 -10  732.70   14.41
   2  -1  10  737.26   17.51
   2   1  10  689.66   14.05
   2   1 -10  703.26   17.21
   2   1  10  718.42   13.84
   2  -1 -10  698.62   17.03
  -2   1  10  697.59   11.39
  -2   1 -10  715.98   12.41
   2   1  10  682.49   10.79
   2   1 -10  711.40   11.51
   2   1 -10  649.97    6.90
   2  -1 -10  723.02   14.85
   2   1 -10  695.98   10.93
  -2   1 -11    0.11    2.09
   2   1  11   19.96    5.31
   2   1  11   -0.31    1.28
   2   1  11    3.14    1.39
  -2  -1 -11    4.17    1.85
   2  -1  11    6.79    3.57
   2   1 -11   13.24    4.38
  -2  -1  11    3.59    2.22
   2  -1 -11    0.94    1.09
   2  -1 -11   27.76    5.70
   2   1 -11    0.59    0.97
  -2   1  11    0.62    0.38
   2   1  11    3.34    1.45
   2   1  11    0.91    1.45
   2   1 -11    2.08    1.07
  -2   1  11    0.53    0.86
  -2   1 -11    1.35    0.91
  -2   1 -11    2.17    1.47
   2   1  11    1.75    1.06
   2  -1  11    1.01    0.97
   2  -1 -11    6.21    2.03
  -2   1 -12 2078.57   23.72
  -2   1 -12 1978.01   19.02
   2  -1  12 2058.61   20.19
  -2   1 -12 2108.38   30.47
  -2  -1  12 2059.92   24.88
   2  -1 -12 2095.77   24.56
   2   1 -12 2039.67   19.06
   2   1  12 2107.84   25.94
  -2  -1 -12 2094.48   21.92
   2   1  12 2076.94   25.13
   2  -1 -12 2057.86   31.23
   2   1 -12 2100.27   31.81
   2   1  12 2103.91   21.73
   2   1  12 2099.76   19.65
   2   1  12 2031.05   31.08
   2  -1  12 2095.85   31.96
  -2   1  12 2033.79   18.74
   2  -1  13   25.03    5.95
   2  -1  13    8.19    1.74
  -2  -1  13   10.24    2.56
   2   1 -13    6.16    1.17
  -2  -1 -13   16.49    2.88
   2  -1 -13    7.51    1.65
  -2   1 -13   12.25    3.45
   2   1  13    7.89    2.43
  -2   1 -13    8.58    2.77
  -2   1  13    7.24    1.31
   2   1  13    7.09    1.25
   2   1 -13   19.03    6.17
   2   1  13   14.01    2.53
   2   1  13   33.94    6.63
  -2   1 -13    5.71    1.27
   2   1 -14 1004.48   23.82
   2  -1 -14 1009.56   17.48
   2   1 -14  998.98   12.64
   2   1  14 1033.83   13.22
  -2  -1  14 1027.36   17.47
   2  -1  14 1038.85   16.00
  -2  -1 -14 1017.69   17.34
   2  -1 -14 1030.50   23.90
   2   1  14 1076.94   24.50
   2   1  14 1056.25   18.50
  -2   1 -14 1022.55   18.34
   2   1  14 1033.62   17.21
  -2   1  14 1013.08   12.59
   2  -1  14 1023.72   24.16
  -2   1 -14 1027.31   13.05
   2   1  15  506.97   17.69
  -2   1 -15  451.95    8.30
   2  -1  15  461.77   16.86
   2  -1 -15  450.92   11.83
   2  -1 -15  494.42   16.99
   2   1 -15  501.08   17.29
   2   1 -15  425.37    7.90
   2   1  15  467.26    8.54
  -2   1 -15  445.98   12.75
  -2  -1 -15  463.31   12.37
   2   1  15  472.41   12.72
   2   1  15  477.64   12.41
   2  -1  15  449.77   11.08
  -2   1  15  431.14    7.84
  -2   1 -16  118.98    7.08
  -2   1 -16  105.42    3.72
   2  -1 -16  114.34    6.03
  -2   1  16   91.66    3.32
  -2  -1 -16  113.86    6.62
   2   1  16  101.31    3.73
   2   1  16  123.23    9.26
   2  -1 -16  124.29    9.31
   2   1 -16  116.88    8.92
   2   1  16  105.05    6.13
   2   1  16  109.68    8.27
   2   1 -16  100.71    3.50
   2  -1  16  127.05    9.36
   2  -1  17   75.38    8.59
  -2  -1 -17   61.16    5.25
   2   1 -17   63.68    7.12
   2   1  17   52.75    6.38
  -2   1 -17   48.34    5.20
   2  -1  17   51.54    4.20
   2   1  17   46.47    4.22
   2  -1 -17   74.75    7.83
   2   1  17   60.18    7.21
   2   1  18 1351.10   31.39
   2  -1 -18 1300.38   30.20
  -2   1 -18 1365.41   24.90
   2   1 -18 1305.34   30.25
   2  -1  18 1385.64   31.67
  -2  -1 -18 1319.95   23.49
   2   1  18 1302.27   28.92
  -2   1 -19   14.19    5.13
   2  -1 -19   49.35    7.60
  -2  -1 -19   13.73    4.20
   2   1  19   35.63    7.48
   2  -1  19   43.91    7.51
   2   1  19   11.95    5.47
   2   1 -19   30.89    6.19
   2  -1 -20  126.36    9.98
  -2  -1 -20  129.42    8.03
   2   1  20  125.01   10.41
   2   1 -20  130.25   10.35
   2  -1  20  118.83    8.63
  -2   1 -20  134.73    8.54
   2  -1  20  126.83   10.56
   2   1  20  120.82    9.36
   2   1  21   91.82    8.59
  -2  -1 -21   97.52    7.24
   2  -1  21   82.07    7.55
  -2   1 -21  102.15    7.68
   2  -1 -21   93.83    9.03
   2   1 -21   87.05    8.94
   2  -1  21   99.34   10.14
   2   1  21  101.98   10.03
   2  -1 -22  305.22   16.35
   2   1  22  309.15   17.20
   2   1 -22  303.32   16.26
  -2  -1 -22  293.81   12.83
   2   1  22  302.77   15.33
  -2   1 -22  299.50   13.35
   2  -1  22  305.43   16.98
   2  -1  22  299.49   14.45
   2  -1  23   67.06    7.21
   2   1  23   70.95    7.88
  -2  -1 -23   71.80    6.64
   2   1 -23   70.27    8.51
   2  -1  23   66.64    8.85
  -2   1 -23   67.25    6.75
   2   1  23   55.58    7.98
   2  -1 -23   72.42    8.49
   2  -1  24   19.64    5.65
   2   1 -24   30.45    6.13
   2   1  24   21.13    4.78
  -2   1 -24   27.42    4.58
   2  -1 -24   30.11    6.00
   2  -1  24   27.49    5.14
   2   1  24   22.33    5.81
  -2  -1  25  149.54   12.71
   2   1  25  153.56   11.94
   2   1  25  147.64   13.12
   2  -1 -25  151.50   12.62
   2   1 -25  159.85   13.00
   2  -1  25  161.92   13.71
   2  -1  25  136.27   10.56
   2   1 -26  462.30   22.18
   2   1  26  480.17   21.10
   2   1  26  461.69   23.27
   2  -1 -26  451.14   21.87
  -2  -1  26  487.41   23.07
   2  -1  26  483.87   23.84
  -2  -1  27   67.61    9.78
   2   1  27   87.54   11.30
   2   1  27   68.76    8.79
   2   1 -27   64.42    9.21
   2  -1 -27   91.26   10.65
   2  -1  27   77.50   10.99
   2  -1  28  458.41   24.40
   2  -1 -28  440.25   22.43
   2   1  28  416.82   23.34
   2   1 -28  406.40   21.70
  -2  -1  28  414.23   22.45
   2  -1 -29  199.77   15.76
   2   1 -29  222.52   16.73
   2   1 -30   33.23    7.33
   2  -1 -30   31.30    6.75
  -2   2   0 1317.64   13.97
  -2   2   0 1379.82   15.90
   2   2   0 1365.94   14.07
   2   2   0 1390.89   17.89
  -2   2   0 1361.64   17.85
   2   2   0 1332.44   15.90
  -2  -2   0 1340.29   16.01
   2   2   0 1346.77   14.54
  -2   2  -1  255.22    6.56
   2   2  -1  252.01    6.81
  -2   2   1  266.59    7.61
  -2   2   1  254.94    6.65
   2   2   1  272.58    7.93
   2   2  -1  276.05    8.04
  -2   2   1  260.51    7.98
  -2   2  -1  272.83    8.16
   2   2  -1  252.27    5.54
  -2  -2   1  263.78    7.47
   2   2   1  253.13    6.68
  -2  -2  -1  249.70    6.68
   2  -2   1  263.73    5.56
   2   2   1  257.49    6.02
  -2   2   1  261.16    7.39
   2   2   1  257.94    6.75
   2   2   1  259.93    4.49
   2   2   2    9.67    2.07
  -2   2  -2    7.38    2.34
  -2   2   2    5.98    1.53
  -2   2   2   17.71    3.65
   2  -2   2    5.76    1.01
   2   2   2    6.48    1.50
   2   2  -2    5.31    1.63
  -2  -2   2    8.11    1.60
  -2  -2  -2    5.94    1.26
  -2   2  -2    6.09    1.37
   2   2   2    6.57    1.16
  -2   2   2    6.27    1.60
  -2  -2   2    5.72    1.59
   2   2   2    3.50    1.25
   2  -2   2    5.42    1.12
   2   2  -2   11.49    2.29
   2  -2   3 3566.47   22.64
  -2   2   3 3576.58   30.20
   2   2   3 3613.21   28.84
   2   2   3 3561.36   23.14
   2   2  -3 3572.97   28.84
   2   2   3 3636.81   29.03
  -2   2  -3 3618.23   22.55
   2  -2  -3 3545.79   29.96
  -2   2   3 3538.14   28.75
  -2   2  -3 3590.76   28.95
  -2  -2   3 3694.31   30.27
  -2  -2   3 3618.52   29.10
  -2   2  -3 3713.66   31.01
  -2   2   3 3600.79   28.61
   2   2  -3 3607.38   28.82
  -2  -2  -3 3572.33   23.52
   2   2   3 3675.01   22.84
  -2   2  -4 2853.73   28.15
  -2   2   4 2759.31   27.69
   2  -2   4 2800.12   27.60
   2   2   4 2872.89   25.88
   2   2  -4 2804.34   25.36
  -2  -2   4 2827.42   27.11
   2   2   4 2844.71   27.15
  -2   2  -4 2755.49   25.40
   2  -2  -4 2765.38   27.60
  -2  -2  -4 2742.24   20.23
   2   2  -4 2770.14   26.81
  -2   2   4 2782.13   25.51
   2   2   4 2792.30   22.27
   2   2   4 2759.40   19.96
   2  -2   4 2789.88   19.57
  -2   2  -4 2768.84   19.38
   2  -2   5 1775.44   15.48
  -2  -2   5 1815.91   22.85
  -2   2   5 1766.59   20.27
   2  -2   5 1780.56   23.02
   2   2   5 1840.54   20.69
   2   2   5 1838.04   22.88
  -2   2  -5 1879.48   23.56
   2  -2  -5 1737.80   22.96
   2   2   5 1792.20   19.58
   2   2  -5 1711.40   20.44
  -2   2   5 1803.27   23.23
  -2   2  -5 1784.60   20.45
  -2   2  -5 1811.63   15.35
  -2  -2  -5 1811.58   16.35
   2   2  -5 1778.07   22.53
   2   2   5 1792.69   16.07
   2  -2  -6  517.83   12.41
   2   2   6  510.20    8.73
  -2  -2  -6  504.65    8.78
   2   2   6  523.57   11.07
   2   2  -6  515.61   10.96
  -2   2   6  536.87   13.17
   2   2   6  544.78   13.14
  -2   2  -6  490.13   10.84
  -2  -2  -6  506.72   10.71
  -2  -2   6  497.98   11.86
   2  -2  -6  534.99   13.15
  -2   2   6  513.30   10.88
   2   2  -6  488.37   12.50
  -2   2  -6  535.78   13.13
  -2  -2   6  513.87   12.76
   2   2   6  511.44    7.65
   2  -2   6  527.01   12.95
  -2   2  -6  514.30    8.28
   2  -2   6  501.76    8.42
   2  -2   7  661.31   15.26
  -2   2  -7  682.79   13.98
  -2  -2   7  642.26   13.64
  -2   2   7  669.38   12.47
   2   2  -7  647.51   12.26
   2  -2  -7  672.98   15.32
  -2  -2  -7  648.04   12.48
   2   2   7  653.00    9.14
   2   2  -7  657.20   15.18
  -2   2  -7  680.26   12.72
   2   2   7  650.11   10.20
   2   2   7  664.81   12.50
   2  -2   7  652.64    9.85
   2  -2  -7  664.41   14.40
  -2   2  -7  666.57    9.82
   2  -2  -8    1.71    1.81
   2   2   8    4.03    0.96
   2  -2  -8    2.02    1.40
   2   2   8    2.94    0.91
   2   2  -8    4.27    1.21
  -2  -2   8    2.34    1.35
  -2  -2   8    2.48    0.56
   2  -2   8    0.31    2.52
  -2   2   8    2.70    1.37
  -2   2  -8    3.38    1.39
   2  -2   8    2.60    0.95
  -2   2  -8    1.38    1.23
   2   2  -8    2.87    2.30
   2   2   8    4.56    1.33
  -2   2  -8    4.60    1.58
  -2  -2  -8    3.91    1.52
   2  -2   9   25.56    2.18
  -2   2  -9   24.19    2.53
   2  -2   9   12.91    2.36
   2   2   9   29.99    2.74
   2   2   9   26.61    2.39
  -2  -2   9   23.16    2.73
   2  -2  -9   23.00    3.49
  -2  -2   9   24.56    1.64
  -2   2  -9   25.39    2.85
  -2   2   9   29.00    2.69
  -2  -2  -9   26.55    2.97
   2   2   9   26.58    2.19
   2   2  -9   26.97    3.57
  -2   2  -9   27.92    2.76
  -2  -2  -9   26.90    2.00
   2   2  -9   24.00    2.38
  -2   2  -9   26.98    3.46
   2   2 -10    8.67    2.36
   2   2  10   12.50    1.90
  -2   2  10   10.25    1.76
   2  -2  10   19.63    3.92
   2  -2  10   12.96    1.71
  -2  -2  10   10.17    1.33
  -2  -2  10    8.70    2.08
  -2  -2 -10   10.22    1.22
   2  -2 -10   12.15    3.31
   2   2 -10   12.00    1.81
   2   2  10   10.59    1.74
  -2   2 -10   12.65    2.84
  -2   2 -10    9.95    1.89
  -2   2 -10    9.12    1.84
   2   2  10   10.66    1.57
  -2   2 -10   10.31    1.78
  -2   2  11  579.50   11.45
   2   2  11  555.06   11.22
  -2  -2  11  580.03    9.63
   2  -2 -11  579.18   16.47
  -2  -2 -11  561.33    7.72
  -2   2 -11  586.09   15.50
   2  -2  11  594.03   11.06
  -2   2 -11  588.40   11.70
  -2  -2 -11  585.64   11.37
   2   2  11  585.08   11.24
   2  -2  11  581.69   16.52
   2   2 -11  569.59   11.25
   2   2  11  604.12   11.63
  -2   2 -11  603.51   13.84
  -2   2 -11  600.75   13.06
  -2  -2  11  597.97   13.88
   2   2 -11  562.04   16.37
  -2  -2  12    5.78    1.36
  -2   2  12    7.01    1.48
  -2   2 -12    6.32    2.49
   2  -2  12    5.31    1.31
   2   2  12    4.93    1.47
   2   2  12    4.83    1.24
  -2  -2 -12    4.27    0.69
  -2  -2  12    5.87    2.07
  -2   2 -12    4.02    1.54
  -2   2 -12    5.88    1.65
   2   2  12    4.74    1.27
  -2  -2 -12    4.35    1.26
  -2   2 -12    5.16    1.32
   2  -2 -12    1.83    0.92
   2  -2  12    9.60    3.47
   2   2 -12    4.85    1.13
   2   2 -12    3.12    2.90
  -2  -2 -13 1877.29   22.64
   2   2  13 1795.94   19.77
  -2   2 -13 1887.79   20.41
   2   2  13 1878.24   30.98
  -2  -2  13 1832.39   25.15
   2   2  13 1794.22   22.11
  -2   2 -13 1836.71   29.50
  -2  -2  13 1824.37   19.84
   2  -2 -13 1879.29   24.27
  -2   2  13 1815.34   19.83
   2  -2  13 1865.39   31.63
   2  -2  13 1850.28   21.61
   2  -2 -13 1872.87   31.42
  -2   2 -13 1849.19   25.11
   2   2  13 1885.09   22.51
   2   2 -13 1871.66   31.81
   2   2 -13 1818.09   19.38
   2  -2  14   27.02    5.47
   2   2  14   11.20    1.72
  -2   2  14   10.73    1.78
  -2   2 -14   11.66    3.26
   2   2 -14   15.86    5.46
   2  -2 -14   29.79    6.63
  -2  -2 -14   12.45    2.79
   2  -2  14   13.01    2.11
   2   2 -14    9.53    1.56
   2   2  14   15.24    2.75
  -2   2 -14    7.41    2.12
  -2  -2  14   15.86    2.31
  -2  -2  14   11.22    2.77
   2   2  14   19.56    4.45
   2   2  14   11.72    2.29
  -2   2 -14    9.98    1.69
   2  -2  15   32.74    4.87
   2   2  15   32.32    3.40
   2   2  15   33.19    3.38
   2   2 -15   32.66    2.58
   2   2  15   27.20    4.31
  -2   2 -15   33.57    2.68
  -2   2  15   36.16    2.75
   2  -2  15   33.64    3.26
  -2  -2  15   35.68    3.22
  -2   2 -15   33.63    4.66
   2  -2 -15   36.50    4.99
  -2   2 -15   32.56    3.74
   2   2  15   29.84    3.41
  -2  -2  15   34.82    3.68
  -2   2  15   26.74    1.57
   2   2  15   34.05    2.67
   2   2 -15   31.12    4.92
   2   2  15   31.46    4.67
  -2  -2 -15   31.16    3.50
   2   2 -16  101.57    4.27
   2   2  16  105.87    4.47
  -2   2 -16  100.95    4.33
  -2  -2  16  106.09    6.35
  -2  -2 -16  106.80    6.26
   2   2 -16  100.44    8.39
   2  -2 -16  104.36    8.33
  -2  -2  16  104.29    5.64
   2   2  16   97.64    7.95
   2  -2  16  112.09    6.07
   2  -2  16  110.90    8.87
   2   2  16  105.70    6.36
   2   2  16  102.15    6.09
  -2   2 -16  106.91    6.84
   2   2  16  117.66    8.72
  -2   2  16  102.26    4.27
   2   2  17    0.03    3.25
   2   2  17    0.74    1.49
  -2  -2  17   -0.65    1.70
   2   2 -17   -0.52    0.63
  -2   2  17    0.75    0.56
   2  -2  17    0.07    3.05
   2   2  17   -0.21    1.44
  -2  -2 -17   -1.21    1.85
  -2   2 -17    1.31    0.79
   2   2 -17   -0.85    2.81
   2  -2 -17    1.94    3.19
  -2   2 -17    1.25    1.68
   2   2  17   -1.31    2.57
   2   2  17    0.72    0.63
  -2   2 -18   42.28    2.41
   2   2  18   45.90    4.33
   2  -2  18   52.80    7.04
  -2   2 -18   45.48    5.12
  -2  -2 -18   43.82    4.61
   2   2 -18   44.89    5.96
   2   2  18   43.02    4.40
   2   2  18   41.45    5.96
   2  -2 -18   41.62    5.98
   2   2  18   41.34    5.64
   2   2  19   72.15    7.59
   2  -2  19   80.62    8.55
  -2   2 -19   78.02    6.55
   2   2  19   71.85    7.87
   2   2  19   74.25    5.75
   2   2  19   72.38    5.41
   2  -2 -19   77.01    8.11
   2   2 -19   84.12    8.24
  -2  -2 -19   73.99    6.01
   2   2  20    3.97    3.61
   2  -2  20    4.90    3.52
  -2  -2 -20    1.94    1.81
   2  -2 -20    6.11    3.67
   2   2  20    1.25    1.93
  -2   2 -20    3.68    2.53
   2   2 -20    1.68    3.55
   2   2  20    2.01    1.48
   2   2  20   -4.31    3.29
   2  -2 -21  127.10   10.46
  -2  -2 -21  117.52    8.01
   2   2 -21  136.45   11.29
  -2   2 -21  126.09    8.76
   2   2  21  127.17    7.94
   2   2  21  139.70   11.34
   2   2  21  124.30   10.09
   2  -2  21  134.99   11.27
   2  -2  22   87.63    9.69
   2   2 -22   78.07    8.67
  -2  -2 -22   73.82    6.56
   2  -2  22   78.85    7.33
  -2  -2  22   77.76    8.52
   2   2  22   77.94    9.06
  -2   2 -22   79.86    7.40
   2  -2 -22   81.47    8.75
   2   2  22   82.45    8.53
   2  -2  23    0.83    2.06
   2   2  23    0.25    3.28
   2   2 -23    2.41    2.72
  -2  -2  23    1.87    2.50
   2  -2  23    4.58    3.29
   2  -2 -23    0.83    2.82
  -2   2 -23    4.66    2.47
   2   2  23    1.34    2.61
  -2   2 -24    7.27    2.75
  -2  -2  24    6.25    3.61
   2   2  24    4.39    3.90
   2  -2  24    2.27    2.83
   2  -2 -24    5.38    3.20
   2  -2  24    2.10    2.08
   2   2 -24    7.17    3.64
   2   2  24    4.08    3.14
   2  -2 -25   -5.50    3.73
  -2  -2  25   -0.18    3.35
   2  -2  25    2.94    3.61
   2   2  25    5.32    3.91
   2   2 -25   -1.01    3.00
   2   2  25    6.40    4.18
  -2  -2  26   19.80    5.38
   2  -2  26   30.88    6.80
   2   2 -26   18.30    5.12
   2  -2 -26   22.60    5.45
   2   2  26   10.13    4.13
   2   2  26   19.49    5.64
   2   2  27   35.07    7.21
   2  -2  27   45.22    8.40
  -2  -2  27   42.75    7.58
   2  -2 -27   33.61    6.63
   2   2 -27   50.07    7.98
   2   2  27   35.61    6.53
   2   2 -28   10.21    4.21
  -2  -2  28   11.65    5.09
   2  -2 -28   12.17    5.05
   2   2  28   16.04    5.09
  -2  -2  29   70.38    9.77
   2  -2 -29   72.37    9.47
   2   2 -29   61.47    9.12
   2  -2 -30   13.39    4.57
  -2   3   0 1060.15   16.15
   2  -3   0 1073.46   16.30
   2  -3   0 1070.28   14.58
  -2  -3   0 1078.39   16.36
   2   3   0 1050.61   16.18
   2  -3   1  590.19   11.65
   2   3   1  546.91   11.47
  -2   3  -1  558.31   11.42
  -2  -3  -1  582.84   11.77
   2   3  -1  558.11   12.20
   2  -3   1  570.69   10.18
   2  -3  -1  571.20   11.24
   2   3  -1  563.95   11.52
  -2   3   1  574.22   12.23
  -2  -3   1  571.06   12.35
   2   3   1  590.58   12.91
   2   3   1  570.78    6.37
   2   3  -2   34.74    3.22
   2  -3  -2   30.66    3.04
   2   3  -2   32.09    3.30
  -2   3   2   29.21    3.02
  -2   3  -2   30.93    2.78
  -2   3   2   30.87    2.93
   2   3   2   28.57    2.76
  -2   3   2   29.41    3.15
  -2  -3   2   32.76    3.27
   2   3  -2   29.71    1.91
   2   3  -2   30.77    3.28
   2   3   2   29.20    3.03
   2  -3   2   27.58    2.60
  -2  -3  -2   33.56    2.94
  -2   3  -3   98.03    5.66
  -2   3  -3   94.93    4.64
  -2   3   3   97.24    5.56
  -2   3   3  103.39    5.71
  -2   3   3   96.94    5.20
  -2  -3  -3   95.35    4.69
   2   3   3   98.63    5.35
   2   3  -3   94.67    5.22
   2   3  -3   96.05    2.86
  -2  -3   3   98.44    5.56
   2   3  -3   93.74    5.29
   2   3   3   99.95    4.84
   2  -3   3   93.99    4.60
  -2  -3   4   28.53    3.21
  -2   3  -4   26.96    3.09
  -2   3   4   28.52    3.22
  -2   3   4   26.76    3.24
   2   3  -4   30.19    3.03
   2  -3   4   27.31    2.47
   2   3   4   27.55    2.93
  -2  -3  -4   26.42    2.55
  -2  -3   4   29.46    1.69
  -2   3   4   27.34    3.06
   2   3  -4   27.82    3.10
  -2   3  -4   26.62    2.62
   2   3   4   28.05    2.65
   2   3  -4   24.46    1.60
   2  -3   5  205.57    6.61
   2  -3   5  210.84    8.64
  -2  -3   5  196.15    5.00
   2   3  -5  208.85    8.43
  -2   3  -5  199.01    6.48
   2   3  -5  196.40    7.46
   2   3   5  209.76    7.73
   2  -3  -5  197.08    8.44
  -2   3   5  203.68    8.26
  -2  -3  -5  209.67    6.89
   2   3   5  209.13    6.80
  -2  -3  -6  346.77    8.87
  -2  -3   6  329.11    7.39
   2  -3  -6  316.51   11.03
   2   3  -6  338.76    9.81
   2   3   6  358.32   10.07
   2   3  -6  351.81   11.27
  -2   3  -6  329.88    8.36
   2  -3   6  337.63   11.15
   2   3   6  342.46    8.75
   2  -3   6  343.23    8.51
   2  -3   7   19.29    2.17
  -2  -3  -7   18.97    2.30
   2   3   7   20.01    2.58
   2   3  -7   24.33    2.88
   2   3   7   26.87    2.42
   2  -3  -7   19.76    3.27
  -2  -3  -7   18.92    2.81
   2   3   7   22.57    2.92
   2   3  -7   23.63    3.66
   2  -3   7   16.45    3.16
  -2   3  -7   21.48    2.36
  -2   3  -8  627.04   11.92
  -2   3  -8  662.93   13.77
  -2  -3  -8  645.00   12.52
   2   3   8  650.63   11.45
   2  -3   8  652.85   12.14
   2  -3   8  630.23   16.03
   2   3  -8  651.74   13.39
  -2   3   8  639.41   13.55
   2   3  -8  644.71   16.51
   2  -3  -8  659.60   16.69
   2   3   8  649.54   12.44
   2   3   8  654.83   16.56
   2   3   8  674.53   13.82
  -2  -3  -8  646.26   14.57
   2  -3   9  358.55   12.45
   2   3   9  369.74   10.23
   2   3   9  373.02    9.00
  -2   3  -9  384.83   10.88
  -2   3  -9  375.79   10.46
   2   3   9  379.48    9.78
   2   3  -9  358.69   12.75
   2  -3   9  375.59    9.37
  -2  -3  -9  371.56   11.38
   2   3   9  367.75   12.89
   2   3  -9  369.50   10.09
   2  -3  -9  354.31   12.71
  -2   3   9  365.60   10.24
   2   3  10  143.08    6.28
   2   3  10  154.86    6.65
  -2   3  10  149.52    6.53
  -2   3 -10  149.78    6.63
   2   3  10  152.56    8.66
   2   3 -10  155.87    8.66
   2  -3 -10  155.92    8.74
   2   3 -10  150.12    6.48
  -2  -3 -10  143.85    7.42
   2   3  10  149.27    6.01
  -2   3 -10  152.01    7.11
   2  -3  10  141.48    8.19
   2  -3  10  155.63    6.20
   2  -3  11  398.26   14.14
  -2   3 -11  405.09   10.88
   2   3  11  443.82   11.22
  -2  -3  11  413.58   12.42
   2   3  11  417.98   10.46
   2   3 -11  433.08   14.70
   2   3 -11  424.89   10.79
  -2   3  11  420.63   10.98
  -2   3 -11  436.89   13.59
   2  -3 -11  410.70   14.40
  -2   3 -11  426.68   12.19
   2   3  11  410.09   10.91
   2  -3  11  441.95   10.75
   2   3  11  423.45   14.68
  -2   3 -12    5.07    1.56
  -2   3  12    4.19    1.54
   2  -3  12   -3.63    3.40
  -2  -3  12    3.15    1.60
  -2   3 -12    3.77    2.10
   2   3  12    3.50    2.46
   2   3  12    3.99    1.23
  -2   3 -12    2.83    1.78
   2  -3 -12    4.12    2.79
   2   3 -12    4.81    1.34
   2   3  12    3.23    1.31
   2  -3  12    4.45    1.21
   2   3  12    4.75    1.45
   2   3 -12    3.70    2.43
   2   3  13  100.11    7.71
   2   3  13  105.21    5.90
  -2   3 -13  100.81    7.05
  -2   3  13  102.09    5.44
  -2  -3  13  106.06    6.51
   2  -3 -13  111.53    8.26
   2   3 -13  108.54    8.06
  -2   3 -13   99.35    5.37
   2  -3  13   98.07    7.60
   2  -3  13  109.87    5.73
   2   3  13  110.27    5.55
  -2   3 -13  110.86    6.61
   2   3  13  112.12    5.87
   2   3 -13  109.96    5.42
  -2  -3  14    8.37    2.58
   2  -3  14   13.36    3.35
  -2  -3 -14    7.72    1.06
   2   3  14   11.66    1.91
  -2   3 -14    8.63    2.72
   2   3 -14    9.01    1.75
   2  -3  14   10.44    1.96
   2   3  14    6.89    2.01
   2  -3 -14   10.71    3.36
   2   3  14    9.05    1.77
  -2   3 -14    6.97    2.15
  -2   3  14   10.74    1.94
  -2   3 -14    6.97    1.82
   2   3  14    8.51    3.06
  -2  -3  14    6.90    2.09
   2   3 -14    8.97    3.37
   2  -3  15   94.29    8.07
  -2  -3  15  102.53    6.50
   2   3  15   94.58    6.05
   2  -3 -15   91.14    7.77
   2   3 -15   90.30    7.80
  -2  -3  15   87.88    6.77
  -2   3 -15  100.57    7.31
   2   3  15   85.41    7.67
  -2  -3 -15   81.45    2.71
  -2   3 -15   87.53    6.39
   2   3  15   93.41    4.92
  -2   3 -15   91.56    5.05
   2   3 -15   89.58    4.77
  -2   3  15   88.02    4.90
  -2   3 -16   -2.36    2.14
   2  -3 -16    4.69    3.70
   2   3 -16    0.42    0.75
   2   3  16    0.26    3.03
  -2   3 -16   -2.07    2.63
  -2  -3  16   -0.41    2.13
   2   3  16    2.35    1.13
   2   3 -16    0.23    2.67
  -2   3  16   -0.40    1.05
  -2   3 -16    1.04    0.90
   2   3  16   -0.77    1.28
  -2  -3  16    0.07    1.45
   2  -3 -17  360.87   15.83
  -2   3  17  354.26    8.97
   2   3  17  355.87   12.19
  -2   3 -17  356.48    9.22
  -2  -3  17  340.17   12.12
   2   3 -17  372.30   16.41
  -2   3 -17  337.04   14.26
   2   3  17  365.57   16.08
  -2   3 -17  361.40   13.62
  -2  -3  17  332.44   14.31
   2  -3  17  356.86   16.21
   2  -3 -18  154.52   11.02
   2   3  18  138.00    7.94
  -2  -3  18  128.34    7.61
   2   3 -18  131.61   10.43
  -2  -3 -18  133.09    7.79
   2  -3  18  142.26   10.94
  -2   3  18  124.45    5.07
  -2   3 -18  135.61    8.71
  -2   3 -18  131.09    5.37
   2   3  18  148.83   10.73
  -2  -3  18  136.60    9.67
   2   3  18  130.35    7.62
   2   3  19  280.60   14.84
   2   3  19  275.00   11.33
  -2  -3  19  268.68   10.93
  -2  -3 -19  277.06   11.39
   2   3 -19  279.87   15.09
   2  -3 -19  277.05   14.72
  -2   3 -19  267.74   12.54
   2   3  19  270.35   10.85
  -2  -3  19  298.41   14.48
   2  -3  19  297.84   15.69
   2   3  20   58.60    7.41
   2   3  20   57.94    5.55
  -2  -3  20   60.58    7.31
   2  -3 -20   64.48    7.58
   2   3  20   57.58    5.12
   2   3 -20   53.09    7.24
  -2   3 -20   54.31    6.06
   2   3  20   57.73    7.35
   2  -3  20   70.45    8.68
  -2  -3 -20   55.91    5.55
  -2  -3  20   53.75    5.00
   2   3  21    0.95    3.10
   2  -3 -21   -0.83    3.11
   2   3  21    1.09    1.81
   2   3  21    6.28    3.71
  -2  -3 -21    1.23    1.74
   2   3 -21    1.08    2.80
  -2   3 -21    3.53    2.43
  -2  -3  21    2.38    2.61
   2   3  22   82.70    9.07
   2  -3 -22   82.43    8.91
  -2  -3 -22   93.82    7.44
  -2   3 -22   77.75    7.38
   2  -3  22   92.89    9.89
   2   3 -22   90.78    9.53
  -2  -3  22   81.52    8.57
   2   3  22   94.92    9.48
  -2   3 -23   -0.66    2.07
  -2  -3  23   -2.04    3.15
   2   3  23   -0.27    3.17
   2  -3  23    4.92    4.06
   2   3  23    0.35    2.93
   2   3 -23   -3.16    3.27
   2  -3 -23    2.56    2.87
   2  -3  24   21.82    5.87
   2   3 -24   30.66    6.25
   2   3  24   23.96    5.09
   2   3  24   27.62    6.03
   2  -3 -24   17.94    5.25
  -2   3 -24   22.38    4.48
  -2  -3  24   23.69    5.56
   2   3  25  225.32   16.17
   2   3  25  231.28   15.30
  -2  -3  25  236.34   15.53
   2  -3  25  235.58   16.42
   2   3 -25  225.58   15.68
   2  -3 -25  237.36   15.79
   2   3  26   -2.41    3.56
   2   3  26    3.96    3.84
  -2  -3  26    2.84    3.65
   2  -3  26   10.99    6.12
   2   3 -26    1.96    3.17
   2  -3 -26    3.72    3.52
   2   3  27   10.59    4.57
   2   3 -27    7.63    4.02
   2  -3 -27   12.95    4.43
   2  -3  27   17.60    5.85
   2   3  27   14.44    5.37
  -2  -3  27   19.45    5.23
   2   3  28   52.76    8.09
   2   3 -28   57.64    8.67
  -2  -3  28   65.43    9.56
   2  -3 -28   62.93    8.85
   2  -3 -29  194.37   15.51
   2   3  29  170.57   14.54
  -2  -3  29  180.61   15.26
   2   3 -29  193.25   15.71
  -2   4   0    2.68    1.55
   2  -4   0    4.27    1.59
   2   4   0    3.62    1.77
  -2  -4   0    2.16    1.21
   2  -4   0    5.19    1.73
   2   4   0    5.00    1.92
   2   4  -1    5.85    1.66
  -2   4  -1    4.35    1.55
   2  -4  -1    5.24    1.70
   2   4  -1    6.36    2.07
   2   4   1    4.10    1.76
  -2  -4  -1    6.34    1.64
   2  -4  -1    5.51    1.80
   2   4   1    4.25    1.76
   2  -4   1    8.18    1.82
  -2   4   1    7.01    2.16
  -2   4   2   96.75    5.93
   2   4   2  100.99    5.57
   2   4   2   97.25    5.49
   2  -4  -2   92.42    5.50
   2   4  -2   99.28    5.99
   2   4  -2   97.44    4.44
  -2   4  -2   97.36    5.47
   2  -4   2  101.67    5.47
  -2  -4  -2   95.81    5.46
   2  -4   3  119.10    5.87
  -2   4   3  109.38    6.38
   2   4  -3  102.57    4.19
   2   4   3  101.62    5.68
   2   4  -3  107.78    6.16
  -2  -4  -3  114.04    5.84
   2   4  -3   99.14    6.17
   2  -4  -3   99.13    5.85
   2   4   3   96.04    5.88
  -2   4  -3  110.77    5.78
   2  -4   4  394.35   10.56
   2   4  -4  363.80   11.51
  -2   4   4  378.04   12.07
   2   4   4  361.62   10.29
   2   4  -4  369.86    7.05
   2  -4  -4  376.45   11.50
   2   4   4  366.01   11.48
  -2  -4  -4  374.10   10.55
  -2  -4   4  345.30    5.61
  -2   4  -4  375.87   10.40
   2   4  -4  363.31   11.79
   2   4   5   30.55    3.16
  -2  -4  -5   27.22    2.94
   2   4  -5   26.36    3.64
  -2  -4   5   24.22    1.78
   2   4  -5   25.66    1.77
   2  -4   5   30.07    2.98
   2   4   5   35.03    4.32
  -2   4   5   20.92    3.16
  -2   4  -5   23.02    2.78
   2  -4   6  674.20   13.85
   2   4   6  667.12   16.62
  -2  -4  -6  682.39   14.33
  -2   4   6  662.84   16.77
  -2  -4   6  648.35   10.18
   2   4  -6  691.81   16.85
   2   4   6  680.16   14.20
  -2   4  -6  655.34   13.70
   2   4  -7  352.02   12.37
   2   4   7  369.52   13.00
   2  -4   7  360.84   12.49
  -2  -4   7  344.65    8.23
  -2  -4  -7  352.84   11.54
   2  -4   7  357.80   10.24
  -2   4   7  348.92   12.57
   2   4   7  344.07   10.26
  -2  -4  -7  368.79   10.61
  -2   4  -7  344.56   10.04
   2   4   8  965.09   21.15
   2   4  -8  973.07   21.38
   2  -4   8 1019.44   17.34
  -2   4   8  974.96   21.33
   2   4   8  991.75   16.34
  -2  -4  -8  998.04   19.82
   2  -4   8  960.79   20.56
  -2  -4  -8  984.40   17.59
  -2   4  -8  954.10   16.77
  -2  -4   8  956.94   14.92
   2   4   8  981.86   17.47
   2   4   9  196.51    7.43
   2   4   9  202.39   10.32
  -2  -4  -9  203.61    8.10
  -2   4   9  208.67   10.25
  -2  -4  -9  194.71    9.06
   2  -4   9  206.55    9.96
  -2   4  -9  192.42    7.68
   2   4   9  198.37    8.02
   2   4  -9  200.48   10.15
   2  -4  -9  199.51    9.96
   2  -4   9  199.95    7.80
  -2  -4   9  187.13    7.14
   2   4  10  352.99   13.60
   2  -4  10  326.31   12.76
  -2  -4  10  323.89   10.03
   2  -4 -10  331.86   13.24
   2   4  10  336.99    9.86
   2   4 -10  332.30   13.19
   2   4  10  336.07   10.65
  -2   4 -10  336.76   11.55
  -2  -4 -10  335.52   12.09
  -2   4 -10  338.48   10.32
   2  -4  10  346.47   10.47
   2  -4 -11   -2.05    2.71
   2  -4  11   -0.61    0.91
   2   4  11   -0.44    1.54
  -2  -4  11   -0.90    1.44
   2  -4  11    1.10    2.57
   2   4  11    4.17    1.34
  -2   4 -11   -0.66    1.57
   2   4  11    3.61    3.17
   2   4 -11    2.52    2.40
  -2  -4 -11    0.24    1.65
  -2   4 -12   19.33    3.44
  -2   4  12   19.00    2.71
  -2   4 -12   17.71    3.05
  -2  -4  12   17.08    2.96
   2  -4  12    9.12    3.25
   2   4  12   18.44    3.52
   2   4 -12   17.37    3.65
  -2   4 -12   16.66    2.64
   2   4  12   13.40    2.50
   2   4  12   16.56    2.52
   2  -4 -12   22.76    3.96
  -2  -4 -12   19.79    3.40
   2  -4  13    1.71    2.88
  -2   4 -13    7.47    2.67
  -2   4  13    8.22    2.12
  -2   4 -13    8.75    2.17
   2  -4 -13   10.41    3.48
   2   4 -13    7.86    3.01
  -2  -4  13    7.33    2.27
   2   4  13    7.63    2.99
  -2   4 -13    5.94    2.25
   2   4  13    6.89    2.05
  -2  -4  14  114.12    7.44
   2   4  14  119.67    9.04
  -2   4  14  117.91    6.50
  -2   4 -14  111.55    6.29
  -2   4 -14  123.31    8.05
  -2   4 -14  122.20    7.73
   2   4 -14  117.77    9.07
   2  -4 -14  111.13    9.10
   2   4  14  119.19    7.02
   2  -4  14  115.35    8.71
  -2  -4  14  115.51    7.56
   2   4  15  366.64   12.55
   2  -4 -15  361.92   15.58
  -2   4 -15  368.57   14.14
  -2   4  15  371.61   11.17
  -2   4 -15  355.88   11.09
  -2  -4  15  350.45   13.45
   2   4 -15  350.73   15.73
  -2   4 -15  354.50   13.72
  -2  -4  15  356.84   12.94
   2  -4  15  363.05   15.47
   2   4  15  379.12   16.18
   2   4  16   68.83    5.82
  -2  -4  16   68.76    6.47
   2  -4 -16   63.76    7.82
   2  -4  16   60.26    6.48
  -2  -4  16   63.60    5.72
  -2   4 -16   65.73    6.18
  -2   4 -16   69.44    6.44
   2   4 -16   66.24    7.42
  -2   4  16   63.33    4.76
  -2   4 -16   71.79    5.04
   2   4  16   68.64    7.56
  -2   4 -17   -1.33    2.42
   2   4  17    0.80    2.11
  -2   4 -17    1.17    1.22
   2   4  17   -1.53    3.09
  -2  -4  17   -2.67    1.92
   2  -4 -17   -2.29    3.18
  -2   4 -17   -2.33    2.77
   2   4 -17   -2.91    2.87
  -2   4  17    0.92    1.06
   2  -4  17   -5.92    4.61
  -2  -4  17    3.62    2.62
  -2   4 -18    5.51    2.01
  -2  -4  18    9.57    3.16
   2  -4 -18    1.92    2.42
  -2   4 -18    9.46    3.02
   2   4 -18   12.12    3.97
  -2   4  18    9.18    1.87
   2   4  18    4.07    1.82
  -2  -4  18    6.02    2.11
  -2   4 -18   11.25    2.05
   2   4  18    5.60    3.30
   2   4  19    0.25    1.59
  -2  -4  19    2.74    2.90
  -2  -4  19   -0.72    1.70
   2  -4  19   -2.74    3.55
   2   4  19   -0.72    3.24
  -2   4 -19    1.31    2.28
   2  -4 -19   -2.20    3.11
   2   4 -19   -1.91    3.42
  -2   4 -19    0.00    1.82
   2   4  20  158.84    9.35
   2  -4 -20  146.74   11.21
   2   4  20  168.88   12.12
   2  -4  20  159.58   11.83
   2   4 -20  153.22   11.79
  -2  -4  20  154.69   11.07
  -2   4 -20  157.40   10.28
  -2  -4  20  152.52    8.80
  -2  -4  21    9.43    3.61
   2   4  21   14.40    3.59
   2  -4  21    0.92    3.59
   2   4 -21   10.57    4.02
   2   4  21   11.02    4.30
   2  -4 -21   13.11    4.51
  -2   4 -21    9.22    3.57
  -2  -4  22   69.22    8.09
   2  -4  22   56.81    7.53
  -2   4 -22   62.45    6.89
   2   4 -22   75.29    8.67
   2  -4 -22   79.20    8.98
   2   4  22   79.19    9.12
  -2  -4  23   18.64    4.58
   2   4  23   15.19    4.12
   2  -4  23    3.59    3.87
   2  -4 -23   19.78    4.69
   2   4  23   15.94    4.40
  -2   4 -23   15.58    3.96
   2   4 -23   21.41    5.28
   2   4  24   18.23    5.10
   2  -4  24   18.03    5.19
  -2   4 -24   25.54    4.79
   2  -4 -24   33.41    6.24
   2   4  24   22.01    5.11
   2   4 -24   24.71    5.75
  -2  -4  24   33.65    6.24
   2  -4  25   62.32    8.53
  -2   4 -25   48.33    6.62
   2   4  25   49.76    7.63
   2   4 -25   44.31    7.28
  -2  -4  25   56.08    7.89
   2  -4 -25   50.63    7.75
   2   4  25   41.22    7.10
   2  -4  26   -3.41    4.17
   2   4  26   -0.11    3.42
   2   4  26   -5.99    4.36
  -2  -4  26   -0.53    2.56
   2   4 -26   -1.51    3.08
   2  -4 -26   -2.03    4.03
  -2  -4  27   25.99    6.13
  -2   4  27   29.65    6.48
   2  -4  27   21.80    5.69
   2  -4 -27   10.63    4.33
   2   4  27   26.60    5.97
   2   4 -27   23.90    5.73
   2   4  27   28.60    6.27
   2   4  28   36.44    7.05
  -2  -4  28   41.66    7.59
  -2   4  28   31.66    6.74
   2  -4 -28   26.33    6.48
   2   4 -28   42.43    7.93
   2  -4 -29    2.13    3.01
  -2   4  29   -0.60    3.61
  -2  -4  29    0.65    3.37
   2   4  29   -5.96    4.45
  -2   5   0 3941.52   38.96
   2   5   0 3855.09   33.78
   2   5   0 4025.09   39.35
   2  -5   0 3946.35   36.42
   2   5  -1   15.53    2.40
   2   5  -1   14.31    1.23
  -2   5  -1   17.60    3.11
   2   5   1   15.15    2.86
  -2   5   1   13.84    2.71
   2  -5  -1   19.86    3.16
   2   5   1   16.42    3.11
   2   5  -1   19.37    3.26
   2   5   2  125.25    6.92
  -2   5  -2  134.95    7.16
   2   5  -2  127.78    5.60
   2  -5  -2  124.45    7.02
   2   5   2  120.09    6.88
  -2   5   2  124.41    7.27
   2   5  -2  125.21    7.38
   2   5  -2  111.18    2.96
   2   5  -3   73.38    2.55
  -2   5  -3   76.55    5.43
   2   5   3   79.71    5.95
   2   5  -3   77.10    4.19
  -2   5   3   73.91    5.85
   2  -5  -3   68.63    5.50
   2   5  -3   75.65    5.86
   2   5   3   78.44    5.62
   2   5   4  111.00    6.88
   2   5  -4  107.76    4.64
  -2   5  -4  107.33    6.35
  -2   5   4  101.85    7.00
   2   5   4  104.71    6.36
   2  -5  -4  107.52    6.83
   2   5  -4  102.64    6.94
   2   5  -4  113.12    7.07
  -2   5   5  380.98   13.31
   2   5   5  385.42   13.06
   2   5  -5  392.75   13.31
  -2   5  -5  367.73   11.62
   2   5  -5  401.52   13.60
   2  -5  -5  357.52   12.60
   2   5   5  380.19   11.96
  -2  -5   6   61.67    3.38
  -2   5   6   81.12    6.51
   2  -5  -6   65.74    5.78
   2   5   6   55.07    4.71
   2   5  -6   69.97    5.79
  -2   5  -6   58.19    4.78
   2   5   6   72.56    6.29
   2   5   7  520.56   16.07
  -2   5   7  497.87   15.91
  -2  -5   7  487.63    9.93
   2   5  -7  504.28   15.65
  -2   5  -7  466.21   13.06
   2   5   7  493.82   13.86
  -2  -5   8 1598.14   19.48
   2  -5   8 1628.12   27.74
  -2   5   8 1658.57   29.28
   2   5  -8 1643.67   29.02
  -2  -5  -8 1628.63   27.87
  -2   5  -8 1649.05   24.80
   2   5   8 1682.60   29.36
   2   5   8 1672.69   25.63
   2   5   9    6.69    2.20
  -2  -5   9   -0.21    1.33
   2   5  -9    6.74    3.29
  -2   5  -9    2.02    1.49
   2  -5   9    7.25    3.79
  -2   5   9    3.77    2.67
  -2  -5  -9    2.84    2.18
  -2   5  10  282.12   12.81
  -2  -5  10  287.55    9.48
  -2   5 -10  286.27   10.59
   2   5  10  289.17   10.99
   2   5  10  285.48   13.07
  -2  -5 -10  288.59   12.26
   2   5 -10  265.23   12.66
   2  -5  10  295.90   12.56
   2   5  11  115.03    8.67
  -2   5  11   88.70    7.62
  -2  -5 -11  105.44    7.62
   2   5 -11   90.69    7.54
  -2   5 -11  100.26    6.48
  -2   5 -11  104.92    7.40
   2  -5  11  104.13    8.05
  -2  -5  11  104.78    6.26
   2   5  11  100.17    6.61
   2   5  12   18.87    3.28
  -2   5  12   20.06    4.23
  -2   5 -12   21.90    3.75
   2  -5  12   25.53    4.52
  -2  -5  12   21.99    3.26
   2   5  12   26.00    5.02
  -2  -5 -12   20.45    3.77
   2   5 -12   20.76    4.49
   2   5  13  101.01    8.86
  -2   5  13   86.96    7.77
   2   5 -13   95.77    8.37
   2   5  13   87.72    6.48
  -2   5 -13   84.01    6.89
   2  -5  13   93.99    7.95
  -2  -5  13  100.86    6.81
  -2  -5 -13   89.25    7.47
   2   5  14  645.94   17.44
   2   5 -14  632.29   21.14
  -2   5 -14  661.33   18.91
   2   5  14  661.21   21.73
  -2   5  14  603.98   20.48
  -2   5 -14  642.54   18.58
   2  -5  14  642.57   20.50
  -2  -5  14  635.57   17.26
   2   5  15  194.37    9.97
   2  -5  15  186.28   11.55
   2   5  15  214.18   12.88
  -2   5  15  205.53    9.36
  -2   5 -15  190.43    9.13
  -2   5 -15  200.54   10.63
   2   5 -15  202.16   12.39
  -2   5  15  216.76   12.62
   2  -5 -15  224.66   12.94
  -2   5 -15  191.91   10.70
  -2  -5  15  213.54   10.77
  -2   5 -16   16.61    3.55
  -2   5 -16   13.89    2.71
   2   5  16   13.72    2.89
  -2  -5  16   18.28    3.92
  -2   5  16   16.99    3.01
  -2   5  16   14.49    3.64
   2   5  16   22.72    5.20
   2  -5 -16   11.96    4.04
   2  -5  16   13.48    3.84
   2   5 -16   23.80    5.20
  -2   5 -16   11.42    3.28
   2   5  17   26.46    3.84
  -2   5 -17   15.56    3.41
  -2   5  17   20.62    4.49
  -2  -5  17   24.67    4.43
  -2   5  17   26.38    3.48
   2   5 -17   30.93    5.75
  -2  -5  17   22.73    3.86
   2   5  17   25.05    5.17
  -2   5 -17   27.24    3.57
  -2   5 -17   27.27    4.13
   2  -5  17   15.53    3.92
   2  -5 -17   20.36    4.61
   2   5  18  110.15    8.02
   2  -5  18  108.27    9.54
  -2   5  18  122.77   10.09
  -2  -5  18  121.54    8.35
   2  -5 -18  128.24   10.18
  -2   5 -18  115.97    8.60
  -2   5  18  118.51    6.79
  -2   5 -18  123.03    7.01
  -2   5 -18  109.48    8.58
   2   5  18  108.80    9.90
   2   5 -18  119.52   10.31
  -2  -5  18  117.40    8.99
   2  -5  19  177.11   12.31
  -2  -5  19  169.73   11.23
  -2   5  19  164.52   11.98
   2   5  19  172.16   12.61
  -2  -5  19  164.11    9.72
  -2   5 -19  167.00   10.58
   2   5  19  176.92   10.15
   2  -5 -19  164.94   12.01
  -2   5 -19  169.43   10.85
   2   5 -19  172.27   12.48
   2   5  20   61.08    6.16
   2  -5 -20   51.17    7.42
  -2  -5  20   58.17    5.96
   2   5 -20   54.83    7.42
  -2   5 -20   54.55    6.51
  -2   5 -20   53.34    6.25
  -2   5  20   50.98    7.10
   2  -5  20   61.90    7.86
  -2  -5  20   57.14    6.92
   2   5  20   40.35    6.49
   2   5  21   13.01    3.56
  -2   5  21   17.64    4.92
   2  -5  21    6.31    3.92
   2   5 -21    7.24    3.93
  -2   5 -21    8.48    3.64
   2  -5 -21   15.89    5.13
   2   5  21    3.31    3.46
  -2  -5  21    7.37    3.35
  -2   5  22  212.05   14.17
   2  -5  22  203.89   14.36
  -2  -5  22  202.00   13.05
   2   5  22  220.10   14.98
   2  -5 -22  224.80   14.88
  -2   5 -22  225.31   13.43
   2   5 -22  214.21   14.88
  -2  -5  23    4.86    3.30
  -2   5  23   -2.00    2.95
   2  -5  23    3.62    3.82
   2   5 -23    1.77    3.59
  -2   5 -23   -1.03    2.76
   2   5  23    2.27    3.60
   2  -5 -23    5.16    3.86
   2  -5 -24   43.66    6.93
  -2   5  24   35.08    6.58
   2   5 -24   36.10    6.85
  -2  -5  24   45.96    6.98
   2   5  24   44.42    7.41
   2  -5  24   42.35    7.33
  -2   5 -24   32.68    5.56
  -2  -5  25    7.45    3.55
   2   5 -25   -4.69    3.73
   2  -5  25   -6.28    4.89
  -2   5 -25   -2.61    2.95
  -2   5  25    5.69    3.27
   2   5  25    0.67    3.26
   2   5  25   -4.48    3.46
   2  -5 -25    4.76    3.45
   2   5  26   76.06   10.02
   2   5  26   76.07    9.91
  -2   5  26   84.59   10.03
  -2  -5  26   72.11    9.16
   2  -5  26   78.73   10.15
   2   5 -26   71.78    9.50
   2  -5 -26   71.92    9.06
   2   5  27   16.99    5.57
  -2   5  27   23.81    5.84
   2  -5  27   22.48    5.99
   2  -5 -27   16.74    5.12
   2   5 -27   18.53    5.75
  -2  -5  27   31.79    6.97
   2   5  28   82.56   10.59
  -2   5  28   85.30   10.25
  -2  -5  28   82.78   10.21
  -2   5  29    1.88    3.06
   2   6   0  635.50   17.29
   2   6   0  622.64   14.91
  -2   6   0  672.52   17.58
   2   6  -1   32.88    2.25
  -2   6   1   29.54    4.06
   2  -6  -1   39.27    4.45
   2   6  -1   35.70    3.60
   2   6   1   32.65    3.77
  -2   6  -1   31.12    4.17
   2   6  -1   32.10    4.10
   2   6   1   32.85    4.22
   2   6  -2   20.36    3.59
  -2   6  -2   22.84    3.58
  -2   6   2   23.51    3.50
   2   6  -2   22.36    2.99
   2   6   2   19.12    2.98
   2  -6  -2   22.38    3.40
   2   6   2   20.54    3.60
   2   6  -2   21.70    1.70
   2   6  -3   41.38    4.84
  -2   6   3   42.74    5.00
   2   6  -3   48.04    3.89
   2   6   3   44.04    4.65
   2   6  -3   44.76    2.39
   2   6   3   43.82    4.68
  -2   6  -3   48.20    5.05
   2  -6  -3   41.00    4.52
  -2   6   4  257.92   11.69
   2   6  -4  276.41   12.05
   2   6   4  247.49   10.76
   2   6  -4  261.28    8.17
  -2   6  -4  255.27   10.71
   2  -6  -4  266.10   11.34
   2   6   4  256.42   10.80
   2   6  -4  261.41    6.01
  -2   6   5  150.51    9.09
   2   6   5  140.75    8.49
   2   6   5  135.99    7.95
   2  -6  -5  154.49    8.79
   2   6  -5  146.01    8.89
   2   6  -5  134.58    8.73
  -2   6  -5  146.71    8.17
   2   6   6   12.93    2.81
   2   6  -6    7.17    2.52
   2  -6  -6   14.70    3.18
   2   6   6    5.14    2.51
   2   6  -6   12.61    3.34
  -2   6   6   12.61    3.55
  -2   6  -6   14.93    3.14
  -2   6   7  198.37   10.80
   2   6   7  190.94   10.47
   2   6   7  209.04    9.97
   2  -6  -7  186.97   10.33
  -2   6  -7  200.89    9.58
   2   6  -7  192.15   10.73
   2   6  -8   10.34    3.63
   2   6   8    7.91    2.45
  -2   6   8    7.58    2.99
   2  -6  -8    5.43    2.30
  -2  -6   8    9.17    2.16
   2   6   8   12.00    3.94
  -2   6  -8    6.34    2.16
  -2  -6  -8    7.43    3.00
  -2   6   9   16.51    3.87
  -2  -6   9   20.06    2.81
   2   6   9   22.13    4.70
  -2   6  -9   17.63    3.29
   2   6  -9   19.51    3.78
  -2  -6  -9   17.94    3.71
   2   6   9   21.48    3.66
  -2  -6  10   53.76    4.36
   2   6 -10   67.74    6.89
   2  -6  10   76.44    7.40
  -2   6 -10   51.87    5.18
  -2   6  10   59.34    6.57
   2   6  10   68.42    7.38
   2   6 -10   49.44    1.97
  -2  -6 -10   60.65    6.28
   2   6  10   52.73    5.47
   2   6 -11  606.20   20.37
   2   6  11  593.93   20.23
   2  -6  11  620.62   19.29
  -2   6 -11  607.68   17.03
  -2  -6 -11  582.16   18.88
  -2   6  11  616.75   20.16
   2   6  11  600.29   17.37
  -2  -6  11  574.28   14.35
   2  -6  12  178.99   11.14
   2   6  12  191.83   11.65
  -2   6 -12  201.12   10.00
   2   6  12  178.94    9.63
  -2   6 -12  176.94   10.27
   2   6 -12  181.13   11.60
  -2  -6 -12  180.18   10.75
  -2  -6  12  173.14    8.26
  -2   6  12  174.30   11.11
   2  -6  13  142.72   10.04
  -2   6  13  139.40   10.25
   2   6  13  128.43   10.21
   2   6 -13  130.23    9.87
  -2  -6  13  130.19    7.63
  -2   6 -13  142.43    9.32
  -2  -6 -13  131.51    9.49
   2   6  13  142.51    8.81
   2   6  14  308.77   13.15
  -2  -6  14  288.45   11.80
   2   6  14  305.03   15.58
  -2   6  14  312.33   15.38
  -2  -6 -14  304.38   14.71
   2  -6  14  321.79   15.01
  -2   6 -14  313.79   14.19
   2   6 -14  331.84   15.83
   2  -6  15  150.03   10.82
  -2   6  15  169.36   11.52
   2   6  15  135.18    8.90
   2   6 -15  148.02   11.22
  -2   6 -15  157.79    9.73
   2   6  15  140.76   10.97
  -2   6 -15  146.09    9.94
  -2  -6  15  141.27    8.53
   2  -6  16  197.92   12.53
  -2   6  16  179.71   12.32
  -2   6 -16  196.89   11.09
   2   6  16  201.95   10.94
   2   6 -16  199.37   13.28
   2   6  16  178.94   12.52
  -2   6 -16  171.43   11.30
  -2  -6  16  203.33   10.88
  -2  -6  17    8.27    3.16
  -2   6 -17    2.80    2.15
   2  -6  17    2.20    3.12
   2   6  17    2.43    2.06
  -2   6 -17    1.76    1.58
   2   6 -17    2.65    3.43
  -2   6 -17    3.20    2.33
  -2   6  17    1.55    1.66
   2   6  17   -3.39    4.04
  -2   6  17    3.52    2.81
   2   6  18   94.74    7.85
   2  -6  18   96.23    9.20
  -2  -6  18  102.16    8.19
  -2   6 -18   91.32    7.84
  -2   6 -18  100.82    6.97
  -2   6 -18   86.79    8.44
   2   6 -18   90.29    9.23
   2   6  18   83.39    8.99
  -2   6  18   95.59    9.17
  -2  -6  18   93.35    8.10
   2   6  19   12.76    3.85
  -2   6 -19   20.18    4.40
  -2  -6  19   20.07    4.30
  -2  -6  19   21.63    4.02
   2  -6  19   19.55    5.08
  -2   6 -19   18.07    3.54
   2   6  19   18.04    3.82
   2   6 -19   22.76    5.63
  -2   6  19   13.90    4.37
  -2  -6  20    4.11    3.12
  -2   6  20   -1.92    3.30
   2  -6  20    2.95    2.75
  -2   6 -20    0.27    2.52
   2   6 -20    0.12    3.08
  -2  -6  20    1.45    1.79
  -2   6 -20    0.75    2.55
   2   6  20    0.16    3.52
   2   6  20    0.03    2.18
   2   6  21   10.75    3.01
  -2  -6  21   12.42    3.82
   2  -6  21   10.16    4.55
   2   6  21    8.83    3.67
  -2   6  21   10.10    3.89
  -2   6 -21   12.72    3.66
  -2   6 -21    9.69    2.97
   2   6 -21    8.64    4.01
   2  -6  22   91.17   10.03
  -2   6  22   99.19   10.27
   2   6 -22   94.85   10.63
  -2   6 -22  103.55    9.55
  -2  -6  22   96.04    9.33
   2   6  22   91.22   10.30
   2  -6  23   24.22    5.73
  -2   6  23   22.12    5.42
  -2  -6  23   24.53    4.93
  -2   6 -23   32.10    6.01
   2   6 -23   21.08    5.75
   2   6  23   27.88    6.39
   2  -6  24  142.14   12.86
  -2   6  24  174.67   13.94
  -2   6 -24  159.80   12.23
  -2  -6  24  158.35   12.51
   2   6  24  148.60   13.48
   2   6 -24  144.00   13.36
   2   6  25   -4.78    3.91
  -2   6  25    5.84    4.43
  -2  -6  25    7.80    4.40
   2  -6  25    9.59    4.83
  -2   6 -25   -1.07    2.47
   2   6 -25    0.73    3.05
  -2   6  26   34.64    6.73
   2   6  26   29.46    6.89
   2   6  26   35.86    7.38
  -2  -6  26   39.94    7.06
   2   6 -26   26.22    6.60
   2  -6  26   37.46    7.54
  -2   6  27    2.87    3.59
   2   6  27    3.37    3.33
  -2   6  28   13.20    4.43
  -2   7   0    5.48    2.91
   2   7   0    3.23    2.81
   2   7   0    7.03    2.64
  -2   7   1  885.01   22.25
   2   7  -1  873.77   22.16
   2   7   1  852.34   19.53
  -2   7  -1  883.34   21.70
   2   7  -1  856.80   18.26
   2  -7  -1  876.96   21.02
   2   7  -1  875.64   12.30
   2   7   1  886.05   21.86
  -2   7   2  289.65   12.80
   2   7  -2  264.48    6.60
  -2   7  -2  278.46   12.22
   2   7  -2  273.33   10.13
   2   7   2  278.06   11.64
   2  -7  -2  273.92   12.04
   2   7   2  262.67   12.09
   2   7  -2  277.07   12.64
  -2   7   3  745.73   20.75
   2   7   3  760.87   20.12
   2   7   3  740.71   19.15
   2  -7  -3  731.13   19.85
  -2   7  -3  736.74   19.86
   2   7  -3  736.55   15.81
   2   7  -3  739.10   20.68
   2   7  -3  741.59   11.07
  -2   7   4  150.84    9.60
   2   7  -4  147.12    5.08
   2   7   4  152.87    9.23
   2   7  -4  143.72    9.50
   2  -7  -4  150.19    9.32
   2   7   4  147.39    9.01
  -2   7  -4  149.87    9.10
   2  -7  -5  235.38   11.96
   2   7   5  225.22   11.41
   2   7   5  210.85   10.66
   2   7  -5  225.63   11.80
  -2   7   5  224.78   11.96
   2   7  -5  221.38    6.44
  -2   7  -5  214.55   10.72
   2   7  -5  238.02   12.07
   2   7   6  301.22   12.85
  -2   7   6  313.37   14.20
   2   7  -6  317.99   14.14
   2   7   6  307.12   13.54
   2   7  -6  301.26   13.87
   2  -7  -6  305.03   13.65
  -2   7  -6  307.77   12.76
  -2   7   7  857.63   23.64
   2   7   7  876.06   23.27
   2  -7  -7  887.06   23.53
   2   7  -7  893.18   23.83
  -2   7  -7  860.69   21.23
   2   7   7  862.49   21.68
   2   7  -7  880.21   23.63
  -2  -7  -8  148.55    9.86
   2   7  -8  149.02   10.23
  -2   7   8  159.18   10.59
  -2   7  -8  156.70    9.26
   2  -7  -8  146.77   10.07
   2   7   8  145.89    9.12
   2   7   8  142.72    9.88
  -2  -7  -9  114.06    8.84
   2   7  -9  128.05    9.49
   2  -7  -9  109.95    8.78
  -2   7   9  120.98    9.29
  -2   7  -9  110.77    7.87
   2   7   9  122.17    9.46
   2   7   9  119.82    8.35
  -2   7  10   88.68    8.87
  -2  -7  10   80.18    5.53
   2   7  10   81.53    7.23
   2   7  10   89.80    8.85
  -2  -7 -10   81.43    7.75
  -2   7 -10   72.43    6.66
   2   7 -10   78.18    8.08
   2   7 -11 2256.40   40.99
   2   7 -11 2152.53   15.50
  -2  -7 -11 2326.46   40.02
   2   7  11 2259.24   36.67
   2   7  11 2332.16   41.27
  -2   7 -11 2249.36   35.65
  -2   7  11 2389.67   41.47
  -2  -7  11 2256.17   28.91
  -2   7  12  499.47   19.68
  -2   7 -12  472.98   17.94
   2   7  12  482.18   19.48
  -2  -7  12  456.11   13.63
   2   7 -12  446.75   18.85
  -2  -7 -12  487.32   18.66
  -2   7 -12  461.84   16.33
   2   7  12  466.13   16.80
   2  -7  13  187.84   11.81
  -2   7  13  172.84   11.87
  -2  -7  13  159.35    8.61
  -2   7 -13  177.00   11.10
   2   7 -13  161.70   11.72
   2   7  13  164.39   11.87
  -2  -7 -13  161.64   10.98
   2   7  13  169.18   10.46
  -2  -7  14  114.87    7.67
  -2   7  14  120.19   10.12
  -2  -7 -14  119.37    9.71
   2   7  14  122.44   10.31
   2  -7  14  134.59   10.41
   2   7  14  126.21    9.06
   2   7 -14  114.63    9.74
  -2   7 -14  122.23    9.46
   2   7  15   10.63    3.30
  -2  -7  15    7.17    2.25
   2   7  15    4.92    3.55
   2   7 -15    2.51    2.88
  -2   7  15    5.49    3.29
  -2   7 -15    7.23    3.22
  -2  -7 -15    4.23    3.14
  -2   7  16  180.70   12.76
   2  -7  16  211.51   13.08
  -2   7 -16  182.37   11.92
  -2   7 -16  196.57   11.23
   2   7 -16  176.48   12.85
   2   7  16  199.46   13.94
  -2  -7  16  181.61   10.21
   2   7  16  200.28   11.61
   2  -7  17  243.54   14.50
  -2   7  17  214.06   14.12
   2   7  17  211.18   12.09
   2   7  17  222.51   14.76
  -2   7 -17  213.99   12.08
   2   7 -17  205.57   14.11
  -2   7 -17  199.83   13.10
  -2  -7  17  215.76   11.56
  -2   7 -18   69.13    7.92
  -2   7  18   71.27    8.62
   2   7  18   76.56    7.65
   2  -7  18   80.08    9.18
  -2   7 -18   81.26    6.90
   2   7 -18   77.74    9.12
   2   7  18   62.23    8.41
  -2  -7  18   66.18    6.74
  -2   7 -18   70.29    7.08
  -2  -7  19   67.77    7.25
   2  -7  19   68.70    8.42
  -2   7  19   78.99    9.05
  -2   7 -19   75.01    7.46
   2   7 -19   72.63    9.07
   2   7  19   69.40    8.94
  -2   7 -19   58.88    7.58
   2   7  19   74.81    7.47
   2   7  20    5.26    3.92
   2   7  20    2.62    2.26
  -2   7  20    4.42    3.69
  -2  -7  20   -5.19    3.73
   2  -7  20    1.96    3.38
  -2  -7  20    6.68    3.11
  -2   7 -20    2.35    2.48
  -2   7 -20    0.78    2.74
   2   7 -20    4.95    4.01
   2   7  21  126.60    9.95
  -2  -7  21  127.49   10.16
   2   7 -21  138.64   12.35
   2   7  21  129.24   12.24
  -2   7 -21  146.02   11.61
  -2   7  21  143.54   12.42
   2  -7  21  142.39   12.36
  -2   7  22    1.48    4.09
   2  -7  22    7.45    4.38
   2   7 -22    0.42    3.13
  -2  -7  22   -0.02    3.03
  -2   7 -22    2.52    3.29
   2   7  22    0.28    3.70
   2   7  23    2.75    3.20
   2  -7  23   -2.69    3.41
   2   7 -23   -0.54    3.04
  -2   7 -23    1.25    2.84
  -2   7  23    0.40    2.93
  -2   7 -24    2.67    2.76
  -2   7  24    4.12    3.31
   2   7  24   -6.55    5.00
   2   7 -24    6.36    3.80
   2  -7  24    6.64    4.71
  -2   7  25  127.74   12.63
   2   7  25  150.05   14.22
   2  -7  25  134.28   13.14
   2   7 -25  123.13   12.82
  -2   7 -25  123.65   11.56
  -2   7  26   -0.52    3.01
  -2   7  27   17.00    5.08
  -2   8   0   19.25    4.07
   2   8   0   24.17    4.09
   2   8   0   17.97    4.10
   2   8   1   14.87    3.72
  -2   8  -1   10.96    3.57
  -2   8   1   12.79    3.96
   2   8   1   13.41    3.56
   2  -8  -1   13.01    3.47
   2   8  -1   14.88    2.18
   2   8  -1   19.17    4.27
   2   8  -1   11.85    3.60
   2   8  -2   33.90    2.71
  -2   8   2   35.95    5.10
   2   8   2   47.21    5.51
   2   8   2   43.44    5.61
   2  -8  -2   38.74    5.00
  -2   8  -2   41.75    5.23
   2   8  -2   40.46    5.68
   2   8   3  177.07   10.16
  -2   8   3  171.09   10.83
   2   8  -3  180.00    6.13
   2  -8  -3  171.75   10.47
   2   8   3  188.79   10.93
   2   8  -3  181.25   11.13
  -2   8  -3  185.10   10.70
  -2   8   4  250.94   13.08
   2   8   4  241.66   12.15
   2  -8  -4  240.10   12.60
   2   8  -4  231.01   12.60
   2   8   4  230.37   12.21
  -2   8  -4  241.54   12.29
   2   8  -4  246.68    7.24
  -2   8   5  250.34   13.18
  -2   8  -5  229.40   11.99
   2   8   5  245.69   12.47
   2  -8  -5  235.60   12.49
   2   8   5  240.61   12.43
   2   8  -5  218.30   12.50
   2   8  -5  234.67    7.24
   2   8  -6    1.49    1.08
  -2   8  -6   -1.12    2.34
   2  -8  -6    2.83    2.99
   2   8   6    1.51    2.23
   2   8  -6    7.51    3.74
   2   8   6    4.32    3.60
   2   8  -6   -0.72    3.17
  -2   8   6    6.52    3.63
  -2   8   7   93.32    8.62
   2   8  -7   88.71    8.27
   2   8   7   87.33    8.11
   2  -8  -7   88.39    8.01
   2   8  -7   94.46    8.62
  -2   8  -7   96.04    8.00
   2   8   7   81.90    7.49
   2   8   8   -1.38    2.81
   2  -8  -8    4.57    2.78
  -2   8   8   -0.93    3.15
   2   8  -8    0.96    3.34
   2   8   8   -3.09    3.80
  -2  -8  -8   -8.57    4.03
  -2   8  -8    1.03    2.52
   2   8  -8    0.09    2.94
  -2   8   9  108.76    9.43
   2   8   9   93.62    8.78
   2   8   9  118.97    8.92
  -2  -8  -9  123.55    9.74
   2   8  -9  118.50    9.85
   2  -8  -9  119.57    9.77
  -2   8  -9  123.55    9.02
  -2   8  10   79.70    8.28
   2   8  10   78.99    8.12
   2   8 -10   96.84    8.98
   2   8  10   93.14    7.99
  -2   8 -10   88.84    7.80
   2  -8 -10   87.88    8.71
  -2  -8 -10   79.31    8.10
   2   8  11   -3.27    3.96
   2   8  11    1.73    2.79
   2   8 -11   -1.96    2.98
  -2  -8 -11    3.27    3.21
  -2   8  11    6.35    4.22
  -2   8 -11    1.66    2.62
  -2   8  12   28.35    5.60
   2   8  12   34.99    5.34
  -2  -8 -12   32.35    5.58
   2   8 -12   33.21    5.72
  -2   8 -12   28.01    5.28
   2   8  12   20.31    5.06
  -2   8  13   11.71    4.70
  -2   8 -13   11.48    4.05
  -2  -8  13   15.80    3.46
  -2  -8 -13   11.46    3.61
   2   8  13   10.72    3.33
   2   8 -13   11.43    4.33
   2   8  13    9.12    4.13
  -2   8 -13    5.70    2.74
   2   8  14   46.52    6.29
   2   8  14   41.32    6.88
  -2   8  14   38.08    6.78
  -2  -8  14   43.12    5.07
  -2  -8 -14   30.99    5.43
  -2   8 -14   41.95    5.93
   2   8 -14   33.08    6.33
  -2  -8  15  350.83   13.77
  -2   8  15  346.43   17.85
   2   8  15  354.54   18.38
   2   8 -15  341.92   18.12
   2   8  15  333.00   15.70
  -2  -8 -15  340.66   17.36
  -2   8 -15  335.41   16.60
   2   8  16    0.46    2.33
   2   8  16   -0.82    3.16
  -2   8  16    7.56    4.79
  -2  -8  16   -0.35    2.47
   2  -8  16    8.78    4.53
  -2   8 -16    1.06    2.50
  -2   8 -16    3.24    2.51
   2   8 -16   -1.16    3.16
  -2  -8 -16    3.77    3.06
  -2  -8  17  121.80    8.76
   2  -8  17  131.95   10.97
  -2   8 -17  111.24   10.06
   2   8  17  110.44   11.02
  -2   8 -17  117.62    9.07
   2   8 -17  121.24   11.42
  -2   8  17  114.60   11.03
   2   8  17  122.61    9.94
   2   8  18   44.49    6.10
  -2   8  18   52.07    7.60
   2   8  18   40.10    7.17
   2  -8  18   53.39    7.73
   2   8 -18   48.16    7.92
  -2   8 -18   46.18    6.00
  -2   8 -18   47.05    7.03
  -2   8  19  108.10   10.85
   2  -8  19  120.71   11.14
   2   8  19   97.06   10.85
  -2   8 -19   94.55    9.63
   2   8 -19  120.27   11.70
   2   8  19  101.09    9.17
   2   8  20    2.49    3.15
  -2   8  20    2.96    3.44
   2  -8  20    9.22    4.97
   2   8  20   -7.74    4.73
  -2   8 -20   -0.45    2.67
   2   8 -20    6.03    4.08
   2  -8  21  176.83   14.00
  -2   8  21  181.82   14.42
   2   8  21  177.28   12.32
   2   8 -21  175.26   14.64
  -2   8 -21  172.53   13.14
   2   8  21  177.95   15.02
   2   8  22   10.88    5.14
  -2   8  22   13.63    5.46
   2  -8  22    4.59    5.38
   2   8 -22    3.95    3.51
  -2   8 -22    5.65    4.02
  -2   8  23   20.60    5.80
   2   8  23   39.59    7.98
   2   8 -23   39.56    7.68
  -2   8 -23   26.29    5.69
   2  -8  23   29.36    6.68
  -2   8  24   27.47    6.69
   2   8 -24   15.96    5.56
  -2   8 -24   15.40    4.80
   2  -8  24   22.54    6.35
  -2   8 -25  265.32   17.22
  -2   8  25  265.40   18.41
   2  -8  25  260.44   18.46
  -2   9   0   20.90    4.50
   2   9   0   29.69    5.16
   2   9  -1  212.97    7.51
   2   9   1  203.67   12.19
   2   9   1  209.54   11.19
   2  -9  -1  201.17   11.69
  -2   9  -1  196.40   12.04
   2   9  -1  211.40   12.66
  -2   9   1  208.45   12.51
  -2   9   2   14.52    3.86
  -2   9  -2   23.16    4.71
   2   9  -2   18.14    4.73
   2   9   2   21.44    4.35
   2  -9  -2   13.82    3.44
   2   9   2   15.46    4.17
  -2   9   3  499.63   19.45
   2   9   3  484.11   17.55
   2  -9  -3  478.07   18.42
   2   9   3  497.30   18.93
   2   9  -3  497.66   19.30
  -2   9  -3  487.62   18.56
  -2   9   4  135.32   10.27
   2   9   4  129.81    9.79
   2   9  -4  123.29   10.06
   2  -9  -4  131.06    9.89
   2   9   4  137.01   10.24
  -2   9  -4  137.52   10.10
   2   9   5   17.68    4.25
   2  -9  -5   12.91    3.79
   2   9  -5    9.67    3.53
   2   9   5   17.40    4.57
  -2   9   5   13.79    4.73
  -2   9  -5   13.60    3.58
  -2   9   6  311.77   15.89
   2   9  -6  341.49   16.37
   2   9   6  328.83   15.54
   2   9   6  299.30   15.17
   2  -9  -6  321.01   15.96
  -2   9  -6  299.30   14.79
   2   9  -6  304.50   15.73
  -2   9   7 1421.07   33.65
   2   9  -7 1373.78   33.40
   2   9  -7 1432.05   33.69
   2  -9  -7 1394.45   33.08
  -2   9  -7 1374.71   31.36
   2   9   7 1362.98   32.18
   2   9   7 1348.57   31.38
  -2   9   8  585.10   22.18
   2   9  -8  575.84   21.94
   2   9   8  590.04   20.70
  -2  -9  -8  589.80   21.92
   2  -9  -8  588.06   21.90
   2   9   8  614.97   22.01
   2   9  -8  599.89   22.34
  -2   9  -8  577.76   20.28
   2   9   9   28.50    6.04
  -2   9   9   22.93    5.42
   2   9  -9   23.46    5.08
   2   9  -9   30.00    5.55
  -2  -9  -9   30.51    5.87
   2  -9  -9   27.00    5.26
   2   9   9   25.07    4.66
  -2   9  -9   16.15    4.09
  -2   9  10  460.34   20.14
   2  -9 -10  429.94   19.39
   2   9  10  467.31   20.01
   2   9  10  466.12   18.56
  -2  -9 -10  458.40   19.85
   2   9 -10  445.07   19.68
  -2   9 -10  439.23   17.98
  -2  -9 -11   87.77    9.04
  -2   9  11   89.05    9.36
   2   9  11  110.43   10.65
  -2   9 -11   85.11    8.21
   2   9 -11   82.50    8.71
   2   9  11   87.39    8.62
   2   9  12    3.13    4.04
   2   9  12   -3.60    2.45
  -2  -9 -12   -5.01    3.77
   2   9 -12   -2.89    3.89
  -2   9  12   -4.31    3.99
  -2   9 -12   -2.43    3.05
  -2  -9 -13  201.47   13.69
   2   9  13  206.56   14.28
  -2   9 -13  216.34   12.96
   2   9 -13  214.08   14.38
  -2   9 -13  216.34   13.84
  -2   9  13  203.61   14.15
   2   9  13  202.55   12.84
   2   9  14   34.07    5.79
   2   9  14   34.84    6.52
   2   9 -14   29.00    6.00
  -2  -9 -14   45.07    7.03
  -2   9 -14   29.71    5.81
  -2   9 -14   31.40    5.41
  -2   9  14   45.68    7.37
  -2   9  15  153.10   12.65
  -2   9 -15  136.23   11.33
   2   9  15  156.67   13.31
   2   9 -15  147.94   12.49
  -2  -9 -15  151.98   12.30
   2   9  15  152.07   11.43
   2   9  16   77.58    8.38
   2   9  16   84.07   10.35
  -2   9 -16   66.94    8.20
  -2   9  16   68.09    8.93
  -2  -9 -16   68.37    8.75
   2   9 -16   74.31    9.29
   2   9 -17  350.30   19.58
   2   9  17  326.63   17.02
   2   9  17  334.66   19.55
  -2   9  17  336.34   18.93
  -2   9 -17  338.86   18.00
   2   9  18   16.73    4.84
  -2   9  18   14.42    4.87
   2   9  18   14.69    5.29
   2   9 -18   20.67    5.74
  -2   9 -18   13.67    4.50
  -2   9  19   37.97    7.05
  -2   9 -19   36.08    6.48
   2   9  19   31.79    6.94
   2   9  19   32.21    5.68
   2   9 -19   41.89    7.12
  -2   9  20    0.82    3.59
   2   9  20    5.58    3.42
  -2   9 -20    1.04    2.84
   2   9  20    2.26    4.10
   2   9 -20    0.39    3.21
  -2   9 -21   48.91    7.76
  -2   9  21   51.56    8.36
   2  -9  21   71.02    9.48
   2   9  21   54.33    8.90
   2   9 -21   47.21    8.40
  -2   9  22   84.90   10.57
   2  -9  22   92.93   11.02
  -2   9 -22   78.47    9.74
   2   9  22   79.44   10.70
   2   9 -22   79.66   10.28
  -2   9  23   35.18    7.50
   2  -9  23   33.86    7.24
  -2   9 -23   30.66    6.45
   2  -9  24    9.39    5.38
  -2   9 -24    0.87    3.16
  -2   9 -25   25.54    5.90
  -2  10   0   81.64    8.23
   2  10   0   84.63    8.62
   2 -10   0   71.48    7.48
   2 -10  -1    8.47    2.99
  -2  10   1    9.56    3.38
  -2  10  -1    1.67    3.12
   2  10   1    6.70    3.07
   2  10  -1   12.66    4.14
  -2  10   2   -0.81    3.28
   2  10   2    5.00    3.80
   2 -10  -2   -0.13    2.75
   2  10   2   -3.03    3.21
  -2  10  -2    1.01    2.38
   2  10  -2    4.27    3.65
   2  10   3    8.54    3.72
  -2  10   3    0.73    3.27
   2 -10  -3    4.31    2.85
   2  10   3    1.59    3.07
   2  10  -3   -1.78    3.30
  -2  10  -3   -1.33    3.27
   2  10   4   81.49    8.54
   2  10   4   85.56    8.37
   2 -10  -4   82.53    8.50
   2  10  -4   81.12    8.71
  -2  10  -4   80.19    8.19
  -2  10   4   85.35    8.89
  -2  10   5   23.45    5.44
   2  10  -5   23.67    5.17
   2 -10  -5   23.48    4.81
   2  10   5   25.18    5.31
   2  10   5   27.91    5.47
  -2  10  -5   20.03    4.53
  -2  10  -6  126.65   10.28
   2  10   6  119.57   10.26
   2 -10  -6  132.40   10.88
   2  10  -6  135.69   11.22
   2  10   6  129.85   10.51
  -2  10   6  137.09   11.36
   2  10   7    0.58    3.39
  -2  10  -7   -1.94    2.42
   2  10  -7   -3.25    3.35
   2  10   7    4.10    3.74
   2 -10  -7   -1.48    2.70
  -2  10   7    5.79    4.24
   2  10  -7   -1.17    3.04
  -2  10   8   13.07    4.39
   2  10  -8   13.22    4.84
   2  10  -8   11.73    4.35
   2  10   8   15.41    4.99
  -2 -10  -8   16.64    4.81
  -2  10  -8   12.95    3.94
   2  10   8   15.03    4.24
   2 -10  -8   15.25    4.02
  -2  10   9    1.32    3.33
   2  10   9    0.45    3.30
  -2 -10  -9    6.70    3.70
   2 -10  -9    3.38    3.46
   2  10   9    0.77    2.61
  -2  10  -9    0.49    2.93
   2  10  -9    5.47    3.82
   2  10  -9   11.68    4.33
  -2  10  10    2.42    3.14
   2  10  10   -1.42    3.18
   2  10  10   -3.03    3.38
   2  10 -10    5.99    4.08
  -2  10 -10    2.33    2.96
   2 -10 -10    3.60    3.03
  -2 -10 -10    0.51    2.86
   2  10 -11  140.68   12.01
   2  10  11  118.52   11.06
  -2  10  11  123.08   11.18
   2 -10 -11  135.76   11.74
  -2 -10 -11  134.10   11.62
   2  10  11  123.15   10.49
  -2  10 -11  122.79   10.34
  -2  10  12   74.16    8.78
   2  10  12   86.60    9.76
   2  10  12   75.38    8.35
   2  10 -12   81.29    9.12
  -2 -10 -12   75.32    8.84
  -2  10 -12   70.15    7.94
   2  10  13    5.96    3.36
  -2  10  13    1.36    3.33
   2  10 -13    3.45    3.76
  -2 -10 -13   11.70    4.29
  -2  10 -13    2.00    3.36
  -2  10 -13    4.28    3.14
   2  10  13    4.30    3.81
   2  10  14   36.83    6.17
  -2 -10 -14   36.22    6.66
  -2  10 -14   32.40    6.20
   2  10  14   32.58    6.96
   2  10 -14   32.54    6.59
  -2  10  14   34.43    6.70
  -2  10 -14   32.87    5.84
   2  10  15   65.82    8.16
  -2  10  15   60.38    8.20
  -2 -10 -15   60.76    8.35
   2  10  15   62.95    9.13
   2  10 -15   67.06    9.26
  -2  10 -15   62.68    8.09
  -2  10  16   31.00    6.27
  -2 -10 -16   24.47    5.46
  -2  10 -16   22.05    5.72
   2  10  16   26.51    5.45
   2  10 -16   21.90    5.60
   2  10  16   29.10    6.58
   2  10  17    2.45    3.99
   2  10  17    0.83    2.96
  -2  10  17   -0.18    3.12
   2  10 -17    9.25    5.13
  -2 -10 -17   -2.40    3.46
  -2  10 -17   -0.10    3.04
   2  10  18   46.35    7.96
  -2  10  18   57.87    8.70
  -2  10 -18   46.23    7.54
   2  10 -18   55.59    8.74
   2  10  18   53.09    7.62
   2  10  19   56.19    7.85
   2  10  19   56.89    9.39
  -2  10  19   53.15    8.67
   2  10 -19   59.43    8.94
  -2  10 -19   43.20    7.57
  -2  10  20    8.35    4.42
   2  10  20    3.72    3.14
   2  10  20    6.52    5.06
   2  10 -20   14.74    5.50
  -2  10 -20   14.93    5.05
  -2  10  21   34.56    7.79
  -2  10 -21   25.35    6.45
  -2  10 -22  133.50   12.90
  -2  10 -23   23.66    6.10
   2 -11   0  322.31   16.50
   2  11   0  322.35   17.36
  -2  11   0  339.41   17.64
  -2  11   1   24.10    5.12
   2  11  -1   35.10    6.54
   2 -11  -1   27.83    5.35
  -2  11  -1   28.07    5.79
   2  11   1   28.66    6.00
   2 -11  -2   -0.17    2.54
  -2  11   2   -0.60    2.85
   2  11  -2    5.48    3.92
   2  11   2    0.87    2.76
  -2  11  -2    0.94    3.17
   2  11  -3    2.47    3.75
   2 -11  -3   12.25    4.24
  -2  11   3    6.38    3.74
   2  11   3    9.50    4.63
  -2  11  -3   15.51    5.41
   2 -11  -4  764.50   26.21
   2  11   4  799.40   27.00
   2  11  -4  759.69   27.04
  -2  11  -4  790.34   26.70
  -2  11   4  791.47   27.46
  -2  11   5   24.90    5.80
   2  11  -5   27.56    6.20
   2  11   5   33.89    6.40
   2  11   5   34.23    6.16
  -2  11  -5   28.72    5.95
   2 -11  -5   27.37    5.99
   2  11  -6  157.09   12.65
   2 -11  -6  170.80   12.97
  -2  11  -6  157.31   12.18
   2  11   6  182.15   13.08
   2  11   6  168.58   12.93
  -2  11   6  168.74   13.13
  -2  11   7  265.83   16.52
   2  11   7  258.57   15.65
   2  11  -7  255.95   16.06
   2 -11  -7  263.21   16.03
  -2 -11  -7  257.13   16.17
   2  11   7  256.27   15.63
   2  11  -7  253.46   16.08
  -2  11  -7  264.71   15.56
   2  11   8   19.19    4.93
  -2  11   8   22.35    5.82
   2  11   8   33.09    6.68
   2 -11  -8   12.96    4.31
  -2 -11  -8   20.09    5.15
   2  11  -8   15.41    4.91
   2  11  -8   15.79    4.95
  -2  11  -8   17.86    4.55
  -2  11   9   72.16    9.30
   2  11   9   77.80    9.52
  -2 -11  -9   58.32    8.32
   2  11   9   47.48    7.00
   2  11  -9   62.42    8.48
  -2  11  -9   51.74    7.17
   2  11  -9   64.19    8.41
   2 -11  -9   51.25    7.82
   2 -11 -10  307.10   18.18
   2  11  10  293.12   17.73
   2  11 -10  320.14   18.42
   2  11  10  314.10   17.23
  -2  11 -10  306.73   17.13
  -2 -11 -10  323.18   18.52
  -2  11  10  338.53   18.98
   2  11  11    1.90    3.09
  -2  11 -11    2.27    3.20
  -2 -11 -11    2.13    2.58
   2  11 -11    7.93    4.80
   2 -11 -11    6.83    3.88
  -2  11  11    2.63    4.37
   2  11  11   12.15    5.48
  -2  11  12   67.73    8.89
  -2 -11 -12   79.24    9.61
   2  11  12   66.73    8.46
   2  11 -12   59.77    8.64
  -2  11 -12   67.41    8.36
   2  11  12   74.96    9.63
   2  11  13   41.77    7.12
  -2  11  13   45.81    7.87
  -2  11 -13   37.61    6.48
  -2 -11 -13   44.27    7.39
  -2  11 -13   46.99    7.66
   2  11 -13   36.58    7.12
   2  11  13   42.98    7.65
  -2  11  14  112.69   11.70
  -2  11 -14  113.30   10.65
  -2 -11 -14  110.74   11.47
  -2  11 -14  114.97   11.68
   2  11  14  113.08   11.94
   2  11 -14  121.84   12.29
   2  11  14  115.86   11.16
   2  11  15   24.26    5.86
   2  11  15   14.84    5.79
  -2  11  15   21.02    5.48
   2  11 -15   19.23    5.57
  -2  11 -15   16.13    4.94
  -2 -11 -15   16.97    4.55
   2  11  16   47.03    7.30
  -2  11  16   54.76    8.39
   2  11 -16   54.85    8.66
  -2  11 -16   58.91    8.64
   2  11  16   57.88    9.40
  -2 -11 -16   41.52    7.33
   2  11  17    3.71    3.02
  -2  11  17    5.31    3.84
  -2 -11 -17    4.73    3.19
   2  11 -17    2.97    3.27
   2  11  17   11.24    4.78
  -2  11 -17    8.56    4.23
   2  11 -18   49.62    8.63
  -2  11  18   43.55    8.04
  -2  11 -18   37.48    7.20
   2  11  18   44.71    7.30
  -2  11  19   -0.42    3.00
  -2  11 -19   -6.83    4.52
   2  11  19   -0.96    2.76
   2  11  20   12.32    4.54
  -2  11 -20    6.23    3.93
  -2  12   0   85.18    9.83
   2 -12   0   86.11    9.47
   2  12   0   81.89    9.56
  -2  12   1   35.48    6.70
   2  12   1   25.02    5.44
   2 -12  -1   26.97    5.66
   2 -12   1   24.56    5.18
   2  12  -1   23.89    5.85
  -2  12  -1   32.02    6.48
  -2  12  -2   23.39    5.64
   2 -12  -2   26.40    5.77
   2  12   2   30.14    6.36
  -2  12   2   28.55    6.19
   2  12  -2   34.62    6.42
  -2  12   3   33.15    6.77
  -2  12  -3   31.04    6.41
   2  12   3   35.50    6.55
   2 -12  -3   26.53    5.82
   2  12  -3   37.52    7.06
  -2  12   4   21.25    5.63
   2  12   4   19.64    5.38
  -2  12  -4   18.63    5.26
   2  12  -4   23.05    6.04
   2 -12  -4   18.45    5.17
  -2  12   5   10.46    5.14
   2  12  -5    7.15    3.90
   2 -12  -5   12.02    3.96
  -2  12  -5    2.89    2.96
   2  12   5   15.34    4.21
  -2  12   6   -4.83    3.82
   2  12   6    0.59    3.26
  -2  12  -6   -2.00    2.96
   2 -12  -6    4.15    3.24
   2  12  -6   -4.24    4.18
   2  12  -6    6.85    4.59
   2  12  -7    4.36    3.93
  -2  12  -7   10.53    4.42
   2 -12  -7   10.88    4.34
  -2 -12  -7    8.93    3.62
  -2  12   7   -0.01    3.50
   2  12  -7    4.19    3.55
   2  12   7    1.79    2.88
  -2  12   8   10.72    4.01
  -2  12  -8   10.34    3.82
   2  12   8   23.66    6.15
   2  12  -8   13.95    5.34
  -2 -12  -8   15.25    4.64
   2  12   8    8.19    3.89
   2  12  -8   16.33    5.21
   2 -12  -8   12.19    4.97
  -2  12   9   29.27    6.35
   2 -12  -9   36.27    6.78
   2  12   9   35.19    6.88
   2  12  -9   32.11    6.57
   2  12  -9   35.27    7.12
  -2 -12  -9   32.59    6.62
  -2  12  -9   31.17    6.43
   2  12   9   31.58    6.51
   2  12  10    3.89    2.97
  -2  12  10   -2.44    3.43
  -2 -12 -10    1.91    3.60
   2  12 -10    2.21    3.23
  -2  12 -10    5.29    4.15
   2  12  10    2.10    4.17
   2 -12 -10   -2.40    3.71
  -2  12  11   29.34    6.60
  -2 -12 -11   50.31    8.12
   2  12  11   36.13    7.18
   2 -12 -11   35.55    7.34
   2  12 -11   35.44    6.76
  -2  12 -11   32.46    6.32
   2  12  11   37.85    6.79
   2  12  12    5.12    3.32
  -2  12  12    9.91    3.94
  -2 -12 -12   13.87    4.60
   2  12 -12   20.87    6.47
  -2  12 -12    9.54    3.93
   2  12  13    1.18    2.74
  -2  12  13    6.96    3.91
  -2  12 -13    8.41    3.61
   2  12 -13    3.83    3.57
  -2 -12 -13    4.50    3.46
  -2  12 -13    8.95    4.19
   2  12  13   11.72    5.59
  -2  12  14    8.32    4.10
   2  12  14    2.80    2.91
   2  12  14   12.16    5.94
  -2 -12 -14    9.54    4.18
   2  12 -14   10.29    4.67
  -2  12 -14   13.28    5.19
  -2  12 -14   12.11    4.51
  -2  12  15   14.98    5.53
   2  12  15    8.94    4.04
   2  12  15   14.17    5.66
   2  12 -15   24.57    7.00
  -2  12 -15   19.20    5.51
  -2 -12 -15   10.56    4.57
   2  12  16    1.63    3.61
  -2  12  16   -1.12    3.20
  -2  12 -16    1.08    2.69
  -2 -12 -16   -0.81    3.12
   2  12  17    1.37    2.61
  -2  12 -17   -2.66    4.15
   2  12  18   12.20    4.53
   2  12  19   25.44    5.80
  -2  13   0  291.42   18.36
   2 -13   0  294.71   17.83
   2  13   0  295.76   18.73
   2 -13  -1   70.58    8.96
   2 -13   1   54.09    7.89
   2  13   1   61.35    9.27
  -2  13   1   81.09   10.45
   2  13  -1   60.69    8.85
  -2  13  -1   67.26    9.57
  -2  13   2   16.48    5.61
   2 -13   2    1.26    2.55
   2 -13  -2    6.69    3.58
   2  13   2    8.10    4.60
   2  13  -2    8.84    4.31
  -2  13  -2    6.97    4.24
  -2  13  -3    8.75    3.97
   2  13  -3   12.78    5.15
   2 -13  -3   11.28    4.38
   2  13   3    7.56    4.72
  -2  13   3    8.05    3.77
  -2  13  -4   40.03    7.33
   2  13  -4   53.04    8.52
  -2  13   4   42.23    7.55
   2 -13  -4   49.32    7.76
   2  13   4   53.20    8.26
  -2  13   5    9.94    5.13
  -2  13  -5   -0.48    3.76
   2 -13  -5    3.41    2.83
   2  13  -5    5.65    3.71
   2  13   5    3.33    3.10
  -2  13   6   37.16    7.43
  -2  13  -6   32.51    6.50
   2  13  -6   28.84    6.64
   2  13  -6   43.13    7.81
   2  13   6   36.24    7.10
   2 -13  -6   34.11    6.94
  -2 -13  -6   28.51    6.54
   2 -13  -7  167.05   14.19
   2  13  -7  165.26   14.40
  -2  13   7  174.79   14.73
  -2 -13  -7  168.11   14.57
   2  13  -7  171.81   14.60
  -2  13  -7  159.43   13.70
   2  13   7  168.32   14.17
  -2  13   8   -0.47    3.29
  -2  13  -8    2.58    2.73
   2 -13  -8    6.63    3.82
   2  13  -8    8.71    4.53
  -2 -13  -8    3.50    3.67
   2  13   8    2.88    2.96
   2  13  -8   10.28    5.51
   2 -13  -9   65.87    9.34
  -2  13   9   61.19    9.26
  -2 -13  -9   59.33    9.12
   2  13  -9   53.59    8.49
   2  13  -9   53.93    8.66
  -2  13  -9   63.74    8.86
   2  13   9   51.61    8.06
  -2  13  10   24.87    5.84
   2  13  10   20.95    5.83
  -2 -13 -10   23.81    6.04
   2  13 -10   26.01    6.78
   2 -13 -10   21.31    5.87
  -2  13 -10   22.77    5.82
  -2  13  11   74.02   10.12
   2  13 -11   77.57   10.50
  -2 -13 -11   72.42   10.00
  -2  13 -11   79.39    9.75
   2  13  11   52.65    8.23
   2 -13 -11   74.52   10.12
   2  13  12   21.45    5.91
  -2  13 -12   21.96    5.75
  -2  13 -13    2.79    3.48
   2  13  13    3.55    3.51
  -2  13 -14   -2.81    3.06
   2  13  14   -1.46    3.73
   2  13  15   27.11    6.37
   2  13  16    8.41    4.23
  -2  14   0   98.14   11.51
   2 -14   0   82.61   10.15
   2  14   0   89.83   11.13
   2  14   1    7.65    4.49
   2 -14   1    3.52    3.48
   2 -14  -1    1.30    2.96
  -2  14  -1    3.01    3.99
   2  14  -1    4.32    4.02
  -2  14   1    7.21    4.05
   2  14   2   -0.82    3.41
   2  14  -2    3.56    4.05
   2 -14  -2   -1.81    2.54
  -2  14  -2   -5.95    3.60
   2 -14   2    1.16    3.22
  -2  14   2    3.20    4.53
  -2  14   3   56.52    8.99
   2 -14   3   50.37    7.97
   2  14  -3   52.51    8.66
  -2  14  -3   43.38    7.73
   2  14   3   40.72    7.54
   2 -14  -3   52.91    8.45
  -2  14   4   29.75    7.09
   2 -14  -4   18.68    5.70
   2  14  -4   25.60    7.21
   2  14   4   17.29    5.33
  -2  14  -4    9.56    4.62
   2 -14  -5    1.42    2.93
  -2  14   5    1.75    3.41
  -2  14  -5   -1.52    3.94
   2  14  -5    1.01    2.98
  -2 -14  -5   -0.46    3.08
   2  14   5   -0.61    3.64
   2  14   6    3.05    4.19
  -2  14  -6    0.44    3.34
   2  14  -6   -0.08    3.51
   2 -14  -6    6.58    3.69
   2  14   7   42.32    7.89
   2 -14  -7   39.19    7.89
  -2  14  -7   51.97    8.48
   2  14   8   21.12    5.92
  -2  14  -8   17.17    5.69
  -2  14  -9    5.58    3.83
   2  14   9    2.35    3.25
  -2  14 -10    4.74    4.01
   2 -15   0   38.41    7.52
   2 -15   1    5.30    4.33
   2 -15   2   11.60    4.81
   2 -15   3   45.79    7.98
   2 -15   4   92.49   10.92
   2 -15   5   -4.97    3.88
   3   0   0    4.32    1.62
   3   0   0    5.35    1.63
   3   0   0    4.01    1.40
  -3   0   0    6.21    2.06
  -3   0   0    5.43    1.28
   3   0   1    3.11    2.11
   3   0   1    0.39    0.96
  -3   0  -1    2.38    2.25
  -3   0   1    1.53    2.94
   3   0  -1    2.40    1.80
   3   0   1    2.14    1.50
   3   0  -1   -0.18    1.46
  -3   0  -1    6.74    1.88
   3   0  -1    1.40    1.31
  -3   0  -1    0.21    0.73
   3   0  -1    2.47    2.05
  -3   0   1   -0.24    0.96
   3   0   1    2.94    1.60
   3   0  -2  933.47   14.59
  -3   0  -2  932.60   14.70
  -3   0  -2  912.09   10.03
   3   0   2  931.70   15.24
   3   0  -2  945.18   16.41
   3   0   2  967.42   16.46
   3   0   2  973.87   16.49
  -3   0   2  930.00   14.49
   3   0   2  932.47   10.09
   3   0  -2  956.71   16.30
   3   0  -2  947.55   15.24
  -3   0  -2  902.36   15.64
  -3   0   2  930.12   15.84
  -3   0   3   -0.14    1.13
  -3   0   3    2.91    2.09
   3   0   3    4.22    2.29
   3   0  -3    0.17    1.37
   3   0   3   -0.32    1.01
   3   0  -3   -0.92    1.50
   3   0   3    4.81    2.41
  -3   0  -3    5.34    2.40
  -3   0  -3   -2.07    1.89
  -3   0  -3    0.93    0.59
   3   0  -3   -0.93    1.44
   3   0  -3    0.05    1.34
   3   0   3   -0.62    1.31
  -3   0  -4   32.93    3.37
  -3   0   4   33.89    3.34
   3   0   4   34.52    2.96
  -3   0   4   31.93    3.14
   3   0  -4   33.37    3.30
   3   0  -4   30.75    3.18
   3   0  -4   31.78    3.04
   3   0  -4   33.06    2.84
   3   0   4   36.87    3.58
   3   0   4   29.76    3.02
   3   0   4   37.22    3.52
  -3   0  -4   32.93    3.28
  -3   0  -5    3.69    2.11
  -3   0  -5    4.91    2.06
  -3   0   5    2.11    1.50
   3   0   5    6.41    2.33
   3   0  -5    1.92    1.23
   3   0  -5    1.97    1.23
   3   0   5   12.13    1.92
   3   0  -5    2.03    1.24
  -3   0  -5    5.61    2.66
   3   0  -5    1.85    1.63
   3   0   5   14.01    2.75
  -3   0   5    1.79    1.20
   3   0   5   12.57    2.14
  -3   0  -5    0.88    0.36
   3   0  -6   58.95    4.04
   3   0   6   61.64    4.13
   3   0   6   59.84    3.60
   3   0   6   52.54    4.25
   3   0  -6   61.70    4.51
  -3   0  -6   61.35    4.15
   3   0  -6   59.85    4.68
   3   0   6   66.21    4.94
   3   0  -6   57.39    3.51
  -3   0  -6   58.30    4.60
  -3   0   6   57.90    4.10
  -3   0  -6   54.79    4.55
   3   0  -7    1.19    1.75
   3   0   7   -4.09    2.58
  -3   0   7    0.06    1.45
   3   0   7    0.17    0.85
   3   0   7   -1.74    1.45
   3   0  -7   -0.41    1.21
  -3   0  -7    2.81    1.97
   3   0   7   -0.54    1.11
  -3   0  -7    0.30    1.25
   3   0   8   21.68    3.55
   3   0   8   23.35    2.19
  -3   0  -8   15.26    2.27
   3   0   8   17.09    2.74
   3   0   8   17.01    2.25
   3   0  -8   25.41    3.65
  -3   0  -8   14.74    2.93
  -3   0   8   17.10    2.81
   3   0  -8   18.98    2.27
   3   0   9    0.41    0.70
  -3   0  -9   -0.05    1.52
  -3   0  -9   -0.03    0.42
   3   0   9    1.10    2.06
   3   0   9   -0.51    1.37
  -3   0   9    0.93    1.30
  -3   0  -9   -1.27    2.18
   3   0   9    0.56    1.02
   3   0  -9   -1.31    2.09
   3   0  -9    0.52    1.08
   3   0  -9   -0.03    1.10
  -3   0 -10  155.65    8.63
  -3   0 -10  149.82    6.45
  -3   0  10  150.77    6.44
   3   0  10  153.26    6.64
   3   0  10  152.68    4.95
   3   0 -10  158.91    8.79
   3   0 -10  157.56    6.57
   3   0 -10  155.72    6.60
   3   0  10  149.68    7.61
  -3   0 -10  152.38    4.22
   3   0  10  150.96    8.43
  -3   0  11   -1.28    1.34
   3   0 -11   -0.33    1.98
  -3   0 -11   -0.07    1.09
  -3   0 -11    1.44    2.32
   3   0  11    0.01    0.86
   3   0 -11   -0.13    1.32
  -3   0 -11   -0.78    0.69
   3   0  11   -1.07    2.17
   3   0  11   -0.09    1.59
   3   0 -11   -0.31    1.04
   3   0  11    0.82    0.86
   3   0  11   -0.50    0.91
   3   0  12   16.40    3.59
  -3   0  12   10.87    1.89
  -3   0 -12   11.91    1.52
  -3   0 -12   11.85    3.37
  -3   0 -12   11.96    2.11
   3   0 -12   10.15    1.96
   3   0 -12   11.21    3.15
   3   0  12   17.07    2.95
   3   0 -12    7.92    1.58
   3   0  12   11.45    1.11
   3   0  12   12.56    1.83
   3   0  12   11.60    1.10
   3   0  12   13.16    2.10
   3   0  13    0.78    0.93
   3   0  13   -0.23    0.56
  -3   0 -13    0.34    0.84
   3   0 -13    0.94    2.29
   3   0  13   -1.97    3.03
   3   0  13    0.98    0.61
   3   0 -13    2.00    1.40
   3   0  13    1.20    1.05
  -3   0 -13    1.21    2.51
   3   0  13   -0.71    1.70
  -3   0 -13   -0.73    1.28
  -3   0  13   -0.94    1.19
   3   0 -13   -0.40    0.98
   3   0  14    4.49    2.23
  -3   0 -14    0.92    1.03
   3   0  14    6.16    3.57
   3   0  14    0.65    0.71
   3   0 -14    3.36    1.34
   3   0  14    3.94    1.45
   3   0  14    0.95    0.66
   3   0 -14    5.15    3.47
  -3   0 -14    2.36    1.26
  -3   0  14    1.42    1.23
   3   0  14   -0.16    1.07
   3   0  15    0.95    2.93
   3   0  15   -0.43    0.67
  -3   0 -15    0.04    1.10
   3   0  15    0.19    0.97
   3   0 -15    2.09    2.91
  -3   0 -15   -0.05    0.97
  -3   0  15   -0.46    1.07
   3   0  15    1.46    1.10
   3   0  16    8.31    3.71
   3   0 -16    2.31    2.90
  -3   0 -16    7.08    1.69
  -3   0 -16    5.61    1.27
  -3   0  16    6.30    1.47
   3   0  17    5.81    3.89
  -3   0 -17    0.92    1.45
   3   0 -17    1.44    3.29
   3   0 -18  646.78   22.33
   3   0  18  641.34   22.06
  -3   0 -18  664.30   15.43
   3   0  19   15.26    5.23
  -3   0 -19    0.70    1.82
   3   0 -19    9.72    5.02
   3   0  20    3.87    3.10
   3   0 -20   -0.62    3.00
  -3   0 -20   -0.50    1.47
   3   0  21    0.63    3.06
   3   0 -21    2.07    2.70
   3   0  22    0.98    3.81
   3   0  22    3.65    2.73
   3   0 -22    3.66    2.99
   3   0  23    0.91    3.47
   3   0 -23    0.57    2.72
   3   0  23   -2.90    2.63
   3   0  24    4.77    3.30
   3   0 -24    8.08    3.88
   3   0  24    0.05    2.55
   3   0  25    0.47    3.56
   3   0 -25    2.25    2.80
   3   0  25   -2.20    3.53
   3   0  26   31.56    6.65
   3   0  26   38.64    6.33
   3   0 -26   22.58    5.59
   3   0  27   -3.20    3.23
   3   0 -27    0.74    3.41
   3   0  27    2.32    4.61
   3   0 -28    5.06    4.40
   3  -1   0    5.44    2.07
   3   1   0    4.31    1.81
   3  -1   0    1.86    1.34
  -3  -1   0    9.16    3.02
  -3  -1   0    6.75    2.75
  -3  -1   0    0.72    1.09
   3   1   0    4.35    1.80
  -3  -1   0    1.66    1.10
  -3   1   0    1.07    1.46
   3   1   0    2.42    1.28
  -3   1   0   -0.40    0.92
  -3   1   0   14.77    3.47
  -3  -1  -1  836.67   12.10
  -3  -1  -1  882.16   15.95
  -3  -1   1  863.78   15.78
  -3  -1   1  864.83   15.75
  -3   1   1  881.47   15.49
   3   1  -1  871.61   15.70
   3   1   1  857.04   15.05
  -3   1  -1  823.71   12.06
  -3  -1   1  838.18   12.85
  -3  -1  -1  856.99   14.23
   3  -1   1  885.28   16.01
   3  -1  -1  852.97   13.73
  -3   1  -1  843.92   15.68
   3   1  -1  883.93   13.08
  -3  -1  -1  856.99   15.06
   3  -1  -1  870.10   15.87
  -3   1  -1  903.46   16.10
  -3   1   1  892.40   15.98
  -3  -1  -1  839.97   10.82
   3   1   1  869.93   15.65
   3   1  -1  874.32   15.64
  -3   1   1  852.45   13.71
   3   1   1  850.68   10.71
  -3   1  -2 1662.86   16.03
  -3   1  -2 1715.82   21.73
   3   1   2 1685.32   17.78
  -3  -1  -2 1789.91   22.56
  -3  -1   2 1722.56   22.22
  -3  -1  -2 1689.65   17.98
  -3  -1  -2 1665.89   20.61
  -3  -1   2 1721.35   22.63
   3   1  -2 1726.32   22.37
   3   1   2 1699.15   20.82
   3  -1  -2 1764.68   22.49
   3   1  -2 1711.57   19.53
  -3  -1  -2 1667.25   20.77
  -3   1   2 1690.59   20.54
  -3  -1  -2 1678.70   15.91
   3   1   2 1642.05   13.28
  -3   1  -2 1711.37   22.41
  -3   1   2 1709.14   22.36
  -3   1   2 1705.57   21.18
   3  -1   2 1731.35   22.30
  -3  -1   2 1729.22   19.72
  -3   1  -2 1773.89   22.80
   3  -1  -2 1690.51   20.26
   3   1  -2 1674.18   21.60
   3   1   2 1688.32   21.84
  -3  -1  -2 1678.96   13.35
   3   1   3 3579.11   27.39
  -3   1   3 3579.33   31.82
  -3  -1   3 3566.69   31.84
  -3  -1   3 3593.30   30.31
  -3   1  -3 3561.17   20.42
  -3   1   3 3577.02   31.20
  -3  -1  -3 3494.04   31.43
  -3  -1  -3 3468.48   29.06
   3  -1  -3 3647.59   31.30
  -3  -1   3 3573.25   32.74
   3   1  -3 3641.34   32.92
   3   1   3 3594.18   29.70
   3  -1   3 3655.57   32.47
  -3   1  -3 3600.80   32.95
   3   1  -3 3572.80   31.62
   3   1  -3 3565.93   29.93
   3  -1  -3 3545.92   31.90
  -3   1   3 3576.03   29.97
  -3  -1  -3 3551.74   31.86
  -3   1  -3 3394.47   21.76
  -3   1  -3 3623.65   32.28
  -3   1  -3 3498.90   31.59
   3   1   3 3601.03   31.88
  -3  -1  -3 3509.68   20.93
  -3  -1  -3 3590.97   27.41
  -3  -1  -4   14.58    2.47
  -3  -1  -4   14.14    3.68
  -3  -1  -4   14.61    2.11
   3   1   4   13.49    2.71
  -3   1  -4   10.11    1.05
  -3   1  -4   11.25    1.33
  -3   1   4   13.20    2.20
   3   1   4    9.32    1.99
  -3  -1   4   13.55    3.53
  -3  -1   4   14.03    3.39
   3  -1   4   21.19    3.66
   3   1   4   11.34    1.99
  -3  -1  -4   12.93    1.27
   3  -1  -4   11.54    2.49
   3  -1  -4   13.06    2.39
  -3   1   4   19.37    2.68
   3   1  -4   35.28    4.44
  -3   1   4   39.79    4.32
  -3   1  -4   38.35    4.42
  -3  -1  -4   10.98    2.45
  -3   1  -4   13.97    2.53
   3  -1   4   16.97    2.64
  -3   1  -4    6.63    1.60
  -3  -1   4   16.60    2.76
   3   1  -4   25.54    3.19
   3   1  -4   17.79    2.99
   3   1   5  532.90   11.94
   3   1   5  569.04   12.75
   3   1  -5  549.26   13.28
   3  -1   5  564.66   13.55
  -3  -1  -5  544.69   12.49
  -3  -1   5  535.31   12.43
  -3   1   5  551.61   12.62
  -3  -1  -5  532.64   10.95
  -3  -1   5  549.61   13.46
  -3   1  -5  539.87   12.54
  -3  -1  -5  536.38   13.48
   3  -1  -5  555.50   12.62
   3  -1   5  566.77   12.87
  -3   1   5  551.36   13.35
   3   1  -5  538.30   12.30
  -3   1  -5  571.06   13.53
  -3   1   5  537.06   11.28
   3   1  -5  550.97   13.40
   3   1  -5  538.43   10.90
  -3  -1   5  554.80   13.20
   3  -1  -5  537.15   13.50
  -3   1  -5  548.87   13.42
  -3  -1  -5  537.11   12.05
  -3  -1  -5  524.53    6.63
  -3   1  -5  519.52    5.90
   3   1   6 2122.55   26.58
   3  -1   6 2121.73   27.21
  -3  -1  -6 2178.21   24.94
  -3  -1  -6 2057.19   21.03
   3   1   6 2005.07   24.42
  -3  -1   6 2172.35   26.62
  -3  -1  -6 2119.21   17.95
  -3  -1  -6 2054.52   27.33
   3  -1  -6 2166.87   25.00
   3  -1   6 2111.93   24.90
   3  -1  -6 2109.87   27.42
  -3   1   6 2144.12   24.61
  -3  -1   6 2142.75   24.55
  -3   1   6 2164.94   21.96
   3   1  -6 2111.68   27.27
   3   1  -6 2112.41   21.26
  -3   1  -6 2079.07   24.54
   3   1   6 2207.51   25.08
   3   1  -6 2114.20   24.59
  -3  -1  -6 2185.96   25.52
   3  -1   7  316.51   11.00
  -3  -1  -7  318.50    9.65
  -3  -1   7  330.30    9.71
  -3  -1   7  336.38   10.84
   3  -1  -7  367.02   12.10
   3   1  -7  332.74    9.72
  -3  -1  -7  324.24   11.39
   3  -1  -7  330.66    9.70
   3  -1   7  323.11    9.77
  -3   1  -7  319.86   11.36
   3   1  -7  334.73   11.73
   3   1  -7  323.47    8.08
  -3   1   7  316.95    8.26
   3   1   7  331.95   10.96
  -3   1  -7  331.28    9.78
  -3   1  -7  331.01    6.32
   3   1   7  342.32    9.87
  -3  -1  -7  315.92    7.20
  -3   1   7  321.36    9.56
   3   1   7  314.26   10.29
   3  -1   8  907.97   19.02
  -3  -1  -8  886.44   15.84
  -3  -1   8  884.76   15.80
  -3  -1   8  895.12   17.85
  -3   1   8  868.55   15.78
   3   1   8  865.95   15.84
  -3  -1  -8  892.95   19.42
   3  -1  -8  884.25   15.96
   3  -1   8  916.40   16.29
  -3   1  -8  908.27   19.34
   3   1   8  882.81   17.85
   3   1  -8  906.82   19.32
  -3   1  -8  846.75   15.74
   3   1   8  810.00   17.02
   3   1  -8  880.65   12.88
   3   1  -8  896.31   15.93
  -3   1  -8  891.98   10.83
  -3  -1  -8  862.88   12.63
   3  -1  -8  887.08   19.29
  -3   1   8  888.95   13.43
   3  -1  -9  367.83   10.86
   3   1   9  369.46   11.81
   3  -1  -9  384.04   13.33
  -3  -1   9  360.90   11.57
  -3  -1   9  362.05   10.07
  -3   1   9  357.83    8.20
  -3  -1  -9  372.85   13.13
   3  -1  -9  362.74   10.22
   3  -1   9  368.20   10.37
  -3   1  -9  370.92   12.86
   3   1  -9  381.24   13.33
  -3   1   9  362.25   10.17
  -3   1  -9  348.23   10.14
   3   1  -9  360.80    8.47
   3   1  -9  346.09    7.91
   3   1  -9  362.05   10.16
   3   1   9  380.55   10.56
  -3   1  -9  364.37    7.44
   3  -1   9  368.08   12.75
   3  -1   9  357.99    6.21
   3   1   9  332.07    4.66
  -3  -1  -9  364.26   10.21
   3   1   9  364.38   12.06
   3  -1  10  957.15   21.19
   3  -1 -10  987.08   21.84
  -3  -1  10  978.38   19.13
  -3  -1 -10  969.87   16.59
  -3  -1  10  946.74   16.23
   3   1 -10  938.98   13.97
   3  -1 -10  952.47   16.45
   3  -1  10 1003.10   17.10
  -3   1 -10  974.15   21.29
   3   1 -10  952.88   12.47
   3   1  10  926.60    8.78
   3   1 -10  958.42   21.62
   3   1  10  954.87   19.04
  -3   1  10 1010.10   13.25
   3   1 -10  975.50   16.55
  -3   1 -10  934.95   16.38
   3   1  10 1007.83   16.94
   3   1  10  923.90    9.22
  -3   1 -10  942.22   12.77
   3  -1  10  981.99   11.71
  -3   1  10  949.64   16.31
   3   1  10  949.16   20.31
   3  -1  11    4.05    0.65
   3   1  11    4.60    0.82
  -3   1 -11    8.45    3.16
   3   1  11    8.74    3.61
  -3   1  11    5.69    1.85
   3   1 -11    5.18    1.06
  -3  -1  11    5.91    2.60
  -3   1 -11    5.80    1.79
   3  -1  11   11.63    3.90
   3  -1  11    6.82    1.79
  -3  -1 -11    6.82    1.10
   3   1 -11    9.22    4.40
   3  -1  11    4.37    1.06
   3   1  11    3.77    2.26
   3   1 -11    4.92    1.22
  -3  -1 -11    5.50    1.77
  -3  -1  11    5.68    1.70
   3   1  11    5.30    1.01
  -3   1 -11    5.09    1.19
   3  -1  11    3.17    0.98
   3   1 -11    6.71    1.61
   3   1  11    7.69    1.71
   3   1  12 1704.45   14.62
   3   1 -12 1783.45   20.02
   3   1  12 1790.94   16.29
   3   1  12 1836.19   22.85
  -3   1  12 1763.56   21.85
  -3   1 -12 1764.87   30.62
  -3   1 -12 1759.44   19.48
  -3  -1 -12 1756.16   22.19
  -3  -1  12 1777.11   21.98
   3  -1 -12 1859.92   31.76
   3   1 -12 1762.80   31.29
   3  -1  12 1711.64   16.74
   3   1  12 1867.30   27.37
   3   1 -12 1782.39   22.21
  -3  -1 -12 1753.23   16.46
  -3   1 -12 1736.92   22.19
   3  -1  12 1733.02   13.56
   3   1  12 1774.15   29.99
   3  -1  12 1781.31   19.05
   3  -1  12 1772.64   30.84
   3   1 -13  457.06   10.51
   3   1  13  447.76    8.14
   3   1  13  505.25   16.73
   3  -1  13  432.88    7.92
   3  -1  13  467.15    7.77
   3  -1  13  465.82   16.50
   3  -1  13  462.12   10.58
  -3   1 -13  472.18   16.18
  -3  -1 -13  470.67    9.31
   3   1  13  474.93   14.00
   3   1  13  449.83   11.27
   3   1 -13  508.07   17.48
   3  -1 -13  494.54   17.21
  -3   1 -13  456.08   10.65
   3   1 -13  467.09   11.31
   3   1  13  466.94    9.14
  -3  -1 -13  458.73   11.29
  -3   1 -13  470.92   11.54
  -3   1  13  457.99   11.19
  -3  -1 -14   29.90    2.65
   3  -1  14   36.98    5.52
   3  -1  14   27.66    2.91
   3   1  14   25.82    2.20
  -3   1 -14   21.65    4.38
   3   1  14   30.70    3.05
   3   1  14   29.28    2.52
  -3   1 -14   29.92    3.04
   3  -1 -14   32.01    5.38
   3  -1  14   29.56    2.20
   3   1 -14   26.34    2.82
   3   1  14   25.56    3.63
   3   1 -14   36.55    5.90
   3  -1  14   24.90    1.79
   3   1 -14   25.41    2.63
   3   1  14   34.83    5.58
  -3   1 -14   33.62    3.27
  -3   1  14   28.47    2.89
  -3   1 -15  120.88    5.72
   3   1  15  120.41    4.93
  -3  -1 -15  125.36    5.57
   3   1 -15  119.93    5.59
   3  -1 -15  135.60    9.93
  -3   1 -15  128.47    9.05
   3   1  15  120.96    7.40
  -3   1  15  118.79    5.58
   3   1  15  116.91    5.67
   3   1 -15  130.44    9.57
  -3   1 -15  126.74    6.26
   3  -1  15  117.14    6.00
   3   1  15  125.13    5.45
   3  -1  15  126.01    4.77
   3  -1  15  148.49   10.63
   3   1  15  123.38    9.33
   3   1  16 1107.41   15.65
  -3   1 -16 1157.40   17.17
   3   1  16 1148.86   22.61
  -3   1  16 1138.62   16.70
   3   1 -16 1108.02   16.54
   3   1  16 1139.63   17.06
   3  -1 -16 1103.25   27.57
   3   1 -16 1131.61   27.91
  -3   1 -16 1140.46   19.45
  -3  -1 -16 1142.21   17.78
   3   1  16 1105.21   27.34
   3  -1  16 1143.96   28.27
  -3  -1 -17  177.65    7.49
  -3   1 -17  172.04    6.51
   3   1 -17  188.19   12.53
  -3   1  17  165.14    6.20
   3  -1 -17  201.25   12.70
   3   1  17  175.36    6.56
   3   1  17  178.77    9.19
  -3   1 -17  185.27    8.42
   3   1  17  184.25   11.98
   3  -1  17  203.58   12.55
   3   1  18    8.81    2.77
  -3  -1 -18    9.28    1.98
   3   1  18    8.85    3.91
   3   1  18    7.02    1.49
   3  -1  18   11.71    4.39
   3  -1 -18   14.70    4.65
  -3   1 -18    6.85    1.97
  -3   1 -18    7.38    1.45
  -3   1  18    7.53    1.39
   3   1 -18   12.98    4.41
   3   1  19   35.76    6.40
   3  -1  19   34.89    6.48
  -3  -1 -19   29.37    3.45
  -3   1 -19   30.32    3.85
   3   1 -19   27.95    5.55
   3  -1 -19   34.79    6.02
   3   1 -20  479.02   20.28
  -3   1 -20  469.56   14.57
   3  -1 -20  481.30   20.32
   3  -1  20  477.93   20.43
  -3  -1 -20  458.31   13.53
   3   1  20  452.95   18.66
   3   1  20  471.33   20.22
   3   1  21   46.78    7.52
   3  -1  21   50.16    8.09
  -3   1 -21   36.14    4.57
   3  -1 -21   41.26    7.23
   3   1 -21   44.47    7.27
   3   1  21   38.70    6.21
   3  -1 -22  169.55   12.73
   3  -1  22  184.03   13.67
   3   1 -22  162.60   12.79
   3   1  22  179.21   13.67
   3   1  22  164.74   12.18
   3   1  23  376.42   18.38
   3   1  23  367.03   19.32
   3  -1  23  323.66   16.22
   3  -1 -23  350.73   18.67
   3   1 -23  334.52   18.42
   3  -1  23  342.05   18.85
   3   1  24   92.66    9.58
   3   1 -24   90.15   10.30
   3  -1 -24   87.26    9.93
   3  -1  24   77.64    8.74
   3   1  24   95.39   10.84
   3  -1  24   98.56   11.33
   3   1  25    1.60    2.85
   3   1  25    7.05    4.38
   3  -1  25    4.35    4.82
   3   1 -25    7.75    4.84
   3  -1 -25    3.45    3.51
   3  -1  25    1.97    2.79
   3  -1  26  183.74   13.19
   3   1  26  151.95   12.68
   3  -1 -26  191.85   14.79
   3   1 -26  205.42   15.50
   3   1  26  194.11   15.38
   3  -1  26  181.44   15.03
   3   1  27   79.93   10.45
   3   1  27   61.19    8.40
   3  -1  27   67.84    9.79
   3   1 -27   78.32   10.14
   3  -1 -27   70.57    9.51
   3   1  28   24.03    5.71
   3   1 -28   30.87    6.74
   3  -1 -28   24.36    6.32
  -3  -1  28   31.23    7.15
   3  -1 -29   18.85    5.76
  -3   2   0    0.89    1.07
  -3  -2   0   -0.33    0.83
  -3  -2   0    1.39    1.57
   3  -2   0    0.70    1.06
  -3  -2   0    0.25    1.14
  -3   2   0    1.08    1.98
   3   2   0   -0.25    1.00
  -3  -2   0   -1.08    1.84
   3   2   0    0.65    1.31
  -3  -2   0   -0.43    0.83
  -3   2   0    0.88    0.89
  -3  -2   0    1.13    1.16
   3   2   1    3.84    1.69
  -3  -2  -1    1.20    0.73
  -3   2  -1    1.16    1.01
   3   2  -1    3.83    1.62
   3   2  -1    1.70    1.18
  -3  -2   1    2.14    1.06
  -3  -2   1    3.74    1.01
  -3  -2   1    4.15    1.83
  -3  -2  -1    4.82    1.98
   3  -2  -1    2.94    1.42
   3  -2   1    3.39    1.38
  -3  -2  -1    2.51    1.46
  -3   2   1    2.21    1.20
  -3   2  -1   -0.01    0.94
  -3  -2  -1    3.49    1.25
  -3   2   1    1.83    1.92
  -3   2  -1    1.94    2.11
   3   2   1    3.30    1.16
  -3  -2  -1    3.14    1.81
  -3  -2   1    3.98    1.95
  -3  -2   1    2.78    1.28
  -3  -2   1    5.97    1.47
  -3   2  -1    1.80    0.77
  -3   2   1    3.39    1.20
   3   2   2  253.98    8.98
   3   2  -2  244.19    8.80
  -3   2  -2  244.83    8.95
  -3   2  -2  247.50    6.83
  -3  -2   2  240.16    8.94
  -3  -2  -2  248.22    8.39
  -3   2  -2  244.11    7.21
  -3   2   2  244.69    8.92
  -3  -2  -2  242.80    8.87
  -3  -2   2  241.86    8.80
   3  -2  -2  244.47    8.84
   3  -2   2  252.67    8.99
  -3  -2  -2  240.75    7.87
  -3  -2   2  247.96    6.20
   3   2   2  258.77    8.21
   3  -2  -2  231.61    8.22
   3   2   2  249.65    5.99
  -3   2   2  250.68    8.44
  -3   2  -2  250.90    9.05
   3   2  -2  246.64    7.78
   3   2   2  253.59    6.34
  -3   2  -2  255.14    9.05
  -3  -2  -2  248.61    7.05
  -3  -2  -2  235.84    6.16
  -3  -2   2  249.28    7.92
   3   2   3  576.92   10.35
  -3  -2  -3  570.60   13.39
   3   2   3  587.62   13.48
   3   2  -3  552.45   13.22
  -3   2  -3  541.68    9.61
  -3  -2   3  560.63   13.60
  -3  -2  -3  540.26   12.18
   3   2  -3  573.25   12.61
   3  -2  -3  571.33   13.49
   3  -2   3  581.78   13.57
  -3  -2  -3  545.58   12.45
  -3  -2   3  565.01   13.14
   3   2   3  538.50    7.96
  -3   2   3  553.87   13.35
  -3  -2   3  547.92    8.53
   3   2   3  572.71   12.79
   3  -2  -3  536.70   12.97
  -3   2   3  542.52   12.96
  -3   2  -3  561.03   13.43
  -3  -2  -3  524.24    9.93
  -3  -2   3  577.91   12.68
  -3   2  -3  571.09   13.72
  -3  -2  -3  556.28    9.97
   3   2  -4  812.76   15.94
  -3   2  -4  802.75   16.05
   3   2   4  861.51   16.36
  -3  -2  -4  796.90   11.50
  -3  -2   4  789.81   16.45
  -3  -2  -4  770.69   14.24
   3   2  -4  793.09   15.67
  -3   2   4  798.08   16.02
  -3  -2   4  848.49   16.08
  -3  -2  -4  769.72   15.59
  -3  -2  -4  792.20   15.62
  -3  -2   4  832.83   15.97
   3  -2  -4  814.45   16.35
   3   2   4  792.56   13.04
   3   2   4  794.14    8.62
  -3   2  -4  819.27   11.11
   3   2   4  791.25   11.31
   3   2   4  833.59   16.12
   3   2  -5  357.34   10.59
   3  -2   5  383.41   11.89
   3   2   5  343.39    5.19
  -3   2  -5  352.15   10.69
   3  -2  -5  355.62   11.37
  -3   2   5  365.95   10.96
  -3  -2   5  376.97   11.45
  -3  -2  -5  355.26    9.55
  -3  -2  -5  361.46   11.17
  -3  -2  -5  361.09   10.55
  -3  -2   5  367.48   10.60
   3   2   5  384.19   10.94
   3   2  -5  366.64   11.23
   3   2   5  360.28    7.40
  -3   2  -5  375.90    7.15
  -3  -2  -5  369.08    7.54
   3   2   5  376.71    9.59
  -3  -2  -6    1.10    1.52
  -3  -2  -6    1.58    0.63
   3   2   6    1.27    1.65
   3  -2   6    3.42    0.96
   3  -2   6    3.85    2.96
  -3  -2  -6    0.30    1.08
   3   2   6    3.02    1.55
   3   2   6    1.89    0.49
   3   2  -6    2.14    1.38
   3  -2  -6    0.50    2.07
  -3   2  -6    1.29    2.01
  -3  -2   6    3.05    2.02
   3   2  -6    0.84    1.83
  -3   2   6    0.40    1.64
  -3  -2   6    0.05    1.33
   3   2   6    1.59    0.72
  -3   2  -6    3.01    0.92
   3  -2   7  260.31   10.39
  -3  -2   7  247.46    8.81
   3  -2   7  249.27    5.51
  -3  -2  -7  250.81    5.95
  -3  -2  -7  247.10    8.84
   3  -2  -7  244.59   10.16
  -3  -2  -7  252.89    7.63
  -3  -2   7  247.58    9.57
   3   2   7  254.70    5.96
  -3  -2  -7  249.84    7.78
  -3   2   7  256.69    9.05
   3   2   7  238.78    4.05
   3   2  -7  247.23   10.10
  -3   2  -7  245.10    8.91
   3   2   7  253.64    8.97
   3   2   7  256.85    8.97
   3   2  -7  248.40    8.75
  -3   2  -7  261.65    5.59
   3   2  -8  386.46   13.01
   3  -2   8  408.89   13.32
  -3   2  -8  366.27    6.65
  -3  -2   8  399.63   12.41
  -3  -2  -8  409.84   11.21
   3   2   8  375.06    5.36
   3  -2  -8  389.61   13.17
  -3   2   8  380.77   11.00
  -3  -2  -8  369.33    9.74
  -3  -2  -8  385.58    9.25
  -3  -2   8  394.83   11.00
  -3   2  -8  409.50   11.53
   3  -2   8  392.65    6.88
   3   2   8  397.50    7.46
   3   2   8  398.13   11.15
   3   2  -8  388.61   10.94
   3   2   8  389.73   11.80
   3   2   9    3.99    0.93
  -3  -2  -9    8.89    1.84
   3   2   9    4.38    2.05
   3  -2  -9    0.17    2.57
   3   2   9    4.77    1.39
   3  -2   9    0.53    2.48
   3   2  -9    3.23    1.24
  -3  -2  -9    4.46    1.21
  -3  -2   9    5.95    2.10
   3  -2   9    4.26    0.84
   3   2  -9    6.16    2.86
   3   2   9    4.06    0.76
  -3   2  -9    3.66    1.24
   3   2  -9    5.31    1.10
  -3   2   9    5.45    1.72
  -3   2  -9    6.34    1.54
  -3   2  -9    2.70    2.06
   3  -2  10    0.88    0.56
  -3   2 -10    2.87    2.35
   3   2  10   -0.52    2.17
  -3  -2 -10    0.34    1.27
   3   2  10    0.08    1.03
   3  -2  10   -1.48    2.96
  -3  -2 -10    0.11    0.86
  -3  -2  10   29.51    3.92
   3  -2 -10   -1.14    2.52
   3   2 -10   28.21    4.57
  -3   2  10    1.12    0.81
   3   2  10   -0.18    0.54
   3   2 -10   16.04    1.89
   3   2  10    0.26    0.74
  -3   2  10   -0.50    1.54
  -3   2 -10    0.52    1.08
   3   2 -10   28.82    3.42
  -3   2 -10    0.41    1.20
  -3   2 -11   33.48    2.99
   3   2 -11   30.22    2.08
   3   2 -11   30.16    4.59
   3   2  11   26.32    3.86
  -3  -2 -11   30.01    2.41
   3  -2  11   20.42    3.23
  -3  -2  11   28.37    3.74
   3   2  11   30.66    2.35
  -3   2  11   30.79    2.65
  -3   2 -11   28.10    4.00
   3   2  11   31.54    2.14
   3  -2 -11   29.84    4.33
   3   2  11   32.48    3.25
   3   2 -11   30.12    3.09
  -3   2  11   26.14    3.02
  -3   2 -11   26.23    3.00
   3  -2  11   32.40    2.23
   3  -2  12   95.27    7.44
   3   2  12   91.63    3.89
  -3  -2  12   94.55    6.45
  -3   2 -12   89.18    7.09
   3  -2 -12  104.99    8.08
  -3   2 -12   85.80    5.02
  -3   2  12   91.52    4.31
   3   2 -12   93.09    7.48
   3   2 -12   94.41    3.97
  -3   2 -12   89.13    5.36
  -3   2  12   87.75    5.15
   3   2  12   93.71    5.42
   3   2 -12   97.42    5.48
   3   2  12   94.13    7.11
   3  -2  12   91.30    3.89
   3   2 -12   89.60    3.64
   3   2  12   97.86    4.25
   3   2 -13   53.70    2.80
   3   2 -13   50.42    4.00
  -3   2  13   50.13    3.08
   3  -2  13   43.53    5.37
  -3  -2  13   54.73    5.17
  -3  -2  13   54.02    3.18
  -3   2 -13   58.92    6.11
   3   2  13   54.48    3.37
  -3   2 -13   49.06    4.08
   3  -2 -13   64.78    6.60
   3   2 -13   52.66    6.05
  -3   2 -13   52.79    4.21
  -3   2  13   50.35    4.05
   3   2  13   50.31    3.98
   3   2  13   58.45    3.37
   3   2  13   53.40    4.98
   3  -2  13   54.76    3.16
   3   2  13   55.50    6.05
   3  -2  14   88.91    7.68
   3   2 -14   94.95    3.25
  -3   2 -14  104.74    5.69
  -3  -2  14   97.78    6.81
   3   2  14  104.37    5.69
  -3  -2  14  102.58    4.63
  -3   2 -14  107.63    8.15
   3  -2 -14  108.51    8.47
   3   2 -14  100.02    8.27
  -3   2  14   92.26    3.88
   3   2  14   99.89    6.75
  -3   2 -14  101.13    5.83
   3   2 -14  101.30    5.52
   3   2  14  102.16    4.67
  -3   2  14   97.84    5.53
   3  -2  14  104.68    4.56
   3   2  14   98.66    4.77
   3   2  14  103.07    8.04
   3   2  15   94.97    4.84
   3   2  15   93.74    4.80
  -3  -2  15   93.59    6.54
   3   2  15   95.51    5.34
   3   2  15   94.34    6.72
  -3   2 -15   93.88    5.38
  -3   2 -15   94.16    7.83
  -3  -2  15   94.34    4.74
  -3   2 -15   91.05    5.74
   3   2 -15   88.19    7.96
  -3   2  15   90.28    3.56
   3  -2 -15  108.40    8.89
   3  -2  15  105.18    8.66
  -3   2  15   97.78    5.33
   3   2 -15   97.09    5.28
   3  -2  15   98.77    4.63
   3   2  15   95.28    8.11
   3  -2  16  194.72   12.08
   3   2 -16  158.04    6.61
   3   2  16  167.19    6.63
   3   2 -16  183.28   11.45
  -3   2  16  165.20    6.80
   3   2  16  162.29    6.83
  -3  -2  16  170.57    8.88
  -3   2 -16  163.90    6.90
  -3   2 -16  166.27   10.59
   3   2  16  171.03    8.90
  -3   2 -16  166.54    7.99
   3  -2 -16  173.92   11.32
   3   2  16  171.09   11.01
  -3   2 -17   84.22    6.02
   3   2  17   85.63    5.00
   3  -2  17   88.29    8.68
  -3  -2 -17   88.34    5.22
  -3   2 -17   92.03    8.25
   3   2 -17   81.18    8.48
   3   2  17   86.88    6.60
   3  -2 -17  100.44    9.15
  -3   2 -17   81.97    4.80
   3   2  17   74.62    7.48
  -3   2  17   83.15    4.74
   3   2  17   91.31    8.42
   3  -2  18  116.94   10.12
  -3   2  18  121.65    5.48
  -3   2 -18  127.37    5.75
   3   2  18  132.87    6.40
  -3  -2 -18  129.88    6.70
   3   2 -18  124.12   10.15
   3   2  18  119.40    7.80
   3  -2 -18  136.47   10.58
  -3   2 -18  122.86    7.39
   3   2  18  123.79    9.95
   3   2  18  121.67    9.81
   3   2  19    1.28    2.52
   3   2  19   -7.33    3.81
  -3  -2 -19    0.55    1.27
   3  -2  19    7.86    4.57
   3   2 -19   -0.62    2.90
   3  -2 -19   -0.34    2.76
   3   2  19    0.00    1.64
  -3   2 -19    1.43    1.60
   3   2  20   36.61    6.33
   3  -2  20   46.65    7.41
   3   2  20   36.77    4.54
  -3   2 -20   39.78    4.64
   3   2 -20   31.81    5.94
   3  -2 -20   38.92    6.20
   3   2  20   33.10    5.51
   3   2  21   70.06    8.41
  -3   2 -21   68.97    6.11
   3   2  21   72.12    6.22
   3   2 -21   72.50    8.29
   3  -2 -21   59.32    7.63
   3   2  21   68.22    7.83
   3  -2  21   76.78    9.02
   3   2  22   16.84    4.92
   3  -2  22   21.11    5.35
   3  -2 -22   17.55    5.08
   3   2 -22   15.49    4.83
   3   2  22   20.47    4.69
   3   2  23    0.86    2.68
   3   2 -23   -3.37    3.43
   3   2  23    2.55    3.09
   3  -2  23    7.74    4.25
   3  -2 -23   -2.77    3.57
   3  -2 -24    1.04    3.01
   3   2  24   -1.46    3.17
   3  -2  24    2.24    3.62
   3   2 -24    1.33    2.81
   3   2  24    0.72    3.36
   3   2  25    9.43    3.72
   3   2  25    7.42    3.99
   3  -2  25    1.78    3.34
   3   2 -25   10.70    4.12
   3  -2 -25    2.13    2.87
  -3  -2  25    6.67    3.71
  -3  -2  26    1.34    2.73
   3   2  26    3.26    3.33
   3  -2  26    5.88    4.18
   3   2  26    1.62    2.83
   3  -2 -26    6.20    3.97
   3   2 -26    1.47    3.30
  -3  -2  27   32.44    6.66
   3   2  27   34.37    7.48
   3  -2  27   41.69    8.05
   3  -2 -27   28.93    6.27
   3   2  27   37.18    6.72
   3   2 -27   29.86    6.59
   3  -2 -28    1.47    3.23
  -3  -2  28    3.95    3.53
   3   2 -28    6.89    3.84
   3   2  28    3.86    2.94
   3   2  29    9.00    4.00
  -3  -3   0    0.54    1.04
   3   3   0    2.45    1.18
   3   3   0   -0.62    1.13
  -3   3   0    1.19    2.20
  -3   3   0    1.17    1.25
  -3   3   0    0.10    0.84
  -3   3   0   -0.16    1.18
  -3   3  -1   88.56    5.03
  -3   3   1   97.36    5.48
  -3   3   1   99.89    6.47
  -3   3  -1  105.25    6.49
   3   3   1   90.76    4.86
   3   3  -1   99.27    4.38
  -3   3   1  100.86    5.73
   3   3  -1  100.28    5.29
   3   3   1   92.39    4.60
  -3   3   1   99.53    5.00
   3   3   1   90.39    5.04
  -3  -3   1   99.84    5.60
  -3  -3  -1   90.29    5.04
   3   3   1   96.40    3.15
   3   3   2  909.67   10.92
   3   3  -2  889.21   16.11
  -3   3   2  916.83   17.24
  -3   3  -2  900.82   14.94
   3   3   2  912.90   15.86
  -3   3   2  901.01   18.10
  -3   3  -2  876.46   17.83
   3   3   2  878.58   13.30
   3   3   2  906.40   15.25
  -3  -3  -2  889.92   15.28
   3  -3   2  884.68   12.19
  -3   3   2  921.20   15.85
   3   3   3  162.14    6.32
   3   3  -3  160.92    7.30
   3   3   3  162.25    5.28
   3   3   3  165.02    5.61
  -3   3  -3  161.87    6.23
   3   3   3  175.40    7.35
  -3   3   3  169.16    8.06
  -3   3  -3  171.42    8.16
  -3  -3   3  172.09    7.40
   3  -3   3  165.59    4.87
  -3   3   3  169.53    7.19
  -3  -3  -3  166.74    6.42
   3   3  -4  531.00   13.50
   3  -3   4  543.19   11.01
  -3   3   4  519.69   13.92
  -3   3  -4  548.11   14.30
   3  -3   4  541.07    8.34
   3   3   4  531.19   11.13
  -3  -3  -4  538.97   11.26
   3   3   4  530.14   10.38
  -3   3  -4  526.69   10.82
  -3  -3   5 3393.92   36.29
  -3   3   5 3348.78   34.74
  -3   3  -5 3378.00   34.97
   3  -3  -5 3425.60   37.07
  -3   3  -5 3372.15   26.71
   3   3  -5 3466.19   35.67
   3   3   5 3373.01   27.54
   3  -3   5 3446.59   26.82
   3   3   5 3403.14   28.34
  -3  -3  -5 3491.98   28.07
   3  -3   6  898.64   13.46
   3  -3   6  885.93   19.45
  -3  -3   6  917.57   19.07
  -3   3   6  876.36   17.94
  -3   3  -6  849.36   17.46
   3  -3  -6  868.36   19.31
   3   3  -6  898.29   18.98
  -3  -3  -6  905.56   14.13
  -3   3  -6  867.41   13.30
   3   3   6  868.85   13.85
   3   3   6  877.94   15.65
   3  -3   7   84.85    4.14
  -3  -3  -7   79.50    4.26
   3  -3   7  102.65    7.35
  -3  -3   7   86.27    6.30
  -3   3   7   87.53    5.84
  -3   3  -7   85.71    5.74
   3   3   7   86.81    3.62
   3  -3  -7   83.64    6.61
   3   3  -7   90.03    6.46
  -3   3  -7   80.52    4.05
   3   3   7   83.36    4.31
   3   3   7   77.53    4.97
   3  -3   8  406.59    8.95
  -3  -3  -8  396.68    9.47
   3   3  -8  407.36   13.93
  -3  -3   8  402.53   12.99
  -3  -3  -8  398.33   10.29
   3   3   8  392.41    7.73
  -3   3   8  408.39   12.03
  -3   3  -8  402.20   12.14
  -3   3  -8  409.13    8.95
   3  -3  -8  407.69   14.15
   3  -3   8  405.96   13.85
  -3  -3  -8  406.97   11.58
   3   3   8  396.99    9.31
   3   3   8  396.78   11.89
   3  -3   9 1280.18   24.95
  -3  -3  -9 1279.28   16.95
  -3  -3  -9 1256.67   20.61
  -3  -3   9 1268.11   23.17
  -3  -3  -9 1225.07   17.67
   3   3   9 1270.53   14.15
   3  -3  -9 1297.41   25.39
  -3   3  -9 1254.58   21.32
  -3   3   9 1253.01   21.08
   3   3  -9 1268.28   25.07
  -3   3  -9 1217.63   15.77
   3   3   9 1248.76   16.86
   3   3   9 1238.53   21.86
   3  -3   9 1281.73   15.96
   3  -3  10  211.69   10.64
  -3   3 -10  207.65    8.62
   3   3  10  212.02    6.01
  -3   3  10  215.97    8.86
  -3  -3  10  212.39    9.68
  -3  -3 -10  207.45    7.11
   3   3 -10  209.77   10.82
   3  -3 -10  223.29   11.27
  -3  -3 -10  202.85    8.58
  -3   3 -10  209.64    8.05
   3   3  10  219.46    9.78
   3   3  10  211.80    7.08
   3  -3  10  211.19    6.62
   3   3  11   41.07    4.64
  -3   3  11   40.61    3.90
  -3  -3 -11   42.79    3.21
   3  -3  11   36.57    4.81
  -3  -3  11   38.76    4.49
   3  -3  11   44.35    3.10
   3   3  11   39.39    2.73
  -3   3 -11   40.77    4.00
   3  -3 -11   47.65    5.62
   3   3 -11   36.83    4.92
  -3   3 -11   46.73    4.02
  -3  -3 -11   42.28    4.11
   3   3  11   43.07    3.35
  -3   3 -11   44.91    5.12
   3  -3  12    0.44    0.75
   3   3  12    1.03    1.15
   3   3  12    0.11    2.26
   3  -3  12   -2.55    3.24
   3   3  12    0.50    0.82
  -3  -3 -12    1.26    1.12
  -3   3 -12   -0.75    2.58
   3   3 -12    1.38    2.82
  -3   3 -12    2.49    1.40
  -3   3  12    2.88    1.63
  -3   3 -12    2.65    1.68
  -3  -3  12    0.57    1.92
   3  -3 -12    4.43    3.60
   3  -3  13  498.67   17.76
  -3  -3 -13  499.77    9.93
  -3  -3  13  507.03   15.52
   3  -3 -13  499.09   17.89
  -3   3 -13  500.10   16.75
  -3   3 -13  482.16   13.19
  -3   3  13  502.18   13.40
   3   3  13  511.80   10.70
   3   3 -13  520.62   17.91
  -3   3 -13  517.67   13.88
   3   3  13  522.78   16.89
   3  -3  13  503.85   11.05
   3   3  13  487.43   11.61
   3  -3  14    1.76    1.03
   3   3  14    0.55    1.27
  -3   3  14   -0.86    1.61
   3   3  14    1.89    3.17
   3  -3  14   -2.72    3.40
  -3  -3 -14    1.10    0.85
  -3  -3  14   -0.19    2.10
  -3   3 -14   -0.61    2.34
   3   3  14    0.74    1.03
   3   3 -14   -3.62    2.74
   3  -3 -14    4.54    4.11
  -3   3 -14   -1.14    1.83
   3   3  14   -0.27    2.88
  -3   3 -14   -0.10    1.18
   3   3  15  366.64   10.67
  -3   3  15  362.69   11.21
   3   3  15  348.31   14.83
  -3  -3  15  362.67   13.54
  -3   3 -15  375.05   12.46
   3  -3  15  373.32   16.25
  -3   3 -15  376.08   15.22
  -3   3 -15  379.42   11.56
   3  -3 -15  386.33   16.28
   3   3 -15  368.77   16.16
   3   3  15  357.63   15.74
   3   3  16   -0.64    3.01
   3  -3 -16   10.68    4.93
   3   3  16    5.71    3.86
   3   3  16    3.21    1.83
   3  -3  16    2.01    3.01
  -3  -3  16    3.60    2.47
   3   3 -16    7.09    4.24
  -3   3 -16    0.68    1.84
  -3   3 -16    5.78    3.00
   3   3 -16    2.47    0.72
  -3   3  16    3.39    1.74
  -3   3 -16    2.85    1.54
   3  -3  17  468.13   19.00
   3   3  17  449.03   12.37
   3   3 -17  474.09   19.13
  -3  -3  17  460.13   15.36
  -3   3 -17  448.30   17.42
   3   3  17  442.85   18.25
   3   3  17  448.45   15.21
  -3   3 -17  449.88   14.44
  -3   3 -17  457.94   12.29
  -3   3  17  443.28   11.89
   3  -3 -17  469.33   19.10
   3   3  17  423.19   17.58
   3  -3  18  144.54   11.09
   3   3  18  155.72    7.60
   3  -3 -18  155.24   11.51
  -3  -3  18  143.08    8.89
  -3   3 -18  156.96   10.64
   3   3 -18  146.38   11.25
  -3   3 -18  147.49    6.85
  -3   3  18  151.80    6.78
   3   3  18  146.34    8.97
  -3   3 -18  148.92    8.64
   3   3  18  149.50   11.08
   3   3  18  143.78   11.07
   3  -3  19  164.50   11.93
   3   3  19  175.77   12.24
  -3  -3  19  178.85    9.88
  -3   3 -19  164.07   11.13
   3  -3 -19  199.15   12.99
  -3   3 -19  164.37    9.31
   3   3 -19  186.50   12.85
   3   3  19  172.42    9.58
   3   3  19  175.18   12.25
   3   3  20   20.63    4.96
   3  -3  20   11.48    4.26
   3  -3 -20   16.22    4.94
   3   3 -20   15.59    4.59
   3   3  20    8.28    2.94
  -3   3 -20   13.69    3.32
  -3  -3  20    9.29    3.18
   3   3  20   12.71    4.14
   3   3  21   67.63    8.32
   3  -3  21   71.04    8.50
   3  -3 -21   73.14    8.58
   3   3  21   71.01    8.29
   3   3 -21   79.29    8.91
   3   3  21   73.05    6.45
  -3   3 -21   80.44    6.92
  -3  -3  21   67.45    7.46
   3   3  22   31.26    6.15
  -3  -3  22   24.04    5.02
   3   3  22   32.39    6.41
   3  -3 -22   26.23    5.58
   3  -3  22   25.79    5.85
  -3   3 -22   32.32    4.77
   3   3 -22   27.05    5.89
   3  -3  23  140.19   12.05
   3  -3 -23  149.60   12.83
   3   3 -23  142.10   12.30
   3   3  23  138.27   12.15
   3   3  23  147.53   12.19
  -3  -3  23  169.88   12.52
  -3  -3  24    2.09    2.74
   3   3  24    9.07    4.46
   3   3  24    8.43    4.32
   3  -3  24    4.52    3.27
   3  -3 -24    2.36    3.19
   3   3 -24    0.40    3.16
   3  -3  25    8.79    3.59
   3   3  25   16.32    5.03
   3   3  25   13.30    4.36
   3   3 -25   14.54    4.64
  -3  -3  25    6.16    2.87
   3  -3 -25   11.12    4.46
  -3  -3  26   44.04    7.25
   3   3  26   63.50    9.41
   3   3 -26   37.38    7.06
   3  -3  26   46.55    8.03
   3   3  26   49.63    7.94
   3  -3 -26   51.00    8.29
  -3  -3  27   76.75    9.58
   3   3  27   91.04   11.13
   3  -3  27   82.60   10.60
   3   3 -27   78.94   10.10
   3   3  27   74.94    9.65
   3  -3 -27   80.50   10.28
  -3  -3  28   22.71    5.73
   3   3 -28   30.46    6.76
   3   3  28   15.26    5.34
   3  -3 -28   26.48    6.45
  -3  -3  29   11.68    4.88
   3   3  29   12.24    4.78
  -3   4   0    1.53    1.71
   3   4   0   -0.78    1.48
   3   4   0    1.23    1.00
   3  -4   0   -0.51    1.23
   3   4   0   -0.77    1.49
   3   4   1  346.10    5.17
   3   4  -1  352.11   11.47
  -3   4   1  357.64   11.39
   3  -4   1  362.28    9.56
   3   4   1  371.44   10.12
   3   4  -1  364.45    8.79
  -3   4  -1  367.78   10.96
   3   4  -1  367.01   10.84
   3  -4  -1  370.24   10.58
   3   4   1  364.22   10.19
   3   4   1  362.72   11.07
  -3   4  -2    2.16    1.42
   3   4   2    2.21    0.89
  -3   4   2    0.05    1.82
   3  -4   2    0.80    1.01
  -3   4  -2    5.00    2.63
   3   4   2    1.45    1.14
   3   4  -2    0.13    0.72
   3   4  -2   -1.30    1.83
  -3   4   2    2.18    1.12
   3  -4   2    1.41    0.92
   3   4   2    2.99    1.61
   3  -4   3   71.62    4.75
  -3   4   3   80.01    6.13
  -3   4  -3   69.74    4.75
  -3   4   3   66.45    5.49
  -3   4  -3   75.24    6.20
   3   4  -3   75.27    3.37
   3   4  -3   69.72    5.18
   3  -4   3   73.68    4.07
   3   4   3   73.10    4.97
  -3  -4  -3   67.71    4.78
   3   4   3   76.34    3.50
   3   4  -4 1173.07   21.44
   3  -4   4 1216.61   18.78
   3   4   4 1182.89   15.24
  -3   4   4 1186.67   22.32
  -3   4  -4 1203.09   22.23
  -3   4   4 1178.82   22.08
   3  -4   4 1194.53   15.60
   3   4   4 1192.90   19.03
  -3   4  -4 1186.90   18.71
  -3  -4  -4 1176.90   19.23
  -3  -4  -5   36.00    3.35
   3  -4   5   34.99    3.29
  -3   4   5   34.80    4.47
  -3  -4   5   31.95    1.75
   3   4  -5   32.31    2.29
  -3   4  -5   32.74    4.36
   3   4   5   35.17    3.49
  -3   4  -5   32.92    3.35
   3   4  -5   43.97    4.77
   3   4   5   33.96    3.05
  -3   4   5   33.34    4.32
   3   4  -6  199.55    4.92
   3  -4   6  219.98    7.90
  -3   4   6  203.34   10.02
  -3  -4  -6  223.19    8.20
  -3   4   6  212.97    9.43
  -3   4  -6  214.06    9.50
  -3  -4   6  207.69    5.26
   3   4  -6  214.10    9.81
   3   4   6  213.51    7.67
   3   4   6  222.22    8.11
  -3   4  -6  207.46    7.70
   3  -4   7  136.71    6.14
  -3  -4  -7  130.53    6.33
   3   4  -7  118.35    3.09
  -3   4  -7  128.12    6.01
  -3   4   7  137.91    7.64
  -3   4  -7  124.88    7.45
   3   4   7  134.06    6.53
  -3  -4   7  125.33    4.68
   3   4  -7  125.65    7.90
   3   4   7  129.40    6.35
  -3  -4  -8   66.57    4.57
  -3  -4  -8   69.10    5.48
   3   4  -8   71.83    6.46
   3  -4  -8   70.37    6.53
   3  -4   8   72.46    6.86
  -3   4   8   74.57    6.00
  -3   4  -8   88.83    6.19
   3   4   8   69.70    4.01
   3   4   8   70.05    5.22
   3  -4   8   67.83    4.43
  -3   4  -8   58.35    4.15
   3   4   8   67.71    4.55
  -3  -4   8   65.88    3.87
   3  -4   9  847.18   15.33
  -3  -4  -9  830.38   16.05
   3   4   9  846.74   21.24
   3  -4  -9  863.25   21.56
  -3   4   9  821.27   18.42
  -3   4  -9  844.73   18.66
   3  -4   9  801.61   20.79
   3   4   9  839.37   14.01
   3   4  -9  830.16   21.27
  -3  -4   9  812.53   14.26
  -3  -4  -9  832.17   18.60
  -3   4  -9  820.89   15.14
   3   4   9  841.44   15.88
   3   4  10    2.42    1.41
  -3  -4  10    2.90    1.53
   3  -4  10    2.29    1.29
   3   4  10    1.08    0.89
  -3  -4 -10    2.03    1.05
  -3   4 -10    0.41    1.68
   3  -4  10    8.08    3.75
  -3  -4  10    4.33    2.76
  -3   4  10    1.64    1.46
   3   4  10    2.31    2.98
   3  -4 -10    2.47    2.85
   3   4 -10    4.38    2.84
  -3   4 -10    3.36    1.39
  -3  -4 -10    0.43    1.74
   3   4  11    2.29    1.63
   3  -4  11    0.76    0.98
  -3  -4  11   -3.72    1.83
   3  -4  11    2.53    3.27
  -3   4 -11    1.20    1.46
   3   4  11    1.32    0.98
  -3  -4  11   -0.01    2.16
   3  -4 -11    0.41    2.33
  -3   4 -11    1.11    1.54
  -3   4  11    3.08    1.96
  -3  -4 -11    0.74    1.72
   3   4  11   -7.63    3.89
   3   4 -11    0.99    2.52
   3   4  12   15.52    2.63
   3  -4  12   17.78    2.42
   3   4  12   15.58    2.96
  -3  -4  12   10.85    2.32
  -3  -4 -12   16.82    3.26
   3  -4  12   22.72    4.43
  -3  -4  12   17.37    3.32
   3  -4 -12   14.97    3.75
  -3   4  12   17.06    3.11
  -3   4 -12   16.56    2.97
   3   4 -12   19.47    4.03
   3   4  12   19.36    2.32
   3   4  12   15.36    3.60
  -3   4 -12   19.77    3.03
   3  -4  13   10.82    1.94
   3   4  13   12.06    2.31
  -3  -4  13    6.79    2.07
   3   4  13    9.87    1.79
   3  -4  13   10.83    3.45
  -3  -4  13    9.42    2.68
  -3  -4 -13    8.88    1.78
   3  -4 -13    5.82    2.88
  -3   4 -13   14.23    3.59
   3   4  13    3.19    2.90
  -3   4 -13   10.06    2.47
  -3   4  13    8.11    2.08
  -3   4 -13   11.48    2.46
   3   4 -13    7.08    3.15
  -3  -4 -13    7.59    1.98
   3   4  13    4.10    2.48
  -3   4 -14    3.36    1.83
   3  -4  14    1.31    0.95
   3   4  14    2.29    1.27
  -3  -4  14    0.94    2.26
   3   4 -14    5.16    3.57
   3  -4  14    0.61    3.14
  -3  -4  14    0.71    1.79
  -3  -4 -14    3.67    1.34
   3  -4 -14    2.70    2.63
  -3   4 -14    3.76    2.67
  -3   4  14    2.06    1.74
   3   4  14    1.94    0.97
   3   4  14   -4.35    3.58
  -3   4 -14    1.61    1.56
   3   4  14    1.47    2.21
   3   4  15    0.71    1.29
  -3  -4  15   -2.01    2.71
   3  -4  15   -3.12    3.95
  -3  -4 -15    2.41    1.08
  -3  -4  15    2.48    2.08
   3  -4 -15   -1.52    2.63
  -3   4 -15    0.07    1.62
   3   4 -15    0.21    2.75
  -3   4 -15   -2.15    2.34
  -3   4  15    1.96    1.46
  -3   4 -15   -1.06    1.56
   3   4  15   -3.11    3.55
   3   4  15   -2.43    3.07
   3   4  16   35.30    3.93
   3   4  16   30.98    4.98
  -3  -4 -16   36.19    2.73
   3  -4  16   27.55    4.98
   3  -4 -16   19.65    5.19
  -3  -4  16   32.36    4.62
  -3   4 -16   39.57    4.21
  -3   4 -16   41.19    5.68
  -3  -4  16   31.55    4.32
   3   4 -16   30.06    5.41
  -3   4 -16   30.39    4.15
  -3   4  16   33.80    3.86
   3   4  16   38.55    5.92
   3   4  17   12.24    2.45
   3   4  17    1.23    2.98
  -3  -4  17   12.70    3.34
  -3   4 -17   13.82    3.64
   3  -4  17   13.36    3.51
  -3  -4  17   16.06    3.30
   3  -4 -17   13.10    3.84
   3   4 -17   14.76    3.85
  -3   4  17   15.02    2.67
  -3   4 -17   13.16    3.01
  -3   4 -17   14.89    2.63
   3   4  17    6.12    3.02
   3   4  18    0.20    1.72
   3   4  18   -2.97    3.37
  -3  -4  18   -1.95    2.71
  -3  -4  18    0.55    1.63
  -3   4 -18    0.10    1.36
   3  -4 -18   -0.60    3.59
   3   4 -18   -3.63    3.76
  -3   4 -18   -2.27    2.13
  -3   4 -18   -4.25    3.39
   3   4  18   -1.83    3.59
   3  -4  18   -8.38    4.47
  -3   4  18   -0.70    1.61
   3   4  19    7.99    3.39
   3   4  19    1.31    2.85
   3   4  19    7.54    2.34
  -3  -4  19    4.44    2.25
   3  -4  19   -3.37    4.12
  -3  -4  19    9.52    2.92
   3   4 -19    0.49    3.07
  -3   4 -19    8.22    2.98
   3  -4 -19    8.24    3.37
  -3   4 -19    7.04    2.18
   3   4  20   58.72    7.19
   3   4  20   67.44    8.42
  -3  -4  20   64.08    6.95
  -3  -4  20   72.48    6.71
  -3   4 -20   60.00    6.97
   3   4  20   69.60    6.49
   3   4 -20   77.84    8.67
  -3   4 -20   64.51    6.42
   3  -4  20   67.11    8.54
   3  -4 -20   76.32    8.60
   3   4  21    9.29    3.65
  -3  -4  21   17.80    3.91
   3  -4 -21   13.51    4.24
   3   4  21   18.65    4.95
   3  -4  21   14.04    4.80
  -3  -4  21   21.22    3.86
   3   4 -21   16.38    4.58
   3   4  21   20.22    3.79
  -3   4 -21   22.56    4.26
   3   4  22   -8.01    4.62
  -3  -4  22   -0.87    2.73
   3   4  22   -6.92    4.28
   3  -4  22   -7.83    5.06
   3  -4 -22   -0.17    2.82
   3   4 -22   -2.24    3.76
  -3   4 -22    0.82    1.96
   3   4  23    0.15    3.30
  -3  -4  23    3.16    2.73
   3   4  23    7.71    4.03
   3   4 -23    8.45    4.09
   3  -4 -23    6.15    3.31
   3  -4  23    9.22    4.59
   3   4  24   -5.03    3.78
  -3  -4  24   -4.98    3.50
   3   4 -24    3.67    3.49
   3  -4  24   -2.69    3.89
   3  -4 -24    0.38    3.47
   3   4  24    0.60    2.79
   3   4  25    0.03    2.77
   3  -4  25   -2.53    4.56
   3   4 -25    2.33    3.15
   3   4  25   -1.27    3.14
  -3  -4  25    0.10    3.03
   3  -4 -25   -2.49    3.70
   3   4  26   12.48    4.57
  -3  -4  26   16.16    4.27
   3  -4  26    0.57    4.38
   3   4  26   10.22    4.47
   3   4 -26   16.67    5.02
   3  -4 -26   10.41    4.55
  -3  -4  27    7.23    3.99
   3   4  27   -2.64    3.95
   3   4 -27   -0.39    2.92
   3  -4 -27    1.99    3.47
  -3  -4  28   10.24    4.21
   3   4  28    3.48    3.91
   3  -4 -28    5.59    3.81
  -3  -4  29    6.97    3.32
  -3   5   0   -1.92    2.20
   3  -5   0    0.75    1.36
   3   5   0    0.06    0.91
   3   5   0   -0.68    1.65
   3   5   0    1.62    1.76
  -3   5  -1  379.93   12.28
   3   5  -1  370.68   10.69
  -3   5   1  380.54   12.84
   3   5  -1  383.10    9.75
   3   5  -1  366.11   12.61
   3   5   1  362.59   11.56
   3  -5   1  374.33   11.00
   3   5  -1  385.44   12.26
   3  -5  -1  370.34   11.66
   3   5   1  379.09   12.43
   3   5   1  344.59    5.07
   3   5  -2  646.91   13.26
  -3   5  -2  661.26   15.93
   3   5  -2  661.19   17.17
   3   5  -2  663.90   12.06
   3  -5   2  656.68   14.15
   3   5  -2  673.16   16.51
   3  -5  -2  669.22   16.03
   3   5   2  660.55   16.17
  -3   5   2  655.93   17.17
   3   5   2  652.59    8.89
   3   5   2  648.94   15.89
   3   5   3   30.55    4.32
  -3   5  -3   27.71    3.52
   3   5  -3   23.98    2.67
  -3   5   3   29.89    4.65
   3   5  -3   24.65    2.21
   3   5   3   25.96    2.14
   3  -5   3   23.94    2.93
   3   5  -3   32.82    4.58
   3   5  -3   31.48    4.91
   3  -5  -3   23.07    3.39
   3   5   3   23.36    3.43
  -3   5  -4   17.79    2.97
  -3   5   4   21.50    3.63
   3   5  -4   15.95    2.13
   3   5  -4   16.45    1.73
   3   5   4   20.21    3.70
   3   5  -4   17.82    3.11
   3   5   4   19.67    3.16
  -3   5   5  394.85   14.19
   3   5  -5  383.57    8.40
   3   5  -5  371.20    6.40
   3   5   5  399.30   12.21
   3   5  -5  383.39   13.58
  -3   5  -5  384.21   11.91
   3   5   5  382.89   13.54
  -3  -5   6  293.33    5.73
   3   5  -6  319.22   12.70
  -3   5   6  324.29   13.08
   3   5  -6  322.81    6.87
   3   5   6  312.42   10.79
  -3   5  -6  317.95   10.72
   3   5   6  318.10   12.69
  -3  -5   7  140.92    4.66
   3   5   7  153.01    7.67
  -3   5   7  148.89    9.23
   3   5  -7  154.98    9.20
  -3   5  -7  152.56    7.43
   3   5  -7  144.52    3.88
   3   5   7  151.53    9.07
   3   5   8  365.62   14.44
  -3   5   8  390.69   15.05
   3   5  -8  410.45   15.19
  -3   5  -8  393.66   11.94
   3   5   8  402.42   12.27
  -3  -5   8  388.73    8.68
   3   5   9    1.51    1.55
  -3   5  -9   -0.30    1.81
  -3  -5   9    0.92    1.14
  -3   5   9    1.01    2.36
   3   5   9    2.34    1.40
   3   5  -9   -1.32    2.80
   3   5   9   -0.49    2.65
  -3   5   9    2.21    2.47
  -3  -5  -9    1.63    1.62
  -3   5  -9    0.36    1.51
   3   5  10   20.20    3.09
  -3  -5  10   21.05    2.74
  -3   5  10   20.08    4.16
   3  -5  10   25.25    5.14
   3   5  10   20.82    2.63
  -3   5  10   17.43    3.49
  -3  -5 -10   17.91    3.46
  -3   5 -10   20.48    3.58
   3   5  10   23.17    4.65
   3   5 -10   19.91    4.08
  -3   5 -10   16.45    2.55
   3  -5  11  591.98   19.27
  -3   5  11  556.58   19.32
  -3  -5 -11  562.81   17.33
  -3   5  11  560.49   16.38
  -3   5 -11  554.06   16.43
   3   5 -11  577.66   19.59
   3   5  11  581.68   13.80
   3   5  11  583.03   19.57
  -3   5 -11  568.84   14.51
   3   5  11  588.26   15.32
  -3  -5  11  562.62   13.42
  -3   5  12   27.50    5.14
  -3   5 -12   27.65    4.08
   3  -5  12   41.39    6.28
   3   5  12   36.70    4.10
  -3   5  12   38.72    4.52
  -3   5 -12   34.95    4.41
   3   5  12   40.02    3.72
   3   5 -12   35.17    5.84
  -3  -5 -12   34.88    4.77
  -3  -5  12   34.10    4.01
   3   5  12   32.86    5.77
  -3   5  13   41.28    5.65
   3  -5  13   50.17    6.51
  -3  -5  13   46.16    5.52
   3  -5 -13   51.01    6.59
  -3   5  13   51.24    5.04
  -3   5 -13   49.92    5.06
  -3   5 -13   50.43    5.36
   3   5  13   53.00    6.78
   3   5 -13   46.61    6.09
   3   5  13   44.27    4.46
  -3  -5  13   45.19    4.51
  -3  -5 -13   49.02    5.43
   3   5  14   16.71    3.13
  -3  -5  14   14.93    3.17
  -3   5 -14   17.76    3.38
  -3   5  14    9.55    3.38
   3  -5  14   22.65    5.07
  -3  -5  14   18.10    3.95
   3   5  14   17.97    4.20
  -3   5 -14   18.63    4.14
  -3   5  14   18.54    3.34
   3  -5 -14   13.93    4.21
   3   5 -14   26.10    5.06
  -3   5 -14   16.39    3.39
  -3  -5 -14   18.12    3.95
   3   5  15   69.71    7.78
  -3  -5  15   67.14    6.77
   3  -5  15   77.81    8.33
   3   5 -15   71.17    7.95
  -3   5 -15   68.72    6.41
  -3   5 -15   68.38    6.97
  -3   5  15   69.13    5.89
  -3   5 -15   68.46    5.85
   3  -5 -15   73.46    7.99
  -3  -5  15   62.88    5.77
   3   5  15   70.29    5.86
   3  -5  16  400.75   17.93
   3   5  16  413.09   18.47
  -3   5 -16  354.39   14.43
   3   5 -16  380.26   17.77
  -3  -5  16  399.19   15.66
  -3  -5 -16  390.09   10.51
   3  -5 -16  393.76   18.13
  -3   5 -16  397.61   16.57
  -3   5  16  376.84   13.27
  -3   5 -16  376.29   13.51
  -3  -5  16  386.99   14.50
   3   5  16  402.30   13.69
   3   5  17  182.17   12.71
  -3   5 -17  166.76    8.88
  -3  -5  17  167.03   10.33
   3   5  17  159.11    8.84
  -3   5 -17  166.41   11.06
   3  -5 -17  181.05   12.52
  -3   5  17  167.67    8.84
  -3  -5  17  161.44    9.88
   3   5 -17  172.75   12.42
  -3   5 -17  161.31    9.98
   3  -5  17  168.40   11.98
   3   5  18   24.89    3.68
  -3  -5  18   21.98    4.27
   3   5  18   19.64    4.99
   3  -5  18   19.62    4.92
   3  -5 -18   27.03    5.93
  -3  -5  18   27.07    4.51
  -3   5 -18   21.12    4.67
  -3   5 -18   20.07    3.69
   3   5 -18   23.70    5.72
  -3   5 -18   25.32    3.62
   3   5  18   20.46    4.71
   3   5  19   30.66    4.20
  -3  -5  19   31.42    4.98
   3  -5 -19   29.02    5.72
   3   5  19   32.61    6.16
   3  -5  19   27.78    5.59
  -3   5 -19   34.02    5.04
  -3  -5  19   29.93    4.78
  -3   5 -19   27.86    4.87
   3   5 -19   29.93    5.70
   3   5  19   20.65    4.60
   3   5  20   93.18    9.80
   3  -5 -20   99.15    9.95
  -3  -5  20   99.00    8.16
   3   5  20   88.07    9.28
   3  -5  20   89.07    9.60
  -3   5 -20   89.79    8.49
  -3   5 -20   98.50    8.27
   3   5 -20   90.26    9.60
  -3  -5  20   75.88    7.54
   3  -5  21  126.17   11.55
   3   5  21  137.87   12.20
  -3  -5  21  125.75    9.37
  -3   5 -21  125.76   10.33
   3  -5 -21  141.43   12.24
  -3   5 -21  143.09   10.18
   3   5  21  123.82   10.91
  -3  -5  21  134.41   10.26
   3   5 -21  149.16   12.68
   3  -5  22  106.20   11.05
   3   5  22  106.70   10.93
  -3   5 -22  103.38    8.87
  -3   5  22   90.53   10.09
   3  -5 -22  110.62   11.10
   3   5 -22  109.35   11.18
   3   5  22   93.40   10.22
  -3  -5  22   98.58    9.32
   3   5  23    8.86    4.93
  -3  -5  23    6.15    3.26
  -3   5  23    4.35    4.50
   3  -5  23    7.43    4.89
   3  -5 -23    9.47    4.98
   3   5  23    5.12    4.56
   3   5 -23    6.53    4.42
   3  -5  24  290.12   18.73
   3   5 -24  297.31   18.70
  -3   5  24  302.01   18.52
   3   5  24  311.49   19.03
   3  -5 -24  324.21   19.08
  -3  -5  24  289.33   16.39
   3   5  24  313.16   18.85
   3   5  25    9.96    4.24
   3  -5 -25   13.01    5.58
  -3  -5  25   11.61    4.12
  -3   5  25   10.63    4.84
   3   5 -25    7.40    4.54
   3  -5  25    8.54    5.10
   3   5  25    7.02    3.61
   3   5  26   78.92   10.16
  -3   5  26   82.00   10.09
   3  -5  26   84.12   10.77
   3  -5 -26   79.14   10.14
   3   5  26   67.49    9.48
   3   5 -26   87.58   10.96
  -3  -5  26   88.48    9.72
  -3   5  27   36.75    7.20
   3  -5 -27   48.21    8.24
   3   5  27   33.81    6.89
  -3   6   0   -1.53    1.99
   3   6   0    0.59    1.78
   3  -6   0   -1.50    1.88
   3   6   0    0.28    2.19
  -3   6  -1   13.47    3.10
   3   6   1   10.81    2.75
   3   6  -1   13.34    3.47
  -3   6   1   10.75    2.99
   3   6  -1   11.37    2.59
   3  -6   1   11.36    2.82
   3  -6  -1   10.15    2.67
   3   6   1    9.53    2.79
   3   6  -2  457.94   15.56
  -3   6   2  458.80   15.47
   3   6   2  456.29   14.15
   3   6  -2  467.45   12.28
   3  -6   2  464.63   13.26
   3  -6  -2  467.86   14.50
   3   6  -2  467.71   14.99
   3   6   2  452.69   14.68
  -3   6  -2  474.58   15.02
  -3   6   3   52.16    5.65
   3   6   3   49.79    5.12
   3  -6  -3   48.33    5.10
   3   6  -3   45.84    3.77
   3   6  -3   40.48    4.84
   3   6   3   49.54    5.18
   3   6  -3   40.45    5.06
  -3   6  -3   48.81    5.00
   3   6   4   53.98    5.53
  -3   6   4   46.14    5.34
   3   6  -4   46.52    3.66
   3   6   4   51.81    5.10
   3   6  -4   51.39    5.50
   3   6  -4   44.59    5.16
   3  -6  -4   43.22    4.85
  -3   6  -4   47.79    4.83
   3   6   5   58.09    5.94
  -3   6   5   57.98    6.08
   3   6   5   52.68    5.11
   3   6  -5   51.38    2.89
   3   6  -5   50.35    3.58
   3   6  -5   46.80    5.39
   3  -6  -5   47.23    5.20
  -3   6  -5   58.31    5.20
   3   6   6  124.65    8.45
  -3   6   6  122.26    8.75
   3   6  -6  125.19    3.83
   3   6   6  128.26    7.73
   3   6  -6  127.85    5.04
   3   6  -6  136.59    8.91
  -3   6  -6  124.28    7.45
   3   6   7    1.45    2.76
  -3   6   7    1.25    2.41
   3   6  -7   -2.36    2.53
  -3   6  -7    0.47    1.74
   3   6   7    1.49    1.72
  -3  -6   8   69.91    3.72
   3   6   8   64.90    6.65
  -3   6   8   60.88    6.46
   3   6  -8   75.05    6.89
  -3   6  -8   69.28    5.75
   3   6   8   64.96    5.62
   3   6   9   22.87    4.63
  -3   6   9   15.30    3.45
  -3  -6   9   20.11    2.29
   3   6  -9   19.65    3.89
   3   6   9   22.90    3.47
  -3  -6  -9   23.36    4.22
  -3   6  -9   19.46    3.48
   3   6  10    9.39    2.54
   3   6  10   13.75    4.08
  -3   6  10   14.13    4.00
  -3  -6  10    8.22    1.60
  -3   6 -10   11.58    2.70
   3   6 -10    7.67    2.54
  -3  -6 -10   11.00    3.07
   3   6  11   11.32    2.92
   3   6 -11    7.24    2.70
   3   6  11   12.22    3.81
  -3   6  11   13.45    3.42
  -3  -6  11   10.31    1.91
  -3  -6 -11   12.62    3.02
  -3   6 -11   13.52    2.95
   3   6 -12   10.34    4.39
   3   6  12    0.51    3.47
  -3   6  12   -5.09    3.84
  -3  -6  12   -2.29    2.05
   3  -6  12    7.72    4.84
  -3   6  12    2.08    2.44
  -3   6 -12   -0.65    2.00
  -3   6 -12    1.13    1.62
  -3  -6 -12    1.54    2.28
   3   6  12   -0.09    1.72
   3  -6  13   65.78    7.86
   3   6  13   64.35    7.52
  -3   6  13   55.76    6.62
  -3   6  13   52.45    5.59
  -3   6 -13   54.27    5.73
  -3  -6  13   61.33    5.19
  -3  -6 -13   52.09    6.07
  -3   6 -13   51.61    5.78
   3   6 -13   62.36    7.42
   3   6  13   60.09    5.68
   3  -6  14   95.25    9.11
  -3   6  14   92.73    9.04
   3   6  14   84.17    8.58
  -3   6  14   92.35    7.34
  -3   6 -14   88.46    7.21
  -3   6 -14   87.72    7.36
   3   6 -14   99.82    9.40
  -3  -6 -14   98.36    8.45
   3   6  14   89.01    6.94
  -3  -6  14  100.99    6.83
   3   6  15   15.01    3.33
  -3   6 -15   18.09    4.48
  -3  -6  15   12.48    3.22
  -3   6  15    6.19    3.36
   3   6  15   13.92    4.22
   3  -6  15   13.72    4.76
  -3   6  15   12.23    3.31
  -3   6 -15    8.19    2.54
   3   6 -15    6.80    3.60
  -3   6 -15   11.74    3.24
  -3  -6 -15    6.73    3.04
   3   6  16    0.43    1.71
  -3  -6  16   -1.70    2.20
  -3   6  16   -2.18    3.49
   3   6  16    1.68    3.21
   3  -6  16    3.78    3.60
  -3  -6  16   -0.36    2.61
  -3   6 -16   -0.78    2.14
  -3   6 -16    4.43    3.27
  -3   6 -16   -0.20    1.79
   3   6 -16    0.00    2.85
  -3   6  16    0.27    1.90
   3   6  17   16.64    3.47
   3   6 -17   16.61    4.63
  -3  -6  17   17.51    3.82
  -3   6  17   11.55    3.80
   3  -6  17   22.22    5.29
   3   6  17   10.65    4.02
  -3  -6  17   16.97    3.88
  -3   6 -17   13.07    3.78
  -3   6 -17   14.24    2.94
  -3   6  17   13.71    3.00
  -3   6 -17   13.10    3.61
   3   6  18   13.30    3.28
  -3  -6  18   11.55    3.49
  -3   6  18    9.25    3.37
   3  -6  18    6.92    3.83
  -3  -6  18   10.52    3.42
   3   6  18   11.04    4.18
  -3   6 -18   16.56    3.11
  -3   6 -18   13.06    3.96
  -3   6 -18    8.49    2.64
   3   6 -18   14.09    4.55
   3   6  19   10.74    3.09
  -3  -6  19   13.08    3.67
  -3   6  19    9.77    3.61
   3   6 -19    4.57    3.34
   3  -6  19    5.72    4.25
  -3  -6  19    8.64    2.82
   3   6  19   12.51    4.41
  -3   6 -19    7.48    3.26
  -3   6 -19   10.09    2.98
  -3  -6  20   21.34    4.57
  -3   6  20   17.60    4.45
   3  -6  20   25.29    5.88
  -3  -6  20   26.20    4.73
   3   6  20   19.79    5.32
  -3   6 -20   13.52    3.73
   3   6 -20   14.95    4.85
  -3   6 -20   22.17    4.45
   3   6  20   17.80    4.64
  -3   6  21   -2.23    3.39
   3  -6  21    4.79    3.98
  -3  -6  21    0.28    2.02
  -3   6 -21    0.12    2.46
   3   6  21   -5.07    4.30
   3   6  21   -1.48    3.27
   3   6 -21    4.93    3.52
  -3   6 -21    2.22    2.59
  -3  -6  21    2.06    2.77
   3   6  22   -3.17    3.79
  -3  -6  22    2.88    2.99
  -3   6  22   -0.97    2.70
   3  -6  22    3.58    3.80
  -3   6 -22   -0.19    2.90
   3   6  22   -4.18    4.64
   3   6 -22   -3.73    3.64
  -3   6 -22    0.72    2.13
   3   6  23    1.57    2.97
  -3   6  23    0.53    3.10
   3  -6  23    6.60    3.96
   3   6 -23   -0.02    3.33
   3   6  23   -4.35    4.92
   3   6  24    8.11    4.28
  -3   6  24    9.68    3.76
   3  -6  24    9.51    4.43
   3   6 -24    7.53    3.88
   3   6  24    4.82    3.92
   3   6  25    3.35    3.25
  -3   6  25   -4.54    3.94
   3  -6  25   -3.42    3.86
   3   6  25    0.19    4.37
   3   6 -25   -4.70    4.83
   3   6  26    2.39    4.24
  -3   6  26   -3.28    4.09
   3   7   0   -0.01    0.42
  -3   7   0   -0.19    2.43
   3   7   0   -0.87    2.32
   3  -7   0   -0.19    1.79
   3   7   0   -0.05    2.15
  -3   7   1  588.13   18.42
   3   7   1  578.12   16.35
   3   7  -1  564.19   15.15
   3   7  -1  589.86   18.46
   3  -7  -1  580.75   17.27
   3  -7   1  600.05   16.78
   3   7   1  589.57   18.19
  -3   7  -1  630.42   18.67
   3   7  -2   32.06    3.85
  -3   7   2   31.45    4.84
   3  -7  -2   37.19    4.76
   3   7   2   36.79    4.66
  -3   7  -2   34.27    4.78
   3  -7   2   34.28    4.35
   3   7  -2   36.08    5.09
   3   7   2   34.96    4.90
  -3   7   3  782.85   22.06
   3   7   3  794.38   20.32
   3   7  -3  775.61   16.43
   3  -7  -3  797.85   20.76
   3   7  -3  813.62   21.51
   3   7  -3  830.95   22.45
   3   7   3  772.14   20.64
  -3   7  -3  768.47   20.47
  -3   7   4 1106.71   26.53
   3   7   4 1165.75   25.30
   3   7  -4 1128.90   18.81
   3   7  -4 1144.80   26.89
   3   7  -4 1163.99   26.15
   3  -7  -4 1130.59   25.43
   3   7   4 1153.23   25.04
  -3   7  -4 1124.88   24.40
   3   7   5 1015.04   24.45
   3   7  -5 1047.63   25.92
   3  -7  -5 1052.92   24.90
  -3   7   5 1016.86   25.73
   3   7  -5 1024.90   16.83
   3   7  -5 1042.46   25.44
   3   7   5 1019.81   23.47
  -3   7  -5 1051.21   23.43
  -3   7   6  198.77   11.70
   3   7   6  204.61   11.35
   3  -7  -6  194.02   11.11
  -3   7  -6  205.11   10.49
   3   7  -6  209.58   11.65
   3   7   6  188.81   10.26
  -3   7  -7    7.59    3.16
   3   7  -7    1.22    0.55
   3   7   7    9.11    4.20
   3   7  -7    0.25    2.80
  -3   7   7    3.03    2.69
   3   7   7    3.63    2.04
  -3   7   8  359.27   16.06
   3   7   8  352.37   15.54
   3   7  -8  347.66   15.54
  -3   7  -8  360.43   13.77
   3   7   8  328.99   13.44
  -3   7   9  671.21   22.25
   3   7   9  658.91   21.59
   3   7  -9  660.37   21.86
  -3  -7  -9  675.54   21.00
  -3   7  -9  653.38   18.71
   3   7   9  658.62   18.90
  -3  -7  10   78.11    4.73
  -3   7  10   65.11    7.49
   3   7  10   91.14    8.85
   3   7 -10   67.15    7.49
  -3  -7 -10   73.94    7.20
  -3   7 -10   67.85    6.19
   3   7  10   63.60    6.17
   3   7  11    8.52    2.73
  -3   7  11    8.35    3.45
  -3  -7  11   14.75    2.78
  -3  -7 -11    6.06    2.96
   3   7  11   10.48    4.53
  -3   7 -11    2.69    2.04
   3   7 -11    5.37    2.77
  -3  -7  12  121.43    6.58
  -3   7  12  122.52   10.26
  -3  -7 -12  126.10    9.60
   3   7  12  137.29   10.92
   3   7 -12  122.08   10.28
  -3   7 -12  124.24    8.45
   3   7  12  124.15    8.63
  -3  -7  13  930.88   18.84
  -3   7  13  931.58   27.86
   3   7  13  915.25   27.79
  -3  -7 -13  907.26   25.93
   3   7 -13  926.69   28.02
  -3   7 -13  925.63   24.99
  -3   7 -13  990.76   23.32
   3   7  13  925.11   23.47
  -3   7  14   31.79    6.45
  -3  -7  14   22.73    3.50
   3   7  14   27.75    4.58
  -3   7  14   24.28    4.39
  -3   7 -14   19.28    3.90
   3   7  14   41.50    7.11
   3   7 -14   30.28    6.08
  -3   7 -14   26.07    4.61
  -3  -7 -14   26.63    5.15
  -3   7  15    6.99    3.25
  -3  -7  15    4.65    2.07
  -3   7 -15    7.06    2.66
  -3   7 -15    7.26    3.71
   3  -7  15   17.43    5.67
   3   7  15    1.15    2.74
  -3   7  15    6.20    2.59
   3   7  15   10.25    3.17
   3   7 -15    5.70    4.19
  -3  -7 -15    8.10    3.71
   3   7  16   36.43    5.15
   3   7  16   34.98    6.52
   3   7 -16   32.56    6.09
  -3   7  16   31.82    6.20
  -3  -7  16   26.59    3.89
   3  -7  16   42.19    7.03
  -3   7 -16   32.95    5.34
  -3   7 -16   38.15    5.89
  -3   7  16   32.72    4.89
  -3   7 -16   26.41    4.54
  -3  -7 -16   20.79    4.50
  -3  -7  17  400.36   15.09
  -3   7  17  412.47   19.97
   3   7  17  387.71   19.71
  -3  -7  17  419.15   17.90
  -3   7  17  389.31   15.58
  -3   7 -17  399.79   15.92
  -3   7 -17  409.21   17.71
   3   7 -17  399.22   19.74
  -3   7 -17  394.99   17.30
   3  -7  17  402.70   19.17
   3   7  17  402.88   16.10
   3   7  18   10.88    3.36
  -3   7  18   10.81    4.44
   3  -7  18   17.12    5.83
  -3  -7  18   10.28    3.98
  -3   7 -18    5.53    3.30
   3   7  18   -0.63    4.34
  -3   7 -18   10.83    3.15
   3   7 -18    6.48    3.75
  -3   7 -18    1.81    2.55
  -3   7  19  277.86   17.08
   3   7  19  272.02   17.14
  -3  -7  19  277.69   14.83
  -3   7 -19  285.08   15.33
  -3   7 -19  264.05   15.18
   3   7 -19  265.59   16.90
   3  -7  19  288.59   17.09
  -3   7  20   43.07    7.06
   3  -7  20   46.06    7.70
  -3  -7  20   48.81    6.51
   3   7  20   38.09    7.02
  -3   7 -20   47.50    6.87
   3   7 -20   45.66    7.73
  -3   7 -20   53.64    7.04
  -3   7  21   86.03   10.03
  -3  -7  21   69.31    7.65
   3  -7  21   83.56   10.15
  -3   7 -21   75.67    8.34
  -3   7 -21   68.57    7.89
   3   7 -21   78.86    9.84
   3   7  21   63.51    9.14
  -3   7  22   33.74    6.83
   3  -7  22   37.32    7.44
   3   7  22   28.04    6.46
  -3   7 -22   37.41    6.23
   3   7 -22   38.84    7.39
  -3   7 -22   31.44    6.06
   3   7  22   24.35    5.66
   3  -7  23  312.42   19.14
  -3   7  23  296.56   18.89
   3   7  23  295.23   19.46
   3   7 -23  329.87   20.25
   3   7  23  298.09   18.23
   3   7  24    6.48    4.59
  -3   7  24    2.10    4.20
   3  -7  24   -0.24    3.74
   3   7 -24    3.80    4.47
   3   7  24   -3.54    4.77
   3   7  25   52.78    8.30
  -3   7  25   56.53    8.88
  -3   8   0   -4.90    3.08
   3   8   0   -0.71    2.44
   3   8   0    0.39    0.55
   3  -8   0    1.72    2.02
   3   8   0    2.85    3.20
  -3   8  -1   11.26    3.68
  -3   8   1   15.92    4.12
   3   8   1   13.82    3.39
   3  -8   1   12.43    3.10
   3   8  -1   12.27    3.09
   3  -8  -1   16.49    3.41
   3   8  -1   20.60    4.63
   3   8   1   10.86    3.03
   3   8  -1    9.53    0.97
  -3   8  -2   -0.05    2.22
  -3   8   2    1.53    2.57
   3  -8   2   -1.13    1.86
   3   8  -2    0.07    1.81
   3  -8  -2   -1.95    2.74
   3   8  -2   -1.31    2.54
   3   8   2   -1.24    2.29
   3   8   2    0.65    2.49
  -3   8   3  141.59   10.18
   3   8   3  150.90    9.54
   3   8  -3  134.37    7.63
   3   8   3  150.83    9.95
   3  -8  -3  157.32    9.91
   3   8  -3  165.55   10.58
   3   8  -3  153.86   10.64
  -3   8  -3  148.70    9.87
  -3   8   4   62.60    7.18
   3   8  -4   61.77    6.98
   3   8  -4   55.59    4.73
   3   8  -4   74.40    7.79
   3   8   4   62.71    6.73
   3  -8  -4   63.79    6.76
  -3   8  -4   63.43    6.43
   3   8   4   55.81    6.29
  -3   8  -5   54.44    6.19
  -3   8   5   53.93    6.89
   3   8   5   54.90    6.27
   3  -8  -5   51.18    6.35
   3   8   5   48.01    6.09
   3   8  -5   57.79    6.96
   3   8  -5   55.58    6.87
  -3   8   6   65.09    7.10
   3   8   6   59.86    6.60
  -3   8  -6   65.11    6.62
   3  -8  -6   73.68    7.49
   3   8  -6   62.58    7.21
   3   8  -6   68.58    7.47
   3   8   6   52.27    5.98
  -3   8   7   28.33    5.46
   3   8  -7   22.62    5.03
   3   8   7   12.24    3.90
   3  -8  -7   18.11    4.20
  -3   8  -7   21.81    4.24
   3   8   7   20.13    4.28
  -3   8   8  116.03    9.91
   3   8   8  104.93    8.65
   3   8  -8   98.79    8.90
  -3   8  -8  115.76    8.54
   3   8   8  113.93    8.67
   3   8   9  173.68   10.56
   3   8   9  149.94   10.88
  -3   8   9  176.60   12.06
  -3  -8  -9  157.10   11.00
   3   8  -9  166.50   11.50
  -3   8  -9  168.16   10.26
   3   8  10   37.66    5.00
  -3   8  10   34.86    6.26
  -3  -8 -10   31.37    5.27
   3   8 -10   39.64    5.85
   3   8  10   28.67    4.62
  -3   8 -10   36.65    4.99
   3   8  11   11.04    3.21
  -3   8  11   10.56    3.82
   3   8  11   -0.70    4.32
   3   8 -11   10.36    3.40
  -3  -8 -11   12.75    3.78
  -3   8 -11    8.70    3.01
   3   8  12   27.78    4.91
  -3   8  12   25.28    5.05
   3   8 -12   16.51    4.14
   3   8  12   20.96    4.52
  -3  -8 -12   16.71    4.03
  -3   8 -12   28.43    4.52
   3   8  13    3.81    2.40
  -3   8  13    4.62    3.25
  -3   8 -13    7.40    2.74
   3   8  13    5.19    3.26
   3   8 -13    8.52    3.75
  -3  -8 -13    6.06    3.08
   3   8  14   -0.24    2.12
   3   8  14   -8.77    5.12
  -3   8  14    0.68    3.04
  -3   8 -14   -0.72    2.87
   3   8 -14   -2.33    3.23
  -3  -8 -14   -4.31    3.27
  -3   8 -14   -3.18    2.43
  -3   8  15   84.63    9.25
  -3  -8 -15   75.00    8.40
  -3   8 -15   86.54    8.40
  -3   8 -15   71.61    7.45
   3   8  15   71.97    8.60
   3   8 -15   65.11    8.36
   3   8  15   77.73    7.56
  -3   8 -16   -1.11    2.30
  -3   8  16   -0.36    3.04
  -3   8  16    2.32    2.70
   3   8  16   -1.96    3.57
   3   8 -16    0.01    3.01
   3   8  16    1.82    2.63
  -3   8 -16   -2.04    2.99
  -3  -8 -16   -0.82    2.16
  -3   8  17   78.07    9.43
  -3   8  17   85.29    8.00
  -3   8 -17   83.63    8.01
  -3   8 -17   86.12    8.56
   3   8  17   71.77    8.87
   3   8 -17   82.54    9.58
  -3   8 -17   90.22    8.85
  -3  -8 -17   84.28    9.09
   3   8  17   85.00    8.09
   3   8  18   13.17    3.70
  -3   8  18    4.81    3.56
  -3   8 -18   11.33    3.86
   3   8 -18    8.79    4.07
  -3   8 -18    6.97    3.57
   3   8  18   -0.13    3.96
   3   8 -19    3.99    3.58
  -3   8  19    5.02    3.92
  -3   8 -19    7.64    3.61
   3  -8  19   18.68    5.73
  -3  -8  19    5.07    3.46
   3   8  19    5.52    3.89
  -3   8 -19    6.86    3.79
  -3   8  20   35.43    6.86
  -3  -8  20   25.56    5.12
   3  -8  20   37.98    7.68
   3   8 -20   26.27    6.17
   3   8  20   29.51    6.74
  -3   8 -20   29.57    5.60
  -3   8 -20   21.60    4.40
  -3   8  21    0.82    3.83
  -3  -8  21   -3.19    2.70
   3  -8  21    6.94    4.83
   3   8 -21    1.49    3.25
  -3   8 -21   -4.23    3.27
   3   8  21   -1.63    4.20
   3   8  22   -2.98    4.84
  -3   8  22   13.70    5.34
   3  -8  22    7.95    4.50
   3   8 -22    9.62    4.78
  -3   8 -22    3.21    2.41
  -3   8  23    2.43    3.92
  -3   8 -23    0.29    2.62
   3  -8  23   10.47    5.14
   3   8  23   -2.83    3.91
   3   8  24    5.52    3.73
  -3   8  24   12.89    4.89
   3   9   0    2.66    2.71
  -3   9   0   -2.82    3.54
   3  -9   0    0.01    2.27
   3   9   0   -3.77    3.35
   3  -9  -1  772.45   22.84
   3   9   1  802.18   21.83
   3   9  -1  793.98   20.54
   3  -9   1  798.93   22.53
   3   9  -1  804.96   24.66
   3   9   1  786.03   24.22
  -3   9  -1  812.25   24.46
  -3   9   1  783.71   24.36
  -3   9  -2   71.93    7.40
   3  -9   2   72.56    6.88
   3   9  -2   70.66    6.33
   3   9   2   68.79    7.11
  -3   9   2   71.44    7.88
   3   9   2   72.30    7.67
   3  -9  -2   63.88    6.89
   3   9  -2   72.53    8.05
  -3   9  -3   -9.40    4.48
   3   9  -3    5.02    2.78
  -3   9   3   -2.06    2.76
   3   9   3   -2.30    3.50
   3   9   3    2.71    3.07
   3  -9  -3   -2.41    2.27
   3   9  -3    1.59    3.44
  -3   9   4  210.37   13.27
   3  -9  -4  218.01   12.70
   3   9   4  226.72   12.70
   3   9  -4  215.22   12.94
   3   9  -4  223.02   13.58
   3   9   4  217.54   12.68
  -3   9  -4  198.49   11.88
  -3   9   5 1116.38   30.08
   3   9  -5 1195.44   31.06
   3   9   5 1139.39   28.57
   3  -9  -5 1121.96   29.05
   3   9  -5 1146.04   30.05
   3   9   5 1131.74   28.48
  -3   9  -5 1136.72   28.28
  -3   9   6  235.39   14.17
   3   9   6  212.09   12.96
   3   9  -6  221.80   13.70
   3  -9  -6  198.03   12.53
   3   9  -6  218.76   13.68
  -3   9  -6  194.80   11.88
   3   9   6  209.01   12.47
  -3   9   7  196.04   13.15
  -3   9  -7  198.57   11.94
   3   9   7  203.57   12.70
   3   9  -7  211.13   13.69
   3   9  -7  208.92   13.31
   3   9   7  208.77   12.44
   3  -9  -7  205.31   12.94
  -3   9   8  160.55   11.98
   3   9   8  155.55   10.91
  -3   9  -8  148.77   10.67
   3   9   8  158.23   11.49
   3  -9  -8  152.76   11.49
   3   9  -8  158.80   11.79
  -3   9   9  487.50   21.03
  -3   9  -9  466.79   18.29
   3   9   9  469.33   19.92
  -3  -9  -9  506.14   20.73
   3   9  -9  482.98   20.58
   3   9   9  457.10   18.66
  -3   9  10  181.04   13.14
   3   9 -10  197.23   13.42
  -3   9 -10  203.34   12.19
   3   9  10  209.86   13.78
  -3  -9 -10  212.87   13.73
   3   9  10  204.92   12.50
  -3   9  11   71.37    8.71
   3   9 -11   70.80    8.28
   3   9  11   79.16    7.95
  -3   9 -11   78.77    7.88
  -3  -9 -11   76.67    8.36
   3   9  11   74.35    8.55
   3   9  12    3.34    2.83
  -3   9  12    3.77    3.29
  -3   9 -12    3.19    2.87
   3   9 -12    4.65    2.99
  -3  -9 -12    0.72    2.53
   3   9  12    5.69    3.30
  -3   9  13  160.16   12.92
   3   9  13  156.23   12.71
   3   9 -13  164.50   12.79
  -3  -9 -13  161.12   12.32
  -3   9 -13  163.71   11.07
   3   9  13  155.93   11.07
  -3   9  14   77.84    9.38
  -3   9 -14   67.84    8.08
  -3  -9 -14   78.31    8.83
   3   9 -14   70.67    8.90
  -3   9 -14   77.40    7.89
   3   9  14   76.08    7.87
   3   9  14   78.55    9.20
   3   9  15    5.14    3.94
   3   9  15    7.67    3.68
  -3   9  15    7.22    4.80
  -3   9 -15    0.80    2.63
   3   9 -15    4.09    3.70
  -3  -9 -15    6.02    3.69
  -3   9  16  296.77   18.12
  -3   9 -16  293.40   16.51
   3   9  16  314.54   18.96
  -3  -9 -16  323.45   18.19
   3   9 -16  302.09   18.49
   3   9  16  295.21   15.58
  -3   9  17  263.44   17.42
   3   9  17  236.40   16.74
  -3   9  17  252.09   14.19
  -3   9 -17  249.11   14.39
   3   9 -17  235.79   16.66
  -3   9 -17  251.04   15.48
  -3  -9 -17  264.01   16.66
   3   9  17  246.50   14.38
   3   9  18    8.41    3.56
   3   9  18    4.66    4.19
  -3   9  18    7.17    5.04
  -3   9 -18   12.49    4.09
  -3   9 -18    7.24    3.44
   3   9 -18    8.73    4.53
  -3   9  19  161.82   14.26
   3   9 -19  181.13   14.99
  -3   9 -19  161.34   12.95
   3   9  19  167.09   14.81
  -3   9  20  109.33   11.96
  -3  -9  20  113.32   11.13
   3   9  20  121.90   12.94
   3   9 -20  114.14   12.29
  -3   9 -20  117.62   11.11
  -3   9  21   76.82   10.54
   3   9  21   79.30   10.47
  -3  -9  21   69.84    8.65
   3   9 -21  101.18   11.94
  -3   9 -21   79.82    9.79
  -3   9  22    0.22    3.75
  -3   9 -22    7.45    4.47
   3   9  24   35.64    7.15
  -3  10   0   -3.34    3.30
   3  10   0    1.90    2.65
   3 -10   0    2.62    2.52
   3  10   0   -1.50    3.57
   3  10  -1    5.18    2.69
  -3  10  -1    1.89    3.28
  -3  10   1    6.16    3.05
   3  10   1    2.09    2.85
   3 -10   1   13.94    4.32
   3  10   1    7.50    3.16
   3 -10  -1    5.43    2.55
   3  10  -1   10.68    4.00
  -3  10  -2    0.71    2.86
  -3  10   2    8.10    4.35
   3  10   2    5.01    2.78
   3 -10   2    3.07    2.60
   3 -10  -2    9.26    3.60
   3  10  -2    2.77    2.65
   3  10   2    1.01    2.92
  -3  10  -3    9.16    3.15
   3 -10  -3   15.13    4.03
  -3  10   3   15.68    4.85
   3  10   3   17.27    4.36
   3 -10   3   18.48    4.04
   3  10  -3   17.15    4.33
   3  10   3   13.92    3.66
  -3  10  -4    6.86    3.29
  -3  10   4    6.92    4.00
   3  10  -4   13.04    4.05
   3  10   4    4.32    2.64
   3  10   4    5.14    3.66
   3  10  -4    9.35    2.95
   3 -10  -4    4.96    2.38
  -3  10   5    1.35    2.63
   3  10   5   -1.48    3.04
   3 -10  -5   -0.42    2.64
  -3  10  -5    0.71    2.62
   3  10  -5   -1.49    3.55
   3  10  -5    4.52    2.80
   3  10   5   -2.91    2.83
  -3  10   6   18.61    5.49
   3  10  -6   14.89    4.73
   3 -10  -6   11.06    4.18
   3  10   6   10.48    3.75
   3  10   6   11.41    4.26
   3  10  -6   14.01    4.41
  -3  10  -6   12.34    3.99
   3  10   7   62.99    7.50
   3  10   7   60.68    7.58
   3  10  -7   61.13    7.92
   3  10  -7   59.76    7.87
   3 -10  -7   61.78    7.84
  -3  10   7   63.78    8.08
  -3  10  -7   58.57    7.04
  -3  10   8  164.59   12.47
   3  10  -8  172.92   12.83
   3 -10  -8  160.28   12.22
   3  10   8  156.79   12.14
  -3  10  -8  149.14   11.11
   3  10   8  149.67   11.43
  -3  10   9   99.68   10.12
  -3 -10  -9   87.18    9.42
   3  10  -9   99.00    9.95
   3  10   9  103.65    9.47
  -3  10  -9   92.92    8.71
   3  10   9   91.34    9.56
   3  10  10   63.22    8.22
   3  10 -10   58.97    8.14
  -3  10  10   54.14    7.94
  -3 -10 -10   67.47    8.53
  -3  10 -10   52.18    6.68
   3  10  10   49.19    6.74
   3  10  11    0.80    3.21
  -3 -10 -11    2.93    3.12
   3  10 -11   -0.11    3.21
  -3  10 -11   -0.54    2.21
   3  10  11    1.50    2.51
  -3  10  12    0.27    3.16
   3  10  12    2.76    3.52
   3  10 -12    1.41    3.36
  -3 -10 -12    0.56    2.47
  -3  10 -12    4.23    3.04
   3  10  12    3.26    2.52
   3  10  13    6.01    3.43
  -3  10 -13    2.28    2.63
  -3  10  13    6.07    3.58
   3  10  13   -0.28    3.53
   3  10 -13    4.12    3.89
  -3 -10 -13    3.92    3.23
   3  10  14   37.65    6.08
  -3  10  14   33.60    6.43
   3  10  14   37.58    6.85
   3  10 -14   39.05    7.11
  -3  10 -14   33.89    6.51
  -3 -10 -14   33.63    6.27
  -3  10 -14   36.85    5.92
   3  10  15    6.00    3.36
  -3  10  15    0.55    3.41
   3  10 -15   -1.89    3.40
   3  10  15   -0.20    3.23
  -3  10 -15    3.86    3.02
  -3 -10 -15    3.25    3.57
  -3  10 -15    2.71    2.79
   3  10  16   46.05    6.74
  -3  10  16   47.95    7.97
  -3  10 -16   36.44    6.55
   3  10  16   52.47    8.43
   3  10 -16   54.80    8.57
  -3 -10 -16   52.60    8.07
   3  10  17   31.75    5.75
  -3  10  17   32.89    7.08
  -3  10 -17   27.65    5.15
   3  10  17   36.77    7.74
  -3 -10 -17   26.85    6.00
   3  10 -17   32.93    6.91
  -3  10 -17   29.29    6.00
  -3  10  18   80.51   10.26
   3  10 -18   60.13    8.89
  -3  10 -18   75.36    9.30
   3  10  18   66.81    9.56
   3  10  18   82.66    8.94
  -3  10  19   13.10    5.32
  -3  10 -19   11.32    4.29
   3  10  19   15.94    5.92
   3  10 -19    9.78    5.00
  -3  10  20   33.64    7.11
  -3  10 -20   31.72    6.47
  -3  10 -21   18.05    5.36
  -3  10 -22   41.65    7.34
  -3  11   0   -1.26    3.89
   3 -11   0   -1.07    2.57
   3  11   0    2.18    3.12
   3 -11  -1   54.92    7.15
  -3  11  -1   45.70    6.83
  -3  11   1   45.71    6.77
   3  11  -1   49.88    7.37
   3  11   1   49.99    6.72
   3 -11   1   50.33    6.58
   3  11   1   43.79    6.83
   3 -11   2  229.54   13.74
   3  11   2  230.84   13.39
   3 -11  -2  216.00   13.65
   3  11  -2  228.03   14.91
   3  11   2  232.36   14.80
  -3  11  -2  202.33   13.71
  -3  11   2  218.12   14.54
  -3  11  -3   33.38    5.56
  -3  11   3   33.48    6.13
   3  11   3   24.43    4.98
   3 -11   3   29.32    5.32
   3 -11  -3   35.13    6.07
   3  11  -3   32.07    6.18
   3  11   3   35.72    6.44
  -3  11   4   60.15    8.13
   3  11  -4   46.78    6.83
   3  11   4   53.44    7.00
   3 -11  -4   51.31    7.13
   3  11  -4   50.94    7.23
   3  11   4   54.30    7.62
  -3  11  -4   49.88    6.91
  -3  11   5   41.31    6.99
   3  11   5   43.41    6.64
   3  11   5   47.90    6.94
   3  11  -5   49.97    7.37
   3 -11  -5   42.73    6.82
   3  11  -5   48.37    7.52
  -3  11  -5   45.00    6.70
   3  11   6   93.44    9.40
  -3  11   6   87.64    9.81
   3  11  -6  107.96   10.73
   3 -11  -6  102.82   10.09
   3  11  -6   99.80   10.52
   3  11   6  108.89   10.25
  -3  11  -6   98.59    9.63
  -3  11   7    7.07    3.77
   3  11   7    8.92    4.31
   3  11  -7    0.45    3.86
   3  11  -7    3.79    3.39
   3 -11  -7    3.71    3.13
  -3  11  -7    5.67    2.74
   3  11   7    3.57    2.66
   3  11   8    8.27    4.90
  -3  11   8    0.87    3.25
  -3  11  -8    2.52    2.61
  -3 -11  -8   -3.72    3.58
   3 -11  -8   -2.20    3.61
   3  11   8    0.14    3.47
  -3  11   9    3.18    3.37
   3  11   9    6.45    3.60
   3  11  -9    4.35    3.43
  -3 -11  -9    3.95    2.88
   3 -11  -9    7.10    3.61
  -3  11  -9    2.83    2.64
   3  11   9    1.98    3.02
  -3  11  10   24.38    6.41
  -3  11 -10   15.54    4.41
   3  11 -10   17.04    5.10
  -3 -11 -10   13.09    4.55
   3  11  10   15.46    5.16
   3  11  10   11.75    3.73
  -3  11  11    3.35    4.27
   3  11 -11    2.38    3.39
  -3  11 -11    0.67    2.60
  -3 -11 -11    5.76    4.01
   3  11  11    9.72    4.81
   3  11  11    1.43    2.86
  -3  11  12  372.87   20.84
   3  11  12  332.28   19.42
  -3  11 -12  323.00   17.40
   3  11 -12  373.06   20.60
  -3 -11 -12  340.01   19.60
   3  11  12  337.65   18.18
  -3  11  13   30.63    6.94
   3  11  13   33.41    7.35
   3  11 -13   30.71    6.83
  -3 -11 -13   28.02    6.07
  -3  11 -13   35.32    6.12
   3  11  13   31.60    6.06
  -3  11  14   39.68    7.19
   3  11  14   44.24    8.02
   3  11 -14   36.48    7.20
  -3  11 -14   35.09    6.69
  -3 -11 -14   44.31    7.60
  -3  11 -14   36.71    6.26
   3  11  14   48.78    7.60
  -3  11  15   13.96    5.73
   3  11 -15   22.66    5.78
   3  11  15   35.33    7.72
  -3  11 -15   26.90    5.94
  -3  11 -15   26.63    5.46
  -3 -11 -15   22.73    5.22
   3  11  15   21.65    5.21
   3  11  16   24.72    5.47
  -3  11  16   19.45    5.83
   3  11 -16   23.34    5.81
  -3 -11 -16   18.56    5.38
   3  11  16   23.74    5.85
  -3  11 -16   17.11    4.74
   3  11  17    1.38    2.66
  -3  11  17   -1.91    3.65
  -3  11 -17   -0.41    2.51
   3  11 -17    1.76    3.34
   3  11  17    3.93    3.91
  -3 -11 -17    3.57    3.51
  -3  11 -18   -2.31    3.56
  -3 -11 -18   -2.37    4.03
  -3  11 -19   48.06    8.13
  -3  11 -20  146.59   13.52
  -3  12   0    0.47    3.36
   3 -12   0    1.77    3.11
   3  12   0    0.64    3.18
  -3  12  -1   25.89    5.88
  -3  12   1   15.27    4.86
   3 -12   1   22.56    4.99
   3 -12  -1   22.21    5.46
   3  12  -1   27.87    6.28
   3  12   1   25.73    5.55
  -3  12  -2   13.53    4.60
  -3  12   2   11.34    4.42
   3 -12   2   15.67    4.42
   3 -12  -2   13.41    3.83
   3  12  -2   13.65    4.73
   3  12   2   19.36    4.98
  -3  12   3   -0.62    3.31
   3 -12  -3    3.52    3.27
   3 -12   3    3.97    3.28
   3  12  -3   -2.48    3.59
   3  12   3   -0.36    2.72
  -3  12  -3    5.55    4.30
  -3  12   4    1.67    3.59
   3  12   4    2.91    4.01
   3  12  -4    6.25    3.72
   3 -12   4   -0.99    2.48
   3  12  -4    7.52    4.91
   3 -12  -4   -2.62    2.79
   3  12   4    7.46    4.44
  -3  12  -4    0.23    2.92
  -3  12   5    0.71    3.75
   3  12   5    3.86    3.31
   3 -12  -5    1.42    2.49
   3  12  -5    0.66    3.40
   3  12  -5    1.83    4.39
   3  12   5    0.66    3.21
  -3  12  -5    3.13    3.43
  -3  12   6   12.70    4.99
   3  12   6   19.16    5.42
   3  12  -6   13.73    4.90
   3  12  -6   10.99    4.53
   3 -12  -6   12.72    4.44
   3  12   6    9.75    3.91
  -3  12  -6   12.50    4.19
  -3  12   7   16.86    5.52
   3  12  -7    8.97    4.14
   3  12   7   13.71    4.60
   3  12  -7    9.33    4.45
   3 -12  -7    0.36    2.82
  -3  12  -7   11.97    4.59
   3  12   7   10.58    3.91
   3  12   8   -1.74    2.96
  -3  12   8    1.05    3.44
   3 -12  -8   -3.31    3.30
  -3 -12  -8    5.14    3.94
   3  12  -8   -5.05    3.91
  -3  12  -8   -2.62    3.49
   3  12   8    2.65    3.81
  -3  12   9   35.97    7.30
  -3 -12  -9   34.33    6.73
   3  12  -9   24.90    6.05
   3  12   9   39.21    7.09
   3 -12  -9   33.41    6.94
  -3  12  -9   32.06    6.06
   3  12   9   32.56    6.32
  -3  12  10   18.75    5.21
   3  12 -10   28.36    7.08
  -3 -12 -10   14.29    5.29
  -3  12 -10   19.32    5.22
   3  12  10   22.48    5.74
   3  12  10   20.11    5.82
  -3  12  11   -0.28    2.86
  -3 -12 -11    5.65    4.04
   3  12  11    3.04    3.85
   3  12 -11    3.82    3.60
  -3  12 -11    1.37    2.48
   3  12  11    2.70    3.92
  -3  12  12   44.68    8.17
   3  12  12   49.11    8.53
   3  12 -12   36.42    7.47
  -3 -12 -12   49.77    8.27
  -3  12 -12   33.97    6.37
   3  12  12   33.82    6.23
  -3  12  13   -1.45    4.16
   3  12  13    5.09    5.49
   3  12 -13    5.35    4.89
  -3 -12 -13   -1.51    3.02
  -3  12 -13    2.29    3.61
   3  12  13   -2.61    3.43
  -3  12  14   20.40    5.99
   3  12 -14   19.31    6.59
   3  12  14   25.92    6.86
  -3  12 -14   19.92    5.74
  -3 -12 -14   18.70    5.56
  -3  12 -14   22.41    5.58
   3  12  14   25.00    5.80
  -3  12 -15    9.01    4.04
  -3 -12 -15    8.32    4.24
  -3  12 -15   13.93    4.42
   3  12  15   14.19    4.61
  -3  12 -16    3.26    3.19
   3  12  16    3.23    3.44
  -3  12 -17  100.84   11.68
   3  12  17   96.21   10.55
  -3  13   0    5.53    4.00
   3 -13   0    3.26    2.89
   3  13   0    4.19    4.61
   3 -13  -1  189.10   14.38
   3 -13   1  207.04   14.67
   3  13   1  212.94   16.04
   3  13  -1  199.69   15.66
  -3  13  -1  194.16   15.20
  -3  13   1  212.87   15.98
   3 -13   2  204.12   14.63
   3 -13  -2  220.34   15.53
   3  13  -2  219.92   16.30
   3  13   2  234.94   16.82
  -3  13  -2  202.77   15.38
  -3  13   2  214.85   15.98
  -3  13   3   -0.30    3.26
   3 -13   3    6.86    3.74
   3  13  -3    4.23    4.34
   3 -13  -3    1.89    3.12
   3  13  -3    0.55    2.79
   3  13   3    2.41    3.19
  -3  13  -3    3.91    3.89
  -3  13   4   62.73    9.09
  -3  13  -4   62.49    8.76
   3 -13  -4   63.35    8.55
   3 -13   4   61.21    8.24
   3  13  -4   75.89    9.77
   3  13  -4   68.31    9.51
   3  13   4   64.54    9.19
   3 -13  -5  121.27   11.89
   3  13  -5  130.74   12.57
   3 -13   5  114.76   10.81
   3  13  -5  114.51   12.15
   3  13   5  120.14   12.20
  -3  13  -5  111.96   11.38
  -3  13   5  121.09   12.46
  -3  13   6    3.81    3.91
   3 -13   6    0.74    2.47
   3  13  -6   -4.06    3.82
   3  13  -6    5.18    4.50
   3 -13  -6   -4.32    3.21
   3  13   6    3.00    4.09
  -3  13  -6    0.94    2.97
  -3  13   7   17.26    5.68
  -3 -13  -7   24.44    6.31
   3  13  -7   16.46    5.05
   3  13  -7   20.83    6.46
   3 -13  -7   15.71    4.86
  -3  13  -7   22.73    6.03
   3  13   7   21.01    5.40
  -3  13   8   56.02    9.33
   3  13   8   49.13    8.38
   3 -13  -8   53.68    8.82
  -3  13  -8   47.59    7.64
   3  13  -8   65.03    9.58
  -3 -13  -8   52.54    8.43
   3  13   8   42.73    7.69
   3 -13  -9  124.21   12.68
   3  13   9  130.19   12.85
  -3 -13  -9  129.48   13.02
   3  13  -9  117.48   12.52
  -3  13  -9  113.52   11.65
   3  13   9  124.22   12.48
  -3  13   9  127.28   13.18
  -3  13  10    2.02    4.11
   3  13  10    1.39    3.44
   3  13 -10    6.64    4.82
  -3 -13 -10    1.66    2.77
  -3  13 -10   -2.48    3.52
   3  13  10    4.01    3.39
   3  13  11   67.68    9.88
  -3 -13 -11   61.19    9.21
  -3  13 -11   61.92    8.67
   3  13  11   60.09    8.77
   3  13  12   21.80    6.79
  -3  13 -12   14.48    4.57
   3  13  12   21.00    5.89
   3  13  13  176.80   14.72
  -3  13 -13  168.85   14.01
  -3  13 -14    2.84    3.37
   3  13  14    0.77    3.42
  -3  13 -15    6.35    3.49
   3  13  15    4.73    3.20
   3  13  16   10.57    4.80
   3  14   0   -4.37    3.88
   3 -14   0   -2.38    2.80
  -3  14   0   -1.02    3.20
  -3  14   1   32.04    7.15
   3  14  -1   35.18    7.56
   3 -14   1   29.86    6.58
   3 -14  -1   29.47    6.53
   3  14   1   33.72    7.45
  -3  14  -1   32.48    7.42
  -3  14   2    9.50    4.40
   3  14   2    5.02    4.07
   3 -14   2    6.18    3.78
   3 -14  -2    7.82    4.21
   3  14  -2    9.92    5.06
  -3  14  -2    7.27    4.55
   3  14  -3    5.94    3.65
   3 -14   3    1.88    2.62
   3 -14  -3   -1.21    3.02
   3  14   3    2.98    4.52
  -3  14  -3   -3.95    4.06
   3  14  -4   -0.58    3.73
   3 -14   4   -2.86    2.63
   3 -14  -4   -0.85    3.18
   3  14   4    1.01    3.22
  -3  14  -4    2.66    3.51
   3 -14   5    5.14    3.49
   3  14  -5    1.53    3.03
   3 -14  -5    3.65    2.87
   3  14   5    3.41    3.87
  -3  14  -5    2.12    3.72
   3 -14   6   50.68    7.96
   3 -14  -6   45.49    8.03
   3  14   6   58.30    9.16
  -3  14  -6   44.58    7.82
  -3  14  -7    7.07    3.54
   3 -14  -7   17.01    5.48
   3  14   7   12.23    4.72
   3  14   8   15.46    5.46
  -3  14  -8   16.50    5.59
  -3  14  -9    0.84    3.48
  -3  14 -10   18.30    5.45
   3 -15   0   -3.11    2.64
   3 -15   1   31.36    6.99
   3 -15   2  219.63   16.77
   3 -15   3   53.40    8.51
   3 -15   4  163.26   14.34
  -4   0   0 7126.15   39.96
   4   0   0 6970.32   50.16
   4   0   0 7024.82   39.86
  -4   0   0 7288.42   51.30
   4   0   1   33.21    5.74
   4   0  -1    2.77    1.96
  -4   0  -1    4.82    2.29
   4   0  -1   17.69    4.02
  -4   0  -1    9.01    2.24
   4   0   1    2.74    1.44
  -4   0   1   14.35    2.59
  -4   0  -1   56.08    6.50
  -4   0   1   57.68    6.95
  -4   0  -2  557.70   12.91
   4   0  -2  540.59   12.43
  -4   0  -2  544.31    9.49
   4   0  -2  544.54   13.64
  -4   0   2  532.29   14.05
  -4   0   2  558.54   12.59
   4   0   2  537.91    9.42
   4   0   2  546.51   14.57
  -4   0  -2  551.20   14.31
   4   0  -3    2.39    1.80
   4   0   3    0.22    0.75
   4   0  -3    0.93    1.76
  -4   0  -3    4.06    2.48
  -4   0   3    2.40    2.39
  -4   0  -3   -0.89    1.37
  -4   0  -3    0.93    0.81
  -4   0   3    1.89    1.49
   4   0   3    7.29    3.05
   4   0   4  504.00   13.17
   4   0  -4  514.94   12.84
   4   0   4  523.59   13.02
   4   0  -4  519.16   13.47
   4   0   4  518.76   14.51
  -4   0  -4  511.37    7.28
  -4   0  -4  510.62   13.64
  -4   0   4  519.22   13.79
   4   0  -5   -1.08    1.74
  -4   0  -5   -0.97    1.68
  -4   0   5   -0.44    1.64
   4   0  -5    0.40    1.28
   4   0   5    1.02    1.12
  -4   0  -5    2.92    2.68
   4   0   5   -2.80    1.97
  -4   0  -5    0.40    0.32
  -4   0  -5    0.48    0.40
   4   0   6   79.72    5.86
   4   0  -6   88.51    6.11
   4   0  -6   84.60    5.14
   4   0   6   82.79    5.06
  -4   0  -6   81.07    6.31
   4   0   6   83.42    6.12
  -4   0  -6   80.93    5.64
  -4   0   6   79.69    5.48
   4   0  -7    3.46    2.58
   4   0   7    1.09    2.19
   4   0   7   -0.05    0.93
  -4   0  -7    2.25    1.86
  -4   0   7    2.41    1.89
  -4   0  -7    0.89    2.40
   4   0   7    4.13    2.68
   4   0   8  412.04   13.30
   4   0   8  399.70   10.66
  -4   0  -8  416.96   14.40
   4   0   8  417.98   13.69
   4   0  -8  432.26   14.17
  -4   0  -8  406.00   12.35
  -4   0   8  418.45   12.33
  -4   0  -9   -0.07    2.06
   4   0   9   -2.06    2.66
   4   0   9   -0.11    0.89
  -4   0  -9   -0.85    1.57
  -4   0   9   -1.30    1.68
   4   0   9    3.36    2.64
   4   0  -9   -0.06    2.58
   4   0  10  259.73   11.44
  -4   0 -10  279.04   10.27
  -4   0  10  278.90   10.20
   4   0  10  269.75    8.34
  -4   0 -10  298.00   12.74
   4   0  10  266.69   11.32
   4   0 -10  283.94   12.37
  -4   0 -11    1.61    1.79
   4   0  11   -4.90    3.47
   4   0  11    0.52    0.82
  -4   0 -11    0.09    2.80
   4   0 -11    5.17    3.51
   4   0  11    3.53    2.65
  -4   0  11    0.67    1.54
   4   0  12  217.37   11.32
  -4   0 -12  213.43    9.04
  -4   0  12  227.67    9.19
  -4   0 -12  190.66    3.70
   4   0  12  216.04    6.98
  -4   0 -12  222.31   11.87
   4   0  12  212.10   10.42
   4   0 -12  218.38   11.73
   4   0  13    8.43    3.75
   4   0  13   10.41    5.49
  -4   0 -13    2.38    3.85
  -4   0  13    1.55    2.02
  -4   0 -13    1.80    0.80
  -4   0 -13    2.09    2.30
   4   0  14 2177.36   37.40
  -4   0 -14 2134.66   28.32
  -4   0  14 2109.20   27.73
   4   0  14 2188.27   33.79
  -4   0 -14 2197.49   38.44
  -4   0 -14 2210.13   17.20
   4   0 -14 2251.82   39.24
  -4   0  15    0.17    1.61
   4   0  15   22.35    6.75
   4   0 -15   23.39    7.13
  -4   0 -15    1.17    1.67
  -4   0 -15    5.20    1.45
   4   0 -16  388.01   17.35
  -4   0 -16  418.89   12.30
  -4   0  16  411.78   12.06
  -4   0 -16  439.02    9.22
   4   0  16  433.51   17.94
   4   0  17    4.55    4.28
   4   0 -17    4.63    3.74
  -4   0 -17    0.35    0.94
  -4   0 -17    0.33    1.30
  -4   0  17    0.86    1.41
   4   0  18   69.86    8.18
  -4   0  18   67.06    4.64
  -4   0 -18   64.82    4.62
   4   0 -18   69.61    8.03
   4   0  19   17.06    5.29
   4   0 -19   -1.78    2.68
   4   0  20   67.06    8.37
   4   0 -20   65.47    8.27
   4   0  21   12.38    5.26
   4   0 -21   -1.93    3.03
   4   0 -22   94.09    9.91
   4   0  22  113.50   11.15
   4   0  23   10.50    5.64
   4   0 -23    0.40    3.16
   4   0  24    4.87    4.33
   4   0 -24    4.50    3.64
   4   0  24    1.61    3.01
   4   0  25    7.07    4.94
   4   0 -25    3.17    4.16
   4   0  25    2.14    3.45
   4   0  26    4.39    4.68
   4   0  26   -5.48    3.89
   4   0 -26    3.87    3.60
   4   0 -27    1.87    3.08
   4   0  27    2.89    3.57
  -4  -1   0  230.13    9.51
  -4  -1   0  208.19    7.03
  -4  -1   0  209.00    8.90
  -4   1   0  220.16    9.22
  -4   1   0  205.64    7.27
   4   1   0  190.29    8.54
  -4  -1   0  202.27    6.64
   4   1   0  208.27    6.81
   4  -1   0  204.08    7.19
  -4  -1  -1  458.74   10.51
   4   1   1  452.72    9.35
  -4  -1  -1  475.07   13.45
  -4  -1   1  479.23   13.53
   4   1  -1  451.79   12.59
  -4  -1  -1  475.81   13.01
  -4  -1   1  455.26   13.19
   4   1  -1  431.24   10.46
  -4   1  -1  446.06   13.18
  -4   1  -1  456.86   10.14
  -4   1   1  447.96   11.28
   4  -1  -1  463.93   11.32
  -4  -1   1  463.51   10.74
  -4   1   1  457.52   13.33
  -4  -1  -1  475.00    9.38
   4   1   1  417.40   12.59
   4  -1   1  441.90   10.11
  -4  -1  -2  300.96    8.75
  -4  -1  -2  295.23   10.81
  -4  -1   2  301.79   10.90
  -4  -1  -2  302.60   10.24
  -4  -1   2  302.29   11.07
  -4   1  -2  303.31    7.82
  -4  -1  -2  306.91    6.91
  -4   1   2  305.80    9.71
  -4  -1  -2  296.64   10.10
   4   1   2  289.63    6.85
   4   1  -2  299.13    9.25
   4   1  -2  309.85   10.36
  -4  -1   2  307.81    9.28
  -4   1  -2  304.81   11.02
  -4   1   2  309.52   10.99
   4  -1  -2  306.91    9.70
   4   1   2  282.53   10.63
   4   1  -3  124.80    6.63
  -4  -1  -3  142.90    7.93
  -4  -1   3  140.90    7.87
   4   1   3  115.54    3.79
  -4  -1  -3  134.01    7.05
  -4  -1   3  125.56    6.31
  -4  -1   3  138.09    8.01
  -4  -1  -3  120.84    6.94
   4  -1  -3  124.50    6.70
   4   1  -3  137.81    7.12
   4   1   3  140.96    8.05
  -4   1  -3  124.12    7.60
  -4   1  -3  120.98    4.67
  -4   1   3  129.03    7.72
  -4  -1  -3  118.24    3.81
  -4  -1  -3  119.79    4.63
  -4  -1  -3  108.85    5.72
   4   1   4 2340.33   26.41
  -4  -1  -4 2377.06   30.09
  -4  -1   4 2362.99   29.88
  -4   1  -4 2352.18   18.16
  -4  -1  -4 2280.30   27.34
  -4   1  -4 2332.69   19.07
  -4  -1   4 2369.40   30.84
   4   1   4 2363.85   27.55
  -4  -1  -4 2288.19   13.92
  -4  -1  -4 2341.82   29.77
   4  -1  -4 2310.45   28.68
   4   1  -4 2324.91   28.16
  -4   1   4 2396.46   27.96
   4   1  -4 2340.24   27.47
   4   1   4 2267.45   30.51
  -4   1  -4 2429.34   30.28
  -4   1   4 2357.37   29.77
  -4  -1  -4 2327.50   18.72
  -4  -1  -4 2396.28   26.66
   4   1   5  266.58    9.41
  -4   1  -5  255.06    5.26
   4  -1   5  266.40   10.58
  -4  -1  -5  263.92   10.32
  -4  -1   5  264.15   10.33
  -4  -1   5  274.65   11.21
   4   1   5  286.45   11.36
   4   1   5  272.02    9.34
  -4  -1  -5  258.24   10.37
   4  -1  -5  257.74   10.23
   4   1  -5  284.19   10.54
   4   1  -5  254.64    8.98
  -4   1   5  260.40    9.24
  -4   1  -5  249.04    5.94
  -4   1  -5  273.42   10.44
  -4   1   5  281.42   10.49
  -4  -1  -5  253.92    5.57
  -4  -1  -5  274.91    9.38
  -4   1  -6   36.09    4.12
  -4   1   6   35.92    4.03
   4  -1   6   31.76    3.35
  -4   1   6   35.09    3.41
   4   1  -6   43.59    4.67
   4   1   6   29.73    3.48
   4   1   6   28.51    3.12
  -4  -1   6   32.85    4.73
   4  -1   6   39.26    4.80
  -4  -1  -6   31.69    4.12
   4   1  -6   35.28    3.41
  -4  -1  -6   31.97    3.82
  -4  -1   6   33.48    3.99
   4   1   6   31.28    4.00
   4  -1  -6   36.66    4.41
  -4  -1  -6   32.70    1.76
  -4   1  -6   28.27    1.47
  -4   1  -6   31.59    2.05
   4   1   7  131.70    7.17
   4  -1   7  147.13    8.39
  -4  -1  -7  129.16    7.20
  -4  -1   7  138.25    7.52
   4  -1   7  149.75    6.85
  -4  -1   7  142.09    8.10
   4   1   7  138.82    8.04
  -4  -1  -7  143.03    8.44
  -4   1  -7  134.35    3.95
   4  -1  -7  154.94    8.48
   4   1  -7  156.20    8.47
   4   1  -7  140.67    6.44
  -4   1  -7  143.45    7.43
  -4   1   7  150.38    7.61
  -4  -1  -7  137.69    4.78
  -4   1   7  146.83    6.65
   4   1   8  905.06   19.18
   4  -1   8  918.00   20.52
  -4  -1  -8  929.94   18.78
  -4   1   8  928.78   16.35
  -4  -1   8  905.42   18.53
  -4  -1   8  895.08   20.24
   4  -1   8  913.97   16.59
  -4   1  -8  912.98   18.71
  -4   1  -8  886.03   10.07
  -4  -1  -8  907.92   21.24
  -4   1  -8  913.11   21.42
   4  -1  -8  908.85   20.90
   4   1  -8  918.08   20.90
   4   1  -8  904.76   15.97
   4   1   8  884.89   20.05
  -4  -1  -8  904.92   12.36
  -4   1   8  902.02   18.47
  -4  -1   9   13.11    2.84
  -4   1  -9   11.26    2.46
  -4   1   9   13.92    2.59
  -4  -1   9   15.89    3.59
   4   1   9    3.67    2.48
  -4   1  -9    7.76    1.16
   4  -1   9    9.21    3.15
   4  -1   9   12.06    2.11
  -4  -1  -9   11.45    3.19
  -4  -1  -9   10.39    2.49
  -4   1  -9   12.63    3.41
   4   1  -9    9.67    1.89
   4  -1  -9   13.23    3.90
   4   1  -9   17.00    4.20
   4   1   9    9.58    2.63
   4   1  10  282.99   11.79
   4  -1  10  242.81   11.39
  -4  -1 -10  249.65    9.88
  -4  -1  10  242.62    9.58
   4  -1  10  240.26    8.21
  -4  -1 -10  237.10   11.66
  -4   1 -10  242.80   11.72
  -4   1 -10  247.34    5.62
   4  -1 -10  264.36   12.17
   4   1 -10  245.44    7.96
   4   1 -10  241.83   11.56
   4   1  10  264.61   11.25
  -4   1 -10  250.53    9.79
  -4   1  10  233.61    9.45
   4  -1  11  158.08    9.46
   4   1 -11  163.12    9.95
   4  -1  11  151.86    6.37
  -4  -1 -11  158.28    7.84
  -4  -1  11  164.46    7.89
  -4  -1 -11  153.90    9.77
  -4   1 -11  163.93    9.85
   4   1 -11  156.23    6.56
   4  -1 -11  165.21   10.02
   4   1 -11  159.87    6.26
   4   1  11  159.26    8.98
  -4   1 -11  151.62    4.70
  -4   1  11  151.39    7.64
  -4   1 -11  154.61    7.81
   4   1  11  152.81    9.31
   4  -1  12  188.83   10.67
   4   1 -12  200.97   11.33
   4  -1  12  189.14    6.94
  -4  -1 -12  195.72    8.71
  -4  -1  12  187.53    8.45
  -4  -1 -12  182.32   10.77
   4   1 -12  205.47    7.56
  -4   1 -12  197.20   11.17
   4   1  12  202.49   10.24
  -4   1 -12  201.26    5.67
   4  -1 -12  202.62   11.27
  -4   1 -12  196.54    8.68
  -4   1  12  195.40    8.66
   4   1  12  204.18   10.76
   4  -1  13   91.22    7.98
  -4   1  13   95.76    6.23
   4  -1  13   94.20    4.71
   4   1 -13  106.71    5.68
  -4  -1 -13   92.78    6.03
  -4  -1  13  110.19    6.52
   4   1 -13  120.76    9.46
  -4   1 -13   88.11    7.94
   4  -1 -13  108.60    8.74
  -4   1 -13   96.40    4.21
   4   1  13   90.34    7.02
  -4   1 -13   96.25    6.21
   4   1  13  105.49    8.40
   4  -1  14  542.51   19.30
   4   1 -14  532.84   12.65
   4  -1  14  539.49   10.73
  -4   1 -14  550.46   19.24
  -4  -1 -14  545.85   14.36
  -4  -1  14  523.52   13.92
   4  -1 -14  575.39   20.20
  -4   1 -14  544.44   10.55
   4   1 -14  579.99   20.21
   4   1  14  565.66   17.57
  -4   1 -14  549.60   14.53
  -4   1  14  539.91   14.28
   4   1  14  571.15   19.30
   4  -1  15 1553.76   33.13
  -4   1 -15 1550.04   24.12
  -4   1  15 1487.12   23.53
   4   1 -15 1552.11   21.63
  -4  -1 -15 1557.37   24.07
   4  -1 -15 1580.02   33.88
   4   1  15 1624.22   29.64
  -4   1 -15 1566.94   33.10
   4  -1  15 1531.14   18.54
  -4  -1  15 1556.64   23.83
   4   1 -15 1566.25   33.68
  -4   1 -15 1601.15   19.01
   4   1  15 1581.49   32.44
   4  -1  16  318.57   15.82
  -4   1 -16  314.86   10.79
  -4   1  16  295.18   10.40
  -4   1 -16  310.11    8.90
   4   1  16  308.39   13.24
  -4   1 -16  331.38   15.73
   4  -1 -16  331.73   16.41
   4   1 -16  322.40   16.20
   4   1  16  315.70   15.34
  -4   1 -17   46.59    4.24
  -4   1  17   47.34    4.24
   4   1  17   51.41    7.04
   4  -1  17   42.59    6.78
  -4   1 -17   43.88    6.13
   4  -1 -17   51.33    7.16
   4   1 -17   48.04    6.99
   4   1  17   47.99    5.51
  -4   1 -17   42.13    3.56
   4  -1  18  438.01   19.08
  -4   1 -18  438.37   12.33
  -4   1  18  434.85   12.02
   4   1  18  434.22   16.01
   4  -1 -18  414.24   18.78
   4   1 -18  433.07   19.25
   4   1  18  449.97   19.03
   4   1  19    9.43    5.16
   4  -1  19    3.25    3.56
   4   1 -19    1.89    4.05
   4  -1 -19    7.33    4.57
   4   1  20   37.02    6.56
   4  -1  20   35.03    6.47
   4   1 -20   39.47    6.47
   4  -1 -20   28.90    5.73
   4  -1  21  112.44   11.10
   4   1  21  104.15   10.57
   4  -1 -21   86.42    9.96
   4   1 -21   81.83    9.40
   4  -1  22  445.19   21.49
   4   1 -22  438.43   21.37
   4  -1 -22  391.50   20.05
   4   1  22  393.12   19.19
   4   1  22  400.63   20.11
   4   1  23   12.25    5.27
   4  -1  23   12.07    5.71
   4  -1 -23    7.34    4.36
   4   1 -23    6.02    4.57
   4   1  23    3.38    3.79
   4   1  24   23.98    6.24
   4  -1  24   20.19    5.81
   4  -1 -24   22.66    6.17
   4   1 -24   26.34    6.48
   4   1  24   18.57    4.70
   4  -1  25  140.02   13.32
   4  -1 -25  130.85   12.62
   4   1 -25  133.63   12.77
   4   1  25  129.98   12.90
   4  -1  25  121.69   11.03
   4   1  25  123.74   11.51
   4  -1  26  270.83   18.90
   4   1  26  266.93   17.28
   4   1 -26  252.17   17.71
   4  -1 -26  268.09   18.29
   4  -1  26  264.18   16.36
   4   1  26  279.36   18.80
   4  -1 -27    7.58    4.65
   4   1 -27    9.66    5.14
   4   1  27   10.73    4.34
   4   1  28   96.30   10.94
  -4  -2   0  470.53    9.20
  -4  -2   0  479.19   13.62
  -4  -2   0  495.42   14.14
   4   2   0  474.14   10.72
  -4  -2   0  485.86   11.58
  -4   2   0  465.96   13.87
  -4   2   0  496.08   12.09
  -4  -2   0  509.13   11.00
  -4  -2   0  473.12   11.79
   4   2   1    9.01    1.74
   4  -2  -1    7.38    1.98
  -4  -2  -1   11.13    1.76
  -4   2  -1   10.55    1.75
  -4  -2  -1   13.01    3.25
  -4  -2   1   16.97    3.45
  -4  -2   1   10.95    1.62
  -4  -2   1    8.78    1.90
   4   2  -1   11.92    2.30
  -4  -2  -1   11.34    2.14
  -4   2   1    7.23    1.77
  -4  -2   1   17.72    3.65
  -4  -2  -1   10.28    3.11
  -4  -2   1    8.15    1.71
  -4  -2  -1    7.64    1.45
  -4   2   1   16.69    3.74
  -4   2  -1   17.21    3.77
  -4   2  -1   11.76    1.60
  -4  -2  -1    7.62    1.58
  -4   2  -2  482.53   10.72
   4   2  -2  494.07   12.23
  -4  -2  -2  510.20   13.66
  -4  -2   2  511.56   14.60
  -4  -2  -2  505.57   14.26
  -4  -2   2  524.12   14.55
  -4  -2  -2  498.55   12.76
  -4  -2   2  508.19   10.96
   4  -2  -2  503.52   13.04
  -4   2   2  509.74   14.48
  -4  -2  -2  503.92   11.06
  -4   2  -2  507.02   11.37
  -4  -2   2  519.65   12.41
  -4   2  -2  497.27    8.34
  -4   2  -2  514.91   14.61
   4   2   2  487.39    9.38
  -4  -2  -2  490.40   10.31
   4   2   3 1077.21   16.16
  -4   2  -3 1067.39   14.94
  -4  -2  -3 1123.75   20.13
  -4  -2   3 1121.74   21.64
  -4  -2  -3 1098.05   21.36
  -4  -2   3 1086.48   20.97
  -4   2  -3 1094.00   16.03
  -4  -2  -3 1069.49   19.52
  -4  -2   3 1085.87   15.16
   4  -2  -3 1049.58   19.80
  -4   2   3 1122.52   21.37
  -4   2  -3 1099.94   21.16
   4   2   3 1076.02   12.56
   4   2  -3 1081.34   18.86
  -4  -2  -3 1092.92   15.51
  -4  -2  -3 1060.14   15.93
   4   2   4 1901.68   22.57
  -4   2  -4 1923.28   19.07
  -4   2   4 1953.88   27.92
  -4  -2  -4 1908.42   25.82
  -4  -2   4 1919.56   28.78
  -4   2  -4 1919.66   27.80
  -4  -2  -4 1979.47   27.92
  -4  -2   4 1946.35   27.77
   4   2   4 1871.55   14.73
  -4  -2  -4 1939.08   27.11
   4  -2  -4 1922.35   27.39
   4   2  -4 1931.84   26.27
  -4   2  -4 1904.84   20.62
  -4  -2  -4 1965.61   19.69
  -4  -2  -4 1965.52   22.74
  -4   2  -5  100.98    4.09
   4   2   5   97.20    5.46
  -4  -2  -5   99.50    6.09
  -4  -2   5  122.55    7.84
  -4   2  -5  115.78    7.19
   4  -2  -5  100.62    6.74
  -4  -2  -5  113.45    7.14
  -4  -2   5  114.50    7.09
  -4  -2  -5   90.40    6.39
  -4   2  -5   99.34    4.63
   4   2   5   91.01    2.79
   4   2  -5  113.52    7.08
  -4   2   5  116.05    7.16
  -4  -2  -5  102.35    4.30
  -4  -2  -5  103.53    5.59
   4   2   6  211.32    8.23
   4  -2   6  242.70   10.66
  -4  -2  -6  216.45    8.49
  -4  -2   6  212.68   10.00
  -4  -2  -6  212.75    9.32
  -4  -2   6  220.81    9.39
  -4  -2  -6  209.36    9.66
  -4   2  -6  225.59    9.66
   4  -2  -6  216.26    9.98
  -4   2   6  203.89    9.18
   4   2  -6  206.68    9.71
  -4   2  -6  209.72    5.44
  -4  -2  -6  217.94    5.93
   4   2   7  786.21   16.75
  -4  -2  -7  803.79   10.68
   4  -2   7  818.98   19.69
  -4   2   7  786.49   17.75
  -4   2   7  813.87   16.44
  -4  -2  -7  794.97   15.93
  -4  -2   7  814.76   19.40
  -4  -2  -7  806.28   17.96
  -4  -2   7  814.52   17.89
  -4  -2  -7  813.75   19.68
  -4   2  -7  808.19   18.05
   4  -2  -7  788.28   19.51
   4   2  -7  785.15   19.16
  -4   2  -7  788.34    9.59
   4   2   8  156.53    7.98
   4  -2   8  185.57    9.98
  -4  -2  -8  141.32    4.25
  -4  -2  -8  147.94    6.78
  -4  -2   8  148.65    8.60
  -4  -2  -8  143.28    8.54
  -4  -2  -8  149.99    7.80
  -4  -2   8  149.14    7.88
  -4   2   8  150.06    6.96
  -4   2   8  150.63    8.01
  -4   2  -8  142.55    7.77
   4  -2  -8  144.93    8.72
  -4  -2  -8  156.14    6.36
   4   2  -8  154.18    8.99
  -4   2  -8  143.76    3.73
   4   2   9   17.40    3.36
  -4  -2  -9   13.97    2.30
  -4  -2   9   15.02    3.35
   4  -2   9   12.81    3.72
   4  -2  -9   13.52    3.26
  -4   2   9   15.60    2.27
   4   2  -9   18.97    3.55
   4   2  -9   13.46    2.12
  -4  -2  -9   15.48    2.65
  -4  -2   9   13.99    2.80
   4   2   9   15.18    1.38
  -4  -2  -9   13.42    1.96
  -4   2   9   14.17    2.77
  -4   2  -9   17.17    2.95
  -4   2  10   11.07    2.58
  -4   2 -10    9.29    2.02
   4   2 -10   15.94    3.77
   4   2  10   12.57    3.40
  -4  -2  10   10.37    2.75
   4  -2  10    7.18    3.08
   4   2  10   10.15    2.60
  -4   2 -10   13.09    3.23
  -4   2 -10   15.44    2.02
   4   2 -10    9.17    1.80
  -4   2  10   13.38    2.12
   4   2  10   10.08    1.18
   4  -2 -10    6.90    2.96
  -4  -2 -10    9.44    2.26
  -4  -2  10   10.64    2.41
  -4  -2 -10   12.44    2.01
   4   2 -11   61.24    3.59
   4   2  11   65.63    5.84
  -4  -2  11   66.92    5.99
   4  -2  11   56.12    6.04
  -4  -2  11   61.57    5.07
  -4   2 -11   65.30    6.43
  -4  -2 -11   59.94    5.19
  -4   2  11   61.54    4.25
   4   2 -11   57.50    3.93
  -4   2 -11   59.78    5.15
   4   2 -11   58.40    6.22
  -4   2  11   61.18    5.09
  -4   2 -11   64.17    3.85
   4  -2 -11   71.71    6.83
   4   2  11   60.91    2.53
   4   2  11   68.88    6.17
   4  -2  12  141.63    9.59
   4   2 -12  131.62    5.74
  -4  -2  12  134.78    8.49
   4  -2 -12  144.95    9.81
   4   2 -12  131.01    5.17
  -4   2 -12  144.47    9.47
  -4   2  12  138.70    6.20
   4   2 -12  130.88    9.28
  -4   2 -12  138.77    5.84
  -4   2 -12  137.82    7.67
  -4   2  12  134.26    7.44
   4  -2  12  121.42    3.39
   4   2  12  131.78    3.72
   4   2  12  139.41    8.58
   4   2  12  141.18    8.78
   4  -2  13  112.81    8.77
   4   2 -13  109.73    4.71
  -4  -2  13  115.35    7.93
   4   2 -13  103.58    4.95
  -4   2 -13  101.55    5.09
  -4   2 -13  107.30    8.39
   4  -2 -13  113.01    8.97
   4   2 -13  104.86    8.70
  -4   2  13  106.57    5.26
   4   2  13  109.51    7.64
   4  -2  13  100.48    3.68
  -4   2 -13  104.94    6.72
  -4   2  13  105.85    6.57
   4   2  13  103.67    3.39
   4   2  13  108.88    8.18
   4   2 -14   66.93    3.73
  -4  -2  14   65.08    6.34
   4  -2  14   66.04    7.21
   4   2 -14   52.59    6.55
  -4   2 -14   65.28    6.97
   4  -2 -14   70.58    7.46
   4   2 -14   74.37    3.97
   4   2  14   62.21    6.10
  -4   2 -14   66.80    4.39
   4  -2  14   69.50    3.46
  -4   2 -14   66.86    5.31
  -4   2  14   68.10    5.34
   4   2  14   69.01    2.91
   4   2  14   78.63    7.39
  -4  -2  15  153.47    9.44
  -4   2 -15  141.21   10.03
   4   2  15  138.59    8.89
  -4   2 -15  138.22    6.54
   4  -2 -15  151.55   10.83
   4   2  15  142.59    4.34
  -4   2  15  134.32    7.30
  -4   2 -15  141.70    7.53
   4   2  15  153.92   10.30
   4   2 -15  136.05   10.28
   4  -2  15  139.52   10.46
   4   2  16   75.82    7.78
  -4   2  16   74.83    5.48
   4  -2  16   71.08    7.58
  -4   2 -16   86.88    8.14
   4  -2 -16   83.18    8.52
   4   2  16   75.53    6.87
   4   2 -16   69.89    7.56
  -4   2 -16   80.37    5.13
  -4   2 -16   76.06    5.51
   4  -2  17   78.96    8.56
   4   2  17   72.89    6.70
  -4   2 -17   68.98    7.74
   4  -2 -17   79.92    8.36
   4   2 -17   93.99    9.18
  -4   2 -17   79.04    5.34
  -4   2 -17   72.71    5.35
  -4   2  17   81.58    5.58
   4   2  17   84.26    8.57
  -4   2 -18  221.25    9.07
  -4   2  18  216.10    8.86
   4  -2  18  193.34   13.01
  -4   2 -18  212.39   13.09
   4  -2 -18  230.10   14.11
  -4   2 -18  213.47    8.85
   4   2 -18  217.92   13.80
   4   2  18  204.12   11.17
   4   2  18  221.06   13.44
   4   2 -19    0.96    3.01
   4   2  19    8.42    3.86
   4  -2  19   -5.83    4.46
   4   2  19    0.11    2.18
  -4   2 -19    2.65    2.87
   4  -2 -19    3.16    2.84
   4   2  20    1.37    1.90
   4   2  20    1.40    3.02
   4  -2  20   -5.07    5.07
   4  -2 -20    1.25    2.87
   4   2 -20    8.31    4.03
   4   2  20   -3.17    3.78
   4   2  21   26.54    5.89
   4  -2  21   26.48    5.59
   4  -2 -21   39.95    6.68
   4   2  21   23.90    4.34
   4   2  21   27.73    5.64
   4   2 -21   27.01    5.39
   4   2  22    6.04    3.41
   4  -2  22    3.45    3.33
   4  -2 -22    6.45    3.60
   4   2 -22    6.50    3.44
   4   2  22    5.97    3.78
   4   2  23   23.44    5.70
   4   2 -23   17.68    5.15
   4  -2  23   10.68    3.46
   4  -2 -23   16.81    5.13
   4   2  23   26.77    5.81
   4   2  24    1.00    3.33
   4  -2 -24   -1.37    3.61
   4  -2  24   -7.51    5.81
   4   2 -24   -0.32    3.89
   4   2  24   -2.80    3.83
   4   2  25    8.51    4.94
   4  -2  25    2.91    3.26
   4  -2 -25    6.96    3.72
   4   2 -25    2.11    3.27
   4   2  25    3.04    3.36
   4   2  26   48.99    8.13
   4   2  26   55.79    8.80
   4  -2  26   52.77    8.52
   4  -2 -26   35.03    7.05
   4   2 -26   45.25    7.94
   4   2 -27    2.31    3.07
   4   2  27    1.74    3.63
   4  -2 -27   10.63    4.81
  -4  -2  27    7.82    3.96
  -4  -2  28   -3.71    2.99
   4   2  28   -6.35    4.45
   4   2  29   29.77    6.64
  -4   3   0 1517.00   22.31
  -4   3   0 1473.07   19.03
  -4  -3   0 1487.07   24.85
  -4  -3   0 1522.91   25.48
  -4  -3   0 1487.61   20.33
  -4   3   0 1546.14   25.97
   4   3   0 1456.01   19.95
  -4  -3   0 1486.56   13.73
  -4  -3  -1   14.54    1.59
  -4   3  -1   18.44    2.82
  -4   3   1   16.75    2.77
  -4  -3   1   28.92    4.57
  -4  -3  -1   25.78    4.16
  -4  -3   1   14.59    2.29
  -4   3   1   27.60    4.46
  -4   3  -1   28.95    4.78
   4   3  -1   17.60    2.85
   4   3   1   17.16    2.49
  -4   3  -1   19.18    2.12
  -4  -3   1   30.94    4.65
  -4   3   1   20.49    2.48
  -4  -3  -1   32.41    4.74
  -4  -3  -1   18.95    2.67
  -4  -3   1   15.98    1.45
  -4  -3   2   46.03    2.31
  -4   3  -2   54.33    4.10
  -4  -3  -2   54.43    5.22
  -4  -3   2   51.29    5.13
  -4  -3  -2   52.99    4.83
   4   3  -2   52.00    4.30
  -4  -3   2   49.69    3.44
  -4   3   2   53.07    5.32
  -4   3  -2   52.70    5.25
  -4  -3   2   57.71    5.40
  -4   3  -2   53.90    4.20
   4   3   2   52.77    3.55
  -4   3   2   53.49    4.15
  -4  -3  -2   48.99    3.92
   4   3   3  525.39   10.50
  -4   3  -3  512.11   11.73
  -4   3  -3  516.53   15.25
  -4  -3   3  533.75   15.36
  -4  -3  -3  517.98   14.24
  -4   3  -3  538.28   12.80
  -4  -3   3  523.72   10.10
  -4   3   3  528.77   15.32
  -4  -3  -3  531.72   15.24
  -4  -3   3  518.33   14.99
   4   3   3  527.36   10.26
   4   3  -3  524.52   13.70
  -4  -3  -3  528.63   12.20
  -4  -3  -4    6.55    1.47
  -4   3  -4    6.13    1.43
   4   3   4    5.58    1.34
  -4  -3   4    7.61    2.74
  -4  -3  -4   12.79    3.02
  -4  -3   4    7.41    1.38
   4  -3  -4    5.43    2.30
   4   3   4    5.38    1.28
   4   3  -4    7.07    2.46
  -4   3   4   12.38    3.25
  -4  -3   4   13.26    3.29
  -4  -3  -4    9.25    3.16
  -4   3  -4   12.08    3.26
   4   3   5  308.53    9.25
  -4  -3   5  328.61   12.50
  -4  -3  -5  313.62   10.82
  -4   3   5  318.23   11.99
  -4  -3   5  315.39    6.63
   4  -3  -5  306.77   12.10
  -4   3  -5  337.44   12.44
   4   3   5  312.40    6.83
   4   3  -5  320.63   11.67
   4   3   5  319.81    8.83
  -4  -3  -5  325.80    8.97
  -4   3  -5  321.09    8.68
   4   3   6 1122.49   18.60
  -4  -3   6 1060.67   22.50
  -4  -3  -6 1078.57   19.57
  -4  -3   6 1039.99   10.72
  -4   3   6 1048.83   21.58
  -4   3  -6 1055.60   21.66
   4   3   6 1064.29   15.68
   4   3  -6 1040.50   21.71
   4   3   6 1028.20   11.35
   4  -3  -6 1065.62   22.90
  -4   3  -6 1074.83   15.18
  -4  -3  -6 1079.72   15.95
  -4  -3  -7  120.32    5.21
   4   3  -7  108.10    7.57
  -4   3  -7  109.76    7.29
  -4  -3  -7  114.32    6.43
  -4  -3   7  120.44    8.03
  -4  -3   7  104.17    2.96
   4  -3  -7  106.40    7.72
  -4   3   7  111.49    7.28
   4   3   7  107.36    3.39
   4   3   7  117.69    5.16
  -4   3  -7  110.78    4.73
   4   3   7  108.97    6.18
  -4  -3  -8  139.99    5.49
   4  -3   8  146.56    9.31
   4   3   8  134.79    3.63
   4   3   8  128.61    3.45
  -4  -3  -8  140.34    6.94
  -4  -3   8  141.55    8.64
   4  -3  -8  136.36    8.90
  -4   3   8  142.06    8.05
  -4   3  -8  140.58    7.97
  -4   3  -8  131.58    4.98
   4   3   8  133.34    5.44
   4   3  -8  144.90    8.95
   4   3   8  141.57    7.49
   4   3   9  151.16    8.13
   4  -3   9  159.53    9.84
  -4  -3  -9  142.64    5.44
   4  -3   9  152.68    5.22
  -4  -3  -9  154.47    7.22
  -4  -3   9  158.18    9.14
   4  -3  -9  160.85    9.76
   4   3  -9  165.21    9.62
   4   3   9  143.88    3.54
  -4   3  -9  150.28    8.18
  -4  -3  -9  154.40    7.39
  -4   3   9  155.31    8.33
  -4   3  -9  148.57    5.16
   4   3   9  158.11    5.75
   4  -3  10   48.98    2.92
   4  -3 -10   54.52    6.29
  -4  -3 -10   54.41    4.34
  -4  -3  10   52.85    5.63
   4  -3  10   52.62    5.99
  -4   3  10   44.80    4.59
  -4   3 -10   48.49    4.84
   4   3 -10   42.54    5.35
   4   3  10   41.87    1.91
  -4  -3 -10   47.24    4.16
  -4   3 -10   47.30    2.84
   4   3  10   50.33    3.21
   4   3  10   56.40    5.35
   4  -3  11  271.78   13.19
   4  -3  11  266.98    6.68
  -4  -3 -11  270.64    9.12
  -4  -3  11  280.15   12.30
   4   3 -11  248.30    5.45
   4  -3 -11  278.77   13.24
   4   3 -11  265.90   12.88
  -4   3  11  269.32   10.85
  -4   3 -11  267.44   11.11
   4   3  11  225.50    4.64
  -4   3 -11  281.48    9.36
  -4  -3 -11  265.38   10.01
   4   3  11  277.91    7.44
   4   3  11  274.51   11.56
   4   3 -12   39.43    2.04
   4  -3  12   41.31    2.66
   4   3  12   43.28    5.21
   4   3  12   35.68    1.95
  -4  -3 -12   42.81    3.67
  -4   3  12   43.36    3.91
   4  -3  12   49.61    6.47
  -4  -3  12   46.42    5.29
  -4   3 -12   42.89    5.75
  -4   3  12   43.52    4.42
   4  -3 -12   47.55    6.22
   4   3 -12   46.71    6.14
  -4   3 -12   42.64    3.80
  -4  -3 -12   38.36    4.03
   4   3  12   42.35    2.96
  -4   3 -12   38.71    4.36
  -4   3  13   11.75    2.04
   4   3  13   18.49    3.94
   4  -3  13   14.16    1.63
  -4   3 -13   12.64    2.54
  -4  -3 -13   17.57    2.45
   4  -3  13   13.53    3.88
  -4  -3  13   18.53    3.78
  -4   3  13   15.69    2.88
   4   3 -13   14.41    4.06
  -4   3 -13    8.31    3.20
   4   3  13   13.19    1.34
  -4   3 -13   12.48    2.39
   4  -3 -13   14.53    3.60
   4   3  13   14.37    1.82
   4   3  14    5.24    3.29
   4  -3  14    4.20    3.22
  -4  -3  14    4.70    2.43
  -4   3 -14    2.90    2.85
   4  -3 -14   -0.51    3.72
   4   3 -14    5.67    3.13
   4   3 -14    4.76    1.37
  -4   3 -14    6.04    1.94
  -4   3  14    5.20    1.65
  -4   3 -14    5.62    1.77
   4   3  14    6.59    1.45
   4  -3  15  118.55    9.81
   4  -3 -15  112.40    9.59
  -4  -3  15  120.45    8.56
  -4   3 -15  126.88    9.72
  -4   3 -15  115.67    7.26
   4   3 -15  114.13    5.17
   4   3 -15  116.37    9.76
   4   3  15  126.60    9.37
  -4   3  15  120.66    7.29
   4   3  15  108.43    7.93
  -4   3 -15  108.19    6.39
   4   3  15  117.88    5.13
   4  -3 -16    0.60    3.42
  -4   3 -16    0.05    1.45
  -4   3  16    0.70    1.26
   4   3  16    0.00    3.01
   4  -3  16   -4.23    3.57
  -4   3 -16   -4.25    3.49
  -4  -3  16   -0.08    2.30
   4   3  16   -4.42    2.99
   4   3 -16   -1.10    2.92
  -4   3 -16    0.06    1.19
   4  -3  17  182.25   12.60
  -4  -3  17  186.75   10.82
  -4   3 -17  186.26    8.77
   4   3  17  187.59   10.91
  -4   3 -17  188.76   12.46
   4  -3 -17  185.28   12.41
   4   3 -17  178.53   12.38
  -4   3 -17  189.51    9.04
  -4   3  17  180.60    8.70
   4   3  17  193.79   12.20
   4  -3  18  104.53   10.09
   4  -3 -18  117.11   10.32
  -4  -3  18   97.42    8.13
  -4   3 -18  101.61    9.18
   4   3 -18   93.05    9.50
   4   3  18  105.59    9.47
   4   3  18   92.16    9.22
   4   3  18   92.66    7.86
  -4   3 -18   98.76    6.67
  -4   3 -18   97.71    6.41
  -4   3  18  102.83    6.48
   4  -3  19  113.74   10.65
  -4   3 -19  121.96   10.27
   4  -3 -19  131.94   11.28
   4   3 -19  116.81   10.99
   4   3  19  127.56    9.15
   4   3  19  117.46   10.42
   4   3  19  124.09   10.55
   4  -3  20   72.31    9.30
  -4   3 -20   84.44    8.99
   4   3  20   79.52    7.46
   4   3 -20   83.28    9.58
   4  -3 -20   75.29    9.42
   4   3  20   71.88    8.51
   4   3  20   79.93    9.07
   4  -3  21  657.46   25.90
   4   3  21  665.32   25.51
   4  -3 -21  622.09   25.38
   4   3  21  641.36   20.51
   4   3 -21  685.92   26.27
   4   3  21  632.27   24.67
   4  -3  22    6.70    6.16
   4   3  22   11.87    5.39
   4  -3 -22    7.29    5.77
   4   3 -22   10.15    5.35
   4   3  22    8.55    4.42
   4   3  23   58.73    8.37
   4  -3  23   48.09    7.67
   4  -3 -23   51.90    7.58
   4   3 -23   64.57    8.99
  -4  -3  23   69.00    8.09
   4   3  23   50.98    7.80
   4   3  24   -5.03    3.49
  -4  -3  24    2.38    3.06
   4   3  24    3.17    3.76
   4  -3  24   -2.92    3.90
   4  -3 -24    2.21    3.62
   4   3 -24   -3.13    3.57
   4   3  25   76.85    9.55
   4   3  25   71.66    9.38
   4  -3  25   75.93    9.99
   4  -3 -25   78.52    9.90
   4   3 -25   83.17   10.26
  -4  -3  25   80.16    9.12
  -4  -3  26   30.84    6.44
   4   3  26   24.15    6.25
   4   3  26   35.47    7.24
   4   3 -26   33.98    7.07
   4  -3  26   24.19    6.19
   4  -3 -26   34.33    7.02
  -4  -3  27    7.87    3.74
   4   3  27   13.19    4.67
   4  -3 -27    4.58    3.31
  -4  -3  28   16.96    5.05
   4   3  28   16.60    5.36
  -4   4   0   22.97    3.16
   4   4   0   25.89    2.89
   4   4   0   27.61    3.34
  -4   4   0   27.20    4.02
  -4   4  -1   21.94    3.16
  -4   4   1   18.77    3.09
   4   4   1   22.25    2.86
  -4   4   1   24.94    3.91
  -4   4  -1   20.89    3.67
   4   4  -1   17.03    2.79
   4   4   1   20.13    2.78
  -4   4   1   23.86    2.92
  -4   4  -2  146.31    7.28
   4   4   2  152.81    4.81
  -4   4   2  144.82    7.98
  -4  -4   2  158.77    8.88
  -4   4   2  149.34    8.71
  -4   4  -2  152.69    8.76
   4   4  -2  146.57    7.58
   4   4   2  152.07    6.58
  -4   4  -3   55.96    4.38
   4   4   3   55.04    3.26
  -4   4   3   57.46    5.34
  -4  -4   3   54.17    5.50
  -4   4   3   52.56    5.41
  -4   4  -3   56.54    5.70
   4   4   3   55.26    4.70
   4   4  -3   57.40    5.02
   4   4   3   59.07    4.03
  -4   4  -4  170.71    7.57
  -4   4   4  174.55    9.32
   4   4   4  180.30    6.30
  -4  -4   4  194.18   10.12
  -4   4   4  191.79    9.82
  -4   4  -4  190.39    9.87
   4   4  -4  183.88    8.95
   4   4   4  170.43    6.53
   4   4   4  188.03    7.92
  -4  -4   5  990.07   22.45
  -4  -4  -5  911.39   19.54
  -4   4   5  953.92   21.47
  -4   4  -5  939.87   21.35
   4   4  -5  993.17   21.37
   4  -4   5  956.12   12.68
   4   4   5  915.37   14.48
   4   4   5  961.83   17.42
  -4  -4  -5  990.67   17.82
  -4   4  -5  912.42   16.73
   4   4   5  963.13   15.75
   4  -4   6  158.98    6.81
  -4  -4   6  167.08    9.63
  -4  -4  -6  163.70    8.34
  -4   4   6  159.62    9.08
  -4   4  -6  175.87    9.46
   4   4  -6  160.32    9.28
   4  -4   6  170.54    5.06
   4   4   6  157.28    7.02
  -4   4  -6  165.27    6.96
   4   4   6  172.73    7.27
  -4  -4  -6  171.30    7.32
  -4  -4  -7  254.75    8.78
   4  -4   7  251.08    8.37
  -4   4  -7  244.30   10.98
  -4  -4   7  245.62   11.56
  -4  -4  -7  241.04    9.91
   4  -4  -7  261.44   12.14
  -4   4   7  244.77   11.03
   4   4  -7  251.46   11.49
   4  -4   7  241.26    5.76
   4   4   7  240.60    8.52
  -4   4  -7  244.66    8.34
   4   4   7  244.03    9.09
  -4   4  -8    4.19    1.97
  -4  -4  -8    1.79    1.20
   4   4   8    4.90    1.95
   4  -4   8    2.45    1.19
  -4   4  -8    3.58    1.30
  -4  -4   8    1.55    2.31
  -4  -4  -8    3.45    1.74
  -4   4   8    2.82    1.82
   4   4  -8    4.90    2.87
   4  -4   8    2.71    0.71
   4  -4  -8    1.64    2.13
   4   4   8    2.39    1.44
   4   4  -9   -1.96    2.62
   4   4   9    0.20    2.04
  -4  -4  -9    0.05    0.81
   4  -4   9    0.60    0.92
  -4   4  -9    0.20    1.09
   4  -4  -9   -0.29    2.47
  -4  -4   9   -2.80    2.76
  -4  -4  -9    1.94    1.54
  -4  -4  -9    5.04    2.27
   4   4   9   -0.09    0.60
  -4   4   9    1.61    2.01
  -4   4  -9   -0.08    1.69
   4   4   9   -0.92    1.08
   4  -4  10   51.79    3.70
   4   4  10   56.46    3.16
  -4  -4 -10   51.26    3.84
  -4  -4 -10   54.01    4.64
  -4  -4  10   58.00    5.94
   4  -4  10   67.46    7.32
  -4   4  10   49.75    5.09
   4  -4 -10   48.96    5.89
   4   4 -10   48.73    5.91
  -4  -4 -10   51.14    4.88
  -4   4 -10   46.52    5.07
  -4   4 -10   52.96    3.73
   4   4  10   54.94    4.06
   4   4  10   57.02    5.32
   4   4 -11   23.21    4.41
   4  -4  11   25.93    2.64
   4   4  11   21.42    3.77
  -4  -4  11   22.58    4.02
  -4  -4 -11   21.03    2.99
   4  -4  11   40.90    6.41
   4  -4 -11   25.31    5.97
  -4   4  11   31.17    4.71
  -4   4 -11   24.09    3.82
   4   4  11   25.42    2.20
  -4  -4 -11   21.10    3.18
  -4   4 -11   24.20    2.59
   4   4  11   23.98    2.85
   4   4  12    3.00    2.49
   4  -4  12    3.76    1.25
   4  -4  12   10.08    4.47
  -4  -4 -12    2.65    1.56
  -4  -4  12    1.22    2.16
   4  -4 -12   10.39    4.22
   4   4  12    3.64    0.97
  -4   4 -12    3.42    2.10
   4   4 -12    5.49    3.50
  -4   4  12   14.12    3.45
  -4   4 -12    1.38    1.42
  -4  -4 -12    1.27    1.51
   4   4  12    3.82    1.59
   4   4  13    8.56    2.95
   4  -4  13   13.03    4.32
  -4  -4 -13   13.14    2.41
  -4  -4  13    9.80    3.19
  -4   4 -13   14.05    4.41
   4  -4 -13   12.54    4.21
   4   4 -13   10.75    3.68
  -4   4 -13   10.43    2.51
  -4   4  13   11.75    2.87
  -4   4 -13    9.61    2.90
  -4  -4 -13   11.30    2.91
   4   4  13   12.34    2.10
   4  -4  14  147.95   10.81
  -4  -4 -14  129.19    6.40
  -4  -4  14  123.80    8.96
  -4   4 -14  119.24    9.45
   4  -4 -14  128.96   10.11
  -4   4  14  124.53    7.92
  -4   4 -14  130.38    8.15
  -4   4 -14  116.31    7.05
   4   4  14  125.04    6.22
   4   4  14  124.88    9.93
   4   4 -14  126.68    9.95
   4   4  14  129.19    8.98
   4  -4 -15   46.67    6.72
   4   4  15   32.61    5.06
  -4  -4 -15   44.61    3.66
   4   4  15   37.22    5.84
   4  -4  15   37.97    6.28
  -4  -4  15   50.93    6.01
  -4   4 -15   35.21    5.47
  -4   4 -15   43.93    4.72
  -4   4  15   41.21    4.73
   4   4 -15   38.80    6.01
  -4   4 -15   34.80    4.23
   4   4  15   43.78    3.80
   4   4  16   49.45    6.15
   4  -4  16   47.28    6.88
  -4  -4  16   41.14    5.36
   4  -4 -16   48.61    6.70
  -4   4 -16   46.59    6.33
  -4   4  16   48.25    4.96
   4   4 -16   36.17    5.92
  -4   4 -16   42.26    4.69
  -4   4 -16   54.66    5.38
   4   4  16   43.42    6.34
   4   4  16   45.51    3.94
   4   4  17   26.44    4.87
   4  -4  17   23.41    5.59
  -4  -4  17   24.15    4.37
   4   4 -17   24.81    5.24
   4  -4 -17   28.11    5.26
  -4   4 -17   22.18    4.68
   4   4  17   20.23    4.65
  -4   4 -17   26.48    3.75
  -4   4  17   29.67    3.95
  -4   4 -17   22.75    3.50
   4   4  18   48.08    6.72
  -4   4 -18   57.26    7.19
   4  -4  18   58.67    7.81
  -4  -4  18   52.28    6.25
   4  -4 -18   48.23    7.08
   4   4 -18   61.37    8.00
   4   4  18   54.03    6.25
  -4   4 -18   57.11    5.61
  -4   4 -18   50.10    5.00
   4   4  18   54.90    7.37
  -4  -4  18   60.03    6.42
   4   4  19  202.37   14.03
   4  -4  19  176.31   13.21
   4  -4 -19  189.20   13.76
  -4  -4  19  193.96   11.77
   4   4  19  193.98   11.70
  -4   4 -19  195.96   12.93
  -4   4 -19  191.89   10.10
   4   4 -19  204.52   14.15
  -4  -4  19  186.08   11.39
   4   4  19  197.37   13.14
  -4  -4  20   -1.95    2.97
   4   4  20   -1.40    2.95
   4  -4  20   -2.09    3.85
  -4  -4  20    0.46    1.97
  -4   4 -20   -3.18    2.84
   4  -4 -20    3.61    3.88
   4   4 -20    2.55    3.22
   4   4  20    1.00    3.07
   4   4  20    0.69    1.99
  -4  -4  21   13.91    3.85
   4   4  21   10.50    3.99
  -4  -4  21   16.45    3.68
   4  -4  21    9.33    3.92
  -4   4 -21   14.44    4.45
   4  -4 -21   12.19    4.16
   4   4 -21   11.07    4.00
   4   4  21   16.07    3.67
   4   4  21   16.73    4.95
   4   4  22   40.66    7.45
   4   4 -22   41.26    7.22
   4  -4 -22   37.38    6.65
  -4  -4  22   39.16    5.91
   4   4  22   38.15    6.65
   4  -4  22   45.06    7.91
  -4   4 -22   43.10    6.79
   4   4  23    3.25    3.27
  -4  -4  23   -2.59    3.11
   4   4  23    2.47    2.92
   4   4 -23   -2.64    4.02
   4  -4  23   -2.64    4.14
   4  -4 -23    1.84    3.34
  -4  -4  24    1.04    2.49
   4   4  24    0.94    2.95
   4   4  24    0.82    3.12
   4  -4 -24   -3.57    4.24
   4  -4  24   -2.53    3.82
   4   4 -24   -4.36    4.75
  -4  -4  25   -2.12    3.27
   4   4  25    9.93    4.99
   4   4  25    3.87    2.98
   4  -4  25   -1.24    5.00
   4  -4 -25   -3.30    4.49
   4   4 -25   -0.23    3.27
   4   4  26    3.72    3.87
   4   4  26    1.77    3.53
   4   4 -26   -2.29    4.19
   4  -4 -26    0.66    3.47
   4   4  27    2.08    2.86
  -4   5   0  365.97   12.88
  -4   5   0  381.50   14.60
   4   5   0  372.18   10.92
   4   5   0  373.62   11.99
  -4   5  -1    1.33    1.75
   4  -5   1    0.26    1.54
  -4   5   1   -1.95    2.23
   4   5  -1    0.45    1.09
  -4   5  -1    4.41    3.02
  -4   5   1    2.69    2.93
   4   5  -1    0.35    1.60
   4   5   1    1.64    1.68
   4   5   1    0.44    1.74
  -4   5  -2  181.95    8.72
   4   5   2  190.97    4.71
  -4   5   2  193.93    9.87
  -4   5   2  195.22   10.41
  -4   5  -2  199.71   10.49
   4   5  -2  189.13    6.96
   4   5  -2  200.49    9.38
   4   5   2  202.69    8.44
   4  -5   2  196.42    7.74
   4   5   2  193.28    9.15
  -4   5  -3  287.97   10.72
   4   5   3  282.99    6.78
  -4   5   3  283.10   12.02
   4  -5   3  294.38    9.15
   4   5  -3  299.80   11.75
  -4   5   3  271.60   12.39
  -4   5  -3  277.51   12.48
   4   5   3  290.46   11.03
   4   5   3  288.55    9.80
  -4   5   4  123.54    8.10
  -4   5   4  117.06    8.18
  -4   5  -4  110.91    8.07
   4   5  -4  121.97    7.78
   4  -5   4  116.44    5.57
   4   5   4  117.26    6.14
   4   5   4  111.57    6.78
   4   5  -4  110.43    5.53
  -4   5  -4  107.62    6.53
   4   5   4  112.23    4.91
  -4   5   5  117.74    8.17
  -4   5   5  122.43    8.38
  -4   5  -5  126.16    8.57
   4   5  -5  125.68    8.21
   4  -5   5  119.48    5.53
   4   5   5  124.97    7.20
   4   5  -5  117.36    5.36
  -4   5  -5  127.25    7.08
   4   5   5  121.03    5.61
  -4   5  -6   16.15    2.68
   4  -5   6   17.17    2.16
   4   5   6   16.57    2.43
  -4   5  -6   13.10    3.02
  -4   5   6   18.08    3.66
  -4   5   6   17.21    3.40
   4   5  -6   18.22    2.02
   4   5  -6   16.22    3.44
   4   5   6   16.79    2.91
  -4   5  -7    4.97    1.81
   4   5   7    6.10    1.95
  -4  -5   7    5.66    1.03
  -4   5   7    5.42    2.63
  -4   5   7    3.00    2.36
   4   5  -7    6.43    3.14
  -4   5  -7    3.91    2.39
   4  -5   7    6.68    1.47
   4   5   7    4.14    1.95
   4   5  -7    4.47    1.11
   4   5  -8  245.09    5.49
  -4   5   8  263.13   12.92
  -4  -5   8  271.38   12.90
  -4   5   8  265.29   12.09
  -4   5  -8  260.35   11.96
   4   5  -8  253.29   12.52
   4   5   8  274.45   10.16
  -4   5  -8  258.73    9.58
   4   5   8  261.22   12.68
   4   5   8  266.43    9.97
  -4  -5   8  259.94    6.53
   4   5  -9  210.17   11.73
  -4   5   9  225.68   12.45
  -4  -5   9  218.74   11.63
  -4   5   9  238.00   11.36
  -4   5  -9  220.07   11.12
  -4  -5  -9  207.74   10.28
  -4   5  -9  205.27    8.50
   4   5   9  210.67    8.90
   4   5   9  202.35   11.72
   4   5   9  207.47    7.45
   4   5   9  204.89    9.39
  -4  -5   9  200.31    6.47
  -4   5  10  435.63   17.32
  -4  -5  10  448.54   16.59
  -4   5  10  416.64   15.25
  -4   5 -10  425.64   15.42
   4   5 -10  422.84   16.82
  -4  -5 -10  436.98   14.98
  -4   5 -10  413.94   11.99
   4   5  10  410.90   12.38
   4   5  10  435.32   14.14
   4   5  10  420.11   16.76
  -4  -5  10  415.82   10.22
   4   5  10  424.11   10.58
   4  -5  11   68.76    8.17
   4   5  11   44.29    5.10
  -4  -5 -11   45.79    4.70
  -4  -5  11   48.23    6.10
  -4   5  11   51.39    5.58
  -4   5 -11   45.71    5.41
   4   5 -11   50.31    6.39
   4   5  11   51.37    6.80
  -4  -5 -11   42.98    5.13
  -4   5 -11   44.58    4.09
   4   5  11   46.80    4.56
  -4  -5  11   46.75    3.87
   4  -5  12  126.57   10.07
  -4  -5  12  117.00    8.80
  -4  -5 -12  119.67    7.11
   4   5  12  126.15    7.00
   4  -5 -12  130.78   10.43
  -4   5  12  122.77    8.60
  -4   5 -12  116.53    8.20
   4   5 -12  137.84   10.20
  -4  -5 -12  117.54    8.11
  -4   5 -12  135.36    6.92
   4   5  12  125.69    8.35
  -4  -5  12  124.33    6.58
   4   5  12  118.42    9.41
   4   5  13   30.15    4.79
  -4  -5  13   27.28    3.38
  -4   5 -13   31.68    4.83
  -4  -5  13   30.74    4.97
   4  -5  13   45.99    7.22
  -4  -5 -13   26.93    3.44
   4  -5 -13   30.44    5.67
   4   5 -13   26.80    5.25
  -4   5  13   31.87    4.54
  -4   5 -13   28.55    3.96
   4   5  13   32.82    5.94
  -4  -5 -13   30.42    4.44
   4   5  13   29.41    3.54
   4  -5  14  623.13   22.49
  -4   5 -14  630.82   18.93
  -4  -5  14  664.85   21.07
  -4  -5 -14  659.21   15.69
  -4   5  14  631.26   18.65
  -4   5 -14  671.83   22.09
   4   5 -14  656.35   22.91
  -4   5 -14  636.52   18.02
  -4  -5 -14  646.87   19.78
   4   5  14  654.39   15.90
   4   5  14  656.73   20.31
  -4  -5  14  672.35   16.86
   4  -5 -14  669.69   23.53
   4   5  14  640.49   22.93
   4   5  15    9.98    2.70
   4   5  15   17.26    4.60
  -4  -5  15   13.34    3.35
  -4   5 -15   12.71    3.31
   4  -5  15   24.67    6.23
  -4  -5 -15    7.50    2.11
  -4  -5  15    8.79    3.81
   4  -5 -15   18.58    5.89
  -4   5 -15   16.67    4.86
   4   5 -15   10.38    4.34
  -4   5  15    8.00    2.76
  -4   5 -15   10.06    2.94
   4   5  15   10.03    4.43
  -4  -5 -15   10.90    3.35
   4   5  16  197.17   13.44
   4  -5  16  214.95   13.94
  -4  -5  16  206.44   12.20
  -4   5  16  202.19   10.53
  -4   5 -16  212.73   13.03
   4  -5 -16  213.37   14.13
  -4   5 -16  209.76   10.92
   4   5 -16  221.56   14.14
  -4   5 -16  202.96   10.75
   4   5  16  207.55    9.12
   4   5  16  210.92   12.52
  -4  -5  16  211.10   10.51
   4   5  17   78.57    9.03
  -4  -5  17   79.20    7.66
   4  -5  17   85.31    9.50
  -4   5 -17   84.55    8.59
   4  -5 -17   88.37    9.39
  -4   5  17   83.67    6.85
   4   5 -17   82.89    9.32
  -4   5 -17   90.44    7.12
  -4   5 -17   84.78    7.30
   4   5  17   90.23    8.51
  -4  -5  17   83.04    6.94
   4   5  18  126.80   11.28
   4  -5  18  142.62   12.12
  -4   5 -18  130.50    8.44
  -4  -5  18  144.39   10.35
  -4   5 -18  137.66   10.79
   4  -5 -18  123.32   11.30
   4   5 -18  120.00   11.04
  -4   5 -18  128.03    8.73
   4   5  18  126.27   10.35
  -4  -5  18  128.45    9.03
   4   5  19   -3.14    3.57
   4   5  19    2.13    3.47
  -4  -5  19   -2.15    2.55
   4  -5  19    2.95    3.39
  -4  -5  19    2.19    2.58
  -4   5 -19   -1.99    2.88
  -4   5 -19   -1.25    1.90
   4  -5 -19   -1.19    3.94
   4   5 -19    0.41    3.18
   4  -5  20  120.56   11.63
   4   5  20  116.34   11.24
  -4  -5  20  107.84    9.13
   4   5 -20  114.56   11.35
  -4   5 -20  118.04   10.55
   4  -5 -20  115.98   10.97
   4   5  20  108.42    9.01
   4   5  20  107.66   10.14
  -4  -5  20  112.83    9.17
   4   5  21   13.00    4.80
   4   5  21    9.34    4.20
  -4  -5  21    9.47    3.64
  -4  -5  21   13.01    3.93
   4  -5  21   14.50    5.56
  -4   5 -21   10.69    4.21
   4  -5 -21   15.09    5.15
   4   5 -21    9.79    4.92
   4   5  21    9.99    3.15
   4  -5  22  214.80   15.84
   4   5  22  222.48   16.03
  -4   5 -22  221.85   14.98
   4  -5 -22  235.61   16.26
   4   5 -22  240.52   16.79
   4   5  22  221.92   15.43
  -4  -5  22  212.92   13.18
   4   5  23   36.70    6.87
   4   5  23   41.33    7.91
   4  -5  23   34.03    7.20
  -4   5 -23   41.81    6.91
   4  -5 -23   35.28    7.35
   4   5 -23   30.57    6.72
   4   5  24   68.48    9.08
   4  -5  24   67.64    9.76
   4   5  24   75.58    9.99
   4   5 -24   71.26    9.90
   4  -5 -24   86.09   10.51
   4   5  25   39.04    7.28
   4  -5  25   35.26    7.27
   4   5  25   23.70    6.30
   4   5 -25   35.33    7.52
   4  -5 -25   36.91    7.51
   4   5  26    4.85    3.61
  -4   5  26   -1.67    4.45
   4   6   0  244.28   10.27
  -4   6   0  252.12   12.80
   4  -6   0  260.33   10.48
   4   6   0  265.48   11.01
  -4   6   0  262.12   11.68
   4   6   0  264.29   11.87
  -4   6  -1   44.60    4.85
  -4   6   1   49.54    5.51
   4  -6  -1   38.96    4.34
  -4   6   1   45.76    5.75
  -4   6  -1   41.10    5.61
   4   6  -1   38.70    3.69
   4  -6   1   42.96    4.39
   4   6   1   54.46    6.20
   4   6  -1   42.60    4.94
   4   6   1   43.38    6.57
   4   6  -1   39.36    5.07
   4   6  -1   41.91    4.31
   4   6   1   46.12    5.83
  -4   6  -2  171.15    9.18
   4   6  -2  161.60    7.90
   4   6   2  148.15    3.74
  -4   6   2  167.08    9.80
   4   6  -2  171.91    9.36
  -4   6   2  153.99   10.00
  -4   6  -2  162.21   10.19
   4   6  -2  167.45    6.96
   4  -6   2  159.07    7.72
   4   6   2  169.52    8.58
   4   6   2  166.86    9.17
   4   6   2  164.05    8.89
   4   6  -3    4.64    2.01
   4  -6   3    0.41    1.22
  -4   6  -3    3.55    2.37
  -4   6   3    8.11    3.31
   4   6   3    4.66    1.26
  -4   6   3    9.15    3.84
  -4   6  -3    6.64    3.56
   4   6  -3    4.51    1.40
   4   6  -3    8.70    3.19
   4   6   3    2.58    2.19
   4   6   3    3.76    2.12
   4   6  -4  262.02    8.92
  -4   6   4  267.13   12.83
  -4   6   4  280.42   13.41
  -4   6  -4  262.80   12.99
   4   6  -4  268.39    7.43
   4   6  -4  266.36   12.00
   4  -6   4  269.14    9.62
   4   6   4  267.83   11.51
  -4   6  -4  283.04   11.50
   4   6   4  268.12    7.39
   4   6   4  265.42   12.07
  -4   6  -5   32.40    4.21
   4   6  -5   32.07    3.18
  -4   6   5   27.33    4.56
  -4   6   5   33.83    5.06
  -4   6  -5   35.80    5.05
   4   6  -5   28.94    4.27
   4  -6   5   35.05    3.52
   4   6   5   36.62    5.09
   4   6   5   37.74    4.52
   4   6   5   33.74    3.13
  -4   6   6  234.77   12.51
   4   6  -6  226.28    7.30
  -4   6   6  243.33   12.37
  -4   6  -6  228.16   11.97
   4   6  -6  240.83   12.11
   4  -6   6  241.39    8.69
   4   6   6  231.64   10.44
  -4   6  -6  241.72   10.38
   4   6   6  245.31    8.54
   4   6   6  233.41   11.92
  -4   6   7   41.05    5.63
   4   6  -7   40.98    2.87
  -4   6   7   41.46    5.47
  -4   6  -7   40.92    5.61
   4   6  -7   42.36    5.24
   4  -6   7   45.14    3.82
   4   6   7   38.84    5.30
  -4   6  -7   48.24    4.73
   4   6   7   38.62    3.74
   4   6   7   39.96    4.60
   4   6  -8    0.13    0.70
   4   6   8   -0.23    1.48
  -4   6   8    2.14    2.37
  -4  -6   8    2.22    0.83
  -4   6   8    1.39    2.64
  -4   6  -8    3.52    2.69
   4   6  -8    0.15    2.81
  -4   6  -8    1.33    1.49
   4   6   8    0.61    2.97
   4   6   8    0.61    1.62
   4   6  -9   10.96    3.44
   4   6   9   10.41    2.56
  -4   6   9   11.42    3.40
  -4   6  -9    8.60    3.05
  -4  -6   9    9.20    1.37
  -4   6   9   11.15    3.02
   4   6   9    7.32    3.05
  -4   6  -9   13.58    2.77
   4   6   9   12.62    2.91
  -4  -6  10   39.43    2.99
   4   6  10   44.97    4.92
  -4   6  10   39.03    5.60
  -4   6  10   45.38    5.63
  -4   6 -10   40.52    5.36
   4   6 -10   40.97    6.13
  -4  -6 -10   42.60    5.39
   4   6  10   46.62    4.79
   4   6  10   27.75    5.04
  -4   6 -10   37.97    4.35
   4   6  11   24.72    3.99
  -4   6  11   29.71    5.66
  -4  -6  11   33.08    2.99
  -4  -6 -11   27.13    4.42
  -4   6  11   39.32    5.23
  -4   6 -11   26.02    4.56
   4   6 -11   28.98    5.22
  -4   6 -11   31.23    3.76
   4   6  11   25.32    4.95
   4   6  11   25.73    3.84
   4   6  12  252.49   14.31
  -4   6  12  247.33   14.29
  -4  -6  12  271.25   13.88
  -4   6  12  256.60   12.73
  -4   6 -12  262.73   12.90
   4   6 -12  260.87   14.43
  -4   6 -12  254.71   10.64
  -4  -6 -12  251.87   12.64
   4   6  12  268.01   11.28
   4   6  12  263.87   12.02
  -4  -6  12  275.01    9.22
   4   6 -13    3.99    4.42
   4   6  13    2.29    2.47
  -4  -6  13    9.77    2.70
  -4   6  13   -4.62    3.44
  -4  -6  13   10.79    3.85
  -4   6 -13   -0.02    1.97
  -4   6  13    2.93    2.71
  -4   6 -13   -0.38    2.29
  -4   6 -13    0.34    1.56
  -4  -6 -13    0.06    2.34
   4   6  13    1.74    3.33
   4   6  13   -0.21    1.62
   4   6  14   28.82    5.04
  -4  -6  14   26.47    3.72
  -4   6  14   16.95    4.89
  -4  -6  14   23.10    4.90
   4  -6  14   33.34    7.15
  -4   6  14   24.98    4.63
  -4   6 -14   16.37    3.74
   4   6 -14   15.48    5.00
  -4   6 -14   19.57    3.89
  -4  -6 -14   22.19    4.38
   4   6  14   20.57    5.03
   4   6  14   20.25    3.44
   4   6  15  454.27   20.29
  -4   6 -15  443.77   16.76
   4  -6  15  447.53   19.85
  -4   6  15  444.73   19.90
  -4  -6  15  425.18   18.08
  -4  -6 -15  435.12   13.78
  -4  -6 -15  448.87   17.70
  -4   6  15  429.91   16.32
  -4   6 -15  430.23   18.53
   4   6 -15  473.51   20.59
  -4   6 -15  419.90   15.99
   4   6  15  450.48   14.73
   4   6  15  438.18   17.28
  -4  -6  15  439.17   13.96
   4   6  16    2.59    1.95
   4   6  16    1.62    3.24
   4   6  16    0.11    2.42
  -4  -6  16    2.71    2.21
  -4   6  16    3.59    4.17
  -4  -6  16    0.81    2.29
  -4   6 -16    3.85    3.35
   4   6 -16    1.73    3.38
  -4   6 -16    1.79    2.29
  -4   6 -16    1.29    2.05
  -4   6  16    1.09    2.20
  -4  -6 -16    2.44    2.20
   4   6  17   45.16    7.10
   4   6  17   41.94    6.06
  -4  -6  17   43.75    4.92
  -4   6  17   37.46    6.44
  -4   6 -17   40.21    5.37
  -4  -6  17   42.90    6.19
   4  -6  17   47.67    7.75
  -4   6 -17   39.33    6.13
   4   6 -17   39.62    6.75
  -4   6  17   34.33    4.78
  -4   6 -17   45.83    5.45
   4   6  18   63.68    7.47
   4   6  18   63.37    8.56
  -4   6  18   69.97    8.77
  -4  -6  18   72.45    7.69
   4  -6  18   71.89    9.16
  -4   6 -18   63.06    6.84
  -4   6 -18   66.26    6.54
  -4   6 -18   67.31    7.92
   4   6 -18   76.14    9.58
   4   6  19   25.20    4.77
   4   6  19   22.79    5.23
  -4   6  19   21.59    5.40
  -4   6 -19   14.86    4.30
  -4  -6  19   21.30    4.44
   4  -6  19   29.23    6.67
   4   6 -19   19.40    5.44
  -4   6 -19   19.78    4.12
   4   6  20   14.67    4.65
  -4   6  20    7.71    3.56
   4   6  20    9.63    4.23
  -4  -6  20    9.38    2.99
   4  -6  20   11.37    5.61
   4   6 -20   11.80    4.54
  -4   6 -20    7.46    2.84
  -4   6 -20   11.68    3.58
   4  -6  21  112.50   11.71
   4   6  21   95.56   10.85
  -4   6  21   90.07   10.53
  -4  -6  21   86.94    8.54
  -4   6 -21   92.74    9.63
   4   6 -21   89.17   10.45
   4   6  21   85.86    9.44
   4   6  22   26.99    6.16
  -4   6  22   14.91    4.71
   4  -6  22   32.89    7.39
   4   6  22   20.91    5.80
  -4   6 -22   22.64    4.96
   4   6 -22   13.64    5.22
   4   6  23   12.42    4.47
  -4   6  23    8.02    3.80
   4  -6  23   13.60    5.49
   4   6  23   20.85    6.06
  -4   6 -23   14.78    4.65
   4   6 -23   18.53    5.77
   4   6  24   12.96    4.49
  -4   6  24    4.26    3.54
   4  -6  24   12.85    5.46
  -4   6 -24    0.73    3.19
   4   6  24   11.24    5.14
   4   6 -24    3.19    3.72
   4   6  25    1.99    3.15
  -4   6  25    4.99    4.39
  -4   7   0   80.35    7.18
   4   7   0   84.45    6.82
   4  -7   0   80.11    6.45
   4   7   0   87.01    6.98
   4   7   0   75.24    7.31
  -4   7  -1  152.97    9.53
  -4   7   1  158.42   10.04
   4   7   1  174.02    9.56
   4   7  -1  170.96    8.89
   4   7  -1  167.88    9.83
   4  -7   1  166.26    8.95
   4   7   1  161.45    9.29
   4  -7  -1  158.09    9.10
   4   7  -1  152.18    9.95
   4   7   1  166.72   10.03
   4   7   2   26.36    1.48
  -4   7  -2   33.42    4.92
  -4   7   2   40.42    6.02
   4   7   2   36.96    5.35
   4   7   2   39.56    5.37
   4   7  -2   35.09    5.83
   4   7  -2   34.42    4.24
   4   7  -2   32.96    3.37
   4   7  -2   40.14    5.52
   4  -7   2   38.99    4.54
   4  -7  -2   42.90    5.20
   4  -7  -3 1848.76   32.03
  -4   7   3 1876.76   34.82
   4   7   3 1835.18   32.00
   4   7  -3 1800.47   26.15
   4   7  -3 1856.16   22.92
   4   7  -3 1824.49   32.88
   4  -7   3 1832.86   28.28
   4   7   3 1905.26   32.85
  -4   7  -3 1806.35   32.08
   4   7   3 1778.43   16.11
  -4   7   4  591.00   19.96
   4   7   4  575.51   18.82
   4   7   4  562.49   10.64
   4   7  -4  582.79   14.20
   4   7  -4  566.75   11.79
   4   7  -4  590.30   19.24
   4  -7   4  574.93   15.62
   4   7   4  594.65   18.27
  -4   7  -4  576.70   17.84
  -4   7   5   75.36    7.67
   4   7   5   60.62    6.57
   4   7  -5   58.76    4.34
   4  -7   5   65.85    5.27
   4   7  -5   64.71    6.89
   4   7   5   67.99    6.41
  -4   7  -5   62.34    5.93
   4   7   5   69.02    4.28
   4   7   6  118.12    9.00
  -4   7   6  121.42    9.71
   4   7  -6  125.34    5.85
   4   7  -6  118.20    9.08
   4  -7   6  126.96    7.17
   4   7   6  123.07    8.33
  -4   7  -6  119.56    8.07
   4   7   6  122.68    6.13
   4   7   7  337.66   15.30
  -4   7   7  332.07   15.85
  -4   7   7  323.87   14.77
  -4   7  -7  335.63   15.34
   4   7  -7  328.88    8.50
   4   7   7  342.65   13.76
   4   7  -7  327.49   15.06
  -4   7  -7  328.68   13.19
   4   7   7  329.12   10.62
   4   7   8   -2.65    1.86
   4   7   8    6.29    4.04
  -4   7   8    1.95    2.94
  -4   7   8    4.45    3.40
  -4   7  -8    1.02    2.43
   4   7  -8   -2.78    3.04
   4   7   8    2.71    2.33
  -4   7  -8    1.09    1.94
   4   7   9   13.35    2.87
   4   7   9   10.15    3.46
  -4   7   9    8.64    3.52
  -4   7  -9    5.23    2.69
  -4   7   9    9.74    3.17
   4   7  -9    0.30    3.57
  -4   7  -9    8.70    2.60
   4   7   9   16.84    3.59
  -4  -7 -10   18.67    4.04
   4   7  10   22.78    3.72
   4   7  10   23.43    5.21
  -4   7  10   16.05    4.53
  -4   7  10   26.22    5.07
  -4   7 -10   30.48    5.24
   4   7 -10   15.95    4.22
  -4   7 -10   19.43    3.52
   4   7  10   19.84    3.83
   4   7  11  535.81   21.00
  -4   7  11  545.99   21.39
  -4   7  11  556.98   19.54
  -4   7 -11  534.84   19.50
  -4   7 -11  553.40   17.03
   4   7 -11  573.03   21.71
  -4  -7 -11  556.98   19.90
   4   7  11  568.13   17.64
   4   7  11  548.63   16.87
   4   7  12   14.61    3.27
   4   7  12   13.16    4.34
  -4   7  12   14.32    4.80
  -4   7  12   13.79    3.66
  -4   7 -12   14.21    3.80
   4   7 -12   11.30    4.84
  -4  -7 -12   10.62    3.02
  -4   7 -12   10.29    2.81
   4   7  12    9.63    2.65
   4   7  13  308.16   16.66
  -4   7  13  314.86   17.05
  -4   7  13  307.23   14.75
  -4   7 -13  303.18   14.76
   4   7  13  314.40   13.72
   4   7 -13  306.85   16.54
  -4  -7 -13  309.15   15.25
  -4   7 -13  313.11   12.84
   4   7  13  315.08   13.33
   4   7  14   58.29    6.49
   4   7  14   64.47    8.77
  -4   7  14   63.08    8.67
  -4   7  14   48.87    6.26
  -4  -7  14   46.72    7.05
  -4   7 -14   50.90    5.42
  -4   7 -14   52.49    6.40
   4   7 -14   49.93    7.52
  -4   7 -14   60.94    7.15
  -4  -7 -14   52.99    6.79
   4   7  14   53.67    6.27
  -4   7  15  396.98   19.70
   4   7  15  411.82   20.02
  -4  -7  15  407.09   18.30
  -4   7  15  388.33   16.51
  -4   7 -15  389.98   16.61
   4   7 -15  423.38   20.05
  -4   7 -15  395.31   16.84
  -4  -7 -15  382.61   17.59
   4   7  15  406.35   15.27
   4   7  15  402.15   16.80
   4   7  16   35.73    4.79
   4   7  16   40.85    5.81
  -4   7  16   31.86    6.70
  -4   7 -16   32.45    5.79
   4   7  16   44.21    7.34
   4   7 -16   39.82    7.00
  -4  -7  16   34.81    6.05
  -4   7  16   36.34    5.23
  -4   7 -16   42.21    5.70
  -4   7 -16   37.22    5.56
  -4  -7 -16   31.91    5.11
   4   7  17   23.93    4.67
  -4   7  17   22.82    5.09
   4   7  17   23.88    5.55
  -4  -7  17   25.67    5.16
   4  -7  17   28.16    6.16
  -4   7 -17   26.68    5.34
  -4   7  17   26.72    4.73
  -4   7 -17   24.01    4.28
  -4   7 -17   30.41    5.24
   4   7 -17   28.68    6.26
   4   7  18   51.27    7.02
  -4   7  18   54.01    7.76
   4   7  18   54.04    8.13
  -4  -7  18   58.38    7.50
   4  -7  18   62.91    8.94
  -4   7 -18   60.12    7.80
   4   7 -18   59.59    8.43
  -4   7 -18   45.11    6.17
   4   7  19   57.82    7.43
  -4   7  19   58.48    8.25
  -4  -7  19   54.30    7.12
   4  -7  19   60.77    9.01
   4   7  19   53.25    8.28
  -4   7 -19   39.08    6.13
  -4   7 -19   51.16    7.07
   4   7 -19   55.68    8.22
   4   7  20   11.29    4.36
  -4   7  20   12.52    4.85
  -4  -7  20    8.71    3.48
   4  -7  20   15.42    5.90
   4   7  20   11.06    4.91
  -4   7 -20   16.11    4.55
  -4   7 -20    7.51    3.04
   4   7 -20   13.58    5.29
   4  -7  21  280.38   18.19
  -4   7  21  270.73   18.09
   4   7  21  255.42   17.88
  -4  -7  21  256.37   15.18
  -4   7 -21  263.32   16.08
   4   7 -21  278.89   18.60
   4   7  21  253.83   16.27
   4   7  22   42.00    7.05
  -4   7  22   29.83    6.39
   4  -7  22   46.61    8.24
  -4   7 -22   44.10    7.26
   4   7 -22   33.11    6.88
   4   7  22   31.56    7.09
   4   7  23   25.49    5.83
  -4   7  23   16.44    5.31
   4  -7  23   37.10    8.01
  -4   7 -23   23.09    5.50
   4   7  23   14.51    5.20
   4   7 -23   31.06    7.22
   4   7  24   73.25    9.73
   4   7  25  112.14   12.23
   4   8   0  226.64   11.15
   4  -8   0  252.23   12.16
   4   8   0  242.66   12.34
   4   8   0  241.95   13.14
  -4   8   0  242.91   12.97
  -4   8  -1   11.36    3.73
  -4   8   1    8.84    3.49
   4   8  -1    6.11    2.20
   4   8  -1   10.45    3.08
   4  -8   1   10.94    3.15
   4  -8  -1    6.16    2.28
   4   8  -1   13.58    3.73
   4   8   1    4.57    2.71
   4   8   1   10.83    3.51
  -4   8  -2    1.10    2.65
  -4   8   2    3.83    3.45
   4   8   2   -1.43    2.48
   4   8  -2    4.65    3.17
   4  -8   2    2.40    2.32
   4   8  -2    2.27    3.52
   4  -8  -2    0.27    2.37
   4   8   2    8.00    4.07
   4   8  -2   -2.77    2.75
  -4   8   3  320.35   15.32
   4   8   3  302.44   14.22
   4   8   3  295.57   13.63
   4   8  -3  301.00   11.38
   4  -8   3  312.12   12.72
   4   8  -3  302.62   14.38
   4  -8  -3  311.36   14.01
   4   8  -3  294.10   14.86
  -4   8  -3  310.11   14.22
   4   8   3  296.70    6.60
  -4   8   4   97.98    8.91
   4   8   4   95.86    8.09
   4   8   4   96.19    8.33
   4   8  -4   84.03    5.96
   4  -8   4   97.04    7.18
   4   8  -4  105.74    8.82
   4  -8  -4   91.66    8.00
   4   8   4   92.35    4.36
  -4   8  -4  101.28    8.24
  -4   8  -5    1.84    2.51
   4   8   5    0.46    1.17
  -4   8   5    7.69    4.27
   4   8   5    4.85    3.20
   4   8  -5    6.27    3.61
   4   8  -5    1.43    1.90
   4  -8   5    2.07    1.65
   4   8   5    1.38    2.94
  -4   8   6   77.48    8.23
   4   8   6   81.13    8.20
   4   8  -6   79.07    5.18
   4  -8   6   74.04    6.26
   4   8  -6   75.30    7.82
   4   8   6   77.49    7.40
  -4   8  -6   80.50    7.22
   4   8   6   80.82    5.09
  -4   8   7  195.53   12.65
   4   8   7  180.05   11.99
   4   8  -7  194.82   12.36
   4   8   7  188.26   11.09
  -4   8  -7  166.95   10.36
   4   8   7  176.32    7.89
  -4   8   8  144.42   11.34
   4   8   8  138.62   10.53
   4   8  -8  139.92   10.67
   4   8   8  150.96    9.88
  -4   8  -8  154.68    9.79
   4   8   8  146.65    7.69
  -4   8   9   26.70    5.29
   4   8   9   26.84    5.36
   4   8  -9   24.72    4.98
  -4   8  -9   24.74    4.26
   4   8   9   27.48    4.77
  -4   8  10    7.97    3.89
   4   8  10   12.01    3.95
  -4   8  10   12.23    3.88
  -4   8 -10   11.81    3.91
   4   8 -10   12.26    4.21
  -4  -8 -10   12.35    4.32
  -4   8 -10   13.90    3.24
   4   8  10    5.85    2.59
  -4   8  11   26.65    5.60
  -4  -8 -11   31.34    5.56
   4   8  11   30.10    6.00
  -4   8  11   27.97    5.12
  -4   8 -11   31.21    5.59
   4   8 -11   32.61    5.96
  -4   8 -11   32.97    4.78
   4   8  11   29.64    4.72
  -4   8 -12   16.97    4.44
  -4   8  12   17.55    4.50
   4   8  12   16.76    4.95
  -4   8  12   11.53    3.61
   4   8 -12    3.27    3.02
  -4  -8 -12   14.02    3.93
  -4   8 -12   11.87    2.74
   4   8  12   10.51    2.65
   4   8  12    5.28    2.56
  -4   8  13   21.60    4.98
  -4   8 -13   22.79    4.63
   4   8  13   20.95    5.13
  -4   8  13   16.20    4.13
   4   8 -13   16.01    4.84
  -4  -8 -13   24.05    5.01
  -4   8 -13   22.70    4.02
   4   8  13   20.08    3.82
   4   8  13   22.78    4.17
  -4   8  14   14.81    4.92
   4   8  14    4.72    3.89
  -4   8 -14    8.17    2.70
  -4   8  14    9.83    3.08
   4   8 -14    7.46    4.23
  -4   8 -14    9.71    3.61
  -4  -8 -14    7.04    3.17
  -4   8 -14    8.65    2.70
   4   8  14    1.24    2.95
   4   8  14    8.05    2.65
  -4   8  15   34.27    6.69
   4   8  15   30.55    6.36
  -4   8  15   28.41    4.83
  -4   8 -15   31.67    5.06
   4   8 -15   24.87    5.68
  -4   8 -15   37.51    5.59
  -4  -8 -15   31.04    5.59
   4   8  15   30.52    4.99
   4   8  15   32.84    5.00
  -4   8 -16    8.41    3.17
   4   8  16   11.41    3.43
  -4   8  16   16.66    5.12
   4   8  16   14.51    4.50
  -4  -8  16   16.15    4.88
  -4   8 -16   12.37    3.72
  -4   8  16   17.58    4.19
   4   8 -16   19.30    5.71
  -4  -8 -16   19.11    4.51
   4   8  16   12.51    3.22
  -4   8  17  118.34   11.72
   4   8  17  112.19   11.57
  -4  -8  17  109.35   10.42
  -4   8 -17  117.02   10.79
  -4   8  17  127.82    9.94
  -4   8 -17  116.84    9.76
   4   8 -17  100.41   10.77
  -4   8 -17  118.40    9.98
  -4  -8 -17  114.14   10.55
   4   8  17  109.29    9.57
   4   8  18   18.67    4.34
   4   8  18    3.90    4.88
  -4   8  18   16.96    5.40
  -4  -8  18   17.87    4.61
  -4   8 -18   18.60    4.78
   4   8 -18   19.62    5.73
  -4   8 -18   20.48    4.85
   4   8  19   23.63    5.27
  -4   8  19   25.47    6.32
  -4  -8  19   27.24    5.72
  -4   8 -19   28.62    5.24
   4   8  19   20.00    5.04
   4   8 -19   27.27    6.13
  -4   8 -19   26.33    5.05
   4   8  20   -0.41    4.06
   4   8  20    2.50    3.20
  -4   8  20   -1.29    3.49
  -4  -8  20   -0.34    2.95
  -4   8 -20    1.57    2.63
   4   8 -20    0.49    3.45
  -4   8 -20    2.93    2.66
  -4   8  21  124.34   12.84
   4   8  21  130.39   13.31
  -4  -8  21  133.05   11.50
  -4   8 -21  136.66   11.75
   4   8 -21  120.76   12.66
   4   8  21  128.97   11.79
   4   8  22    5.01    3.50
  -4   8  22   -0.44    3.80
   4   8  23   21.56    5.57
   4   8  24   15.66    4.89
   4   9   0  727.86   20.70
   4  -9   0  728.76   21.83
   4   9   0  757.92   23.14
   4   9   0  739.22   23.99
  -4   9   0  736.44   23.75
   4   9   1  306.24   14.05
   4   9  -1  323.26   13.47
   4  -9   1  329.65   14.56
   4   9  -1  326.72   15.44
   4  -9  -1  314.99   14.69
   4   9  -1  340.08   16.59
   4   9   1  331.60   16.04
  -4   9  -1  307.52   15.49
  -4   9   1  320.24   16.06
   4   9   2  286.37   13.86
   4   9  -2  300.26   12.52
   4  -9   2  284.41   13.25
   4   9  -2  267.21   14.15
   4  -9  -2  279.63   14.02
   4   9  -2  285.78   15.36
   4   9   2  280.99   14.76
  -4   9  -2  264.10   14.11
  -4   9   2  267.40   14.87
  -4   9   3  530.17   20.88
   4   9   3  563.78   19.83
   4  -9  -3  557.36   20.00
   4   9  -3  543.28   16.21
   4  -9   3  549.28   18.17
   4   9  -3  547.92   20.26
   4   9  -3  552.28   21.44
   4   9   3  558.83   20.48
  -4   9  -3  525.33   19.83
  -4   9   4  525.53   21.04
   4   9   4  525.43   19.43
   4   9  -4  537.42   15.49
   4  -9   4  530.26   17.79
   4   9  -4  522.22   20.25
   4  -9  -4  543.95   20.15
   4   9  -4  543.36   21.33
   4   9   4  535.88   19.90
  -4   9  -4  521.11   19.68
  -4   9  -5    1.61    2.24
  -4   9   5   -0.19    3.36
   4   9   5    3.92    3.33
   4   9  -5    0.55    3.02
   4  -9   5    0.55    1.85
   4  -9  -5    4.43    3.30
   4   9  -5    2.31    2.01
   4   9   5   -2.50    3.12
  -4   9   6  213.06   14.02
   4   9   6  182.45   12.20
   4  -9   6  187.73   10.39
   4   9  -6  208.51   13.27
   4   9   6  196.13   12.16
  -4   9  -6  184.04   11.59
  -4   9   7  779.50   26.66
   4   9   7  772.38   25.38
   4   9  -7  819.51   26.16
   4   9   7  805.72   24.34
  -4   9  -7  779.59   23.53
  -4   9   8   75.48    8.92
   4   9   8   74.14    8.58
   4   9  -8   68.20    8.20
   4   9   8   72.08    7.87
  -4   9  -8   67.81    7.33
  -4   9   9   90.41    9.58
   4   9   9   88.61    9.21
   4   9  -9   85.24    9.01
  -4   9  -9   80.06    7.63
   4   9   9   95.33    8.57
  -4   9  10    6.02    3.90
   4   9  10    0.99    3.90
   4   9 -10    9.00    3.06
  -4  -9 -10   15.20    4.75
  -4   9 -10    4.20    2.45
   4   9  10    9.23    3.20
  -4   9  11  102.57   10.08
   4   9  11  100.11   10.08
  -4  -9 -11  107.39    9.94
  -4   9 -11  108.67    9.85
   4   9 -11   96.46    9.77
  -4   9 -11  102.41    8.63
   4   9  11  107.08    9.11
  -4   9  12   14.40    4.69
  -4   9  12   17.13    4.07
  -4   9 -12   15.14    3.83
   4   9  12   15.76    4.24
   4   9 -12   16.54    4.86
  -4  -9 -12   18.79    4.94
  -4   9 -12   17.50    4.14
   4   9  12   20.64    4.55
  -4   9  13   23.86    5.99
  -4   9  13   19.57    4.21
  -4   9 -13   22.33    4.94
   4   9  13   17.77    4.92
   4   9 -13   24.15    5.67
  -4  -9 -13   23.09    5.13
  -4   9 -13   26.52    4.73
   4   9  13   30.83    5.04
   4   9  14   78.24    7.88
  -4   9  14   65.80    8.74
  -4   9  14   65.78    7.88
  -4   9 -14   69.60    7.96
   4   9 -14   95.42   10.43
   4   9  14   68.72    8.92
  -4   9 -14   72.09    7.33
  -4  -9 -14   72.65    8.59
  -4   9  15  171.19   14.06
   4   9  15  133.83   12.59
  -4   9  15  150.17   11.56
  -4   9 -15  156.88   11.80
   4   9 -15  156.68   13.45
  -4   9 -15  154.48   11.78
  -4  -9 -15  157.94   12.50
  -4   9 -15  169.86   11.15
   4   9  15  148.06   10.83
   4   9  15  146.97   10.39
  -4   9  16    1.65    2.86
  -4   9  16    4.30    3.01
  -4   9 -16    8.21    3.45
   4   9 -16    9.25    4.30
   4   9  16    5.70    3.26
  -4   9 -16    5.37    2.93
  -4  -9 -16    7.14    3.51
   4   9  16    9.02    3.41
  -4   9  17  150.95   13.60
   4   9  17  157.07   13.91
  -4  -9  17  154.73   12.57
  -4   9 -17  161.30   11.91
   4   9 -17  186.65   15.01
  -4   9 -17  151.02   11.98
  -4  -9 -17  165.87   13.36
  -4   9  18   60.72    9.17
  -4  -9  18   69.37    8.76
  -4   9 -18   52.43    7.11
   4   9 -18   53.92    8.61
   4   9  18   54.21    8.64
  -4  -9 -18   53.35    7.87
  -4   9 -18   67.44    8.50
  -4   9  19    0.12    2.92
  -4  -9  19   -0.55    2.57
  -4   9 -19    3.05    2.63
   4   9 -19    1.42    3.46
  -4   9 -19    0.92    2.69
   4   9  19   -3.61    4.77
  -4   9  20    5.69    4.18
  -4  -9  20    6.61    3.69
  -4   9 -20    1.91    2.79
   4   9 -20    5.59    4.44
  -4   9 -20   16.11    4.81
   4   9  20    3.88    4.57
  -4  -9  21   99.27   10.39
  -4  10   0   30.73    5.43
   4 -10   0   32.60    5.11
   4  10   0   38.20    5.36
   4  10   0   45.32    6.26
   4  10   0   42.50    6.58
  -4  10  -1    9.61    3.39
  -4  10   1    6.68    3.59
   4  10  -1    7.89    3.16
   4 -10  -1   11.87    3.83
   4  10   1    1.22    2.34
   4  10  -1    4.61    3.07
   4 -10   1    7.12    3.04
   4  10  -1    9.20    3.62
   4  10   1    5.18    3.86
  -4  10  -2   14.01    4.22
  -4  10   2    9.55    3.96
   4  10   2    9.62    3.74
   4  10  -2   14.95    3.52
   4  10  -2    9.67    2.60
   4 -10   2   14.24    3.82
   4 -10  -2   12.11    4.00
   4  10  -2   17.70    5.14
   4  10   2   19.34    4.53
  -4  10  -3   -1.41    2.78
  -4  10   3    6.37    4.41
   4  10   3    1.24    2.55
   4 -10   3   -0.91    1.90
   4  10  -3    2.29    2.84
   4  10  -3   -3.09    3.64
   4  10  -3    0.27    3.22
   4 -10  -3    3.32    2.83
   4  10   3    0.00    3.01
  -4  10  -4    3.46    3.40
  -4  10   4    3.28    2.96
   4  10   4    2.67    2.70
   4  10   4    2.11    2.97
   4  10  -4    3.61    3.23
   4 -10   4    3.73    1.87
   4  10  -4    3.95    3.75
   4 -10  -4    7.48    3.60
  -4  10  -5   -3.58    3.18
  -4  10   5   -1.05    2.95
   4  10   5    2.25    3.56
   4  10  -5    4.12    3.43
   4 -10   5    0.50    2.17
   4 -10  -5    0.18    2.74
   4  10   5   -1.52    2.73
  -4  10   6  189.15   13.80
   4  10   6  189.36   12.87
   4 -10   6  186.07   11.32
   4  10  -6  194.07   13.31
   4  10   6  175.78   12.41
  -4  10  -6  184.91   12.46
   4  10   7    4.83    3.59
  -4  10   7    4.54    3.62
   4 -10   7    5.86    2.80
   4  10  -7   12.08    4.60
   4  10   7    8.51    3.80
  -4  10  -7    7.19    3.69
  -4  10   8  187.71   14.00
   4  10   8  201.30   13.80
   4  10   8  206.21   13.46
   4  10  -8  192.05   13.89
  -4  10  -8  192.92   12.59
  -4  10   9   -2.82    3.73
  -4 -10  -9    0.43    2.48
   4  10  -9   -2.35    3.15
  -4  10  -9   -3.84    3.46
   4  10   9    1.49    2.40
   4  10   9   -1.31    3.57
  -4  10  10    1.36    3.65
   4  10 -10    0.95    3.51
  -4 -10 -10   -0.43    2.66
  -4  10 -10    1.96    2.38
   4  10  10   -0.67    2.73
   4  10  10    0.86    3.22
  -4  10  11  127.51   12.22
   4  10  11  128.54   11.73
   4  10 -11  125.96   11.80
  -4 -10 -11  140.40   12.04
  -4  10 -11  127.46   10.15
   4  10  11  140.85   11.07
  -4  10  12   17.54    5.31
   4  10 -12   18.79    5.78
  -4 -10 -12   17.86    4.85
  -4  10 -12   14.08    3.78
   4  10  12   14.75    4.41
   4  10  12   10.58    3.77
  -4  10  13    8.58    4.34
  -4  10  13    5.87    2.94
  -4  10 -13    5.09    3.44
   4  10 -13   10.35    4.61
  -4 -10 -13    9.70    3.89
  -4  10 -13    6.53    3.19
   4  10  13   -0.02    3.84
   4  10  13    4.94    2.84
  -4  10  14   14.91    5.15
  -4  10 -14    5.05    2.45
  -4  10  14    6.66    3.25
   4  10 -14    7.92    3.77
  -4 -10 -14    9.74    3.66
  -4  10 -14   10.83    3.61
   4  10  14    6.93    3.42
   4  10  14   10.00    3.54
  -4  10  15   -8.03    5.09
  -4  10 -15   -3.20    3.16
   4  10 -15    3.94    4.34
  -4  10 -15    1.04    3.18
  -4 -10 -15    4.28    3.22
  -4  10  15   -1.95    3.05
   4  10  15    4.33    3.20
   4  10  15   -0.37    3.83
   4  10  16   30.73    7.36
  -4  10  16   18.59    5.71
  -4  10 -16   22.61    5.01
  -4  10  16   27.38    5.23
   4  10 -16   27.77    6.27
  -4  10 -16   26.33    5.81
  -4 -10 -16   30.02    6.11
   4  10  17    6.93    3.83
  -4  10  17    6.78    4.17
  -4  10 -17    4.31    2.73
   4  10 -17    7.96    4.11
  -4 -10 -17    8.42    4.09
   4  10  18   48.76    8.68
  -4  10  18   44.47    8.00
  -4  10 -18   34.05    6.18
  -4 -10  18   49.21    7.61
   4  10 -18   47.86    8.46
  -4  10 -18   41.40    6.90
  -4 -10 -18   40.73    7.16
  -4 -10  19   16.28    4.99
  -4  10 -19   12.08    4.24
  -4 -10  20   12.67    4.44
  -4  10 -20   10.69    4.16
  -4 -10  21    5.91    3.62
   4  11   0  403.20   17.04
   4 -11   0  374.87   17.67
   4  11   0  379.23   18.68
   4  11   0  411.75   20.15
  -4  11   0  392.03   19.65
  -4  11  -1   41.47    6.96
  -4  11   1   32.57    6.20
   4  11   1   38.23    5.95
   4  11  -1   51.59    6.44
   4  11  -1   39.52    6.62
   4 -11   1   43.50    6.41
   4 -11  -1   41.56    6.46
   4  11  -1   43.74    7.22
   4  11   1   49.72    7.36
  -4  11  -2    8.22    4.07
  -4  11   2    6.52    2.97
   4  11   2   11.55    3.59
   4  11  -2    4.13    3.33
   4 -11   2   13.73    3.81
   4 -11  -2    5.67    3.09
   4  11  -2   18.89    5.52
   4  11   2   10.33    3.92
  -4  11  -3   50.18    7.23
  -4  11   3   53.25    7.79
   4  11   3   43.85    7.10
   4  11  -3   38.28    6.81
   4 -11   3   40.52    6.16
   4  11  -3   53.19    8.06
   4 -11  -3   63.66    7.95
   4  11   3   49.46    6.90
   4  11   4  474.28   20.25
   4 -11   4  494.14   19.55
   4  11  -4  483.82   21.59
   4 -11  -4  492.96   21.52
   4  11  -4  501.18   22.71
   4  11   4  493.32   21.75
  -4  11  -4  489.76   21.38
  -4  11   4  497.52   22.58
   4  11   5  101.19    9.90
   4 -11   5  105.01    9.09
   4  11  -5  112.48   10.87
   4 -11  -5  110.35   10.54
   4  11  -5  131.14   12.28
   4  11   5  109.02   10.73
  -4  11  -5  113.07   10.56
  -4  11   5  115.04   11.42
   4  11   6  364.34   18.71
  -4  11  -6  385.94   18.95
   4  11  -6  380.45   19.84
   4 -11   6  382.34   17.15
   4 -11  -6  384.14   19.39
   4  11   6  403.26   19.59
  -4  11   6  407.02   20.83
  -4  11   7   14.43    4.69
   4  11   7   10.70    4.68
   4  11  -7   10.95    4.47
   4 -11   7   19.69    4.45
   4  11   7   16.50    5.29
  -4  11  -7   11.25    4.21
  -4  11   8   18.90    5.18
   4  11  -8   12.78    4.50
   4  11   8    6.10    4.14
   4  11   8   10.61    3.60
  -4  11  -8    7.55    3.42
  -4  11   9   25.96    5.91
   4  11   9   24.95    5.93
  -4 -11  -9   25.51    5.65
   4  11  -9   26.27    6.02
  -4  11  -9   17.62    4.33
   4  11   9   31.59    5.84
  -4  11  10  282.85   18.39
   4  11  10  282.97   17.54
  -4 -11 -10  291.56   17.96
   4  11 -10  314.56   18.87
  -4  11 -10  291.21   16.21
   4  11  10  302.00   16.88
  -4  11  11    0.71    3.00
   4  11  11   -1.59    3.41
   4  11 -11    3.57    3.70
  -4 -11 -11    1.16    3.17
  -4  11 -11    4.54    3.07
   4  11  11   -1.26    2.79
  -4  11  12   33.82    6.57
   4  11  12   30.51    6.16
   4  11 -12   38.14    7.15
  -4 -11 -12   32.02    6.64
  -4  11 -12   26.68    4.97
   4  11  12   39.69    6.50
  -4  11  13   16.99    5.62
   4  11  13   20.83    5.89
  -4  11 -13   20.52    5.24
   4  11 -13   14.39    5.17
  -4 -11 -13   25.49    5.78
  -4  11 -13   12.94    3.89
   4  11  13   17.37    5.09
  -4  11  14  129.02   13.19
  -4  11  14  112.62   11.21
  -4  11 -14  130.16   11.88
   4  11  14  113.01   12.11
   4  11 -14  132.95   13.06
  -4 -11 -14  128.57   12.47
  -4  11 -14  118.97   10.58
   4  11  14  111.20   10.57
  -4  11  15   -2.56    3.56
   4  11  15    6.36    4.48
  -4  11  15    3.64    3.30
  -4  11 -15   -2.06    3.02
   4  11 -15   -2.55    3.84
  -4  11 -15   -1.85    3.40
  -4 -11 -15    0.25    2.62
   4  11  15    0.87    2.41
  -4  11 -16   -1.01    3.42
  -4  11  16    4.03    3.08
  -4  11 -16   -2.35    2.76
  -4 -11 -16    2.42    2.47
  -4  11 -17    2.57    3.19
  -4 -11 -17   -1.01    3.38
  -4  11 -18   21.42    5.26
  -4 -11 -18   15.50    4.68
  -4 -11  19   -1.80    3.84
  -4  11 -19    3.88    3.52
  -4 -11  20    3.27    3.20
  -4  11 -20    1.38    2.84
  -4  12   0   54.87    7.81
   4  12   0   51.32    7.55
   4 -12   0   50.84    7.10
   4  12   0   47.25    7.68
  -4  12  -1    2.27    2.92
  -4  12   1   -2.87    3.65
   4  12   1   -2.94    3.43
   4  12   1    9.36    3.91
   4  12  -1   -0.20    2.55
   4 -12   1    1.03    2.16
   4 -12  -1   -0.26    2.90
   4  12  -1    3.23    2.94
  -4  12  -2   16.05    5.02
  -4  12   2   12.26    4.64
   4  12   2   16.05    4.95
   4  12  -2   13.24    4.71
   4 -12   2    7.31    3.15
   4 -12  -2    6.45    3.30
   4  12  -2   11.91    4.89
   4  12   2   10.78    4.23
  -4  12  -3   68.42    8.86
  -4  12   3   74.13    9.37
   4  12   3   73.98    8.41
   4 -12   3   76.73    8.41
   4  12  -3   76.38    9.48
   4  12  -3   74.50    9.39
   4 -12  -3   69.91    8.54
   4  12   3   77.53    9.45
  -4  12   4   -0.47    3.25
   4  12  -4    6.46    4.13
   4  12   4    7.67    4.53
   4 -12   4    4.38    2.52
   4  12  -4    9.22    4.04
   4 -12  -4    1.67    2.86
   4  12   4    1.90    3.99
  -4  12  -4    5.18    3.64
  -4  12   5    0.73    3.05
   4  12   5    1.96    3.44
   4  12  -5   -1.18    3.24
   4 -12   5   -0.53    2.04
   4  12  -5   -6.02    4.69
   4 -12  -5   -0.04    3.44
   4  12   5    3.03    3.42
  -4  12  -5    1.26    3.24
   4  12  -6   38.38    7.14
  -4  12   6   29.57    6.39
   4  12   6   36.37    6.69
   4 -12   6   41.98    6.42
   4 -12  -6   28.96    5.80
   4  12   6   34.86    6.40
  -4  12  -6   29.35    6.23
  -4  12   7   12.88    4.48
   4  12   7   20.63    5.54
   4  12  -7   19.23    5.62
   4  12   7   22.97    5.55
  -4  12  -7   18.67    4.94
   4  12   8   22.46    5.73
  -4  12   8   16.00    4.53
   4  12  -8   22.61    5.75
   4  12   8   33.93    6.64
  -4  12  -8   20.39    5.06
  -4  12   9   30.72    7.03
   4  12  -9   22.63    6.05
  -4 -12  -9   26.18    5.99
   4  12   9   31.82    6.68
  -4  12  -9   31.14    5.90
   4  12   9   26.96    6.09
  -4  12  10   16.13    5.38
   4  12 -10   13.82    4.80
  -4 -12 -10   17.98    5.35
   4  12  10   17.29    5.32
  -4  12 -10   13.96    4.49
   4  12  10   18.31    5.42
  -4  12  11   31.92    7.31
   4  12 -11   35.23    7.30
   4  12  11   33.19    6.89
  -4  12 -11   27.97    5.75
   4  12  11   36.02    6.56
  -4 -12 -11   37.05    7.23
  -4  12  12   11.99    5.18
   4  12 -12   16.27    5.08
   4  12  12   10.74    4.13
  -4 -12 -12   11.12    4.80
  -4  12 -12    9.36    4.17
   4  12  12   14.58    4.69
   4  12  13   10.15    5.11
  -4 -12 -13   17.91    5.50
  -4  12 -13   21.01    5.03
   4  12  13   11.17    4.21
  -4  12  14   22.70    5.57
  -4  12 -14   31.66    6.67
  -4 -12 -14   26.12    6.31
   4  12  14   32.53    6.05
  -4  12 -15    3.13    3.69
  -4  12  15    3.31    3.27
  -4  12 -15    0.40    3.08
  -4  12 -16    0.53    2.69
  -4  12 -16   -0.72    3.17
  -4  13   0   24.76    6.04
   4 -13   0   40.55    6.83
   4  13   0   38.15    7.11
   4  13   0   39.15    7.44
  -4  13  -1   48.76    7.83
  -4  13   1   66.90    9.39
   4 -13   1   56.39    7.85
   4  13  -1   63.65    8.91
   4 -13  -1   53.97    7.73
   4  13  -1   53.94    8.58
   4  13   1   56.27    8.40
  -4  13   2   19.48    6.03
   4  13  -2    6.18    3.66
   4 -13   2   10.47    3.94
   4 -13  -2    6.27    3.22
   4  13  -2    8.08    4.57
   4  13   2   11.03    5.22
  -4  13  -2   12.62    4.51
   4  13  -3  213.67   16.42
   4 -13  -3  204.58   15.09
   4 -13   3  210.71   14.48
   4  13  -3  229.84   16.36
   4  13   3  219.06   16.32
  -4  13  -3  224.13   16.18
  -4  13   3  220.88   16.71
  -4  13   4    0.78    3.51
   4  13  -4    4.63    4.28
   4 -13   4    3.55    3.37
   4  13  -4    0.22    3.67
   4 -13  -4    0.18    3.26
   4  13   4    6.92    3.79
  -4  13  -4    1.35    2.99
  -4  13   5    7.03    4.21
   4  13   5   13.16    4.92
   4  13  -5    7.30    3.92
   4  13  -5    8.35    4.04
   4 -13  -5    8.69    4.18
   4  13   5    6.40    3.60
  -4  13  -5   11.20    4.09
  -4  13   6   15.93    5.21
   4  13   6   14.32    5.29
   4  13  -6   12.40    4.73
   4 -13  -6   10.49    4.37
   4  13   6    5.90    3.64
  -4  13  -6    6.26    3.90
   4  13   7   79.55    9.83
   4  13   7  108.42   11.45
   4  13  -7   81.95   10.17
  -4  13  -7  108.24   11.32
  -4  13   7  104.75   12.13
   4  13   8   97.16   11.31
  -4 -13  -8   95.37   11.41
   4  13  -8   88.06   10.81
   4  13   8  102.16   11.21
  -4  13  -8   88.18   10.19
   4  13  -9   17.34    5.37
  -4 -13  -9   16.22    5.19
   4  13   9   20.15    6.15
  -4  13  -9   15.75    4.71
   4  13   9   20.62    5.80
   4  13  10    4.13    4.01
  -4  13 -10    0.26    2.67
   4  13  10    2.51    3.31
   4  13  11    7.87    5.12
  -4  13 -11    3.02    3.18
   4  13  11    1.44    2.98
  -4  13 -12  108.61   11.22
   4  13  12   94.26   10.74
   4  13  13   23.19    5.90
  -4  13  14    1.17    3.05
   4  13  14   -7.57    4.16
   4 -14   0  118.56   11.74
   4  14   0  114.76   12.22
   4  14  -1   31.46    7.30
   4  14   1   37.26    7.36
   4 -14   1   27.91    6.32
   4 -14  -1   20.61    5.62
   4  14  -2   14.52    5.44
   4 -14   2    4.45    3.56
   4 -14  -2    5.39    3.68
  -4  14  -2    7.98    4.74
   4  14  -3   11.65    4.80
   4 -14  -3    7.92    3.76
  -4  14  -3   12.78    4.88
   4 -14  -4    6.25    4.17
  -4  14  -4    9.79    4.34
   4 -14  -5   -3.07    3.89
  -4  14  -5    2.73    3.05
   4 -14  -6   58.64    8.77
  -4  14  -6   58.18    8.67
  -4  14  -7   27.66    6.30
   4  14   8   24.30    6.59
  -4  14  -8   12.17    4.83
   4 -15   0   39.43    7.34
  -5   0   0    3.57    2.51
   5   0   0    1.23    1.30
   5   0   0    2.30    2.28
  -5   0   0    2.98    1.36
  -5   0  -1   10.27    3.57
  -5   0   1    9.53    3.43
   5   0  -1    2.96    2.07
   5   0   1    1.59    1.34
  -5   0  -1    3.21    1.40
   5   0  -1    1.09    2.86
   5   0   1    5.79    3.23
  -5   0   1    0.98    1.15
   5   0  -2 1157.06   19.96
   5   0   2 1240.07   24.33
   5   0  -2 1121.61   22.32
   5   0   2 1123.17   15.78
  -5   0  -2 1152.64   15.85
  -5   0  -2 1129.32   23.15
  -5   0   2 1108.88   22.88
   5   0   3    6.02    1.81
   5   0   3   39.50    6.54
   5   0  -3   17.85    3.88
   5   0  -3   15.40    4.19
  -5   0  -3    3.26    1.46
  -5   0  -3   26.18    5.61
  -5   0   3   28.70    5.77
   5   0   4 1750.17   29.59
   5   0  -4 1723.04   26.56
   5   0  -4 1699.60   26.82
  -5   0  -4 1681.05   15.99
  -5   0  -4 1705.20   28.14
  -5   0   4 1682.30   28.01
  -5   0  -5   17.06    4.42
  -5   0   5   15.31    4.19
  -5   0  -5    3.27    3.03
   5   0  -5    0.58    2.59
   5   0   5   15.12    4.96
  -5   0  -5   -0.15    0.45
   5   0  -5    3.29    2.44
   5   0   6 1395.07   25.06
   5   0  -6 1362.82   25.45
  -5   0  -6 1385.08   26.81
   5   0  -6 1399.31   23.53
   5   0   6 1360.46   26.84
  -5   0  -6 1339.22   11.77
  -5   0  -6 1367.36   25.30
  -5   0   6 1389.84   25.33
   5   0  -7    6.19    3.60
  -5   0  -7   -0.67    1.96
  -5   0   7    2.00    2.39
  -5   0  -7    5.65    3.48
   5   0   7    7.93    3.85
   5   0   8  352.87   13.35
  -5   0  -8  348.88   14.30
   5   0   8  370.54   14.38
   5   0  -8  328.53   13.44
  -5   0  -8  324.66   12.43
  -5   0   8  354.06   12.86
   5   0   9    5.95    3.26
  -5   0  -9    4.69    2.55
  -5   0   9    1.38    2.03
   5   0  -9    6.80    3.29
   5   0   9   -2.49    2.58
  -5   0  -9    2.20    2.89
  -5   0 -10  146.52    8.53
  -5   0  10  142.41    8.36
   5   0  10  154.51    9.48
  -5   0 -10  148.07    9.98
   5   0 -10  152.39    9.75
   5   0  10  159.12    9.69
   5   0  11   -0.96    2.99
  -5   0 -11   -0.84    3.09
  -5   0 -11   -0.21    1.65
  -5   0  11   -0.41    1.78
   5   0  11    1.20    2.66
   5   0 -11    7.41    3.84
   5   0  12  627.91   19.80
  -5   0 -12  610.04   17.25
  -5   0  12  619.33   17.22
   5   0  12  617.89   14.22
   5   0 -12  616.63   20.58
  -5   0 -12  643.04   21.01
   5   0  12  652.79   19.85
   5   0  13   -1.99    2.75
  -5   0 -13    1.67    3.24
   5   0  13    6.63    3.78
  -5   0 -13    0.42    1.72
  -5   0  13   -1.54    2.07
   5   0 -13    3.26    3.33
   5   0  14  148.67   10.22
  -5   0 -14  146.48    8.57
  -5   0  14  142.81    8.41
   5   0 -14  159.31   11.09
  -5   0 -14  146.72   10.77
   5   0  14  156.10   10.27
   5   0  15   -0.67    3.27
  -5   0 -15    3.39    3.80
   5   0 -15    8.09    4.95
  -5   0 -15   -0.30    1.58
  -5   0  15    0.58    2.28
   5   0  16  753.81   24.40
  -5   0 -16  791.34   19.38
  -5   0  16  775.42   19.02
  -5   0 -16  757.41   24.82
   5   0 -16  812.61   26.15
   5   0 -17    2.96    4.22
  -5   0 -17    0.48    1.53
  -5   0  17    0.02    1.69
   5   0  18   53.08    6.83
  -5   0 -18   57.38    5.25
   5   0 -18   54.41    7.50
   5   0  19   -0.06    3.39
   5   0 -19    2.21    3.25
   5   0  20  141.43   11.80
   5   0 -20  145.04   12.23
   5   0  21   -1.55    3.66
   5   0 -21   -3.13    3.48
   5   0  22   36.61    6.38
   5   0 -22   39.36    7.42
   5   0  23    5.04    4.23
   5   0 -23    4.21    4.52
   5   0  24  436.37   22.79
   5   0 -24  446.24   23.27
   5   0  25   11.90    5.35
   5   0 -25    4.16    5.34
   5   0 -26  158.30   14.65
   5   0  26  148.37   13.22
   5   0  27    2.50    3.20
   5   0  28   59.30    8.67
  -5   1   0   -0.96    2.03
  -5  -1   0    0.25    1.41
  -5  -1   0    0.43    1.92
   5  -1   0    2.06    1.51
  -5   1   0   -0.44    1.04
   5   1   0   -0.86    2.06
  -5  -1   0    0.09    0.91
   5   1   0    0.31    1.32
  -5  -1  -1  140.73    6.67
  -5  -1  -1  130.46    8.02
  -5  -1   1  132.60    8.13
   5   1   1  127.65    5.69
  -5  -1   1  128.78    6.29
  -5  -1   1  141.20    6.57
   5  -1   1  125.93    6.16
   5  -1  -1  131.37    6.74
   5   1  -1  132.45    6.43
  -5   1  -1  130.88    6.11
   5   1  -1  130.43    7.86
   5   1   1  131.53    7.96
  -5  -1  -1  137.51    5.77
  -5   1  -1  137.50    8.29
  -5   1   1  125.12    7.88
  -5  -1  -2    2.74    2.05
  -5   1  -2   -0.43    1.93
  -5   1   2    0.81    1.97
   5   1   2    1.34    0.99
   5   1  -2    1.74    1.72
  -5   1  -2    1.38    0.87
  -5  -1  -2    0.50    1.96
   5   1  -2    1.83    1.99
   5   1   2   -0.05    2.21
  -5  -1  -2    1.39    0.91
  -5  -1   2    2.43    1.96
   5  -1  -2   -1.29    1.93
  -5   1  -3   26.71    3.81
  -5   1   3   26.19    3.95
  -5  -1   3   28.31    4.07
   5   1   3   23.76    2.13
   5  -1  -3   26.94    3.67
   5   1   3   22.55    3.51
  -5  -1  -3   28.85    3.85
  -5  -1  -3   30.53    4.07
   5   1  -3   27.89    3.45
   5   1  -3   25.78    3.43
  -5   1  -3   29.34    2.63
  -5  -1  -3   24.50    2.20
  -5  -1  -3   26.25    2.48
  -5   1  -4    9.91    2.36
  -5   1   4    8.06    2.33
   5   1   4   11.13    1.40
  -5  -1  -4   12.42    3.29
  -5  -1  -4   11.96    2.64
  -5  -1   4   10.85    2.67
   5   1  -4    6.10    1.91
   5  -1  -4    8.99    2.44
   5   1  -4    7.94    2.07
  -5   1  -4   15.84    1.88
   5   1   4    7.63    2.28
  -5  -1  -4    9.34    1.20
  -5  -1  -4   11.14    1.59
   5   1  -5   18.56    3.69
  -5   1  -5   19.19    1.80
  -5   1  -5   13.14    3.12
  -5   1   5   21.79    3.72
  -5  -1  -5   19.43    3.67
   5   1   5   24.61    3.92
  -5   1  -5   18.29    1.92
  -5  -1  -5   14.46    3.23
   5  -1  -5   21.09    3.33
   5   1  -5   16.99    2.91
   5   1   5   21.37    3.97
  -5  -1   5   22.93    4.08
  -5  -1  -5   17.81    1.83
  -5   1  -6  425.91    7.15
   5   1   6  451.41   13.68
  -5  -1  -6  431.56   14.44
  -5  -1   6  468.12   14.94
   5   1  -6  453.21   14.61
  -5  -1  -6  445.89   15.22
   5  -1  -6  432.56   14.65
  -5   1  -6  436.48    8.10
   5   1  -6  438.15   13.19
   5   1   6  450.55   15.49
  -5   1  -6  431.80   14.32
  -5   1   6  441.48   14.51
  -5  -1  -6  435.97    7.64
  -5  -1  -7   43.73    5.34
   5  -1   7   60.25    6.47
  -5   1  -7   39.41    4.65
  -5   1   7   41.83    4.58
   5   1   7   44.63    5.07
  -5  -1  -7   45.56    5.03
   5  -1  -7   40.80    5.18
  -5  -1   7   46.48    5.01
   5   1  -7   39.49    4.18
   5   1  -7   42.53    5.06
  -5   1  -7   41.51    2.34
   5   1   7   43.46    5.53
  -5  -1  -7   37.54    1.90
  -5   1  -8   26.06    3.85
  -5   1  -8   21.90    1.54
  -5   1   8   30.79    4.19
   5   1   8   24.92    3.93
   5  -1   8   41.31    5.57
  -5  -1  -8   30.63    4.60
   5  -1  -8   24.16    4.17
  -5   1  -8   32.22    4.97
  -5  -1  -8   27.20    4.12
  -5  -1   8   29.39    4.10
   5   1  -8   22.58    3.97
   5   1  -8   25.99    3.26
   5   1   8   34.62    4.92
  -5  -1  -8   25.46    2.15
   5   1   9   79.45    6.58
   5  -1   9   75.37    7.03
  -5  -1  -9   71.21    6.08
  -5  -1   9   74.26    6.07
  -5   1  -9   64.56    2.39
   5   1   9   70.84    6.85
  -5  -1  -9   73.75    7.07
  -5   1  -9   73.09    7.17
   5  -1  -9   88.64    7.47
   5   1  -9   72.59    6.70
   5   1  -9   72.72    5.36
  -5   1  -9   68.10    2.52
  -5  -1  -9   70.40    3.53
  -5   1  -9   74.02    6.14
  -5   1   9   73.74    6.06
   5   1  10  659.51   18.75
   5  -1  10  655.54   19.57
  -5  -1 -10  652.27   17.95
  -5  -1  10  658.11   17.92
   5   1 -10  640.87   15.16
  -5  -1 -10  631.88   20.03
  -5   1 -10  654.20   20.60
   5  -1 -10  643.77   20.18
   5   1  10  649.89   19.51
   5   1 -10  656.55   19.89
  -5   1 -10  595.95    6.69
  -5   1 -10  614.31   17.28
  -5   1  10  657.32   17.64
   5   1  11   37.87    5.25
   5   1  11   30.18    4.28
  -5   1 -11   34.14    4.35
  -5   1  11   38.58    4.54
   5  -1  11   40.26    5.35
  -5  -1 -11   37.40    5.37
   5   1 -11   39.11    3.81
  -5  -1  11   36.28    4.43
   5   1 -11   41.92    5.93
  -5  -1 -11   31.65    4.23
   5  -1 -11   39.80    5.97
  -5   1 -11   42.57    5.79
   5   1  12  276.22   13.05
   5  -1  12  270.50   13.55
  -5  -1 -12  274.40   11.79
  -5  -1  12  259.39   11.29
  -5  -1 -12  272.44   13.97
   5  -1 -12  297.65   14.43
  -5   1 -12  271.46   13.98
   5   1 -12  272.29   13.84
   5   1  12  294.64   13.62
  -5   1 -12  280.76   11.72
  -5   1  12  275.08   11.60
   5   1  13  407.83   16.33
   5  -1  13  438.96   17.52
   5   1  13  429.07   16.42
   5   1 -13  422.09   17.76
  -5  -1 -13  403.39   14.26
  -5  -1  13  414.10   14.18
  -5  -1 -13  409.43   17.56
  -5   1 -13  422.78   17.61
  -5   1 -13  364.66    5.52
   5  -1 -13  446.25   17.98
  -5   1 -13  427.30   14.55
  -5   1  13  416.95   14.23
  -5   1 -14  187.50    9.72
  -5   1  14  175.79    9.33
   5   1  14  168.98   10.85
   5  -1  14  189.14   11.92
  -5  -1 -14  169.48    9.28
  -5  -1  14  173.25    9.24
  -5   1 -14  173.10   11.77
   5  -1 -14  198.61   12.49
   5   1 -14  179.18   12.03
   5   1  14  187.30   11.12
   5  -1  15   15.07    4.18
  -5   1 -15   13.94    3.13
  -5   1  15    7.60    2.34
   5  -1 -15   12.74    4.58
   5   1  15    8.42    3.29
  -5   1 -15   16.28    4.69
  -5  -1 -15    6.57    2.18
  -5  -1  15   10.41    2.47
   5   1 -15   11.50    4.00
   5   1  16  256.25   14.19
   5  -1  16  256.17   14.49
  -5   1 -16  261.57   11.28
  -5   1  16  248.62   10.84
  -5   1 -16  239.35   14.32
   5  -1 -16  257.03   14.85
  -5  -1 -16  243.43   10.88
  -5  -1  16  247.74   10.77
   5   1 -16  263.15   15.01
   5   1  16  271.56   13.56
   5   1  17   37.68    5.82
   5  -1  17   33.25    5.65
  -5   1 -17   33.72    6.24
  -5   1 -17   30.64    3.97
  -5   1  17   33.14    4.18
   5  -1 -17   44.04    6.97
   5   1  17   30.32    5.14
   5   1 -17   34.49    6.15
   5   1  18   24.25    5.38
   5  -1  18   28.37    5.45
  -5   1 -18   31.29    3.88
  -5   1 -18   26.47    5.08
   5   1  18   30.99    4.98
   5  -1 -18   27.45    5.57
   5   1 -18   27.05    5.87
   5  -1  19   11.60    4.05
   5  -1 -19   22.57    5.20
   5   1 -19   18.21    4.81
   5   1  20  142.59   11.97
   5  -1  20  131.52   11.75
   5  -1 -20  152.88   12.55
   5   1 -20  124.52   11.48
   5   1  21   70.84    9.31
   5  -1  21   57.57    8.17
   5  -1 -21   79.18    9.71
   5   1 -21   62.51    8.54
   5   1  22    9.55    5.02
   5  -1  22   -7.23    4.46
   5  -1 -22    7.80    4.73
   5   1 -22    7.03    4.77
   5   1  23  147.26   13.24
   5  -1  23  131.62   12.69
   5  -1 -23  132.74   12.55
   5   1 -23  140.47   13.18
   5   1  24  225.89   16.52
   5  -1  24  210.83   16.18
   5  -1 -24  198.79   15.68
   5   1 -24  194.66   15.63
   5   1  24  200.76   15.06
   5  -1  25    4.81    4.62
   5  -1 -25    8.43    4.73
   5   1  25    4.98    3.49
   5   1 -25   13.04    5.37
   5  -1 -26   42.81    8.19
   5   1  26   51.72    8.37
   5   1  27   25.77    6.23
   5  -1  27   24.11    5.64
   5   1  28    3.79    3.44
  -5  -2   0   -1.21    1.27
  -5  -2   0    4.39    2.62
   5   2   0   -0.49    1.24
  -5  -2   0   -0.56    2.04
  -5  -2   0    0.07    1.67
  -5  -2   0   -0.31    0.83
  -5   2   0    0.14    1.91
  -5  -2  -1  100.18    5.15
  -5  -2   1  102.97    5.07
   5  -2  -1  109.58    6.46
  -5  -2  -1  100.30    7.32
  -5  -2   1   97.69    7.14
  -5  -2  -1  109.95    7.34
  -5  -2   1  112.38    7.71
   5   2  -1  104.68    5.85
  -5  -2  -1  100.41    6.30
  -5  -2   1  100.42    5.95
   5   2   1   95.54    5.10
  -5   2   1   90.72    6.81
  -5   2  -1   98.27    7.16
  -5   2  -1  106.09    5.89
  -5  -2   1  107.35    5.87
  -5  -2  -1  106.17    5.18
  -5   2  -1   96.39    4.56
  -5  -2  -1  103.77    5.81
  -5  -2   2  114.58    5.34
  -5  -2  -2  124.65    8.26
  -5  -2   2  114.72    8.05
  -5  -2  -2  107.55    7.52
  -5  -2   2  118.38    8.31
  -5  -2  -2  107.23    6.84
  -5  -2   2  116.63    6.19
   5  -2  -2  116.97    6.93
   5   2  -2  117.00    6.56
  -5   2  -2  117.47    5.99
   5   2   2  110.75    5.12
  -5   2   2  119.42    8.07
  -5   2  -2  122.32    8.22
  -5  -2  -2  118.89    5.09
  -5   2  -2  113.96    4.52
  -5  -2  -2  108.22    5.71
  -5  -2  -2  108.40    5.58
  -5   2  -3 1110.44   17.05
   5   2  -3 1101.86   20.52
  -5  -2  -3 1138.37   23.91
  -5  -2   3 1109.65   23.59
  -5  -2  -3 1109.71   22.37
  -5  -2   3 1158.13   24.26
  -5  -2  -3 1096.11   21.94
   5  -2  -3 1106.88   21.75
  -5   2  -3 1113.62   17.69
   5   2   3 1084.40   14.33
   5   2  -3 1099.87   22.25
  -5   2   3 1128.98   23.69
  -5   2  -3 1141.87   23.85
  -5   2  -3 1102.72   12.21
  -5  -2  -3 1135.59   17.43
  -5  -2  -3 1111.53   18.18
  -5   2  -4  757.49   13.30
   5   2   4  818.39   20.80
  -5  -2  -4  789.23   18.63
  -5  -2   4  810.87   20.63
  -5  -2  -4  823.32   20.24
  -5  -2   4  806.46   20.02
   5   2  -4  775.61   18.36
  -5  -2  -4  778.95   18.89
  -5   2  -4  763.51   14.22
   5  -2  -4  776.17   18.86
   5   2   4  733.97   10.56
   5   2  -4  808.10   18.27
  -5   2   4  774.10   19.75
  -5   2  -4  799.13   20.06
  -5  -2  -4  756.19   13.60
  -5   2  -5  799.22   12.63
   5   2   5  800.67   17.01
  -5  -2  -5  795.45   18.40
  -5  -2   5  791.95   20.78
  -5  -2  -5  813.37   20.14
  -5  -2   5  798.32   19.92
   5  -2  -5  766.03   19.46
  -5  -2  -5  769.08   19.44
  -5   2  -5  774.79   13.77
   5   2   5  739.63    8.85
   5   2  -5  797.46   18.99
   5   2  -5  781.33   18.27
   5   2   5  807.60   20.91
  -5   2   5  790.18   19.93
  -5   2  -5  817.29   20.22
  -5  -2  -5  804.07   13.20
  -5   2  -6  714.93   11.00
   5   2   6  705.53   16.42
  -5  -2  -6  708.60   17.27
  -5  -2   6  730.84   20.10
  -5  -2  -6  718.00   19.07
  -5  -2   6  733.64   19.15
  -5  -2  -6  720.85   19.28
  -5   2  -6  707.28   12.66
   5   2  -6  716.53   18.79
   5   2  -6  717.13   17.24
   5   2   6  763.87   20.35
  -5   2   6  708.82   18.82
  -5   2  -6  724.72   19.05
   5  -2  -6  732.62   19.34
  -5  -2  -6  734.48   11.83
   5   2   7   91.71    6.35
   5  -2  -7   86.37    7.28
  -5  -2  -7   95.79    6.32
  -5  -2   7   97.98    7.79
  -5  -2  -7   95.07    7.23
  -5  -2   7   99.76    7.31
  -5  -2  -7   96.78    7.60
  -5   2  -7   95.88    4.59
  -5   2  -7   97.05    7.25
   5   2  -7  106.51    7.80
   5   2  -7   89.58    6.16
   5   2   7   94.74    7.46
  -5   2   7  100.41    7.32
  -5   2  -7   92.11    3.58
  -5  -2  -7   94.38    3.92
  -5   2  -8    2.81    2.28
  -5   2   8    6.31    2.90
  -5  -2  -8    3.95    0.86
   5   2   8    2.29    2.17
  -5  -2   8    7.66    3.16
   5  -2   8   16.06    4.85
  -5  -2  -8    4.48    2.83
  -5   2  -8    3.72    1.14
   5  -2  -8    5.82    3.31
   5   2  -8    3.63    2.69
   5   2  -8    4.39    1.96
   5   2   8    3.57    2.41
  -5  -2  -8    4.82    2.62
  -5  -2   8    5.47    2.94
  -5   2  -8    3.28    0.69
   5   2   9  554.78   16.10
   5  -2   9  570.79   18.51
  -5   2   9  551.54   16.54
  -5  -2   9  573.32   18.28
   5  -2  -9  549.22   18.42
  -5  -2  -9  555.96   16.65
  -5  -2   9  534.54   16.26
  -5  -2  -9  528.55   18.02
  -5   2  -9  549.40   10.26
   5   2  -9  539.08   17.81
   5   2  -9  566.90   14.73
   5   2   9  543.75   17.94
  -5   2  -9  589.38   17.15
  -5  -2  -9  548.15   12.13
   5   2  10  176.10    9.61
   5  -2  10  195.29   11.43
   5  -2 -10  190.67   11.33
  -5  -2  10  188.20   10.93
  -5  -2 -10  182.05   10.74
  -5  -2 -10  187.12    9.84
  -5  -2  10  186.42    9.65
  -5   2 -10  203.61   11.81
   5   2 -10  186.35    8.36
   5   2 -10  185.50   10.92
   5   2  10  183.65   10.57
  -5   2 -10  186.92    9.75
  -5   2  10  186.14    9.68
  -5   2 -10  186.27    6.07
  -5  -2 -10  185.21    7.15
  -5  -2  11   62.26    6.65
   5   2  11   50.84    5.24
   5  -2  11   63.58    7.05
  -5  -2 -11   55.02    5.57
  -5  -2  11   52.46    5.27
   5  -2 -11   63.22    6.92
   5   2 -11   54.12    4.50
   5   2 -11   55.03    6.23
  -5   2 -11   57.85    6.60
   5   2  11   54.97    6.03
  -5   2 -11   58.72    3.44
  -5   2 -11   53.37    5.41
  -5   2  11   61.80    5.74
  -5  -2 -11   59.10    4.21
   5   2  12  181.77   10.38
   5  -2  12  178.68   11.51
  -5  -2  12  175.03   10.65
  -5   2 -12  183.60   11.70
  -5  -2  12  169.91    9.36
  -5  -2 -12  158.86    9.23
   5  -2 -12  180.04   11.91
   5   2 -12  174.35    7.92
   5   2 -12  150.09   10.58
   5   2  12  181.33   10.69
   5   2 -12  162.73    6.81
  -5   2 -12  161.90    5.83
  -5   2 -12  163.88    9.30
  -5   2  12  167.59    9.32
   5   2  13  725.28   21.29
   5  -2  13  738.14   22.99
   5   2  13  707.83   21.32
  -5   2 -13  708.96   22.91
   5   2 -13  713.25   13.78
   5  -2 -13  756.96   23.69
  -5  -2 -13  710.62   19.06
  -5  -2  13  697.64   18.69
   5   2 -13  695.92   22.62
   5   2 -13  721.90   15.41
  -5   2 -13  689.26   11.94
  -5   2 -13  716.41   19.02
  -5   2  13  711.92   18.80
   5   2  14   59.73    7.15
   5  -2  14   53.73    6.81
   5   2  14   52.63    6.22
   5   2 -14   60.16    4.36
  -5   2 -14   65.42    7.40
   5   2 -14   53.36    6.88
  -5   2 -14   55.84    3.54
   5  -2 -14   55.58    7.53
  -5   2 -14   58.60    5.60
  -5   2  14   61.19    5.75
   5   2  15  218.88   12.63
   5  -2  15  205.04   13.14
  -5   2 -15  237.63   13.83
   5  -2 -15  223.47   13.65
   5   2 -15  218.43   13.30
   5   2  15  222.01   12.23
  -5   2 -15  204.71   10.23
  -5   2  15  222.23   10.56
   5  -2  16  147.43   11.55
  -5   2 -16  135.27   10.98
   5  -2 -16  166.31   12.21
   5   2 -16  166.70   12.25
   5   2  16  148.27   10.51
  -5   2 -16  151.79    8.82
  -5   2  16  140.09    8.39
   5   2  16  139.67   10.90
   5  -2  17  224.59   14.31
  -5   2 -17  226.00   14.16
   5  -2 -17  244.26   15.07
   5   2 -17  248.26   15.25
   5   2  17  237.47   12.93
  -5   2 -17  239.66   11.06
  -5   2  17  234.15   10.69
   5   2  17  251.10   14.35
  -5   2 -18  192.40    9.77
   5  -2  18  164.21   12.59
  -5   2 -18  189.79   13.11
   5   2 -18  194.73   13.68
   5   2  18  195.69   11.93
   5  -2 -18  198.34   13.73
   5   2  18  186.38   12.89
   5   2  19   38.43    5.56
   5   2  19   47.27    7.18
   5  -2  19   36.75    6.50
  -5   2 -19   37.45    6.49
   5  -2 -19   43.20    7.05
   5   2 -19   39.24    6.88
   5  -2  20  209.57   14.78
   5   2 -20  257.93   16.49
  -5   2 -20  232.94   15.12
   5  -2 -20  237.94   15.69
   5   2  20  231.01   13.27
   5   2  20  220.17   14.61
   5   2  21   44.68    7.26
   5  -2 -21   37.00    7.25
   5   2 -21   37.54    7.16
   5  -2  21   30.12    6.11
   5   2  21   41.88    6.00
   5   2  22   33.04    6.27
   5  -2  22   17.55    5.60
   5   2 -22   28.49    6.64
   5  -2 -22   25.75    6.00
   5   2  22   21.14    5.68
   5   2  23   39.67    7.38
   5  -2  23   26.21    6.27
   5  -2 -23   22.03    5.83
   5   2 -23   29.03    6.38
   5   2  23   31.21    6.28
   5   2  24   36.35    7.41
   5  -2  24   13.85    5.40
   5  -2 -24   22.22    5.52
   5   2 -24   28.51    6.32
   5   2  24   25.96    6.12
   5   2  25   13.61    5.52
   5  -2  25    2.01    4.48
   5  -2 -25   -2.87    4.58
   5   2 -25    5.02    4.43
   5   2  25    0.97    3.13
   5   2  26   22.15    6.53
   5   2  26   16.51    5.17
   5   2  27  130.53   13.15
  -5  -2  28   -5.95    4.38
  -5  -3   0    0.83    0.94
  -5   3   0    4.45    1.83
  -5  -3   0    3.30    2.44
  -5  -3   0   -0.83    1.50
   5   3   0   -0.80    1.28
  -5  -3   0    0.96    1.88
  -5   3   0    0.62    1.98
  -5   3   0    0.08    0.92
  -5  -3  -1   10.15    1.76
  -5   3  -1    8.72    2.04
  -5  -3   1    6.82    1.13
  -5  -3  -1   10.19    3.01
  -5  -3   1   12.17    3.46
  -5  -3  -1    9.12    2.51
  -5  -3   1    6.78    1.89
   5   3  -1   11.07    2.44
   5   3   1   11.76    2.22
  -5  -3  -1   14.95    3.40
  -5  -3   1   11.27    3.16
  -5   3  -1   10.37    1.72
  -5   3   1    8.69    2.94
  -5   3  -1   10.21    2.97
  -5   3   1   10.48    2.03
  -5  -3   2  279.44    7.10
   5   3   2  274.62    8.55
  -5   3  -2  274.34    9.56
   5   3  -2  285.98   10.39
  -5  -3  -2  278.05   11.72
  -5  -3   2  279.25   12.33
  -5  -3  -2  279.53   10.58
  -5  -3   2  281.30    9.19
  -5  -3  -2  288.49   12.25
  -5  -3   2  276.53   11.98
  -5   3   2  267.62   11.95
  -5   3  -2  271.87   12.10
  -5  -3  -2  291.50    8.25
  -5  -3  -3    1.67    1.09
  -5   3  -3    1.72    1.14
  -5  -3  -3    3.89    2.49
  -5  -3   3    4.03    3.03
  -5  -3   3    3.27    1.27
  -5  -3  -3   -0.58    2.07
   5   3   3    2.92    1.35
  -5  -3   3    4.77    1.63
   5   3  -3    1.35    2.00
  -5  -3  -3    1.85    2.32
  -5  -3   3    1.82    2.33
  -5   3   3    3.73    2.55
  -5   3  -3    2.85    2.32
  -5  -3  -3    2.33    1.34
  -5   3  -4    1.33    1.30
   5   3   4   -0.17    0.91
  -5  -3  -4    2.34    2.33
  -5  -3   4    3.76    3.24
   5   3   4    2.34    2.10
  -5  -3  -4    4.95    2.53
  -5  -3   4    0.36    1.08
   5  -3  -4   -0.61    2.02
   5   3  -4    0.64    2.18
  -5  -3  -4    0.20    2.23
  -5  -3   4    1.77    2.47
  -5   3   4    3.36    2.66
  -5   3  -4    5.04    3.05
  -5  -3  -4    1.51    1.03
  -5   3  -5  371.17    9.88
   5   3   5  384.26   11.16
  -5  -3  -5  370.32   13.10
  -5  -3   5  388.97   14.77
  -5  -3   5  378.23    9.10
  -5  -3  -5  368.21   14.09
  -5   3  -5  375.47   10.85
  -5   3  -5  375.45   14.28
  -5  -3   5  372.87   14.04
  -5   3   5  375.03   14.24
   5   3   5  359.96    7.68
   5   3  -5  378.91   13.34
   5  -3  -5  365.78   13.97
  -5  -3  -5  378.22   10.21
   5   3   6   55.21    4.88
  -5  -3   6   54.13    5.71
  -5  -3  -6   53.64    5.21
  -5  -3   6   54.09    6.19
  -5  -3   6   54.26    3.36
  -5   3  -6   50.26    3.99
  -5  -3  -6   60.60    5.95
  -5   3   6   52.35    5.69
   5  -3  -6   57.41    6.07
  -5   3  -6   51.25    5.67
   5   3   6   49.60    2.56
   5   3  -6   62.46    6.01
  -5  -3  -6   55.40    3.81
  -5   3  -6   52.04    3.55
   5   3   7  271.95   10.32
  -5   3  -7  273.73    9.01
  -5  -3  -7  262.90   10.82
  -5  -3   7  276.42   12.79
  -5  -3   7  275.71   12.10
  -5  -3   7  267.52    6.73
   5  -3  -7  273.52   12.80
  -5  -3  -7  264.59   11.75
  -5   3   7  275.26   12.10
  -5   3  -7  271.40   12.11
   5   3  -7  278.22   12.27
  -5   3  -7  278.57    7.72
  -5  -3  -7  273.25    8.05
   5   3  -8   16.52    3.99
  -5  -3   8   17.35    3.67
  -5  -3  -8   16.17    1.95
   5   3   8   10.75    2.77
  -5  -3  -8   12.88    2.74
  -5  -3   8   22.51    4.59
  -5  -3   8   15.41    1.59
   5  -3  -8   16.26    3.84
  -5  -3  -8   18.70    3.58
  -5   3   8   14.43    3.14
  -5   3  -8   14.28    3.16
  -5   3  -8   17.43    1.87
  -5  -3  -9   32.22    2.57
   5   3   9   23.63    3.58
  -5  -3  -9   29.07    3.65
  -5  -3   9   32.05    4.78
   5   3  -9   32.46    5.04
  -5  -3   9   29.58    1.92
   5  -3  -9   30.85    4.90
  -5  -3  -9   29.30    3.34
  -5   3  -9   30.83    2.31
  -5   3   9   33.67    4.55
  -5   3  -9   27.21    4.16
  -5  -3 -10   11.51    1.54
   5   3  10    7.42    2.45
  -5  -3 -10   12.93    2.61
  -5  -3  10   12.25    3.53
   5  -3  10   11.60    4.14
  -5  -3  10   11.23    1.11
   5  -3 -10   11.29    3.33
   5   3 -10    9.81    3.19
  -5  -3 -10   13.13    2.41
  -5   3 -10   14.13    1.42
  -5   3  10    9.48    2.70
  -5   3 -10   10.01    2.83
   5   3  11    8.57    3.12
  -5  -3 -11    4.92    1.90
  -5  -3  11    4.85    2.86
   5  -3  11    6.88    4.00
   5   3 -11    2.43    1.55
   5   3 -11    4.87    2.52
  -5   3 -11    6.47    2.02
  -5  -3 -11    4.21    1.45
   5  -3 -11    4.33    3.10
  -5   3  11    1.95    1.96
  -5   3 -11   -0.33    2.32
  -5   3  12    3.03    1.76
  -5   3 -12    0.94    2.12
   5   3 -12    5.29    1.33
   5   3  12    9.32    3.80
  -5  -3  12    4.94    2.88
  -5   3 -12   -1.08    3.67
   5  -3  12    8.72    4.29
   5  -3 -12    0.40    3.27
   5   3 -12    7.46    3.78
   5   3 -12    4.67    1.73
   5   3  12   -2.97    3.22
  -5   3 -12    4.50    1.52
  -5  -3 -12    6.57    2.13
   5  -3  13  211.48   12.95
  -5  -3  13  218.94   12.11
   5   3 -13  213.99   12.81
  -5   3 -13  211.78   12.75
   5  -3 -13  211.26   12.97
   5   3 -13  212.31    8.78
   5   3  13  220.41   12.09
  -5   3 -13  213.18   10.90
  -5   3  13  218.84   10.89
  -5   3 -13  217.33    8.17
   5   3  13  221.45   12.00
  -5   3 -14    1.00    1.71
  -5   3  14   -1.07    1.98
   5   3  14    0.69    2.80
  -5  -3  14   -1.15    2.09
  -5   3 -14    0.40    3.41
   5  -3  14    1.38    3.59
  -5   3 -14   -0.06    1.21
   5  -3 -14    0.94    3.46
   5   3 -14   -0.82    3.16
   5   3 -14    0.33    1.08
   5   3  14   -1.75    3.09
   5  -3  15  239.18   14.19
  -5  -3  15  233.07   12.63
  -5   3 -15  222.46   13.47
   5  -3 -15  238.03   14.26
   5   3 -15  221.97   13.68
   5   3  15  236.29   12.72
  -5   3 -15  220.60    8.43
  -5   3 -15  215.12   10.87
  -5   3  15  219.34   10.90
   5   3 -15  233.29    8.68
   5   3  15  245.05   13.21
  -5   3 -16   41.96    4.85
  -5   3  16   38.24    4.61
   5   3  16   46.00    6.71
   5   3 -16   42.52    6.59
  -5  -3  16   30.21    4.97
   5  -3  16   38.55    6.65
  -5   3 -16   37.98    5.97
   5  -3 -16   43.46    6.71
   5   3  16   44.51    6.17
   5  -3 -17    6.54    3.63
  -5   3 -17    1.64    1.96
  -5   3  17    3.86    1.67
   5   3  17    2.67    2.80
   5   3  17    6.09    3.13
  -5  -3  17   11.90    3.49
   5  -3  17    8.54    4.59
  -5   3 -17    3.37    3.31
   5   3 -17    2.77    2.68
   5   3  18    6.13    3.94
  -5   3 -18    1.40    1.62
   5  -3  18   -1.13    3.34
  -5   3 -18   -1.11    2.99
   5  -3 -18    0.79    2.67
   5   3 -18    0.82    2.66
   5   3  18    1.24    2.01
   5   3  19   42.92    6.71
   5   3 -19   34.36    6.26
   5  -3  19   39.76    6.62
  -5   3 -19   32.67    6.02
   5  -3 -19   34.61    6.41
   5   3  19   35.41    5.47
   5   3  20   21.40    5.24
   5  -3  20   22.80    5.77
  -5   3 -20   23.63    5.34
   5  -3 -20   18.53    4.92
   5   3 -20   22.05    5.60
   5   3  20   24.77    4.74
   5   3  20   28.10    5.71
   5   3  21   10.89    3.97
   5   3  21   10.57    4.27
   5  -3 -21   17.21    5.61
   5  -3  21   18.65    5.18
  -5   3 -21   20.96    5.74
   5   3 -21   17.83    5.17
   5   3  21   18.03    4.37
   5   3  22    9.95    4.11
   5  -3  22   11.79    5.54
   5   3 -22    5.57    3.95
   5  -3 -22   12.15    4.43
   5   3  22   14.03    3.85
   5   3  22    7.67    4.31
   5   3  23   21.59    5.84
   5  -3  23   30.66    6.74
   5  -3 -23   25.35    6.42
   5   3 -23   24.56    6.32
   5   3  23   34.28    6.78
   5   3  24  121.11   12.32
   5  -3  24  120.63   12.38
   5  -3 -24  116.59   12.47
   5   3 -24  114.25   12.33
   5   3  24  123.18   12.26
   5   3  25   19.38    5.40
   5  -3 -25   25.22    6.44
   5   3 -25    9.05    4.39
  -5  -3  25   22.40    5.36
   5   3  25   27.53    6.49
   5   3  26   -4.60    4.27
  -5   4   0    0.02    1.56
  -5  -4   0    6.56    3.26
  -5   4   0    1.80    1.32
   5   4   0    1.52    1.66
  -5   4   0    9.70    3.78
  -5   4  -1  336.91   11.80
  -5   4   1  315.96   12.14
  -5  -4   1  313.50   13.31
  -5  -4  -1  327.18   13.30
  -5   4   1  309.75   13.41
  -5   4  -1  344.32   14.14
   5   4  -1  311.00   11.05
   5   4   1  325.21   10.37
  -5  -4   1  295.75    5.64
  -5  -4   2    4.49    0.76
  -5   4  -2    7.15    2.49
  -5   4   2    9.07    2.65
  -5  -4   2    6.98    2.90
  -5  -4  -2    7.52    3.00
   5   4  -2    4.32    1.90
   5   4   2    5.85    1.77
  -5   4   2    4.79    2.60
  -5   4  -2    7.62    3.28
  -5   4  -3    7.29    2.05
  -5  -4   3    4.84    0.81
  -5   4   3    3.90    2.27
  -5  -4   3    3.43    2.73
  -5  -4  -3    4.05    2.51
   5   4  -3    5.17    2.01
   5   4   3    4.94    1.46
  -5   4   3    4.05    2.22
  -5   4  -3    5.94    2.44
  -5   4  -4   83.19    5.50
  -5  -4   4   76.42    2.92
  -5   4   4   85.31    7.19
   5   4   4   87.78    5.04
  -5  -4   4   80.52    7.11
  -5  -4  -4   86.24    6.66
  -5   4  -4   80.13    7.11
   5   4  -4   95.42    6.78
   5   4   4   85.07    4.72
  -5   4  -5   36.88    3.70
   5   4   5   40.38    3.80
  -5  -4   5   45.82    6.04
  -5  -4  -5   43.57    5.07
  -5   4  -5   40.46    5.56
   5   4   5   40.10    3.23
   5   4  -5   34.44    4.60
  -5   4   5   41.72    5.70
   5   4   6  515.60   13.13
  -5  -4  -6  517.91   15.98
  -5  -4   6  518.65   17.96
  -5   4  -6  529.88   17.50
  -5   4   6  541.53   17.64
   5   4  -6  510.78   16.86
   5   4   6  523.85   10.15
  -5   4  -6  511.32   12.70
  -5  -4  -7  491.31   12.45
   5   4   7  493.81   13.56
   5   4  -7  504.57   17.19
  -5  -4  -7  492.00   15.43
  -5  -4   7  498.94   17.77
   5  -4  -7  515.02   17.87
  -5   4   7  494.95   16.93
  -5   4  -7  496.96   17.08
   5   4   7  491.87    9.10
  -5   4  -7  493.66   12.08
   5   4   8  130.37    7.41
  -5  -4  -8  137.44    6.42
  -5  -4  -8  142.10    8.17
  -5  -4   8  146.01    9.91
   5  -4  -8  120.53    9.23
  -5   4  -8  154.60    9.66
  -5   4   8  137.34    9.07
   5   4  -8  139.34    9.40
   5   4   8  132.22    4.35
   5   4   8  133.63    6.39
  -5   4  -8  138.63    6.33
   5   4   9   70.92    5.83
  -5  -4  -9   60.31    4.29
  -5  -4  -9   61.41    5.53
  -5  -4   9   59.37    6.60
  -5   4   9   56.45    6.04
  -5   4  -9   56.43    6.10
   5   4   9   51.16    2.45
   5   4  -9   63.18    6.68
   5   4   9   55.70    4.07
   5   4   9   56.51    2.66
  -5   4  -9   57.17    3.92
   5  -4  -9   52.37    6.46
  -5  -4 -10    0.06    0.75
   5   4  10    3.32    2.65
  -5  -4 -10    0.22    1.70
  -5  -4  10    0.78    2.37
   5  -4 -10   -1.64    3.20
   5   4 -10   -0.66    2.62
   5   4  10    0.77    0.33
  -5  -4 -10   -2.02    1.90
  -5   4  10    0.38    1.84
  -5   4 -10   -0.74    2.06
   5   4  10    0.84    1.22
  -5   4 -10    0.25    1.00
   5   4  11    5.67    3.07
  -5  -4 -11    3.42    1.98
  -5  -4  11    1.76    2.33
   5  -4 -11    1.70    3.03
   5   4 -11    1.68    2.64
  -5  -4 -11    5.75    2.30
  -5   4  11    4.22    1.87
  -5   4 -11    3.86    2.57
  -5   4 -11    3.18    1.25
   5   4  11    4.98    1.50
   5  -4  12  220.34   13.27
  -5  -4 -12  200.31    9.34
  -5  -4  12  197.89   11.76
   5  -4 -12  195.47   12.66
  -5   4  12  187.93   10.48
  -5   4 -12  201.13   10.91
   5   4 -12  195.06   12.33
  -5  -4 -12  201.60    9.73
  -5   4 -12  198.75    8.96
   5   4  12  210.37    7.33
   5   4  12  201.06   10.80
   5   4  13   14.24    3.72
  -5  -4 -13   17.41    2.89
  -5  -4  13   20.18    4.21
   5  -4  13   24.46    5.92
   5  -4 -13   18.61    4.32
  -5   4 -13   16.31    4.45
   5   4 -13   14.70    3.80
  -5   4 -13   18.04    3.11
  -5  -4 -13   17.83    3.17
   5   4  13   22.36    2.41
  -5   4  13   16.36    3.47
  -5   4 -13   15.29    3.35
  -5  -4 -14   70.23    5.39
  -5  -4  14   66.18    7.10
   5  -4  14   77.22    8.82
   5  -4 -14   61.88    7.43
  -5   4 -14   59.41    7.41
  -5   4  14   62.96    6.22
  -5   4 -14   66.22    6.37
   5   4 -14   63.67    7.63
  -5   4 -14   65.29    5.15
  -5  -4 -14   83.20    6.86
   5   4  14   83.67    7.95
   5   4  15   23.57    4.83
  -5  -4 -15   17.60    2.77
  -5  -4  15   13.12    3.98
   5  -4  15   16.87    5.06
  -5   4 -15   21.18    5.19
   5  -4 -15   17.20    4.61
   5   4 -15   15.71    4.78
   5   4 -15   16.16    2.76
  -5   4 -15   14.33    2.67
  -5   4  15   18.83    3.88
  -5   4 -15   15.71    3.56
   5  -4  16  305.37   16.78
  -5  -4  16  288.47   14.77
  -5   4 -16  292.40   15.99
   5  -4 -16  286.58   16.54
   5   4 -16  272.82   15.70
   5   4  16  296.70   15.01
  -5   4 -16  278.60   12.91
  -5   4  16  264.65   12.35
  -5   4 -16  292.64   11.19
   5   4  16  281.18   14.58
   5  -4  17  156.04   12.43
  -5  -4  17  139.45   10.52
  -5   4 -17  143.44   11.53
   5  -4 -17  167.33   13.07
   5   4 -17  142.43   11.77
   5   4  17  133.40   10.13
  -5   4 -17  150.87    9.36
  -5   4  17  137.10    8.82
   5   4  17  135.55   11.49
   5   4  17  157.81   11.31
  -5   4 -18    5.69    2.34
   5   4  18    3.45    3.68
  -5  -4  18    4.00    2.71
   5  -4  18    5.07    4.37
  -5   4 -18    0.22    3.16
   5  -4 -18    3.75    3.48
   5   4 -18    9.72    3.94
   5   4  18    4.20    3.10
   5   4  18    7.28    3.70
   5   4  19   67.15    8.23
  -5  -4  19   65.13    7.40
   5  -4  19   74.95    9.39
   5  -4 -19   69.94    8.69
   5   4  19   69.47    7.59
   5   4 -19   65.09    8.55
  -5   4 -19   70.78    8.37
   5   4  19   63.42    8.50
   5   4  20   12.11    4.53
  -5  -4  20   13.57    3.96
   5  -4  20    8.76    4.20
  -5   4 -20   17.04    4.81
   5  -4 -20   18.64    5.66
   5   4  20   11.60    3.42
   5   4 -20   14.91    5.02
   5   4  20   21.62    5.44
   5   4  21   17.11    5.25
   5  -4  21   19.54    6.03
  -5   4 -21   18.07    4.89
   5  -4 -21   12.68    5.13
   5   4  21   23.82    4.79
   5   4  21   11.89    5.05
   5   4 -21   19.66    5.76
  -5  -4  21   18.28    3.90
   5   4  22    8.90    4.89
   5  -4 -22   13.66    5.50
   5  -4  22    0.90    3.89
  -5   4 -22    8.89    4.81
   5   4 -22    5.99    4.55
   5   4  22   -1.13    2.02
   5   4  22    5.60    3.81
   5   4  23  463.97   23.77
   5  -4  23  458.94   23.77
  -5   4 -23  465.45   22.67
   5  -4 -23  426.28   23.12
   5   4 -23  434.11   23.38
   5   4  23  439.88   22.07
   5   4  24   -1.52    3.58
   5   4  24    3.49    3.91
   5  -4  24    1.36    5.20
   5  -4 -24    0.12    4.02
   5   4 -24    0.75    2.93
   5   4  25    6.92    4.33
   5   4  25    6.77    4.49
  -5   5   0    2.14    2.16
  -5  -5   0    9.17    3.91
  -5   5   0    6.92    3.88
   5   5   0    1.17    1.88
  -5   5  -1  512.23   15.53
  -5   5   1  493.18   16.05
  -5  -5   1  500.40   17.46
  -5  -5  -1  493.48   16.95
  -5   5   1  489.99   17.62
  -5   5  -1  474.61   17.32
   5   5  -1  480.78   14.61
   5   5   1  477.48   13.80
  -5   5  -2  260.65   10.82
  -5   5   2  255.61   11.77
  -5  -5   2  261.28   13.00
  -5  -5  -2  260.03   12.27
  -5   5   2  237.79   12.37
  -5   5  -2  250.35   12.72
   5   5  -2  247.89   10.97
   5   5   2  243.72    9.47
  -5   5  -3   10.07    2.51
  -5   5   3    7.30    2.70
  -5  -5   3    7.36    3.40
  -5  -5  -3   16.80    3.63
  -5   5   3   16.77    4.09
  -5   5  -3   12.93    3.57
   5   5  -3   12.17    3.53
   5   5   3   11.13    2.38
   5   5   4   39.41    3.28
  -5   5  -4   34.99    4.09
  -5   5   4   37.92    4.95
  -5  -5   4   28.57    4.66
  -5  -5  -4   33.57    4.66
  -5   5   4   37.63    5.32
  -5   5  -4   32.39    5.06
   5   5   4   38.82    3.66
   5   5  -4   38.38    5.27
   5   5   5   92.46    5.13
  -5   5   5   91.00    7.63
  -5  -5   5  102.87    8.30
  -5  -5  -5   99.31    7.56
  -5   5   5   86.51    7.69
  -5   5  -5   92.83    7.97
   5   5  -5   91.10    7.37
   5   5   5   92.83    5.32
   5   5   5   96.07    6.54
  -5   5  -5   92.44    6.22
   5   5   6  290.79    9.60
  -5   5   6  296.34   13.81
  -5  -5   6  299.55   14.16
  -5  -5  -6  281.14   12.37
  -5   5  -6  287.94   13.64
  -5   5   6  284.57   13.54
   5   5  -6  290.89   13.13
   5   5   6  284.79    8.93
   5   5   6  288.19   10.91
  -5   5  -6  293.34   10.70
   5   5   7  228.72    9.01
  -5   5   7  237.72   12.70
  -5  -5   7  235.79   12.80
  -5  -5  -7  236.88   11.22
  -5   5  -7  247.76   12.59
  -5   5   7  233.36   12.17
   5   5  -7  248.10   12.51
   5   5   7  239.01    7.83
   5   5   7  237.24    9.79
  -5   5  -7  233.77    9.38
  -5  -5   7  209.16    4.48
   5   5   8  118.12    7.03
  -5   5  -8  133.92    9.28
  -5   5   8  120.94    9.43
  -5  -5   8  122.41    9.47
  -5  -5  -8  121.29    8.08
  -5   5   8  122.30    8.98
   5   5  -8  121.31    9.13
   5   5   8  126.88    5.45
   5   5   8  119.15    6.92
  -5   5  -8  118.23    6.62
  -5  -5   8  118.62    4.19
  -5  -5   9   13.58    1.77
   5   5   9   10.93    2.83
  -5   5   9   13.54    3.64
  -5  -5   9   17.27    4.09
  -5  -5  -9   11.01    2.75
   5   5  -9   16.11    4.12
  -5   5   9    7.32    2.68
  -5   5  -9   15.55    3.70
   5   5   9   15.32    1.96
   5   5   9   14.54    2.77
   5   5  -9   11.77    1.47
  -5   5  -9   11.08    2.33
  -5  -5  10   12.09    1.82
   5   5  10   14.18    3.30
  -5  -5  10   11.24    3.61
  -5  -5 -10   13.47    3.01
   5   5 -10   13.44    4.02
  -5   5  10   15.85    3.50
  -5   5 -10   12.46    3.48
  -5  -5 -10   15.30    3.31
   5   5  10   13.91    1.80
   5   5  10   12.60    2.57
  -5   5 -10   11.81    2.22
   5   5 -10   12.34    1.24
   5   5 -11   84.24    8.49
  -5  -5 -11   86.48    6.57
  -5  -5  11   69.77    7.51
  -5   5  11   81.29    7.40
  -5   5 -11   82.58    7.44
  -5  -5 -11   81.42    6.72
  -5   5 -11   82.71    5.27
   5   5  11   80.28    5.52
  -5  -5  11   85.84    4.98
   5   5  11   76.87    6.56
  -5  -5 -12  291.90   11.96
  -5  -5  12  293.57   14.69
   5   5 -12  292.91   15.36
   5  -5 -12  329.85   16.65
  -5   5  12  295.21   13.87
  -5   5 -12  277.92   13.61
  -5  -5 -12  291.67   12.85
  -5   5 -12  307.06    9.72
   5   5  12  291.58   10.16
  -5  -5  12  289.00    9.69
   5   5  12  301.52   13.08
  -5  -5  13    1.03    1.32
   5   5  13    4.08    2.79
  -5  -5 -13    1.82    1.63
  -5  -5  13    0.11    2.86
   5  -5 -13    0.14    3.09
   5   5 -13    3.36    3.09
  -5   5 -13   -0.81    1.81
  -5   5  13    0.21    2.14
  -5   5 -13    1.67    1.96
  -5  -5 -13    0.92    1.71
   5   5  13   -1.12    3.59
   5   5  13    2.73    1.53
  -5  -5  14    4.89    1.75
   5   5  14    4.55    2.61
  -5   5 -14   10.03    3.54
  -5  -5 -14    9.51    2.44
  -5  -5  14   10.58    2.92
   5  -5  14   16.96    5.29
   5  -5 -14    1.94    2.80
   5   5 -14    7.17    3.09
  -5   5 -14    7.95    2.30
  -5   5  14    5.35    2.33
  -5   5 -14    6.45    2.07
  -5  -5 -14    4.82    2.03
   5   5  14    5.17    3.24
  -5  -5  15   13.30    2.72
   5   5  15   15.37    3.86
  -5  -5  15   13.85    3.63
   5   5 -15    7.50    3.48
   5  -5 -15   13.11    4.42
   5  -5  15   18.23    5.78
  -5   5 -15   15.92    4.52
   5   5  15   15.92    4.38
  -5   5 -15   15.16    2.98
  -5   5  15   14.21    3.44
  -5   5 -15   13.82    3.47
  -5  -5 -15   13.11    2.93
   5   5  16   48.63    6.39
  -5  -5  16   48.29    6.51
   5  -5  16   67.05    8.68
   5  -5 -16   50.60    7.51
  -5   5 -16   54.14    7.46
  -5   5  16   51.48    5.92
  -5   5 -16   51.65    5.97
   5   5 -16   56.15    7.74
  -5   5 -16   47.34    5.17
   5   5  16   48.27    7.46
  -5  -5  16   54.86    5.38
   5   5  17    1.23    2.40
  -5  -5  17    2.30    2.78
   5  -5  17    7.35    5.26
   5   5 -17    1.56    3.38
   5  -5 -17    1.88    2.95
  -5   5 -17    2.54    3.22
   5   5  17   -3.79    4.43
  -5   5  17    0.20    1.74
  -5   5 -17    1.63    1.84
   5   5  18   16.84    4.25
  -5  -5  18   17.55    4.33
   5  -5  18   25.37    5.87
  -5   5 -18   11.17    3.95
   5  -5 -18   18.08    5.62
   5   5 -18   16.45    5.08
   5   5  18   15.87    3.91
   5   5  18   10.24    4.39
  -5   5 -18   16.33    3.47
   5   5  19    8.94    2.78
   5   5  19    4.70    2.81
  -5  -5  19    5.17    2.63
   5  -5  19    7.06    4.78
  -5   5 -19    8.09    2.83
   5  -5 -19    1.94    3.52
   5   5 -19    9.14    4.27
   5   5  19    4.01    3.58
   5   5  20    2.75    2.77
  -5  -5  20    2.61    2.71
   5  -5  20   12.59    5.73
  -5   5 -20    1.80    3.60
   5   5  20   -2.66    2.75
   5   5 -20   -2.96    4.45
   5  -5 -20   -3.21    4.40
   5   5  20   -1.54    3.52
   5   5  21  121.06   12.13
   5  -5  21  126.58   12.53
  -5  -5  21  102.52    9.53
  -5   5 -21  113.54   11.11
   5  -5 -21  116.03   11.77
   5   5 -21  115.76   12.17
   5   5  21  123.65   10.46
   5   5  21  123.14   11.32
   5   5  22   17.86    5.83
   5   5  22   12.34    4.59
  -5  -5  22   14.49    4.36
   5  -5  22   22.59    6.77
   5  -5 -22   11.65    4.79
  -5   5 -22    9.06    4.38
   5   5 -22   17.26    5.85
   5   5  23   65.66    9.43
   5   5  23   69.13    9.20
   5  -5  23   61.35    9.78
  -5   5 -23   59.44    8.71
   5  -5 -23   56.27    9.27
   5   5 -23   71.40    9.99
   5   5  24   90.40   11.20
  -5   5 -24   92.36   10.66
   5  -5 -24   83.66   10.74
   5   5  24  100.86   11.21
   5   5  25    5.74    3.93
  -5   6   0    2.78    3.12
  -5   6   0    7.25    3.99
   5   6   0    0.29    1.86
  -5   6  -1  625.99   18.34
  -5   6   1  648.34   19.37
  -5   6   1  612.71   20.54
  -5   6  -1  661.70   21.31
   5   6  -1  638.72   17.89
   5   6   1  626.74   16.99
   5   6  -1  605.44   16.77
  -5   6  -2  299.46   12.68
  -5   6   2  311.56   13.89
  -5   6   2  307.46   14.80
  -5   6  -2  301.48   14.80
   5   6  -2  298.16   13.01
   5   6   2  298.33   11.37
   5   6  -2  293.83   11.46
  -5   6  -3  376.79   13.75
  -5   6   3  394.04   15.73
  -5   6   3  361.49   16.08
  -5   6  -3  364.81   16.17
   5   6  -3  364.20   14.36
   5   6   3  365.19   12.30
   5   6   3  392.76   14.39
   5   6  -3  372.67   12.22
   5   6   4  120.11    4.95
  -5   6   4  131.53    9.24
  -5  -6   4  114.13    9.35
  -5   6   4  119.56    9.49
  -5   6  -4  117.56    9.38
   5   6  -4  122.45    8.73
   5   6   4  118.26    6.85
   5   6   4  115.09    7.95
   5   6  -4  119.90    6.70
  -5   6  -4  118.09    7.73
   5   6   5  185.40    6.83
  -5   6   5  180.35   11.13
  -5  -6   5  188.15   11.57
  -5   6   5  184.29   11.59
  -5   6  -5  185.92   11.66
   5   6  -5  203.18   11.16
   5   6   5  175.77    8.14
   5  -6   5  192.42    7.68
   5   6   5  190.40    9.85
   5   6   5  185.88   10.92
  -5   6  -5  191.86    9.64
   5   6  -5  187.64    7.86
  -5   6  -6   23.36    3.50
  -5   6   6   18.97    4.11
   5   6   6   18.49    2.49
  -5  -6   6   16.54    4.37
  -5   6   6   21.65    4.56
  -5   6  -6   22.18    4.86
   5   6  -6   19.77    4.19
   5   6   6   20.49    3.15
   5   6  -6   21.56    2.84
   5   6   6   25.02    4.11
   5  -6   6   23.29    2.75
   5   6   6   13.62    3.54
   5   6  -7   25.36    2.71
  -5   6  -7   29.38    3.94
  -5   6   7   28.56    4.97
   5   6   7   25.32    3.22
  -5  -6   7   24.51    4.73
  -5   6  -7   23.10    4.68
  -5   6   7   26.16    4.66
   5   6  -7   31.42    5.15
   5  -6   7   27.64    2.78
   5   6   7   26.70    3.25
   5   6   7   23.82    3.66
   5   6   7   20.72    4.07
   5   6  -8   56.41    3.48
  -5   6   8   54.83    6.66
  -5  -6   8   63.78    7.24
  -5  -6  -8   50.84    5.77
  -5   6   8   54.35    6.43
  -5   6  -8   44.78    5.92
   5   6   8   48.71    6.12
   5   6  -8   51.97    6.41
   5   6   8   57.57    4.49
   5  -6   8   60.96    3.90
   5   6   8   59.11    5.44
  -5   6  -8   52.09    4.92
   5   6   8   60.32    5.25
  -5   6   9  316.51   15.83
  -5  -6   9  325.85   15.78
  -5  -6  -9  328.61   13.65
  -5   6   9  330.14   15.24
  -5   6  -9  324.50   15.32
   5   6  -9  349.97   16.16
   5  -6   9  348.44    8.79
   5   6   9  336.79   12.62
  -5   6  -9  320.16   11.83
   5   6   9  329.92   15.89
   5   6   9  356.36   12.42
   5   6  10    4.03    2.32
  -5   6  10    5.76    3.41
  -5  -6  10    1.37    2.26
  -5  -6 -10    2.65    2.03
  -5   6  10    4.59    2.71
  -5   6 -10    3.65    2.51
  -5  -6 -10    0.40    2.03
   5   6 -10    3.47    2.92
   5   6  10    4.68    3.18
   5   6  10    2.07    1.75
  -5   6 -10    3.46    1.68
  -5   6  11   58.09    7.41
  -5  -6 -11   53.23    5.63
  -5  -6  11   55.78    7.00
   5   6  11   54.53    7.31
  -5   6  11   54.82    6.39
  -5   6 -11   52.28    6.37
   5   6 -11   54.19    7.14
  -5  -6 -11   50.50    5.96
  -5   6 -11   58.77    5.11
   5   6  11   57.54    5.36
   5   6  11   54.41    5.62
  -5   6  12  252.50   14.91
  -5  -6  12  231.88   13.70
  -5  -6 -12  228.28   11.23
  -5   6  12  218.91   12.43
  -5   6 -12  223.12   12.84
   5   6 -12  248.94   14.56
  -5  -6 -12  227.68   12.16
  -5   6 -12  217.45    9.43
   5   6  12  222.65   10.06
   5   6  12  230.71   11.54
   5   6  12  245.24   14.83
  -5   6  13   71.62    8.58
  -5  -6  13   72.60    8.00
  -5  -6 -13   79.27    6.64
  -5   6  13   73.40    7.28
  -5   6 -13   68.12    7.22
   5   6 -13   78.36    8.62
  -5  -6 -13   78.20    7.38
   5   6  13   78.01    8.54
   5   6  13   85.37    6.33
   5   6  13   83.93    7.22
   5   6  14    9.22    3.32
  -5   6  14    8.86    4.48
  -5  -6 -14    6.41    2.07
  -5  -6  14    6.06    3.57
   5   6 -14   10.58    4.32
  -5   6  14    3.06    2.43
  -5   6 -14    6.75    3.15
  -5   6 -14   11.99    3.11
  -5  -6 -14    6.65    2.62
   5   6  14    8.42    3.74
   5   6  15  248.97   15.51
  -5   6  15  239.73   15.47
  -5  -6  15  250.16   14.45
  -5   6  15  231.51   12.89
  -5   6 -15  233.00   13.07
   5   6 -15  224.77   14.94
  -5   6 -15  249.29   12.18
  -5  -6 -15  243.03   13.10
   5   6  15  234.13   12.86
   5   6  16    6.30    3.36
  -5   6  16    2.53    3.38
  -5  -6  16    7.27    3.72
  -5   6 -16   11.37    4.69
   5   6 -16    2.49    3.38
  -5   6 -16    4.85    2.63
  -5   6  16    4.15    2.54
  -5   6 -16    2.81    2.55
  -5  -6 -16    2.66    1.99
   5   6  16    3.63    4.06
   5   6  17    8.48    3.22
  -5   6  17    7.63    4.08
   5   6 -17    6.31    3.57
  -5  -6  17    4.90    2.90
  -5   6 -17    4.57    3.47
  -5   6  17    3.78    1.82
  -5   6 -17    5.15    2.73
   5   6  17   -0.23    3.68
   5   6  18   -5.61    4.33
   5   6  18   -0.89    2.70
  -5   6  18   -4.38    4.21
  -5  -6  18    2.94    2.22
   5  -6  18    8.98    5.63
  -5   6 -18    0.58    2.99
   5   6 -18    0.59    2.61
   5   6  19   19.48    5.94
   5   6  19   23.91    5.34
  -5   6  19   19.20    5.78
  -5  -6  19   13.72    4.02
   5  -6  19   25.57    6.80
  -5   6 -19   19.45    5.21
   5   6 -19   17.09    5.37
   5   6  20  289.63   18.62
   5  -6  20  268.73   17.82
  -5   6  20  259.17   17.59
  -5  -6  20  271.79   15.88
  -5   6 -20  291.53   17.37
   5   6 -20  263.95   17.78
   5   6  20  272.34   16.14
   5   6  21    5.79    4.38
   5   6  21    5.72    3.98
  -5   6  21    2.51    3.36
  -5  -6  21    5.66    3.74
   5  -6  21   13.67    6.09
  -5   6 -21    4.73    3.96
   5   6 -21    0.97    3.58
   5   6  21    2.02    2.90
   5  -6  22  277.96   18.92
   5   6  22  247.86   17.86
  -5   6  22  248.75   17.99
  -5  -6  22  240.52   15.14
  -5   6 -22  233.75   16.12
   5   6 -22  243.46   17.82
   5   6  22  244.35   16.14
   5   6  23   31.65    6.33
  -5   6  23   26.68    6.55
   5   6  23   36.86    7.65
  -5   6 -23   16.05    5.07
   5   6  24   54.91    8.39
  -5   6 -24   47.23    7.94
   5   6  25   12.46    4.53
  -5   6 -25   16.39    5.46
  -5   7   0   -3.84    3.53
  -5   7   0   -3.10    2.94
   5   7   0    1.01    2.33
   5   7   0    1.34    1.99
   5   7  -1   56.29    5.67
  -5   7  -1   54.02    6.19
  -5   7   1   55.77    6.46
  -5   7  -1   60.55    7.65
  -5   7   1   58.65    7.48
   5   7  -1   56.72    6.01
   5   7   1   58.62    5.88
   5   7   1   52.66    6.10
   5   7   1   50.37    5.75
   5   7   2  634.14   19.46
  -5   7   2  624.04   20.65
   5   7  -2  635.42   17.25
  -5   7   2  637.16   21.98
  -5   7  -2  628.92   21.80
   5   7  -2  667.13   19.88
   5   7   2  654.00   18.19
   5   7   2  642.84   20.13
  -5   7  -2  644.98   19.69
   5   7   3  231.25   12.11
   5   7  -3  218.99    9.86
  -5   7   3  240.16   13.15
  -5   7   3  239.40   13.63
  -5   7  -3  245.68   13.86
   5   7  -3  237.66   12.45
   5   7   3  245.37   11.09
   5  -7   3  234.52   10.08
   5   7   3  243.70   12.32
  -5   7  -3  239.60   11.97
   5   7   4  226.86   12.21
   5   7   4  208.95    5.97
  -5   7   4  196.74   12.15
   5   7  -4  202.32    9.14
  -5   7   4  216.48   13.00
  -5   7  -4  206.28   12.73
   5   7  -4  222.03   12.14
   5   7   4  207.44    9.97
   5  -7   4  210.38    9.32
   5   7   4  224.79   11.69
  -5   7  -4  215.77   11.37
   5   7   5   65.55    3.89
   5   7  -5   68.80    5.12
  -5   7   5   63.28    7.28
   5   7  -5   64.19    7.19
  -5   7  -5   66.93    7.47
  -5   7   5   70.34    7.55
   5   7   5   69.81    5.87
   5  -7   5   70.62    5.38
   5   7   5   67.84    6.47
   5   7   5   63.80    6.76
  -5   7  -5   68.16    6.61
  -5   7  -6   -0.87    1.91
  -5   7   6    7.99    3.76
   5   7   6    1.60    1.20
   5   7  -6    0.49    1.36
  -5   7   6    3.54    3.02
  -5   7  -6    6.06    3.41
   5   7  -6   -1.56    3.40
   5   7   6   -0.73    2.01
   5  -7   6    1.59    1.33
   5   7   6    3.59    2.28
   5   7   6   -0.82    2.90
  -5   7  -7    1.09    1.71
  -5   7   7    2.89    2.45
  -5   7   7   -3.38    3.02
   5   7   7    1.17    1.58
  -5   7  -7   -0.45    2.27
   5   7  -7   -0.46    1.22
   5   7  -7   -2.63    3.52
   5   7   7   -2.08    1.93
   5  -7   7    1.65    1.48
   5   7   7    0.03    1.83
   5   7   7   -1.01    3.12
   5   7   8   77.13    8.10
  -5   7   8   81.96    8.59
  -5   7   8   90.38    8.55
  -5   7  -8   88.97    8.48
   5   7  -8   86.90    8.42
   5  -7   8   85.77    5.36
   5   7   8   84.59    7.06
  -5   7  -8   85.88    6.81
   5   7   8   80.22    5.67
   5   7   9  256.44   14.59
  -5   7   9  257.66   14.91
  -5  -7   9  227.98   13.85
  -5   7   9  219.46   13.01
  -5   7  -9  255.18   14.14
   5   7  -9  258.57   14.79
   5   7   9  238.97   11.73
  -5   7  -9  241.07   11.20
   5   7   9  240.13   10.16
   5   7  10    3.52    2.22
  -5   7  10    1.72    3.81
  -5  -7  10    2.31    3.47
  -5   7  10    3.27    2.86
  -5   7 -10    0.51    2.38
  -5  -7 -10   -0.86    2.51
   5   7 -10    5.18    3.70
   5   7  10    1.70    1.87
  -5   7 -10   -0.43    1.87
   5   7  10   -1.82    2.96
   5   7  11   98.38    9.61
  -5   7  11   96.63    9.76
  -5  -7  11  109.11    9.87
  -5   7  11  101.79    9.09
  -5   7 -11  100.50    9.10
   5   7 -11  100.93    9.72
  -5  -7 -11   96.50    8.48
   5   7  11   97.92    7.35
  -5   7 -11  106.36    7.43
   5   7  11   95.88    7.20
   5   7  12   47.35    5.62
  -5   7  12   39.74    6.59
  -5  -7  12   43.81    6.78
  -5  -7 -12   33.62    4.96
  -5   7  12   36.94    5.79
  -5   7 -12   33.33    5.54
   5   7 -12   44.34    6.94
  -5  -7 -12   41.93    5.92
  -5   7 -12   47.07    5.01
   5   7  12   40.22    4.91
   5   7  12   35.19    5.99
   5   7  13  132.89   11.58
  -5   7  13  127.80   11.27
  -5  -7  13  130.92   10.97
  -5  -7 -13  127.35    8.73
  -5   7  13  124.65    9.97
  -5   7 -13  122.10    9.97
   5   7 -13  132.81   11.39
  -5  -7 -13  133.90   10.18
   5   7  13  133.81    8.60
   5   7  13  132.12    9.08
   5   7  14   84.19    9.41
  -5   7  14   96.31   10.36
  -5  -7  14   92.14    9.22
  -5  -7 -14  107.79    8.01
  -5   7  14   97.98    8.89
  -5   7 -14   93.17    8.78
   5   7 -14  106.53   10.64
  -5  -7 -14  101.29    9.02
  -5   7 -14  104.18    8.62
   5   7  14   94.51    8.08
   5   7  15   11.49    4.30
   5   7  15   19.76    4.12
  -5   7  15   16.14    4.53
  -5  -7  15   14.47    4.16
   5   7 -15   17.70    5.09
  -5   7  15   16.83    3.93
  -5   7 -15   18.93    4.23
  -5   7 -15   17.03    3.99
  -5  -7 -15    8.16    3.35
   5   7  16   35.07    6.69
   5   7  16   25.51    4.52
  -5   7  16   28.50    6.15
  -5  -7  16   24.48    5.15
  -5   7 -16   32.07    6.32
   5   7 -16   24.98    5.47
  -5   7  16   27.37    5.07
  -5   7 -16   27.59    4.85
  -5   7 -16   33.96    5.18
  -5  -7 -16   28.54    5.13
   5   7  17    0.26    3.39
   5   7  17    0.96    2.79
  -5   7  17    0.42    3.35
  -5  -7  17   -2.30    2.79
  -5   7 -17   -1.31    3.12
   5   7 -17   -2.11    3.66
  -5   7 -17   -1.03    2.27
  -5   7  17    1.88    2.03
  -5   7 -17    2.05    2.25
  -5  -7 -17   -1.93    3.01
   5   7  18    1.79    2.92
   5   7  18    2.17    3.13
  -5   7  18   -4.00    3.79
  -5  -7  18    5.33    3.76
   5   7 -18    1.50    3.11
  -5   7 -18    3.83    3.95
   5   7  19    8.95    4.04
  -5   7  19   20.29    5.67
   5   7  19   16.53    5.60
  -5  -7  19    8.65    3.97
  -5   7 -19    6.94    3.32
   5   7 -19    9.15    4.32
   5   7  20   -0.01    2.77
  -5   7  20    6.55    4.12
   5   7  20    0.12    3.43
  -5  -7  20    3.73    2.44
  -5   7 -20    0.11    3.17
   5   7 -20    3.29    3.08
   5   7  21    5.93    3.32
  -5   7  21   11.77    4.89
   5   7  21    9.75    5.02
  -5  -7  21    7.86    3.57
   5  -7  21   18.91    7.06
  -5   7 -21    9.45    4.76
   5   7 -21    7.75    4.85
   5   7  22    3.17    3.57
  -5   7  22    4.01    4.28
  -5   7 -22    0.00    3.08
   5   7  23   11.14    4.16
  -5   7 -23    9.13    3.95
   5   7  24   12.33    4.23
  -5   7 -24   17.72    5.17
  -5   8   0   -0.45    3.07
   5   8   0    6.71    3.47
   5   8   0    1.21    2.77
   5   8   0   -0.56    3.01
  -5   8   1  834.32   24.53
   5   8   1  824.32   22.33
   5   8  -1  840.78   21.36
  -5   8   1  855.40   26.62
  -5   8  -1  863.77   26.77
   5   8  -1  853.07   23.73
   5   8   1  841.48   22.53
   5  -8   1  862.27   21.72
   5   8   1  868.05   24.81
  -5   8  -1  871.72   24.56
  -5   8   2  142.66   10.64
   5   8   2  137.17    9.74
   5   8  -2  146.46    8.79
  -5   8   2  155.72   11.69
  -5   8  -2  168.75   12.06
   5   8  -2  132.25    9.76
   5   8   2  149.74    9.68
   5  -8   2  137.06    8.80
   5   8   2  157.82   10.81
  -5   8  -2  137.88    9.98
  -5   8  -3    8.18    3.24
  -5   8   3    5.50    2.97
   5   8   3    6.79    3.46
   5   8  -3    4.70    2.07
  -5   8  -3    8.57    4.07
  -5   8   3   11.81    4.33
   5   8  -3    6.35    2.80
   5   8   3    8.92    2.93
   5   8   3    5.17    2.86
   5  -8   3    5.03    2.11
  -5   8  -4   49.56    6.13
  -5   8   4   47.58    6.97
   5   8   4   51.83    6.94
  -5   8  -4   49.85    7.37
   5   8  -4   36.89    4.19
  -5   8   4   43.46    7.03
   5  -8   4   46.69    4.99
   5   8  -4   46.01    6.37
   5   8   4   42.67    5.39
   5   8   4   48.12    6.56
  -5   8   5 1508.29   34.94
   5   8   5 1518.71   33.20
   5   8  -5 1509.51   24.27
  -5   8   5 1487.18   34.97
  -5   8  -5 1492.03   35.01
   5   8  -5 1537.07   33.86
   5  -8   5 1493.22   26.23
   5   8   5 1506.09   28.71
   5   8   5 1485.46   31.61
  -5   8  -5 1502.68   31.08
  -5   8  -6   50.65    6.06
  -5   8   6   65.06    8.28
   5   8   6   68.34    8.22
  -5   8  -6   57.73    7.94
  -5   8   6   56.01    7.87
   5  -8   6   52.33    5.22
   5   8  -6   53.76    7.36
   5   8   6   50.80    6.48
  -5   8  -7    3.73    2.69
   5   8   7    9.15    4.21
  -5   8   7    8.43    4.81
  -5   8  -7   10.28    4.45
  -5   8   7   10.68    4.12
   5   8  -7    1.55    2.85
   5  -8   7    5.90    2.24
   5   8   7    6.37    3.32
   5   8   8   50.14    7.51
  -5   8   8   24.74    5.89
  -5   8   8   37.40    6.60
  -5   8  -8   36.52    6.75
   5   8  -8   31.76    6.05
   5   8   8   33.95    5.14
  -5   8  -8   31.04    5.01
  -5   8   9  787.78   26.82
   5   8   9  774.13   25.76
  -5   8   9  710.49   24.44
  -5   8  -9  759.84   25.65
   5   8  -9  795.90   26.31
   5   8   9  772.60   22.31
  -5   8  -9  763.24   21.71
  -5   8  10  120.87   11.05
   5   8  10  120.62   10.95
  -5   8  10  122.84   10.44
  -5   8 -10  120.81   10.53
   5   8 -10  123.12   11.05
  -5  -8 -10  130.23   10.45
   5   8  10  117.74    9.07
  -5   8 -10  110.86    8.32
   5   8  11   51.04    7.94
  -5   8  11   39.03    6.45
  -5  -8  11   55.89    7.85
  -5   8  11   50.73    6.79
  -5   8 -11   47.72    6.63
   5   8 -11   51.64    7.25
  -5  -8 -11   39.96    6.09
   5   8  11   51.81    6.02
  -5   8 -11   48.59    5.58
  -5   8  12   53.62    8.09
   5   8  12   64.15    8.67
  -5  -8  12   52.96    7.48
  -5   8 -12   52.32    7.35
  -5   8  12   55.76    7.20
   5   8 -12   56.74    7.95
  -5  -8 -12   59.43    7.25
   5   8  12   54.13    6.17
  -5   8 -12   48.41    5.54
  -5   8  13  319.54   18.28
   5   8  13  288.59   17.35
  -5  -8  13  319.47   17.53
  -5   8  13  288.17   15.82
  -5   8 -13  285.83   15.76
   5   8 -13  339.10   18.50
  -5  -8 -13  313.85   16.41
   5   8  13  330.69   14.49
  -5   8  14    7.01    4.49
   5   8  14   -2.27    3.67
  -5  -8  14    1.73    2.82
  -5  -8 -14   -0.63    1.78
  -5   8  14    2.88    2.92
  -5   8 -14    3.56    3.05
   5   8 -14   -0.77    2.74
  -5  -8 -14   -0.86    2.14
  -5   8  15    6.18    4.25
   5   8  15    7.19    3.63
  -5  -8  15    5.88    3.41
  -5   8  15    7.96    3.63
  -5   8 -15    7.82    2.90
   5   8 -15   12.52    4.80
  -5   8 -15    7.92    3.32
  -5  -8 -15    4.43    2.71
  -5   8  16    7.95    3.92
   5   8  16   17.36    5.95
  -5  -8  16    7.87    3.94
  -5   8  16    8.36    3.57
   5   8 -16    6.09    3.95
  -5   8 -16    4.15    2.60
  -5   8 -16    1.19    2.43
  -5  -8 -16    6.64    3.47
  -5   8  17  212.32   16.04
   5   8  17  229.70   16.74
  -5   8 -17  241.13   14.34
  -5  -8  17  220.60   15.11
  -5   8 -17  232.88   15.60
   5   8 -17  232.92   16.87
  -5   8 -17  215.76   13.23
  -5  -8 -17  212.42   14.16
  -5   8 -18    1.52    3.44
  -5   8  18    4.96    4.52
  -5  -8  18   -0.43    2.73
   5   8  18    1.57    3.55
   5   8 -18    3.55    4.74
  -5   8  19  168.10   14.88
   5   8  19  174.33   15.24
  -5  -8  19  182.60   13.78
  -5   8 -19  164.95   13.69
   5   8 -19  173.30   15.02
  -5   8  20    6.04    3.83
  -5  -8  20    8.45    3.98
   5   8  20   20.62    6.52
   5   8 -20   16.22    5.68
  -5   8 -20    2.15    3.48
  -5  -8  21   58.77    8.33
  -5   8 -21   59.88    8.51
  -5   8 -22   11.46    4.57
  -5   8 -23  157.64   13.70
  -5   9   0    2.54    3.14
  -5   9   0    7.21    4.61
   5   9   0   -0.12    2.39
   5   9   0    3.10    2.88
   5   9   0    1.03    2.54
   5  -9   0    1.57    2.26
   5   9   1  364.79   15.62
   5   9  -1  387.52   15.27
  -5   9   1  397.63   18.92
  -5   9  -1  409.94   19.24
   5   9  -1  375.37   16.86
   5   9   1  393.55   16.62
   5  -9   1  393.35   15.78
   5   9  -1  401.24   18.16
   5   9   1  378.84   17.44
  -5   9  -1  375.24   17.36
  -5   9   1  393.03   18.03
  -5   9  -2   12.96    4.33
  -5   9   2   18.90    4.90
   5   9   2    3.61    2.72
  -5   9  -2   10.88    4.49
  -5   9   2    9.24    4.28
   5   9  -2    9.21    3.44
   5   9   2   12.02    3.66
   5   9   2    8.81    3.35
   5  -9   2    9.66    3.18
   5   9  -2   15.75    3.44
  -5   9  -3    9.87    3.83
   5   9  -3    6.98    2.39
  -5   9   3    8.27    3.99
   5   9   3    9.79    3.50
  -5   9   3    7.15    3.74
  -5   9  -3    5.33    3.06
   5   9  -3    5.08    2.83
   5   9   3   15.76    3.89
   5  -9   3    4.91    2.22
   5   9   3    8.09    3.25
  -5   9  -4   59.51    7.00
  -5   9   4   53.51    7.37
   5   9  -4   54.49    5.31
   5   9   4   60.02    7.26
  -5   9   4   51.46    7.22
  -5   9  -4   59.92    7.82
   5   9   4   57.45    6.46
   5   9  -4   47.93    6.52
   5  -9   4   46.76    5.28
   5   9   4   48.67    6.38
  -5   9   5   80.19    8.92
   5   9   5   80.86    8.52
  -5   9   5   93.57    9.49
  -5   9  -5   86.45    9.32
   5   9  -5   82.43    8.54
   5  -9   5   85.34    7.03
   5   9   5   84.34    7.52
   5   9   5   86.72    8.41
  -5   9  -5   76.28    7.65
  -5   9   6  196.29   13.54
   5   9   6  191.65   13.04
  -5   9   6  194.65   13.60
  -5   9  -6  178.02   13.07
   5   9  -6  193.12   13.11
   5  -9   6  203.52   10.47
   5   9   6  197.10   12.45
  -5   9  -6  192.78   12.03
  -5   9   7    1.80    3.41
   5   9   7    4.11    3.80
  -5   9   7    1.46    3.18
  -5   9  -7    6.68    3.78
   5   9  -7    0.29    3.17
   5   9   7    0.14    2.41
  -5   9  -7    0.61    2.52
  -5   9   8   31.37    6.54
   5   9  -8   23.68    5.35
   5   9   8   27.80    5.55
  -5   9  -8   23.28    5.30
  -5   9   8   26.12    5.52
   5   9   8   23.33    4.76
  -5   9  -8   33.93    5.30
  -5   9   9   59.38    8.21
   5   9   9   55.27    7.59
  -5   9  -9   52.94    7.47
   5   9  -9   57.02    7.42
  -5   9   9   54.46    7.57
   5   9   9   53.62    6.61
  -5   9  -9   55.60    6.55
  -5   9  10   19.53    5.05
   5   9  10   12.80    4.23
  -5   9  10   24.55    5.52
  -5   9 -10   13.77    4.27
  -5  -9 -10   21.83    5.40
   5   9 -10   16.70    4.44
   5   9  10   22.12    4.37
  -5   9 -10   16.89    3.89
  -5   9  11   47.07    7.72
  -5   9  11   47.92    6.95
   5   9  11   45.84    7.12
  -5   9 -11   46.58    6.82
   5   9 -11   45.89    7.04
  -5  -9 -11   49.54    7.16
   5   9  11   41.28    5.71
  -5   9 -11   47.26    5.81
  -5   9  12  132.76   12.18
   5   9  12  110.41   11.04
  -5   9  12  112.46   10.31
  -5   9 -12  113.38   10.56
   5   9 -12  110.79   11.01
  -5  -9 -12  120.01   10.83
  -5   9 -12  112.40    8.86
   5   9  12  119.91    9.45
  -5   9  13   -1.67    2.94
  -5  -9  13   -5.06    3.95
   5   9  13    2.03    3.32
  -5   9  13    2.32    2.76
  -5   9 -13    3.59    2.50
   5   9 -13    0.02    3.27
  -5  -9 -13   -2.27    3.34
   5   9  13    1.87    2.30
  -5   9  14    2.83    3.60
  -5  -9  14   -0.62    2.79
   5   9  14   -0.14    3.27
  -5   9  14    8.18    3.19
  -5   9 -14    3.48    2.50
   5   9 -14    4.79    3.87
  -5  -9 -14    6.02    3.58
  -5   9  15   60.07    9.11
  -5  -9  15   62.07    8.53
   5   9  15   62.50    9.07
  -5   9  15   55.71    7.37
  -5   9 -15   51.48    7.37
   5   9 -15   67.11    9.45
  -5   9 -15   60.43    7.63
  -5  -9 -15   59.25    7.95
  -5   9  16   47.13    8.52
  -5  -9  16   42.58    7.22
   5   9  16   50.72    8.48
  -5   9  16   46.08    6.82
  -5   9 -16   51.21    7.34
   5   9 -16   46.23    7.62
  -5   9 -16   52.25    7.19
  -5  -9 -16   47.60    7.41
  -5   9  17   31.38    6.90
  -5  -9  17   28.26    6.09
   5   9  17   19.46    5.73
  -5   9 -17   22.56    5.06
   5   9 -17   22.67    6.04
  -5   9 -17   20.09    4.60
  -5  -9 -17   20.08    4.89
  -5   9  18    2.64    4.33
  -5  -9  18    1.33    2.89
  -5   9 -18    2.64    2.99
   5   9  18    1.76    3.94
   5   9 -18   -1.35    3.21
  -5  -9 -18   -5.53    3.84
  -5  -9  19    3.80    2.62
  -5   9 -19    9.94    4.42
  -5  -9  20   28.42    6.14
  -5   9 -20   31.89    6.59
  -5  -9  21   -3.72    2.98
  -5   9 -21   -5.02    3.94
  -5  10   0    1.32    2.98
   5  10   0    3.57    2.59
  -5  10   0    0.94    3.08
   5  10   0   -1.48    2.37
   5  10   0   -2.37    3.30
   5 -10   0   -0.33    2.28
   5  10   1   94.77    8.53
  -5  10   1   84.54    9.47
  -5  10  -1   91.88   10.01
   5  10  -1  100.13    8.21
   5  10  -1   89.10    8.62
   5  10   1   93.29    8.89
   5 -10   1   84.18    7.95
   5 -10  -1   95.32    8.72
   5  10  -1   85.64    8.97
   5  10   1   82.86    8.88
  -5  10  -1   94.85    9.34
  -5  10   1  101.06    9.75
   5  10   2  201.68   12.65
  -5  10   2  211.57   14.60
  -5  10  -2  203.68   14.34
   5  10  -2  200.50   11.08
   5  10  -2  206.84   13.30
   5  10   2  209.94   12.81
   5 -10   2  197.60   11.81
   5  10   2  203.90   13.48
  -5  10  -2  193.00   13.26
  -5  10   2  209.20   14.00
   5  10   3  194.58   12.80
  -5  10   3  209.32   14.84
  -5  10  -3  207.03   14.80
   5  10  -3  203.78   13.50
   5  10   3  196.40   12.48
   5 -10   3  197.83   11.57
   5  10   3  204.38   13.64
  -5  10  -3  219.08   13.90
  -5  10   3  191.12   13.58
  -5  10   4  418.83   20.25
   5  10   4  408.69   18.57
  -5  10   4  409.17   20.48
  -5  10  -4  427.68   21.00
   5  10  -4  417.75   19.38
   5 -10   4  426.14   16.79
   5  10   4  423.28   17.81
   5  10   4  443.04   19.63
  -5  10  -4  426.99   19.04
  -5  10   5  375.45   19.58
   5  10   5  388.76   18.59
  -5  10   5  390.80   20.12
  -5  10  -5  429.47   21.02
   5  10  -5  406.33   19.65
   5 -10   5  389.17   15.82
   5  10   5  408.07   19.04
  -5  10  -5  396.28   18.48
  -5  10   6  237.24   15.59
   5  10   6  214.37   14.29
  -5  10   6  238.72   16.03
  -5  10  -6  221.14   15.43
   5  10  -6  249.62   15.45
   5  10   6  231.33   14.26
  -5  10  -6  239.97   14.29
  -5  10   7   15.99    4.73
   5  10   7    6.87    3.35
  -5  10   7   15.61    4.47
  -5  10  -7   18.84    5.10
   5  10  -7   16.87    5.34
   5  10   7   14.50    4.25
  -5  10  -7   13.07    3.96
  -5  10   8   12.99    4.23
  -5  10   8   14.82    4.42
  -5  10  -8   12.81    4.23
   5  10   8   17.59    4.72
   5  10  -8   17.62    4.80
   5  10   8   16.91    4.41
  -5  10  -8   16.21    3.91
  -5  10   9   -2.51    3.29
   5  10   9    3.80    3.57
  -5  10  -9   -1.32    2.64
  -5  10   9   -2.89    3.10
   5  10  -9   -4.95    3.33
   5  10   9   -2.20    2.59
  -5  10  -9   -0.40    2.25
  -5  10  10   13.94    5.23
  -5  10  10    5.99    3.44
  -5  10 -10   12.93    4.24
   5  10  10    7.72    3.17
  -5 -10 -10    4.68    2.77
   5  10 -10    5.31    3.44
   5  10  10    8.46    3.61
  -5  10 -10    3.19    2.11
  -5  10  11   65.79    9.11
  -5  10  11   69.21    8.74
  -5  10 -11   72.52    8.95
   5  10  11   72.34    9.18
  -5 -10 -11   75.18    9.01
   5  10 -11   73.30    9.21
   5  10  11   79.10    8.52
  -5  10 -11   69.04    7.71
  -5  10  12   19.86    5.45
  -5  10  12   24.89    5.36
  -5  10 -12   19.89    5.29
   5  10  12   23.36    5.50
   5  10 -12   23.45    6.10
  -5 -10 -12   19.67    4.57
  -5  10 -12   20.70    4.36
   5  10  12   22.77    4.75
  -5  10  13  101.52   11.16
  -5  10  13  104.60   10.46
  -5  10 -13  114.62   10.91
   5  10 -13  106.70   11.13
   5  10  13  103.40   11.28
  -5 -10 -13   98.87   10.44
   5  10  13   98.83    9.11
  -5  10  14    3.87    4.47
  -5 -10  14    2.43    3.11
  -5  10  14   -2.84    3.04
  -5  10 -14   -1.11    3.15
   5  10  14   -5.13    4.72
   5  10 -14    0.57    3.13
  -5 -10 -14   -1.67    2.80
  -5  10  15    0.83    3.25
  -5 -10  15    2.91    3.91
  -5  10  15    1.44    2.73
  -5  10 -15   -0.16    2.43
   5  10 -15    1.48    3.21
   5  10  15   -6.33    4.38
  -5  10 -15    0.08    3.00
  -5 -10 -15    0.49    3.30
  -5  10  16  102.57   11.88
  -5 -10  16   98.64   10.86
  -5  10  16   88.68    9.73
  -5  10 -16   96.90   10.07
   5  10 -16  105.53   12.03
  -5  10 -16  100.81   10.09
  -5 -10 -16   88.83   10.11
   5  10  16   92.95   11.45
  -5 -10  17   14.41    4.99
  -5  10 -17   12.04    4.08
  -5 -10 -17   10.25    3.98
  -5  10 -18   -1.05    3.49
  -5 -10  18   -1.86    3.82
  -5 -10 -18    9.80    4.27
  -5 -10  19    3.96    3.04
  -5  10 -19    8.19    4.80
  -5 -10  20   63.30    9.20
  -5  11   0   -2.59    3.21
   5  11   0   -2.42    3.27
   5  11   0    0.68    2.13
   5  11   0    0.77    2.93
   5 -11   0   -2.68    2.70
  -5  11  -1    1.30    2.44
  -5  11   1   -0.40    2.73
   5  11   1    3.88    3.08
   5  11  -1    2.63    2.40
   5  11   1    1.82    3.14
   5  11  -1    1.49    2.90
   5  11   1    1.23    2.85
   5 -11   1    2.89    2.26
   5 -11  -1    2.92    2.39
   5  11   2  127.46   10.34
   5  11  -2  145.44   11.83
   5  11   2  148.00   11.67
   5 -11   2  134.18   10.30
   5 -11  -2  142.23   11.33
   5  11  -2  151.85   12.67
   5  11   2  144.00   12.31
  -5  11  -2  132.67   11.69
  -5  11   2  129.85   11.89
  -5  11  -3   24.02    5.35
  -5  11   3   20.70    5.37
   5  11   3   23.80    4.86
   5  11  -3   27.48    5.85
   5  11   3   26.34    5.39
   5 -11   3   18.22    4.03
   5  11   3   14.63    4.07
  -5  11  -4    3.13    2.94
  -5  11   4    1.45    3.18
   5  11   4   -0.15    2.94
   5  11  -4    6.53    3.83
   5  11   4    2.05    2.41
   5  11   4   -0.78    3.21
  -5  11  -5   19.90    5.33
  -5  11   5    7.64    3.64
   5  11   5   10.87    4.17
  -5  11   5   13.35    4.69
  -5  11  -5    5.21    3.90
   5  11  -5    8.73    3.53
   5  11   5    6.84    3.44
  -5  11   6    4.60    3.50
   5  11   6    5.79    3.31
  -5  11   6    1.33    2.84
  -5  11  -6    4.97    2.85
   5  11  -6   11.35    4.16
   5  11   6    9.88    4.36
  -5  11  -6    7.47    3.43
   5  11   7   72.49    8.79
  -5  11   7   68.61    8.83
  -5  11   7   80.28    9.78
  -5  11  -7   88.40   10.00
   5  11  -7   68.00    8.82
   5  11   7   70.54    8.47
  -5  11  -7   83.75    8.90
   5  11   8   33.36    6.50
  -5  11   8   24.88    5.60
  -5  11   8   21.11    5.09
  -5  11  -8   25.20    5.51
   5  11  -8   25.40    6.49
   5  11   8   33.74    6.05
  -5  11  -8   26.56    5.22
  -5  11   9   86.82   10.39
   5  11   9   72.81    9.35
  -5  11   9   76.22    9.39
  -5  11  -9   68.49    9.50
   5  11  -9   95.22   10.56
   5  11   9   85.07    9.19
  -5  11  -9   73.97    8.44
   5  11  10   78.13    9.79
  -5  11  10   65.73    9.53
  -5  11 -10   82.61    9.83
  -5  11  10   67.72    9.03
   5  11 -10   63.25    8.97
  -5 -11 -10   69.95    9.22
  -5  11 -10   81.47    8.85
   5  11  10   66.71    8.24
  -5  11  11   84.40   10.71
  -5  11  11   76.16    9.49
  -5  11 -11   80.91   10.03
   5  11 -11   85.02   10.60
  -5 -11 -11   79.14    9.81
   5  11  11   83.14    9.10
  -5  11 -11   89.06    9.23
   5  11  11   77.61    9.75
  -5  11  12   99.00   11.91
  -5  11  12   79.19    9.82
  -5  11 -12   81.53    9.81
  -5 -11 -12   84.59   10.22
   5  11 -12   82.18   10.32
   5  11  12   88.28    9.33
   5  11  12  100.24   11.34
   5  11  13   -8.10    5.33
  -5  11  13   -3.29    4.24
  -5  11  13    3.52    3.31
  -5  11 -13    0.38    2.70
   5  11 -13    1.30    3.99
  -5 -11 -13    3.21    3.84
   5  11  14    0.80    3.89
  -5  11  14   -3.15    3.31
  -5  11 -14    2.41    3.36
   5  11 -14    1.47    2.96
  -5 -11 -14   -2.98    2.90
  -5 -11  15    6.58    4.02
  -5  11 -15    5.69    3.45
  -5  11  15   13.46    4.64
  -5  11 -15    7.25    3.66
  -5 -11 -15   14.59    4.81
  -5 -11  16   52.15    8.34
  -5  11 -16   55.52    8.19
  -5  11 -16   59.80    8.41
  -5 -11 -16   54.94    8.48
  -5  11 -17    5.54    3.58
  -5 -11 -17    9.44    4.24
  -5  12   0   -1.11    2.79
   5  12   0   -1.10    2.89
   5  12   0   -3.36    3.83
   5 -12   0    1.71    2.59
  -5  12  -1   53.44    7.89
  -5  12   1   53.99    8.23
   5  12  -1   56.92    7.85
   5  12   1   55.01    7.61
   5  12  -1   51.73    8.24
   5  12   1   50.77    7.75
   5 -12   1   48.72    6.70
   5 -12  -1   48.96    7.03
  -5  12  -2   26.22    5.60
  -5  12   2   34.66    7.07
   5  12   2   34.82    5.97
   5  12  -2   33.53    6.20
   5  12   2   30.97    6.10
   5  12  -2   22.28    5.70
   5 -12   2   25.53    5.14
   5  12   2   33.07    6.88
   5 -12  -2   27.07    5.74
  -5  12  -3    0.93    2.76
   5  12   3    3.46    3.39
  -5  12   3    6.06    4.47
   5  12  -3    4.75    3.51
   5  12   3    2.32    2.45
   5  12   3    4.86    3.40
  -5  12  -4   14.57    4.77
  -5  12   4   15.57    5.35
   5  12  -4    8.75    3.72
   5  12   4   23.09    5.33
   5  12   4   18.33    4.98
   5  12   4   14.92    4.39
  -5  12   5   56.37    8.66
   5  12   5   60.83    8.18
   5  12  -5   61.63    8.18
   5  12   5   53.21    7.17
   5  12   5   64.01    8.77
  -5  12  -5   61.14    8.06
  -5  12   6   19.18    6.07
  -5  12   6   17.93    5.28
  -5  12  -6   17.80    5.06
   5  12   6   21.43    5.32
   5  12  -6    7.09    3.18
   5  12   6   22.32    5.36
  -5  12  -6   23.08    5.62
  -5  12   7   -1.17    3.01
  -5  12   7   -0.63    3.02
  -5  12  -7   -3.78    3.22
   5  12   7    1.40    3.84
   5  12  -7   -1.85    3.39
   5  12   7   -1.84    2.82
  -5  12  -7   -0.03    2.43
  -5  12   8   39.40    7.60
  -5  12   8   39.66    7.23
  -5  12  -8   38.18    6.93
   5  12   8   58.87    8.52
   5  12  -8   62.83    9.04
   5  12   8   58.45    8.13
  -5  12  -8   48.85    7.30
  -5  12   9   -2.79    3.27
   5  12   9    2.81    3.62
  -5  12  -9   -0.94    3.02
  -5  12   9    1.31    2.69
  -5 -12  -9    0.07    2.80
   5  12  -9   -0.99    3.06
   5  12   9    2.56    3.17
  -5  12  -9    0.43    2.75
  -5  12  10   38.07    7.72
   5  12  10   38.97    7.32
  -5  12  10   40.77    7.91
  -5  12 -10   36.65    7.36
   5  12 -10   33.76    7.08
  -5 -12 -10   38.57    7.23
   5  12  10   36.97    6.63
  -5  12 -10   48.21    7.19
  -5  12 -11    5.96    3.90
   5  12  11   -0.49    3.69
  -5  12  11    4.33    3.40
   5  12 -11    5.44    4.09
  -5 -12 -11    2.03    3.52
   5  12  11    4.56    3.55
  -5  12  12   92.08   10.74
   5  12  12  114.68   12.52
  -5  12 -12   88.95   10.52
  -5 -12 -12  107.78   11.87
   5  12  12  101.71   10.88
  -5  12 -13   65.22    9.19
  -5  12  13   52.73    8.35
  -5 -12 -13   52.58    8.76
  -5  12  14   20.63    5.77
  -5  12 -14   15.74    5.08
  -5  12  15    2.40    2.84
  -5  12 -15    1.44    2.66
  -5  12 -15    1.92    2.86
  -5  13   0    3.74    3.11
   5  13   0    0.18    2.80
   5  13   0    1.41    3.07
   5 -13   0    2.60    2.65
  -5  13  -1   34.29    6.86
  -5  13   1   32.31    6.85
   5  13  -1   34.08    6.85
   5  13   1   42.38    7.33
   5  13  -1   30.39    6.45
   5  13   1   36.49    7.23
   5 -13  -1   37.59    6.66
  -5  13  -2   11.03    3.93
  -5  13   2   19.77    5.67
   5  13  -2    9.81    3.73
   5  13   2   19.38    5.45
   5  13  -2    6.28    3.22
   5  13   2   13.99    5.00
   5 -13  -2    9.85    3.70
  -5  13   3   17.08    5.27
   5  13  -3   22.75    5.77
   5  13   3   22.41    5.31
   5  13   3   23.00    5.99
  -5  13  -3   20.43    5.72
  -5  13   4   13.64    5.43
   5  13  -4   13.81    4.58
   5  13   4   12.06    4.34
   5  13   4   10.31    4.20
  -5  13  -4   12.55    4.32
  -5  13   5   -4.32    4.75
   5  13   5    5.16    4.15
   5  13  -5   -2.02    3.80
   5  13   5    0.17    2.41
   5  13   5   -1.18    3.16
  -5  13  -5   -0.93    3.12
   5  13   6    4.26    3.02
   5  13  -6    0.38    3.34
   5  13   6   -5.25    4.09
  -5  13  -6    3.17    2.91
   5  13   7    2.65    3.59
   5  13  -7   -3.68    3.27
   5  13   7   -1.16    3.14
  -5  13  -7    0.42    2.97
   5  13   8   22.43    5.65
   5  13   8   31.78    6.56
  -5  13  -8   24.54    5.51
   5  13   9   98.18   11.39
   5  13   9   99.52   11.11
  -5  13  -9   89.87   10.27
   5  13  10   23.22    6.00
  -5  13 -10   13.92    4.98
   5  13  11    9.68    4.45
   5  14   0    2.61    3.64
   5  14  -1   18.16    5.91
   5  14   1   15.97    5.29
   5  14  -2   25.88    6.52
   5  14   2   26.71    6.16
   5  14   3    7.05    4.18
   6   0   0 5500.86   43.79
  -6   0   0 5605.61   56.05
   6   0  -1   39.18    7.53
   6   0   1    8.18    2.97
   6   0  -1    9.67    3.67
   6   0   1   59.68    8.20
  -6   0  -1    8.36    2.80
  -6   0  -1   54.01    7.70
  -6   0   1   59.01    7.87
   6   0  -2  208.81    9.30
   6   0  -2  224.75   11.25
   6   0   2  225.10   11.79
  -6   0  -2  208.42    7.56
   6   0   2  208.66    7.72
  -6   0  -2  214.40   11.36
  -6   0   2  225.85   11.62
  -6   0  -3   23.91    5.43
  -6   0   3   26.28    5.29
   6   0  -3    7.69    3.52
   6   0  -3    6.22    4.04
   6   0   3   21.69    5.53
   6   0  -4 1083.79   22.67
   6   0   4 1138.70   26.23
  -6   0  -4 1083.71   14.73
   6   0  -4 1046.24   23.46
  -6   0  -4 1056.52   24.79
  -6   0   4 1051.58   24.71
   6   0  -5    0.81    2.34
  -6   0  -5   12.79    4.04
  -6   0   5    9.45    3.83
  -6   0  -5    1.94    3.36
   6   0  -5    5.90    2.97
   6   0   5    5.98    3.50
  -6   0  -5    1.05    0.72
   6   0   6  332.80   14.86
  -6   0  -6  378.38   15.34
  -6   0  -6  325.55    6.24
   6   0  -6  355.00   14.07
  -6   0  -6  336.54    7.30
  -6   0  -6  350.26   14.44
  -6   0   6  346.73   14.31
  -6   0  -7   19.53    5.55
  -6   0   7   17.79    5.81
  -6   0  -7   41.42    6.99
   6   0   7   43.38    7.38
   6   0  -7   23.21    5.96
  -6   0  -8 2217.21   35.86
  -6   0   8 2127.75   35.26
   6   0   8 2174.45   34.91
  -6   0  -8 2154.91   37.92
   6   0  -8 2125.27   35.85
   6   0   8 2172.18   38.14
   6   0   9   15.76    5.43
  -6   0  -9    5.17    4.20
  -6   0   9    9.30    4.73
  -6   0  -9   11.44    4.96
   6   0  -9   25.68    6.54
  -6   0 -10 2406.29   37.99
  -6   0  10 2414.57   37.52
   6   0  10 2405.42   39.03
  -6   0 -10 2412.58   41.52
   6   0 -10 2392.57   40.61
   6   0  10 2424.31   40.77
  -6   0 -11   19.70    6.51
   6   0  11   20.51    5.78
  -6   0  11   18.43    4.52
   6   0 -11   27.24    6.59
   6   0  11   11.89    5.27
  -6   0 -11   12.22    4.17
   6   0  12   73.31    8.03
  -6   0 -12   67.72    6.63
  -6   0  12   66.51    6.78
  -6   0 -12   84.65    8.95
   6   0 -12   69.16    7.90
   6   0  12   70.88    7.76
   6   0  13   15.17    5.34
   6   0  13   16.74    5.71
  -6   0 -13   19.46    6.43
  -6   0 -13    8.73    3.57
  -6   0  13   11.79    3.75
   6   0 -13   16.64    5.84
   6   0  14 1176.10   29.94
  -6   0 -14 1156.22   26.39
  -6   0  14 1127.82   25.75
  -6   0 -14 1168.72   31.60
   6   0 -14 1177.47   31.40
   6   0  15   -0.85    3.44
  -6   0 -15    4.96    3.88
  -6   0 -15   -1.34    2.02
  -6   0  15    3.93    2.52
   6   0  16   25.95    4.88
  -6   0 -16   29.79    5.99
   6   0 -16   41.19    6.77
  -6   0 -16   28.34    4.37
  -6   0  16   27.08    4.34
   6   0  17   -2.46    3.79
  -6   0 -17   -0.85    3.67
   6   0 -17    4.41    2.87
  -6   0 -17   -0.60    1.64
  -6   0  17    2.09    1.86
   6   0  18   87.08    9.27
  -6   0 -18   82.69    6.97
   6   0 -18   85.69    9.71
   6   0  19   -2.72    4.17
   6   0 -19   -2.11    3.63
   6   0  20    9.32    3.52
   6   0 -20    6.68    3.88
   6   0  21    0.83    3.68
   6   0 -21    0.74    2.98
   6   0  22  117.82   11.84
   6   0 -22  136.49   13.13
   6   0  23   -0.53    3.50
   6   0 -23    2.87    4.20
   6   0  24   61.01    8.89
   6   0 -24   65.74    9.93
  -6  -1   0   60.45    6.42
  -6   1   0   49.23    5.73
   6  -1   0   46.30    4.31
   6   1   0   49.70    4.40
   6   1   0   56.78    6.07
  -6  -1  -1   92.09    7.67
  -6  -1   1   88.05    7.46
   6   1   1   82.94    5.21
   6  -1   1   73.63    5.13
   6  -1  -1   78.44    5.89
   6   1  -1   83.60    6.86
   6   1   1   85.54    7.31
  -6  -1  -1   79.68    4.93
   6   1  -1   82.62    5.62
  -6   1  -1   88.91    7.41
  -6   1   1   92.99    7.45
  -6   1  -2    2.95    2.60
  -6   1   2    1.72    2.29
   6  -1  -2    0.53    1.70
  -6  -1  -2    2.76    2.62
  -6  -1   2    2.76    2.24
  -6  -1  -2    6.03    3.07
   6   1   2   -0.97    1.54
   6   1  -2   -0.16    1.74
  -6   1  -2    1.36    0.96
   6   1  -2    0.68    2.42
   6   1   2    0.20    2.34
  -6  -1  -2   -0.23    0.93
  -6   1  -3    6.78    2.79
  -6   1   3    8.31    2.88
   6  -1  -3    5.18    1.93
  -6  -1  -3    6.72    2.78
  -6  -1  -3    6.57    2.82
  -6  -1   3    6.10    2.41
   6   1  -3    6.06    2.26
  -6   1  -3    7.20    1.64
   6   1  -3    5.80    2.20
   6   1   3    8.00    3.34
  -6  -1  -3    7.61    1.53
  -6  -1  -3    7.58    1.56
   6   1   3    7.89    1.68
  -6  -1  -4  321.17   13.74
  -6  -1   4  327.19   13.91
   6  -1  -4  313.69   12.48
  -6  -1  -4  312.31   13.23
   6   1   4  300.60    7.45
   6   1  -4  324.16   12.40
   6   1  -4  318.88   13.00
  -6   1  -4  312.23    8.81
   6   1   4  325.57   14.09
  -6  -1  -4  330.29    7.60
  -6  -1  -4  324.05    9.16
  -6   1  -4  310.72   13.47
  -6   1   4  321.99   13.69
  -6   1  -5    4.09    2.94
  -6   1   5    0.81    2.76
  -6   1  -5    4.42    1.34
   6  -1  -5   -2.21    2.66
  -6  -1   5    3.80    2.72
  -6  -1  -5    3.04    3.18
  -6  -1  -5    7.24    3.32
   6   1  -5    3.58    2.76
  -6   1  -5    5.47    1.35
   6   1  -5    3.64    2.58
   6   1   5    2.74    3.08
  -6  -1  -5    0.44    0.56
  -6   1  -5    1.05    0.46
  -6  -1  -5    2.22    1.09
  -6   1  -6  268.11    6.78
  -6  -1  -6  266.88   12.64
  -6  -1   6  283.72   12.90
  -6  -1  -6  280.21   13.09
   6  -1  -6  269.40   12.25
   6   1  -6  263.70   11.98
   6   1  -6  259.28   11.61
  -6   1  -6  268.48    6.94
   6   1   6  273.73   13.31
  -6   1  -6  265.36   12.41
  -6  -1  -6  267.77    6.97
  -6   1   6  250.17   12.18
  -6   1  -7   40.30    2.22
   6   1   7   56.86    6.50
  -6   1  -7   44.93    5.53
  -6   1   7   47.79    5.65
  -6  -1  -7   44.51    5.94
   6  -1  -7   42.54    5.34
  -6  -1  -7   51.18    5.89
  -6  -1   7   47.96    5.76
  -6   1  -7   43.38    2.55
   6   1  -7   42.05    5.34
   6   1  -7   46.02    4.93
   6   1   7   43.24    5.71
  -6  -1  -7   39.35    2.34
  -6   1  -8   15.41    3.34
  -6   1   8   18.92    3.98
  -6   1  -8   22.48    4.89
   6   1   8   23.48    4.70
  -6  -1  -8   16.87    4.16
  -6  -1   8   15.50    3.56
   6  -1  -8   13.66    3.36
  -6   1  -8   16.08    1.37
   6   1  -8   11.99    3.38
   6   1  -8   19.07    3.51
   6   1   8   16.25    3.96
  -6  -1  -8   17.23    1.85
  -6  -1  -8   17.98    3.85
  -6   1  -9   25.65    4.36
  -6   1   9   25.06    4.39
   6   1  -9   25.05    3.83
   6   1   9   28.60    4.80
   6  -1   9   31.00    5.63
  -6  -1  -9   16.58    3.59
  -6   1  -9   22.04    4.56
   6  -1  -9   23.60    4.35
  -6  -1  -9   19.82    3.88
  -6  -1   9   22.04    4.21
   6   1  -9   14.64    3.85
   6   1   9   23.62    4.56
  -6  -1  -9   18.47    1.81
  -6  -1  10   -3.14    2.77
  -6   1 -10    3.13    2.44
  -6   1  10    2.08    2.43
   6   1  10    5.60    3.10
   6  -1  10    4.31    3.27
  -6  -1 -10   -0.46    3.38
  -6   1 -10   -3.98    3.98
   6   1 -10    2.57    2.03
   6  -1 -10    0.42    2.74
   6   1 -10    1.28    2.67
  -6  -1 -10    1.21    2.19
   6   1  10    2.27    2.98
  -6   1 -11    5.45    3.93
   6   1  11    4.79    3.50
  -6   1 -11    4.39    2.73
  -6   1  11    3.45    2.68
   6  -1  11    1.20    3.10
  -6  -1 -11    1.80    3.57
   6  -1 -11    5.21    3.02
   6   1 -11    2.71    3.06
  -6  -1 -11    3.40    2.18
  -6  -1  11    0.22    2.38
   6   1  11    3.53    2.61
  -6  -1 -12   63.56    6.40
  -6  -1  12   61.52    6.39
   6   1  12   54.41    6.64
   6  -1  12   66.27    7.84
  -6  -1 -12   71.42    8.18
  -6   1 -12   59.03    7.43
   6   1 -12   60.28    7.28
   6  -1 -12   59.50    7.38
   6   1  12   67.36    7.44
  -6   1 -12   70.62    6.76
  -6   1  12   60.12    6.18
  -6   1  13  480.84   16.93
   6   1 -13  495.99   19.91
   6   1  13  493.50   18.60
   6  -1  13  490.80   19.39
  -6  -1 -13  460.54   16.72
  -6  -1  13  460.91   16.70
  -6  -1 -13  482.46   20.11
  -6   1 -13  482.26   20.10
   6   1  13  503.78   19.25
   6  -1 -13  524.65   20.66
  -6   1 -13  485.41   17.37
  -6   1 -14  411.60   15.85
  -6   1  14  392.74   15.41
   6   1  14  383.03   17.06
   6  -1  14  435.40   18.62
  -6  -1 -14  381.10   15.16
  -6  -1  14  385.07   15.19
   6   1  14  431.23   18.00
  -6  -1 -14  405.13   18.80
  -6   1 -14  390.21   18.60
   6  -1 -14  424.08   19.10
   6   1 -14  433.22   19.05
   6   1  15  115.95    9.71
  -6   1 -15  111.06    8.29
   6  -1  15  110.20   10.12
  -6   1  15  115.39    8.39
  -6  -1 -15  118.49    8.46
  -6  -1  15  109.37    8.11
  -6   1 -15  129.87   11.07
   6  -1 -15  131.39   11.19
   6   1 -15  125.74   10.98
   6   1  15  122.92   10.09
   6   1  16   -5.32    4.36
   6  -1  16    2.29    3.16
  -6   1 -16    0.29    2.89
  -6   1 -16   -3.11    2.06
  -6   1  16    0.26    1.85
   6  -1 -16   -0.81    2.70
   6   1 -16   -2.65    3.41
   6   1  16   -0.26    2.62
  -6  -1 -16   -0.81    1.93
  -6  -1  16    2.14    2.30
   6   1  17   31.56    5.22
   6  -1  17   45.73    7.11
  -6   1 -17   42.77    6.96
  -6  -1 -17   48.21    5.53
  -6  -1  17   45.73    5.31
   6  -1 -17   42.23    6.86
  -6   1 -17   43.06    5.25
  -6   1  17   44.53    5.32
   6   1 -17   38.00    6.49
   6   1  17   42.80    6.12
   6   1  18   16.23    5.06
   6  -1  18   24.75    6.20
  -6   1 -18   23.47    5.92
   6  -1 -18   23.80    6.25
   6   1 -18   30.43    6.63
  -6   1 -18   20.59    3.69
  -6  -1 -18   20.20    3.80
   6   1  19  203.73   14.14
   6  -1  19  199.33   14.53
  -6   1 -19  196.06   14.32
   6  -1 -19  228.05   15.67
   6   1 -19  235.43   15.92
   6   1  20   -2.03    3.45
   6  -1  20    4.15    4.22
   6  -1 -20    7.89    3.99
   6   1 -20    1.71    3.85
   6   1  21  150.70   12.99
   6  -1  21  150.00   13.04
   6  -1 -21  161.49   13.86
   6   1 -21  156.51   13.85
   6   1  22   -3.70    4.62
   6  -1  22   -6.77    5.22
   6  -1 -22   -2.46    2.83
   6   1 -22    4.96    4.71
   6   1  23   -4.92    4.73
   6  -1  23   -4.13    4.79
   6   1 -23   -4.25    4.17
   6  -1 -23   -0.05    3.63
   6   1  24    1.01    4.03
   6  -1  24   10.04    4.48
   6  -1 -24   11.68    4.85
   6   1 -24    8.00    4.69
   6   1  26   16.82    5.03
  -6  -2   0  316.02   14.01
  -6  -2   0  330.00   14.24
  -6  -2   0  337.18   12.24
   6   2   0  324.74   10.62
   6   2   0  332.08   14.03
  -6   2   0  350.72   14.55
  -6  -2   1  178.96    7.67
  -6  -2  -1  185.60   10.84
  -6  -2   1  180.63   10.63
  -6  -2  -1  190.93   10.68
  -6  -2   1  216.51   11.44
  -6  -2  -1  199.64    9.70
  -6  -2   1  205.11    9.32
   6  -2  -1  188.17    9.16
   6   2   1  183.80    7.73
   6   2  -1  193.36    8.53
   6   2  -1  207.45   10.85
   6   2   1  199.93   10.91
  -6   2  -1  205.91   11.14
  -6   2   1  210.25   11.26
  -6  -2  -1  194.01    7.67
  -6   2  -2   21.70    4.49
  -6   2   2   23.69    4.55
  -6  -2  -2   25.61    4.78
  -6  -2   2   28.11    5.47
  -6  -2   2   15.36    2.59
  -6  -2  -2   14.85    3.32
   6  -2  -2   15.84    3.18
   6   2   2   20.09    2.68
   6   2  -2   20.32    3.45
  -6  -2  -2   26.50    5.10
  -6  -2   2   23.07    4.94
   6   2  -2   18.04    4.05
   6   2   2   22.13    4.80
  -6  -2  -2   19.31    2.41
  -6   2  -2   19.41    2.16
  -6  -2   2   21.20    3.61
  -6   2  -3  578.96   13.79
  -6  -2  -3  603.78   18.55
  -6  -2  -3  632.63   19.67
  -6  -2   3  625.80   19.48
  -6  -2   3  659.91   20.16
  -6  -2  -3  616.84   17.79
  -6  -2   3  607.62   15.26
   6   2   3  593.86   11.71
   6   2  -3  618.56   16.57
   6   2  -3  624.41   18.55
   6   2   3  635.86   19.78
  -6   2  -3  602.51   19.31
  -6   2   3  595.94   19.13
   6  -2  -3  603.62   17.41
  -6   2  -3  601.45   10.07
  -6   2  -4 1122.46   17.88
  -6  -2  -4 1133.35   24.77
  -6  -2   4 1130.52   26.67
  -6  -2  -4 1142.34   26.46
  -6  -2   4 1124.56   26.35
  -6  -2  -4 1147.95   24.81
   6  -2  -4 1141.43   24.30
   6   2   4 1102.52   14.41
  -6   2  -4 1106.37   18.36
   6   2  -4 1121.48   23.36
   6   2  -4 1125.69   24.60
   6   2   4 1146.10   26.95
  -6   2  -4 1103.66   25.79
  -6   2   4 1119.49   25.94
  -6   2  -4 1040.17   11.02
  -6  -2  -4 1105.53   18.09
  -6   2  -5  113.49    5.35
  -6  -2   5  121.57    9.54
  -6  -2  -5  118.26    8.92
  -6  -2   5  118.56    8.82
  -6  -2  -5  109.09    8.48
   6  -2  -5  116.60    8.15
   6   2   5  101.13    3.79
  -6   2  -5  109.44    5.60
   6   2  -5  118.25    8.13
   6   2  -5  103.03    7.66
   6   2   5  129.39    9.54
  -6   2  -5  122.60    9.05
  -6   2   5  108.30    8.57
  -6  -2  -5  109.88    5.38
  -6   2  -6  474.05    9.96
  -6  -2   6  495.61   18.14
  -6  -2  -6  462.70   16.97
  -6  -2   6  469.46   16.96
  -6  -2  -6  459.57   16.73
   6  -2  -6  475.31   16.71
  -6   2  -6  469.99   11.01
   6   2  -6  473.31   15.98
   6   2  -6  470.58   15.62
   6   2   6  493.85   18.07
  -6   2  -6  474.08   17.02
  -6   2   6  444.78   16.52
  -6  -2  -6  479.63   10.48
   6   2   7  737.37   18.65
  -6  -2   7  686.31   21.62
  -6  -2  -7  719.67   20.95
  -6  -2   7  685.51   20.62
  -6  -2  -7  690.75   20.95
   6  -2  -7  728.58   21.20
  -6   2  -7  706.68   12.79
   6   2  -7  731.93   20.52
   6   2  -7  693.79   18.85
   6   2   7  761.86   22.35
  -6   2  -7  730.44   21.09
  -6   2   7  705.84   20.64
  -6  -2  -7  728.45   11.83
  -6   2  -7  701.53   10.85
  -6  -2  -8   70.03    3.26
   6   2   8   85.33    7.23
  -6  -2   8   81.14    7.96
  -6  -2  -8   83.74    7.46
  -6  -2   8   78.32    7.39
  -6  -2  -8   80.50    7.74
   6  -2  -8   72.93    7.54
  -6   2  -8   72.56    3.98
   6   2  -8   76.04    7.32
   6   2  -8   73.43    6.15
   6   2   8   70.86    7.43
  -6   2  -8   81.00    7.41
  -6   2   8   69.66    6.95
  -6   2  -8   63.68    2.75
   6   2  -9    3.79    2.36
  -6   2  -9    6.78    3.28
  -6   2   9    6.43    2.89
  -6  -2   9    8.19    3.56
   6   2   9   12.36    3.85
  -6  -2  -9    5.07    2.79
   6  -2  -9    4.81    3.10
   6   2  -9    4.42    2.22
   6   2   9    2.77    2.51
  -6  -2  -9    3.63    2.67
  -6  -2   9    5.94    3.08
  -6  -2  -9    5.32    1.45
   6   2  10  170.05   10.03
  -6  -2 -10  156.54   10.14
  -6  -2  10  172.14   10.52
  -6  -2 -10  172.15   11.44
  -6   2 -10  163.28   11.45
   6  -2 -10  178.65   11.80
   6   2 -10  171.01    9.18
   6   2  10  172.54   11.31
  -6  -2 -10  177.44    6.92
  -6   2 -10  182.15   10.72
  -6   2  10  173.46   10.32
   6   2 -10  171.12   11.25
   6   2  11  926.84   23.71
   6  -2  11  907.09   25.86
  -6  -2 -11  906.92   15.43
   6  -2 -11  944.67   26.54
  -6  -2 -11  885.72   26.01
  -6  -2 -11  894.42   23.38
  -6  -2  11  884.82   23.09
  -6   2 -11  900.00   26.66
   6   2 -11  933.31   26.31
   6   2 -11  890.74   20.41
   6   2  11  949.54   26.08
  -6   2 -11  906.61   12.03
  -6   2 -11  899.37   23.49
  -6   2  11  886.75   23.31
   6   2  12  103.39    8.49
   6  -2  12  119.92   10.23
  -6  -2 -12   93.40    7.76
  -6  -2  12  105.40    8.25
  -6   2 -12  102.59    9.37
   6  -2 -12  115.99   10.19
   6   2 -12  107.24    7.06
   6   2 -12  107.51    9.56
   6   2  12  113.62    9.55
  -6   2 -12  107.83    8.33
  -6   2  12  104.58    8.14
   6   2  13  596.77   20.24
   6  -2  13  608.64   22.09
   6   2 -13  587.84   21.93
  -6   2 -13  604.50   22.50
  -6  -2 -13  576.57   18.75
   6  -2 -13  626.99   22.58
   6   2 -13  597.69   16.00
   6   2  13  599.95   21.11
  -6   2 -13  572.47   18.96
  -6   2  13  596.48   19.14
  -6  -2  13  572.90   18.63
   6   2  14   32.21    5.03
  -6   2 -14   43.75    5.60
  -6   2  14   37.11    5.16
   6  -2  14   49.89    7.48
  -6   2 -14   42.70    6.79
   6   2 -14   31.82    6.05
   6   2  14   36.48    5.88
   6  -2 -14   40.10    6.91
  -6  -2 -14   31.48    4.56
  -6  -2  14   32.39    4.46
   6   2  15   14.87    3.88
  -6   2 -15   11.24    3.14
   6   2  15   10.99    4.06
  -6   2  15   10.44    2.95
   6  -2  15   21.07    5.72
  -6   2 -15   13.60    4.46
   6  -2 -15   17.33    4.58
   6   2 -15   16.76    4.69
   6  -2  16   79.00    9.30
   6   2  16   75.28    8.09
  -6   2 -16   72.71    8.62
   6  -2 -16   76.28    8.87
   6   2 -16   91.05    9.60
   6   2  16   77.74    8.24
  -6   2 -16   66.86    6.47
  -6   2  16   71.25    6.61
  -6   2 -17   83.90    7.30
  -6   2  17   91.13    7.61
   6   2  17   81.26    8.69
   6  -2  17   84.51    9.58
  -6   2 -17   85.71    9.55
   6   2  17   90.83    8.88
   6  -2 -17   93.59    9.98
   6   2 -17   90.22    9.71
   6   2  18  141.41   11.33
  -6   2 -18  143.43    9.45
   6  -2  18  155.78   12.81
  -6   2 -18  127.49   11.72
   6  -2 -18  131.36   12.07
   6   2 -18  125.08   11.53
   6   2  18  133.23   10.84
   6  -2  19   96.48   10.52
   6   2  19   85.84    9.16
  -6   2 -19   88.41   10.16
   6   2  19   94.15    9.18
   6   2 -19   89.72   10.11
   6  -2 -19   91.72   10.24
   6   2  20   -4.94    4.46
   6  -2  20   -1.09    3.93
  -6   2 -20    0.61    2.85
   6  -2 -20   -2.11    3.14
   6   2 -20    1.49    3.15
   6   2  20    5.60    3.20
   6   2  21   90.39    9.78
   6  -2  21   84.11   10.32
  -6   2 -21   98.46   11.05
   6  -2 -21   99.19   10.91
   6   2  21   99.64    9.58
   6   2 -21   93.24   10.61
   6   2  22   30.81    6.60
   6  -2  22   42.47    7.81
   6  -2 -22   52.44    8.36
   6   2 -22   51.42    8.33
   6   2  23   -2.50    4.21
   6  -2  23    7.44    4.51
   6   2 -23    2.87    3.92
   6  -2 -23    9.58    3.66
   6  -2  24    9.71    4.87
   6  -2 -24    3.00    4.10
   6   2 -24    9.18    5.01
   6   2  24    2.72    3.36
   6   2  25   83.50   10.43
   6   2  25   74.67    9.99
  -6  -3   0    0.46    1.06
  -6  -3   0    0.83    2.07
  -6  -3   0   -0.99    1.93
   6   3   0    4.05    1.90
  -6  -3   0   -0.86    2.66
  -6   3   0    1.98    1.19
  -6   3   0   -4.38    3.46
  -6  -3   1   46.16    3.39
  -6   3  -1   45.24    4.45
  -6  -3  -1   53.48    5.92
  -6  -3   1   45.95    5.55
  -6  -3   1   49.07    4.57
   6   3   1   51.76    4.23
   6   3  -1   52.20    4.70
  -6   3  -1   41.29    3.42
  -6  -3  -1   43.57    5.47
  -6  -3   1   44.64    5.65
  -6  -3  -1   45.71    4.70
  -6   3   1   41.54    5.42
  -6   3  -1   42.74    5.44
  -6  -3  -1   46.94    3.77
  -6  -3  -2   12.85    2.17
  -6   3  -2   11.28    2.31
  -6  -3   2   13.88    1.94
  -6  -3  -2    9.03    2.85
  -6  -3   2   15.53    3.76
  -6  -3  -2   10.40    2.96
  -6  -3   2   13.27    2.54
   6   3   2   12.21    2.12
   6   3  -2   14.77    2.95
  -6  -3  -2   15.34    3.66
  -6  -3   2   11.85    3.37
  -6   3  -2   12.22    1.81
  -6   3   2    9.65    3.01
  -6   3  -2   13.04    3.11
  -6   3  -3    1.43    1.36
  -6  -3  -3    3.07    3.21
  -6  -3   3    8.09    4.23
  -6  -3   3    3.44    1.64
  -6  -3  -3    1.37    2.87
  -6  -3   3    2.82    2.13
   6   3   3   -0.74    1.08
   6   3  -3    5.07    2.76
  -6  -3  -3    5.24    3.31
  -6  -3   3    3.09    2.62
  -6   3   3    4.00    3.06
  -6   3  -3    3.13    2.97
  -6   3  -4  678.77   15.01
  -6  -3   4  679.54   13.03
  -6  -3  -4  677.36   19.56
  -6  -3   4  742.60   21.86
   6  -3  -4  673.67   19.56
  -6  -3  -4  687.81   19.23
  -6  -3  -4  677.21   20.59
  -6  -3   4  689.86   20.72
  -6  -3   4  689.01   15.08
   6   3   4  679.37   12.29
   6   3  -4  705.80   18.71
  -6   3   4  685.12   20.83
  -6   3  -4  696.73   21.01
  -6   3  -5   81.27    5.07
  -6  -3  -5   93.88    7.60
  -6  -3   5   97.70    8.71
  -6  -3  -5   83.62    7.17
  -6  -3  -5   88.79    7.91
  -6  -3   5   85.83    5.28
  -6  -3   5   85.52    7.70
   6  -3  -5   82.43    7.35
   6   3   5   86.32    3.98
   6   3  -5   93.63    7.48
  -6   3   5   84.68    7.67
  -6   3  -5   85.12    7.83
  -6  -3  -5   85.59    5.21
  -6  -3  -6    8.68    1.75
  -6   3  -6   10.55    2.12
  -6  -3  -6   12.76    3.56
  -6  -3   6   12.80    4.95
   6   3  -6   15.96    4.01
   6   3   6   17.31    3.86
  -6  -3  -6   17.04    4.26
   6  -3  -6    7.23    3.10
  -6  -3   6   11.42    2.19
   6   3   6   10.85    1.30
   6   3  -6   13.75    3.54
  -6  -3  -6   16.25    4.49
  -6  -3   6   13.27    3.85
  -6   3   6   15.48    4.08
  -6   3  -6   13.39    3.97
   6   3   7  347.32   12.60
  -6  -3  -7  342.15   13.46
  -6  -3   7  367.61   15.90
  -6  -3   7  336.29    9.23
  -6  -3  -7  331.18   14.46
  -6  -3   7  321.70   14.18
   6  -3  -7  326.34   14.72
  -6   3  -7  337.32   10.33
  -6   3   7  332.50   14.56
   6   3  -7  341.90   14.29
   6   3  -7  319.56   13.03
   6   3   7  323.55   15.04
  -6   3  -7  327.14   14.43
  -6  -3  -7  328.68    9.27
  -6   3  -7  325.35    8.80
   6   3   8  154.73    8.75
  -6  -3  -8  157.12    9.20
  -6  -3   8  179.15   11.30
  -6   3  -8  148.88    9.89
  -6  -3   8  169.00    6.21
   6  -3  -8  169.83   10.92
  -6  -3   8  163.81   10.24
  -6  -3  -8  161.17   10.22
   6   3  -8  161.42   10.18
   6   3  -8  154.18    9.02
   6   3   8  155.12   10.51
  -6   3   8  151.38    9.89
  -6   3  -8  161.93    5.65
  -6   3  -9   -0.23    2.21
  -6   3   9    1.86    2.16
  -6  -3  -9    2.02    2.23
   6   3   9    1.77    2.75
  -6  -3   9    3.36    2.94
  -6  -3   9    0.59    1.04
   6  -3  -9   -0.90    3.18
   6   3  -9   -1.17    2.97
   6   3  -9   -0.84    1.93
   6   3   9    1.35    2.68
  -6  -3  -9   -0.15    2.27
  -6  -3   9    0.37    2.12
  -6   3  -9    0.81    0.72
   6   3  10  163.42    9.64
  -6  -3  10  153.28   10.73
  -6  -3  10  160.55    5.33
   6  -3 -10  151.85   10.80
  -6  -3 -10  162.95   10.37
  -6  -3  10  160.78   10.06
   6   3 -10  171.72   11.15
   6   3 -10  157.63    8.95
   6   3  10  144.40   10.33
  -6   3 -10  167.80   10.42
  -6   3  10  166.41   10.30
  -6  -3 -10  159.68    7.74
  -6   3 -11    3.25    2.24
  -6   3  11    5.29    2.78
   6   3  11    1.89    2.86
  -6  -3  11   10.80    4.25
   6  -3 -11    4.23    3.59
   6   3 -11    3.76    2.98
   6   3 -11    6.08    1.96
   6   3  11    3.54    2.78
  -6  -3 -11    8.55    2.23
   6   3  12  278.68   13.19
   6  -3  12  269.79   14.97
  -6  -3  12  263.01   14.33
  -6   3 -12  263.56   14.67
   6  -3 -12  253.45   14.58
   6   3 -12  248.21   14.04
   6   3 -12  236.01   10.59
   6   3  12  249.75   13.89
  -6   3 -12  246.94   12.59
  -6   3  12  257.69   12.95
  -6   3 -12  258.04    8.33
  -6  -3 -12  288.59   10.43
  -6   3 -13   28.02    4.64
  -6   3  13   29.68    4.66
   6   3  13   20.47    4.31
  -6  -3  13   31.67    5.36
   6  -3  13   35.64    6.54
  -6   3 -13   27.15    5.31
   6  -3 -13   26.08    5.85
   6   3 -13   25.83    4.87
   6   3 -13   27.37    3.75
   6   3  13   29.98    5.07
  -6  -3 -13   27.32    3.32
  -6   3 -14   30.28    4.84
  -6   3  14   36.90    5.18
  -6  -3  14   31.31    5.56
   6   3  14   24.84    4.24
   6  -3  14   48.11    7.56
  -6   3 -14   33.62    6.00
   6  -3 -14   31.80    5.76
   6   3 -14   29.92    5.33
   6   3 -14   29.95    3.77
   6   3  14   22.80    4.64
  -6   3 -15   29.25    4.65
  -6   3  15   26.20    4.41
   6   3  15   22.79    4.19
   6  -3  15   31.17    6.58
  -6   3 -15   26.67    6.04
   6  -3 -15   24.78    5.79
   6   3 -15   30.66    6.02
   6   3  15   31.09    5.42
   6   3  16  297.28   15.50
   6  -3  16  299.54   16.97
  -6   3 -16  291.06   16.67
   6   3 -16  300.52   17.02
   6   3  16  297.23   15.68
   6  -3 -16  299.81   16.88
  -6   3 -16  300.28   13.85
  -6   3  16  286.04   13.36
   6   3  17    7.42    3.75
  -6   3 -17   12.47    3.46
  -6   3  17    8.74    3.02
   6  -3  17   14.96    5.85
  -6   3 -17    3.08    3.37
   6  -3 -17    8.59    4.82
   6   3 -17    4.44    3.68
   6   3  17   10.51    3.60
   6   3  18  204.76   13.60
   6  -3  18  235.93   15.83
  -6   3 -18  201.06   14.40
   6  -3 -18  216.01   15.51
   6   3 -18  203.62   14.82
   6   3  18  215.82   13.94
  -6   3 -18  206.91   11.50
   6   3  19  171.63   13.30
   6  -3  19  211.69   15.28
  -6   3 -19  200.92   14.80
   6  -3 -19  211.84   15.58
   6   3 -19  181.81   14.39
   6   3  19  194.44   13.17
   6   3  20   14.62    4.89
   6  -3  20   28.31    6.81
  -6   3 -20   10.47    4.62
   6  -3 -20   28.37    6.69
   6   3 -20   30.03    6.77
   6   3  20   27.69    5.48
   6   3  21    1.64    3.17
   6  -3  21   15.75    6.12
  -6   3 -21    6.92    3.76
   6  -3 -21   10.93    5.20
   6   3 -21    8.35    4.25
   6   3  21    7.38    3.60
   6   3  22   78.77    9.46
   6  -3  22   91.88   11.08
  -6   3 -22   86.75   10.46
   6  -3 -22   92.82   11.04
   6   3 -22   92.79   11.10
   6   3  22   77.71    8.52
   6   3  22   64.77    8.96
   6   3  23   12.11    5.12
   6  -3  23   20.98    6.39
   6  -3 -23   17.58    5.71
   6   3  23    8.80    4.58
   6   3 -23   16.64    5.32
   6   3  24   12.23    4.77
   6   3  24    7.04    3.80
   6   3  25   -3.39    3.10
  -6   4   0  134.20    8.29
  -6  -4   0  135.50    9.66
   6   4   0  144.98    7.68
  -6   4   0  134.19    9.65
  -6  -4   0  133.77    5.07
  -6   4  -1  146.08    8.18
  -6   4   1  136.67    8.39
   6   4   1  147.33    7.40
  -6  -4  -1  142.94    9.65
  -6  -4   1  135.29    9.57
  -6   4   1  124.68    9.27
  -6   4  -1  132.91    9.69
   6   4  -1  134.23    7.78
  -6  -4   1  132.10    4.82
  -6  -4   2    4.42    1.00
  -6   4  -2    4.99    1.94
  -6   4   2    4.27    2.07
  -6  -4  -2    5.19    2.68
  -6  -4   2   10.76    3.97
   6   4  -2    5.77    2.21
   6   4   2    6.56    2.03
  -6   4   2    5.68    2.57
  -6   4  -2    4.31    2.72
  -6  -4   3   77.95    3.56
  -6   4  -3   76.19    5.73
  -6   4   3   66.65    6.16
  -6  -4  -3   71.99    6.69
  -6  -4   3   78.90    7.54
  -6   4   3   73.33    7.33
  -6   4  -3   71.42    7.13
   6   4   3   77.95    4.95
   6   4  -3   81.10    6.50
  -6   4  -4   21.58    3.21
  -6  -4   4   16.47    1.73
  -6  -4  -4   17.85    3.72
  -6  -4   4   16.40    4.00
   6   4   4   19.04    2.50
   6   4  -4   16.65    3.49
  -6   4   4   22.84    4.39
  -6   4  -4   19.77    4.04
  -6   4  -5    8.66    2.13
  -6  -4  -5   13.17    3.20
  -6  -4   5    2.71    2.75
  -6  -4   5   11.53    1.67
   6   4   5   10.66    1.85
   6   4  -5    9.85    3.14
  -6   4   5   12.89    3.60
  -6   4  -5    4.35    2.67
  -6   4  -6    2.16    1.36
  -6  -4  -6    0.36    2.21
  -6  -4   6    2.80    2.83
   6   4   6    5.78    2.69
   6   4   6    3.30    1.09
   6   4  -6    5.70    3.17
  -6   4   6    4.38    2.66
  -6   4  -6    4.92    3.02
   6   4   7  361.57   12.47
  -6  -4  -7  367.08   14.68
  -6  -4   7  384.15   16.69
  -6   4   7  369.47   15.67
  -6   4  -7  387.54   16.19
   6   4  -7  378.83   15.55
   6   4   7  357.82    7.33
  -6   4  -7  375.81   10.80
   6   4   8  733.75   18.22
  -6  -4  -8  716.27   19.99
  -6  -4   8  747.94   23.55
   6   4  -8  750.81   22.54
   6  -4  -8  760.20   23.39
  -6   4   8  711.95   21.93
  -6   4  -8  735.64   22.28
  -6   4  -8  744.26   14.41
   6   4   9  137.51    8.42
  -6  -4  -9  140.26    8.92
  -6  -4   9  147.09   10.85
   6  -4  -9  130.72   10.31
  -6   4   9  150.68   10.30
  -6   4  -9  143.97   10.10
   6   4  -9  141.90   10.47
  -6   4  -9  145.32    6.01
   6   4  10  269.49   12.21
  -6  -4 -10  285.07   12.58
  -6  -4  10  282.50   14.83
  -6   4  10  277.17   13.87
   6  -4 -10  277.75   14.95
  -6   4 -10  267.10   13.61
   6   4 -10  284.44   14.50
  -6  -4 -10  286.05   11.41
  -6   4 -10  277.91    7.82
   6   4  11   11.71    3.00
  -6  -4 -11   15.66    3.29
  -6  -4  11   15.16    4.33
   6  -4 -11   10.61    4.23
   6   4 -11   20.85    4.79
  -6  -4 -11   12.24    2.79
  -6   4  11   13.19    3.35
  -6   4 -11   15.72    3.74
   6   4  12   12.03    2.89
  -6  -4 -12   18.12    3.13
  -6  -4  12   17.43    3.90
   6  -4 -12   20.04    4.86
   6   4 -12   25.73    5.11
   6   4 -12   20.16    3.50
   6   4  12   18.90    3.61
  -6  -4 -12   18.51    3.06
  -6   4  12   16.14    3.58
  -6   4 -12   14.60    3.45
  -6   4  13   30.24    4.93
  -6   4 -13   33.86    5.10
  -6  -4 -13   35.07    4.26
   6   4  13   28.94    4.35
  -6  -4  13   31.60    5.46
   6  -4 -13   37.09    6.04
  -6   4 -13   37.18    6.55
   6   4 -13   32.59    4.10
   6   4 -13   33.06    5.61
   6   4  13   30.35    4.94
  -6  -4 -13   33.84    4.07
  -6   4 -14   37.29    5.36
  -6   4  14   42.69    5.60
   6   4  14   30.60    5.25
  -6  -4  14   32.01    5.57
   6  -4  14   54.38    8.06
   6  -4 -14   42.70    6.83
  -6   4 -14   42.57    7.04
   6   4 -14   38.48    4.54
   6   4 -14   46.12    6.84
   6   4  14   29.49    5.41
  -6  -4 -14   43.66    4.81
   6   4  15  224.90   12.99
   6  -4  15  258.05   15.94
  -6  -4  15  259.82   14.74
  -6   4 -15  220.55   14.63
   6  -4 -15  241.22   15.55
   6   4 -15  251.46   15.37
   6   4  15  227.92   14.12
  -6   4 -15  249.60   13.19
  -6   4  15  239.54   12.78
   6   4  16   58.83    7.03
  -6  -4  16   58.37    7.60
   6  -4  16   86.01    9.92
  -6   4 -16   60.69    8.32
   6  -4 -16   51.48    7.86
   6   4 -16   66.20    8.61
   6   4  16   57.11    7.16
  -6   4 -16   65.96    7.00
  -6   4  16   62.05    6.72
   6   4  17   71.52    8.14
   6  -4 -17   70.80    8.96
  -6  -4  17   69.71    8.38
   6  -4  17   94.56   10.36
  -6   4 -17   67.21    8.62
   6   4 -17   71.94    8.99
   6   4  17   65.58    7.75
  -6   4 -17   74.11    7.30
  -6   4  17   69.72    6.97
   6   4  18  182.09   12.90
   6  -4  18  187.27   14.53
  -6  -4  18  153.50   11.77
  -6   4 -18  167.07   13.27
   6  -4 -18  182.17   14.35
   6   4 -18  149.64   12.82
   6   4  18  168.32   12.30
   6   4  19   41.31    7.03
   6  -4  19   44.54    8.16
  -6   4 -19   49.65    7.86
   6  -4 -19   35.70    6.90
   6   4 -19   42.33    7.65
   6   4  19   46.08    6.85
   6   4  19   35.60    6.97
   6   4  20    4.21    3.76
   6  -4  20    3.80    4.46
  -6   4 -20    1.01    3.64
   6  -4 -20   -3.16    3.90
   6   4 -20    4.32    3.23
   6   4  20    3.30    2.99
   6   4  20   -6.26    4.11
   6   4  21   44.65    7.19
   6  -4  21   60.97    9.49
  -6   4 -21   48.17    7.87
   6  -4 -21   50.32    8.64
   6   4 -21   50.87    8.50
   6   4  21   52.70    7.32
   6   4  21   45.85    7.95
   6   4  22   64.59    8.95
   6  -4  22   67.80    9.60
   6   4  22   72.27    8.53
  -6   4 -22   65.62    9.25
   6  -4 -22   79.67   10.36
   6   4 -22   77.88   10.39
   6   4  22   59.78    8.77
   6   4  23   46.89    7.83
  -6   4 -23   57.21    8.91
   6  -4 -23   44.87    8.74
   6   4 -23   48.37    8.74
   6   4  23   36.47    7.61
   6   4  24    7.75    4.36
  -6   5   0    3.52    3.04
  -6  -5   0   10.29    4.36
   6   5   0    5.78    2.81
  -6   5   0    3.32    3.74
  -6   5  -1  251.49   11.68
  -6   5   1  270.78   12.45
  -6  -5   1  260.65   13.64
  -6  -5  -1  242.24   13.02
  -6   5   1  259.53   13.71
  -6   5  -1  254.80   13.59
   6   5  -1  258.48   11.35
   6   5   1  262.75   10.60
  -6   5  -2   48.15    5.09
  -6   5   2   49.38    5.77
  -6  -5  -2   41.14    5.66
  -6  -5   2   39.14    5.60
   6   5   2   44.67    4.36
   6   5  -2   53.33    5.61
  -6   5   2   48.34    6.41
  -6   5  -2   42.22    6.06
  -6   5  -3   -3.30    2.50
  -6   5   3   -3.77    2.87
  -6  -5  -3    0.74    2.36
  -6  -5   3    6.40    3.64
   6   5  -3   -0.43    1.89
   6   5   3    3.23    1.76
  -6   5   3    2.79    2.71
  -6   5  -3   -0.22    2.85
  -6   5  -4    3.62    3.69
  -6   5   4    1.88    2.60
  -6  -5  -4    5.63    3.35
  -6  -5   4    3.06    3.45
   6   5  -4    2.32    2.76
   6   5   4    2.33    1.94
  -6   5   4    2.47    2.84
  -6   5   5  267.50   13.58
  -6  -5  -5  275.44   13.32
  -6  -5   5  263.03   14.13
  -6   5   5  290.03   14.45
  -6   5  -5  284.79   14.37
   6   5  -5  278.09   13.18
   6   5   5  273.87    9.10
  -6   5  -5  278.56   11.04
   6   5   6  142.80    7.24
  -6   5   6  129.60    9.90
  -6  -5  -6  128.27    9.14
  -6  -5   6  141.08   10.81
  -6   5   6  127.86    9.81
  -6   5  -6  134.48   10.04
   6   5  -6  115.59    8.85
   6   5   6  130.69    5.91
  -6   5  -6  121.40    7.14
   6   5   7  179.22    8.52
  -6   5   7  176.86   11.39
  -6  -5  -7  183.44   10.82
  -6  -5   7  188.18   12.14
  -6   5   7  166.90   11.14
  -6   5  -7  176.41   11.39
   6   5  -7  167.90   10.81
   6   5   7  175.10    6.42
  -6   5  -7  173.17    8.33
  -6   5  -8   18.72    2.87
  -6   5   8   15.33    3.99
   6   5   8   15.50    2.90
  -6  -5  -8   12.66    3.45
  -6  -5   8   15.06    3.70
   6   5  -8   16.45    3.83
  -6   5   8   17.21    4.12
  -6   5  -8   19.61    4.28
   6   5   9  176.55    9.17
  -6  -5  -9  181.92   10.39
  -6  -5   9  179.72   12.05
  -6   5   9  173.43   11.35
  -6   5  -9  171.73   11.22
   6   5  -9  164.40   11.49
  -6   5  -9  181.72    7.86
   6   5  10   14.10    2.89
  -6  -5 -10   18.58    3.87
  -6  -5  10   18.06    4.99
   6   5 -10   13.77    4.22
  -6  -5 -10   15.45    3.33
  -6   5  10   14.49    3.98
  -6   5 -10   13.62    3.71
  -6   5 -10   15.74    2.52
   6   5  11   11.99    3.23
  -6  -5 -11   12.52    3.40
  -6  -5  11   18.78    4.84
   6   5 -11   12.13    3.64
  -6  -5 -11   13.34    3.14
  -6   5  11    9.80    2.94
  -6   5 -11   16.25    3.98
   6   5  12   29.90    4.54
  -6  -5 -12   26.25    4.02
  -6  -5  12   38.28    6.28
   6   5 -12   34.49    5.74
  -6  -5 -12   31.11    4.33
  -6   5  12   33.19    5.14
  -6   5 -12   33.49    5.26
   6   5  13  202.11   11.50
  -6  -5 -13  193.00   10.40
  -6  -5  13  219.86   13.83
   6  -5 -13  190.59   13.50
  -6   5  13  205.97   12.31
  -6   5 -13  194.93   12.01
   6   5 -13  218.25   14.00
  -6  -5 -13  198.01   10.70
  -6   5 -13  201.30    9.83
   6   5  14   54.27    6.51
  -6  -5 -14   53.28    5.35
  -6  -5  14   52.98    7.13
   6  -5 -14   46.25    7.19
  -6   5 -14   54.37    7.74
   6   5 -14   52.15    7.38
  -6  -5 -14   46.47    5.45
  -6   5  14   55.22    6.41
  -6   5 -14   48.16    6.18
   6   5  15   14.13    3.85
  -6  -5  15   22.84    4.90
  -6   5 -15   30.46    5.96
   6  -5 -15   22.00    5.45
   6   5 -15   19.83    4.98
  -6  -5 -15   23.98    3.91
  -6   5  15   22.90    4.38
  -6   5 -15   22.13    4.44
  -6   5  16   16.77    3.89
  -6   5 -16   13.89    3.65
   6   5  16   18.78    4.69
  -6  -5  16   23.67    5.38
  -6   5 -16   13.24    5.05
   6   5 -16    8.93    4.02
   6   5  16   27.12    5.60
   6  -5 -16    4.75    3.70
   6   5  16   20.27    5.74
  -6   5 -17    2.96    2.32
  -6   5  17   -0.35    1.99
   6   5  17    9.64    3.84
  -6  -5  17    3.60    3.12
   6  -5 -17    3.31    3.41
  -6   5 -17    0.84    3.15
   6   5 -17    2.84    3.52
   6   5  17   -4.00    3.22
   6   5  17   -3.45    4.08
   6  -5  18  192.35   15.11
  -6  -5  18  169.26   12.76
  -6   5 -18  177.85   13.92
   6  -5 -18  169.55   14.03
   6   5 -18  177.69   14.36
   6   5  18  163.25   12.52
   6   5  18  187.50   14.57
   6   5  18  181.86   12.77
   6   5  19   43.55    6.69
  -6   5 -19   46.62    7.68
  -6  -5  19   45.68    7.05
   6  -5  19   52.63    8.71
   6  -5 -19   59.24    9.04
   6   5 -19   49.23    7.89
   6   5  19   45.48    6.99
   6   5  19   45.07    7.49
   6   5  20   -2.47    3.00
  -6  -5  20   -3.12    3.08
   6  -5  20    9.68    5.47
  -6   5 -20   -1.35    3.66
   6  -5 -20   -1.79    3.66
   6   5 -20   -0.90    2.89
   6   5  20   -4.14    3.91
   6   5  20   -1.82    3.49
   6   5  21   32.98    6.05
   6  -5  21   46.68    8.78
  -6   5 -21   38.50    7.30
   6  -5 -21   40.38    7.73
   6   5 -21   45.32    8.06
   6   5  21   43.46    7.27
   6   5  21   36.51    7.10
   6   5  22   -4.11    3.13
   6  -5  22    4.90    4.92
  -6   5 -22    0.69    3.18
   6  -5 -22   -4.41    4.23
   6   5 -22   -3.10    4.00
   6   5  22    0.41    2.35
   6   5  22   -8.06    5.19
   6   5  23   14.32    5.33
  -6   5 -23   19.32    5.64
  -6   5 -24   81.08   10.33
   6   5  24  111.62   11.92
  -6   6   0    3.22    3.16
  -6  -6   0    8.36    4.58
  -6   6   0   15.07    5.12
   6   6   0    9.88    3.29
  -6   6  -1  190.10   10.62
  -6   6   1  204.28   11.43
  -6  -6   1  201.97   12.45
  -6  -6  -1  192.12   11.87
  -6   6   1  197.63   12.71
  -6   6  -1  195.51   12.80
   6   6  -1  188.63   10.24
   6   6   1  190.96    9.71
  -6   6  -2   17.46    3.18
  -6   6   2   22.04    4.45
  -6  -6   2   17.69    4.41
  -6  -6  -2   13.25    3.99
  -6   6   2   18.62    4.36
  -6   6  -2   15.55    3.97
   6   6  -2   18.47    3.77
   6   6   2   17.46    3.28
  -6   6  -3   17.83    3.74
  -6   6   3   12.64    3.75
  -6  -6   3   22.05    5.82
  -6  -6  -3   31.32    5.82
  -6   6   3   20.54    5.06
  -6   6  -3   19.31    5.02
   6   6  -3   25.50    4.46
   6   6   3   15.91    3.42
  -6   6   4  836.23   24.39
  -6  -6   4  887.86   26.15
  -6  -6  -4  886.00   24.73
  -6   6   4  862.99   25.84
  -6   6  -4  903.78   26.41
   6   6   4  889.60   18.95
   6   6  -4  862.31   23.21
  -6   6  -4  864.64   21.33
  -6   6   5   69.00    7.46
  -6  -6   5   82.30    8.89
  -6  -6  -5   84.57    8.05
  -6   6   5   82.59    8.52
  -6   6  -5   75.75    8.31
   6   6  -5   83.44    7.67
   6   6   5   85.19    5.84
  -6   6  -5   78.57    6.47
  -6   6  -6   39.17    4.50
   6   6   6   38.45    3.83
  -6   6   6   41.62    6.23
  -6  -6   6   38.98    5.99
  -6  -6  -6   28.74    4.85
   6   6   6   37.80    3.83
   6   6  -6   38.73    5.76
  -6   6   6   30.91    5.43
  -6   6  -6   33.49    5.60
   6   6   7  265.84    9.82
  -6   6   7  261.35   14.41
  -6  -6   7  268.72   14.90
  -6  -6  -7  249.82   12.97
  -6   6   7  248.16   14.15
  -6   6  -7  268.29   14.64
   6   6  -7  249.94   13.68
   6   6   7  261.58    9.18
   6   6  -7  270.40    9.43
  -6   6  -7  270.90   11.31
  -6   6  -8   18.03    3.13
  -6   6   8   19.86    4.76
   6   6   8   16.90    2.80
  -6  -6   8   13.54    4.26
  -6  -6  -8   23.46    4.46
   6   6  -8   22.58    4.91
  -6   6   8   19.29    4.64
  -6   6  -8   21.36    4.77
  -6   6   9   10.89    4.11
   6   6   9   10.43    2.52
  -6  -6  -9    9.76    3.28
  -6  -6   9    9.57    3.62
   6   6  -9   10.95    3.87
  -6   6   9    8.21    3.51
  -6   6  -9   10.18    3.54
  -6   6  -9   11.94    2.52
   6   6  10   72.17    6.16
  -6   6  10   64.34    8.11
  -6  -6 -10   59.16    6.48
  -6  -6  10   78.36    8.72
   6   6 -10   72.29    8.16
  -6   6  10   60.93    7.08
  -6   6 -10   62.17    7.20
   6   6  10   60.55    5.34
  -6   6 -10   67.19    5.39
   6   6  11  312.22   13.01
  -6   6  11  319.43   17.19
  -6  -6 -11  301.00   13.84
  -6  -6  11  309.99   16.56
  -6   6  11  293.63   15.33
  -6   6 -11  310.41   15.80
   6   6 -11  322.37   16.85
  -6  -6 -11  297.39   13.92
   6   6  11  322.67   17.00
   6   6  12  123.17    8.60
  -6   6  12  133.34   11.41
  -6  -6 -12  128.83    9.05
  -6  -6  12  132.08   11.10
  -6   6  12  132.30   10.29
  -6   6 -12  126.28   10.10
   6   6 -12  139.36   11.40
  -6  -6 -12  131.11    9.39
   6   6  12  146.74   11.95
  -6   6  13   30.59    6.37
   6   6  13   33.48    5.13
  -6  -6 -13   36.55    4.91
  -6  -6  13   28.54    5.54
   6   6 -13   35.50    6.43
   6   6  13   34.22    6.35
  -6  -6 -13   33.53    4.87
  -6   6  13   36.09    5.96
  -6   6 -13   29.89    5.58
  -6   6  14  433.43   21.32
  -6  -6 -14  404.69   15.63
  -6  -6  14  431.73   20.36
  -6   6  14  418.04   18.16
  -6   6 -14  431.02   18.62
   6   6 -14  424.37   20.55
  -6  -6 -14  428.21   16.96
   6   6  14  419.10   20.75
   6   6  14  436.70   17.29
  -6   6  15  141.92   12.65
  -6  -6  15  130.45   11.29
  -6   6 -15  140.70   12.31
  -6   6  15  131.39   10.37
  -6   6 -15  132.51   10.61
   6   6 -15  136.58   12.34
  -6  -6 -15  131.93    9.73
   6   6  15  136.33   12.65
   6   6  15  141.40   10.42
   6   6  16   47.21    6.69
  -6   6  16   51.83    8.24
  -6  -6  16   56.56    7.72
  -6   6 -16   48.09    7.50
   6   6 -16   53.28    8.15
   6   6  16   57.99    8.70
  -6   6  16   46.57    6.35
  -6   6 -16   46.75    6.22
   6   6  17   33.40    5.74
  -6   6  17   22.89    6.02
  -6  -6  17   21.11    4.78
  -6   6 -17   24.59    5.76
   6   6 -17   25.10    5.86
   6   6  17   20.13    5.49
  -6   6  17   23.87    4.65
  -6   6 -17   27.61    5.06
   6   6  18  100.17   11.25
  -6   6  18   82.84   10.62
  -6  -6  18   97.05   10.09
  -6   6 -18  115.49   11.57
   6   6  18   96.05    9.87
   6   6 -18   95.01   10.67
   6   6  18  105.25    9.75
   6   6  19   28.82    6.04
  -6   6  19   28.05    6.32
  -6  -6  19   29.94    6.11
  -6   6 -19   26.30    6.85
   6   6 -19   23.50    5.65
   6   6  19   26.46    5.61
   6   6  19   19.82    6.05
   6   6  20   11.64    4.44
  -6   6  20    5.78    3.57
  -6  -6  20    3.45    2.87
  -6   6 -20    6.74    3.88
   6   6 -20   10.30    4.58
   6   6  20    7.87    3.84
   6   6  20    6.17    4.30
   6   6  21   26.88    6.93
   6   6  21   21.32    5.58
  -6   6  21   20.37    5.81
  -6  -6  21   22.63    5.49
   6  -6  21   26.20    6.38
  -6   6 -21   22.20    5.51
   6   6 -21   27.68    6.82
   6   6  21   27.64    5.64
   6   6  22   78.00    9.70
  -6  -6  22   75.09    9.20
  -6   6 -22  105.48   11.70
   6   6  22   85.00    9.76
   6   6  23   43.13    7.70
  -6   6 -23   38.56    7.54
   6   6  24   81.45   10.33
  -6   7   0  216.03   12.28
  -6  -7   0  216.23   13.30
  -6   7   0  231.08   13.98
   6   7   0  227.09   11.58
   6   7   0  218.70   11.60
  -6   7  -1  141.52    9.77
  -6   7   1  143.45   10.24
  -6  -7   1  144.48   10.97
  -6  -7  -1  168.15   11.82
  -6   7   1  163.75   11.95
  -6   7  -1  166.31   11.98
   6   7  -1  153.09    9.65
   6   7   1  152.33    9.56
   6   7   1  139.81    9.58
   6   7  -1  137.01    8.83
  -6   7  -2  268.40   13.23
  -6   7   2  295.54   14.68
  -6  -7   2  282.88   15.44
  -6  -7  -2  298.18   15.42
  -6   7   2  295.54   15.92
  -6   7  -2  280.89   15.57
   6   7  -2  280.66   13.39
   6   7   2  292.94   12.61
   6   7   2  283.81   13.74
   6   7  -2  284.81   12.30
  -6   7   3  118.33    9.71
  -6  -7   3  113.09   10.05
  -6  -7  -3  118.57    9.89
  -6   7   3  119.44   10.28
  -6   7  -3  118.27   10.29
   6   7  -3  120.70    9.15
   6   7   3  121.69    8.12
   6   7   3  102.66    8.61
   6   7  -3  114.72    7.64
  -6   7  -3  109.98    8.57
  -6   7  -4   -2.08    2.36
  -6   7   4   -2.07    2.74
  -6  -7   4   -1.83    3.21
  -6  -7  -4    3.34    3.16
  -6   7   4    0.92    2.29
  -6   7  -4   -0.69    2.57
   6   7   4   -1.69    3.22
   6   7  -4    0.10    2.22
   6   7   4    1.96    2.01
   6   7  -4   -0.65    1.63
  -6   7  -5   35.65    4.73
  -6   7   5   26.93    5.17
  -6  -7   5   32.30    5.69
  -6  -7  -5   21.89    4.13
  -6   7   5   31.82    5.77
  -6   7  -5   27.90    5.46
   6   7   5   24.01    4.09
   6   7  -5   29.22    5.07
   6   7   5   26.53    3.93
   6   7  -5   34.55    3.98
   6   7  -6    4.43    1.96
  -6   7  -6    1.81    1.83
  -6   7   6    0.07    2.69
  -6  -7   6    2.25    3.16
  -6  -7  -6    1.06    2.40
  -6   7   6    1.72    2.44
  -6   7  -6    1.00    2.45
   6   7  -6    5.29    2.59
   6   7   6   -2.51    3.64
   6   7   6    1.49    1.40
  -6   7  -7    0.17    1.67
  -6   7   7   -3.32    3.34
  -6  -7   7   -2.99    2.90
  -6  -7  -7   -2.77    2.92
  -6   7   7    2.40    2.84
  -6   7  -7    4.60    3.09
   6   7  -7    2.55    2.71
   6   7   7   -4.64    4.19
   6   7   7   -2.42    2.15
  -6   7   8   -2.66    3.82
  -6  -7   8    1.52    2.34
  -6  -7  -8   -0.44    2.20
  -6   7   8   -3.03    3.03
  -6   7  -8   -1.37    3.15
   6   7  -8   -0.68    2.74
   6   7   8   -4.20    4.15
   6   7   8    0.75    1.76
  -6   7  -8   -1.38    1.78
  -6   7   9    6.74    3.11
  -6  -7   9   11.24    3.81
  -6  -7  -9   10.22    3.40
   6   7  -9   10.36    4.08
  -6   7   9    2.79    2.46
  -6   7  -9    9.03    3.58
   6   7   9    3.96    2.80
   6   7   9   11.77    2.98
  -6   7  -9    8.35    2.25
  -6   7  10   72.50    8.54
  -6  -7 -10   90.13    8.17
  -6  -7  10   69.76    8.18
  -6   7  10   73.77    8.18
   6   7 -10   80.82    9.06
  -6   7 -10   66.39    7.66
   6   7  10   74.54    8.44
   6   7  10   80.14    6.66
  -6   7 -10   81.07    6.52
  -6   7  11    0.14    3.53
  -6  -7  11   -1.01    2.95
  -6  -7 -11    0.68    2.04
   6   7 -11    2.85    3.22
  -6   7  11   -1.32    2.94
  -6   7 -11    0.99    2.76
  -6  -7 -11    1.92    2.65
   6   7  11   -3.42    3.45
  -6   7  12   21.49    5.34
  -6  -7  12   21.49    5.61
  -6  -7 -12   25.17    4.70
   6   7 -12   18.51    4.92
  -6   7  12   23.21    5.04
  -6   7 -12   23.06    5.30
  -6  -7 -12   18.46    4.09
   6   7  12   16.13    4.92
  -6   7  13    8.90    4.22
  -6  -7 -13   16.56    3.90
  -6  -7  13   17.36    5.05
   6   7 -13   11.72    4.47
  -6   7  13   15.48    4.29
  -6   7 -13   15.85    4.29
  -6  -7 -13   12.60    3.62
   6   7  13    7.42    4.08
  -6   7  14   56.03    8.32
  -6  -7  14   57.77    7.68
  -6   7 -14   68.31    7.99
   6   7 -14   67.05    8.85
  -6  -7 -14   63.17    7.12
  -6   7  14   55.60    7.06
   6   7  14   51.28    7.79
  -6   7  15   21.80    6.19
  -6  -7  15   20.76    4.98
   6   7 -15   22.03    5.80
  -6   7  15   19.29    4.79
  -6   7 -15   20.50    4.64
  -6  -7 -15   21.88    4.59
   6   7  15   19.01    5.05
  -6   7  16   11.15    4.44
  -6  -7  16    9.61    3.61
  -6   7 -16   19.56    5.17
   6   7 -16    9.67    4.32
  -6   7  16   10.40    3.39
  -6   7 -16   12.97    3.83
  -6  -7 -16    8.16    2.55
   6   7  16    4.18    3.43
   6   7  17   12.10    4.83
  -6   7 -17   20.43    5.93
  -6   7  17   14.06    4.85
  -6  -7  17   22.96    5.44
   6   7 -17   17.32    5.39
  -6   7 -17   13.56    3.79
   6   7  18   37.60    7.95
  -6   7  18   26.47    5.97
  -6  -7  18   38.16    7.09
  -6   7 -18   25.56    5.99
   6   7 -18   31.26    6.79
   6   7  19    0.71    3.36
  -6   7  19    1.84    3.07
  -6   7 -19   -1.11    3.59
  -6  -7  19    1.45    2.90
   6   7 -19   -0.07    3.14
  -6   7  20    9.40    4.65
  -6  -7  20    7.70    3.56
  -6   7 -20   11.74    4.78
   6   7 -20    5.08    3.76
   6   7  20    7.39    3.86
  -6  -7  21    5.34    3.25
  -6   7 -21    3.36    4.11
   6   7  21    3.89    2.88
  -6  -7  22   21.45    5.37
  -6   7 -22   22.41    5.96
   6   8   0   10.54    3.23
  -6   8   0    6.72    2.54
  -6   8   0   12.25    4.20
   6   8   0    9.12    3.10
   6   8   1   16.73    3.82
   6   8  -1   14.51    3.53
  -6   8  -1   16.00    3.98
  -6   8   1   16.97    3.80
  -6   8   1   10.83    3.33
  -6   8  -1   12.53    4.10
   6   8  -1   12.94    3.61
   6   8   1   14.14    3.61
  -6   8  -2   33.25    5.39
   6   8  -2   36.44    4.78
  -6   8   2   39.30    6.08
  -6  -8   2   39.55    6.60
  -6   8   2   41.86    6.94
  -6   8  -2   34.04    5.96
   6   8  -2   36.11    5.42
   6   8   2   32.39    4.89
   6   8   2   36.02    5.40
   6   8   3  242.65   13.69
  -6   8   3  256.57   14.69
   6   8  -3  264.88   11.88
  -6  -8   3  269.74   15.59
  -6   8   3  257.26   15.60
  -6   8  -3  271.10   15.93
   6   8  -3  266.69   14.07
   6   8   3  261.08   12.31
  -6   8  -3  260.21   13.71
   6   8   4   80.65    8.32
   6   8  -4   75.12    6.43
  -6   8   4   70.74    8.10
  -6  -8   4   74.20    9.06
  -6   8  -4   83.54    9.36
  -6   8   4   70.49    8.73
   6   8  -4   77.84    8.07
   6   8   4   77.86    6.85
  -6   8  -4   80.73    7.95
   6   8   5  240.73   13.95
  -6   8   5  266.05   15.33
  -6  -8   5  262.29   15.72
  -6  -8  -5  243.52   14.27
  -6   8   5  231.35   14.81
  -6   8  -5  254.85   15.44
   6   8  -5  244.36   14.20
   6   8   5  257.32   11.76
   6   8   5  248.44   13.14
  -6   8  -5  253.70   13.17
  -6   8  -6   -0.26    2.16
  -6   8   6    1.65    3.16
  -6  -8   6    7.74    4.35
  -6  -8  -6    5.72    3.57
  -6   8   6    5.14    3.77
  -6   8  -6    2.96    3.83
   6   8  -6    6.09    3.90
   6   8   6    1.56    2.13
   6   8   6    1.44    2.21
   6   8   6    1.78    3.02
   6   8   7  510.68   21.02
  -6   8   7  503.18   21.75
  -6  -8   7  525.77   22.31
  -6  -8  -7  508.99   20.31
  -6   8   7  520.92   22.05
  -6   8  -7  492.70   21.50
   6   8  -7  495.74   20.68
   6   8   7  517.43   18.85
  -6   8  -7  525.77   18.39
  -6   8   8   13.00    4.98
  -6  -8   8   14.07    5.25
  -6  -8  -8    5.97    3.56
  -6   8   8    7.57    4.13
  -6   8  -8    8.68    4.34
   6   8  -8    9.59    4.13
   6   8   8    3.04    2.69
   6   8   8   13.76    4.62
  -6   8  -8    5.38    2.98
  -6   8   9   28.74    5.80
  -6  -8   9   30.20    5.80
  -6  -8  -9   29.67    5.27
  -6   8   9   30.90    5.62
  -6   8  -9   37.21    6.30
   6   8  -9   32.92    5.88
   6   8   9   23.96    3.95
  -6   8  -9   33.68    4.81
   6   8   9   28.88    5.92
   6   8  10   25.90    5.64
  -6   8  10   28.09    6.19
  -6  -8  10   28.29    5.93
  -6  -8 -10   23.74    4.94
  -6   8  10   24.71    5.31
  -6   8 -10   24.54    5.38
   6   8 -10   25.74    5.31
   6   8  10   20.99    4.16
   6   8  11  229.75   15.49
  -6   8  11  222.56   15.40
  -6  -8  11  232.60   15.53
  -6  -8 -11  228.58   13.30
  -6   8  11  224.10   14.60
  -6   8 -11  226.59   14.78
   6   8 -11  242.88   15.59
  -6  -8 -11  235.65   14.20
   6   8  12    1.26    3.23
  -6   8  12   12.02    4.86
  -6  -8  12    8.63    3.55
  -6  -8 -12    7.50    3.12
   6   8 -12    8.38    4.38
  -6   8  12    5.11    2.95
  -6   8 -12    4.49    3.54
  -6  -8 -12   11.79    3.99
   6   8  13    4.89    3.32
  -6   8  13    4.96    3.56
  -6  -8  13    3.02    3.02
  -6  -8 -13    3.13    2.43
   6   8 -13    1.56    2.58
  -6   8  13    5.01    3.10
  -6   8 -13    3.63    3.31
  -6  -8 -13    4.66    3.03
   6   8  14   22.55    6.36
  -6   8  14   28.27    7.10
  -6  -8  14   30.65    6.85
   6   8 -14   26.20    6.80
  -6   8  14   24.34    5.57
  -6   8 -14   22.55    5.05
  -6  -8 -14   21.14    5.21
   6   8  15  443.11   22.91
  -6   8  15  443.18   23.33
  -6  -8  15  479.35   22.66
  -6   8  15  432.74   20.16
  -6   8 -15  488.52   21.71
   6   8 -15  469.97   23.24
  -6  -8 -15  458.59   20.12
   6   8  16    8.20    4.59
  -6   8  16    7.89    5.10
  -6  -8  16    4.06    3.94
   6   8 -16   10.55    5.36
  -6   8  16    8.73    3.78
  -6   8 -16    8.44    4.11
  -6  -8 -16    3.90    2.76
   6   8  17  195.10   15.88
  -6   8  17  203.17   16.37
  -6  -8  17  185.55   14.76
  -6   8 -17  194.82   13.65
  -6   8 -17  183.15   15.21
   6   8 -17  173.56   14.97
  -6   8  18    7.86    5.53
   6   8  18    4.76    4.38
  -6  -8  18    7.36    4.75
  -6   8 -18    4.29    4.19
   6   8 -18    4.12    5.02
  -6  -8  19  120.53   12.00
  -6   8 -19  112.93   11.93
  -6  -8  20   24.42    6.13
  -6   8 -20   26.64    6.58
  -6  -8  21  171.02   14.27
  -6   8 -21  163.42   14.47
   6   9   0  115.13    8.95
  -6   9   0  102.36   10.04
   6   9   0  112.52    9.15
  -6   9   0  114.09    9.97
  -6   9  -1    3.85    2.86
  -6   9   1    3.30    3.15
   6   9   1    6.69    2.79
   6   9  -1   -0.05    1.95
  -6   9   1   -1.09    3.23
  -6   9  -1    2.27    2.86
   6   9  -1    6.34    3.16
   6   9   1    3.30    2.13
  -6   9  -2   -1.15    2.87
  -6   9   2    2.47    3.11
   6   9   2   -4.08    3.42
   6   9  -2   -1.43    2.48
  -6   9   2   -0.89    3.17
  -6   9  -2   -1.15    3.09
   6   9  -2   -1.80    2.70
   6   9   2    0.10    1.97
  -6   9  -3    3.81    2.76
  -6   9   3    3.31    2.75
   6   9   3    0.54    2.60
  -6   9   3    0.87    2.72
  -6   9  -3    1.71    2.66
   6   9  -3    3.44    2.54
   6   9   3    4.04    2.64
  -6   9  -4    1.68    2.34
  -6   9   4    2.36    3.00
   6   9   4    4.73    3.14
  -6   9   4    7.24    4.14
  -6   9  -4    8.20    4.52
   6   9  -4    3.61    3.48
   6   9   4    1.23    2.16
   6   9   4    0.91    2.61
  -6   9   5  222.31   14.66
   6   9   5  225.52   14.10
  -6   9   5  212.07   14.81
  -6   9  -5  207.23   14.78
   6   9  -5  215.52   13.84
   6   9   5  230.89   11.93
   6   9   5  207.88   13.01
  -6   9  -5  210.71   12.69
  -6   9   6   63.73    8.25
   6   9   6   67.14    8.19
  -6  -9   6   67.34    8.69
  -6   9   6   67.83    8.73
  -6   9  -6   63.09    8.42
   6   9  -6   60.30    8.07
   6   9   6   61.48    7.34
  -6   9  -6   58.82    6.96
  -6   9  -7    2.15    2.81
  -6   9   7   -4.10    4.06
   6   9   7    0.21    2.56
  -6  -9   7    3.63    4.57
  -6   9   7   -1.70    2.99
  -6   9  -7    1.99    2.62
   6   9  -7    7.54    3.81
   6   9   7    0.71    2.22
  -6   9   8   33.97    6.44
   6   9   8   36.07    6.65
  -6  -9   8   42.09    7.42
  -6   9   8   38.10    6.84
  -6   9  -8   32.70    6.44
   6   9  -8   39.89    6.61
   6   9   8   43.35    6.09
  -6   9  -8   36.03    5.48
  -6   9   9   18.23    5.26
   6   9   9   13.16    4.22
  -6  -9   9   12.29    4.12
  -6   9   9    8.91    4.09
  -6   9  -9   18.85    4.92
   6   9  -9   19.43    4.61
   6   9   9   10.71    3.46
  -6   9  -9   13.32    3.55
  -6   9  10   17.10    5.22
   6   9  10   16.99    4.43
  -6  -9  10   17.26    5.15
  -6  -9 -10   12.31    3.80
  -6   9  10   11.31    4.16
  -6   9 -10   13.88    4.35
   6   9 -10   17.77    5.03
   6   9  10   11.47    3.42
  -6   9  11   14.01    4.82
   6   9  11   12.26    4.78
  -6  -9  11   11.78    4.25
  -6  -9 -11   16.20    4.17
  -6   9  11   13.42    4.12
  -6   9 -11   13.33    4.43
   6   9 -11   10.68    3.67
  -6  -9 -11   15.29    4.55
  -6   9  12   19.26    5.46
   6   9  12   17.92    5.36
  -6  -9  12   16.90    4.82
  -6  -9 -12   15.37    3.63
  -6   9  12   14.99    4.22
  -6   9 -12   17.37    4.44
   6   9 -12   19.05    5.12
  -6  -9 -12   21.91    5.23
  -6   9  13   12.33    5.17
   6   9  13   13.72    4.77
  -6  -9  13   12.81    4.35
  -6  -9 -13   12.50    3.49
  -6   9  13   12.86    4.16
  -6   9 -13   10.31    3.70
   6   9 -13   10.77    4.60
  -6  -9 -13   21.06    4.88
  -6   9  14   29.29    6.47
   6   9  14   34.79    7.14
  -6  -9  14   27.23    6.13
   6   9 -14   32.92    6.89
  -6   9  14   27.25    5.64
  -6   9 -14   26.50    5.50
  -6  -9 -14   30.38    5.78
  -6   9  15   -2.71    3.67
   6   9  15    6.16    4.83
  -6  -9  15    2.31    3.61
   6   9 -15    4.78    3.99
  -6   9  15    0.32    2.40
  -6   9 -15    4.74    3.34
  -6  -9 -15   -2.61    3.61
  -6   9  16   11.12    4.85
  -6  -9  16    5.29    4.26
   6   9  16    1.96    4.39
   6   9 -16    6.40    4.13
  -6   9  16   10.79    3.95
  -6   9 -16    0.67    2.20
  -6  -9 -16    3.65    2.61
  -6  -9  17   10.57    4.82
  -6  -9  18    3.20    3.39
  -6   9 -18    2.68    3.03
  -6  -9  19    5.66    3.91
  -6   9 -19    4.55    3.45
  -6  -9  20   26.15    5.89
  -6   9 -20   19.68    5.81
   6  10   0  115.07    9.34
  -6  10   0  127.02   11.77
   6  10   0  128.29   10.50
  -6  10   0  135.86   11.46
  -6  10  -1   13.71    3.86
  -6  10   1   14.04    4.26
  -6  10   1   13.00    4.24
  -6  10  -1   17.30    5.15
   6  10   1   20.48    4.37
   6  10  -1   11.93    4.11
   6  10   1   15.22    4.00
  -6  10  -2    6.09    2.88
  -6  10   2    8.92    3.84
  -6  10   2    3.01    3.09
  -6  10  -2   -0.84    3.47
   6  10   2    0.50    2.95
   6  10  -2    8.79    3.66
   6  10   2    1.89    2.32
  -6  10  -3   60.26    7.64
  -6  10   3   69.90    8.81
   6  10   3   52.85    6.95
  -6  10   3   73.48    9.32
  -6  10  -3   74.24    9.14
   6  10   3   64.90    7.23
   6  10  -3   64.00    7.99
   6  10   3   63.64    7.86
  -6  10   4  175.84   13.64
   6  10   4  151.32   11.59
  -6  10   4  170.82   13.88
  -6  10  -4  167.39   13.71
   6  10  -4  168.50   12.74
   6  10   4  179.56   11.55
   6  10   4  167.09   12.29
  -6  10  -4  165.11   12.18
  -6  10  -5    6.67    3.77
  -6  10   5    9.88    4.22
   6  10   5    3.96    2.81
  -6  10   5   12.72    4.81
  -6  10  -5    9.57    4.47
   6  10  -5    3.19    3.21
   6  10   5   11.13    3.79
  -6  10  -6   54.66    6.82
  -6  10   6   68.44    9.29
   6  10   6   55.44    7.49
  -6  10   6   63.84    8.68
  -6  10  -6   67.88    8.79
   6  10  -6   62.37    8.09
   6  10   6   57.89    7.51
  -6  10   7    9.57    3.62
   6  10   7   17.25    4.59
  -6  10   7   13.46    4.51
  -6  10  -7   15.34    4.89
   6  10  -7   15.17    4.90
   6  10   7   12.91    4.11
  -6  10  -7   12.55    3.98
  -6  10   8  177.24   14.44
   6  10   8  172.78   13.62
  -6  10   8  174.56   14.06
  -6  10  -8  154.33   13.39
   6  10  -8  182.19   13.92
   6  10   8  173.98   12.41
  -6  10  -8  168.17   11.77
  -6  10   9    2.53    3.20
  -6 -10   9   -2.62    3.82
  -6  10   9   -0.92    3.07
  -6  10  -9    0.83    2.76
   6  10   9    3.57    4.28
   6  10  -9    0.06    2.86
   6  10   9    1.18    2.16
  -6  10  -9    4.31    2.74
  -6  10  10   51.19    8.42
  -6 -10  10   52.91    8.47
   6  10  10   56.62    8.27
  -6  10  10   44.69    7.33
  -6  10 -10   56.10    8.27
  -6 -10 -10   51.79    7.89
   6  10 -10   73.12    9.46
   6  10  10   56.82    7.27
  -6  10  11  132.27   13.00
   6  10  11  136.67   12.81
  -6 -10  11  138.26   13.12
  -6  10  11  136.30   12.55
  -6  10 -11  145.38   13.00
   6  10 -11  132.31   12.60
  -6 -10 -11  139.31   12.41
  -6  10  12  107.47   12.02
  -6 -10  12  109.62   11.87
  -6 -10 -12   96.43    9.63
   6  10  12   91.98   10.67
  -6  10  12  107.86   11.15
  -6  10 -12  103.03   11.08
   6  10 -12   85.73   10.34
  -6 -10 -12   93.07   10.21
  -6  10  13   -3.33    3.32
  -6 -10  13    6.32    4.01
   6  10  13   -0.52    3.36
  -6  10  13   -2.33    2.56
  -6  10 -13    3.99    3.51
   6  10 -13    1.21    3.08
  -6 -10 -13    4.25    3.45
  -6  10  14  152.75   14.31
   6  10  14  148.21   13.89
  -6 -10  14  142.51   13.38
  -6  10  14  134.98   12.26
  -6  10 -14  143.44   12.83
   6  10 -14  141.49   13.59
  -6 -10 -14  144.06   12.73
  -6 -10  15   84.50   10.68
  -6  10  15   72.18    9.14
  -6  10 -15   67.65    9.04
  -6 -10 -15   60.28    8.33
  -6 -10  16   11.77    5.12
  -6  10 -16    2.32    2.16
  -6 -10 -16   11.11    4.08
  -6  10 -18  113.87   12.31
  -6  11   0   25.60    5.83
  -6  11   0   19.05    5.28
   6  11   0   23.99    5.23
  -6  11  -1   29.27    5.92
  -6  11   1   28.26    5.65
  -6  11   1   40.44    7.28
  -6  11  -1   32.12    6.39
   6  11  -1   32.35    6.07
   6  11   1   35.66    6.01
  -6  11  -2   31.95    6.33
   6  11   2   28.84    5.29
  -6  11   2   31.14    6.34
  -6  11   2   37.73    7.14
  -6  11  -2   36.39    7.23
   6  11  -2   35.54    6.58
   6  11   2   46.88    6.78
   6  11   3   81.89    8.79
  -6  11   3   88.92   10.71
  -6  11  -3   80.87   10.09
   6  11  -3   79.79    9.01
   6  11   3   79.28    8.42
   6  11   3   70.64    8.84
  -6  11  -3   78.03    8.96
  -6  11   3   81.38    9.75
  -6  11  -4    8.56    3.42
  -6  11   4   13.52    4.44
  -6  11   4    8.27    3.80
  -6  11  -4   10.43    4.10
   6  11  -4    7.76    3.66
   6  11   4    3.52    2.73
   6  11   4    4.36    2.87
  -6  11  -5   -0.49    2.52
  -6  11   5    0.38    3.26
  -6  11   5    0.81    2.77
  -6  11  -5    1.53    2.91
   6  11  -5   -0.37    2.74
   6  11   5    0.77    3.01
   6  11   5    2.57    2.93
  -6  11   6    3.68    3.37
  -6  11   6   -2.30    3.30
  -6  11  -6    4.32    3.26
   6  11  -6    7.35    3.48
   6  11   6    3.15    3.14
   6  11   6    8.76    3.95
  -6  11  -6    6.86    3.53
  -6  11   7   14.62    4.76
  -6  11  -7    2.13    2.83
  -6  11   7    8.63    3.53
   6  11  -7   10.48    4.30
   6  11   7    5.46    3.59
   6  11   7   11.42    4.30
  -6  11  -7    3.67    2.61
  -6  11   8   -3.53    3.79
  -6  11   8   -0.54    3.02
  -6  11  -8    0.29    2.92
   6  11  -8    1.32    3.60
   6  11   8   -7.36    4.69
   6  11   8   -1.77    2.84
  -6  11  -8   -0.55    2.44
  -6  11   9   13.29    5.22
  -6  11   9   15.03    4.93
  -6  11  -9   12.23    4.38
   6  11  -9   13.72    4.84
   6  11   9   14.63    5.18
   6  11   9    9.95    3.85
  -6  11  10   -1.33    3.22
  -6 -11  10   -4.31    4.04
  -6  11  10    6.24    3.88
  -6  11 -10   -0.60    2.66
  -6 -11 -10    0.24    2.98
   6  11 -10   -0.10    2.93
   6  11  10    0.86    3.28
  -6  11  11   -1.68    3.07
  -6 -11  11    2.32    3.05
  -6  11  11    2.53    2.92
  -6  11 -11    6.15    3.43
   6  11 -11   -3.18    3.97
   6  11  11    4.13    4.19
  -6 -11 -11    6.80    3.85
  -6 -11  12   33.63    7.14
  -6  11  12   39.57    6.80
  -6  11 -12   35.57    6.90
   6  11 -12   46.92    8.54
   6  11  12   39.22    7.31
  -6 -11 -12   50.66    8.02
  -6  11  13   30.79    6.38
  -6  11 -13   33.60    6.59
  -6 -11 -13   33.32    6.86
  -6  11  14    0.70    3.09
  -6  11 -14    4.36    3.40
  -6 -11 -14    7.79    3.53
  -6  11  15    4.21    3.48
  -6  11 -15    1.64    2.63
  -6 -11 -15   -0.66    2.78
  -6 -11 -16   23.71    5.97
  -6  12   0   36.97    7.01
  -6  12   0   35.40    7.30
   6  12   0   33.74    6.49
  -6  12  -1   40.83    7.32
  -6  12   1   33.08    6.74
  -6  12   1   48.14    8.28
  -6  12  -1   47.38    8.37
   6  12  -1   42.49    6.92
   6  12   1   40.64    6.64
  -6  12  -2   72.78    9.23
  -6  12   2   71.20    9.49
  -6  12   2   80.21   10.45
  -6  12  -2   69.23    9.93
   6  12   2   71.07    8.84
   6  12  -2   73.68    9.14
  -6  12  -3   51.89    7.89
  -6  12   3   49.08    8.33
  -6  12   3   52.79    8.59
  -6  12  -3   51.20    8.36
   6  12  -3   51.75    7.87
   6  12   3   55.99    8.20
  -6  12  -4   34.18    6.96
  -6  12   4   37.84    7.20
  -6  12   4   40.65    7.54
  -6  12  -4   39.67    7.92
   6  12  -4   30.78    6.56
   6  12   4   32.00    6.17
  -6  12   5   14.58    4.81
   6  12   5    9.59    4.61
  -6  12   5    9.32    4.65
  -6  12  -5    4.52    3.53
   6  12  -5   15.45    5.03
   6  12   5   13.31    4.61
  -6  12  -5   10.50    4.24
  -6  12   6   -2.28    3.68
   6  12   6    2.40    3.30
  -6  12   6    8.45    3.87
  -6  12  -6   10.14    4.00
   6  12  -6    8.00    4.35
   6  12   6    8.98    3.68
  -6  12  -6    4.33    2.85
  -6  12   7    5.42    3.83
   6  12   7    4.46    3.18
  -6  12   7    1.30    3.08
  -6  12  -7    5.08    3.67
   6  12  -7   10.85    4.44
   6  12   7    5.81    3.51
  -6  12  -7    4.37    3.31
   6  12   8   19.99    5.46
  -6  12   8   16.19    4.76
   6  12  -8   12.43    4.77
   6  12   8   12.56    4.51
  -6  12  -8   17.07    4.69
   6  12   9   39.88    7.58
  -6  12   9   36.82    7.42
   6  12  -9   30.22    6.72
   6  12   9   38.76    6.85
   6  12  10    6.45    3.59
  -6  12  10   13.00    4.69
  -6 -12 -10   12.14    5.00
  -6 -12 -11  126.54   12.96
  -6  13   0   40.45    7.55
   6  13   0   38.99    7.23
  -6  13  -1   -1.12    4.17
  -6  13   1    8.04    3.91
   6  13  -1    4.09    3.21
   6  13   1    0.65    2.71
  -6  13  -2    9.46    4.27
   6  13  -2   13.08    4.94
  -6  13  -3    9.07    4.40
   6  13  -3   11.57    4.87
   6  13   3   10.16    4.61
   6  13  -4    1.51    3.06
   6  13   4    3.62    3.86
  -6  13  -4   11.02    4.68
   6  13  -5    3.95    3.67
   6  13   5    5.32    3.41
  -6  13  -5    1.82    3.47
   6  13   6    2.01    3.66
  -6  13  -6    0.29    2.48
   6  13   7   13.16    4.99
   6  13   7   11.98    4.53
  -6  13  -7   13.18    4.37
   6  13   8   -2.52    2.92
   6  13   8   -1.52    2.95
  -7   0   0    0.09    2.37
   7   0   0    2.86    1.92
   7   0   0    4.90    3.65
  -7   0  -1   10.43    4.54
  -7   0   1   11.56    4.74
   7   0   1    3.73    1.95
   7   0  -1    3.08    1.98
   7   0  -1    5.56    3.70
   7   0   1    5.41    3.98
   7   0   2 1094.80   19.22
   7   0  -2 1100.75   22.99
   7   0  -2 1143.36   27.10
   7   0   2 1091.37   27.82
  -7   0  -2 1100.14   27.45
  -7   0   2 1127.29   27.80
  -7   0  -3    8.83    4.40
  -7   0   3    8.76    4.26
   7   0  -3   10.08    4.07
   7   0  -3    1.50    2.04
   7   0   3    9.04    4.56
  -7   0  -3    0.43    0.93
  -7   0  -4  612.74   20.70
  -7   0   4  610.44   20.74
  -7   0  -4  626.46   20.56
   7   0  -4  619.72   18.33
   7   0   4  591.27   20.78
  -7   0  -5    9.58    4.13
  -7   0   5    6.58    3.83
  -7   0  -5   10.31    4.35
   7   0  -5    3.26    3.13
   7   0   5    6.73    4.03
  -7   0  -6  164.69   10.91
  -7   0   6  167.46   11.04
  -7   0  -6  179.10   11.62
   7   0  -6  162.58   10.12
   7   0   6  173.34   11.68
  -7   0  -7   -0.13    0.55
  -7   0  -7    2.37    3.08
  -7   0   7    1.74    2.83
  -7   0  -7    2.04    3.22
   7   0  -7    0.60    2.88
   7   0   7    7.94    4.62
  -7   0  -8  660.50   21.47
  -7   0   8  652.30   21.22
  -7   0  -8  635.55   22.14
   7   0  -8  633.64   20.84
   7   0   8  647.88   22.61
  -7   0  -9    4.55    3.75
  -7   0  -9    7.26    3.83
  -7   0   9    6.66    3.91
   7   0  -9   11.04    4.67
   7   0   9   18.74    5.45
  -7   0 -10   88.01    8.13
  -7   0  10  102.09    8.62
  -7   0 -10   90.87    9.07
   7   0 -10   95.07    8.77
   7   0  10   86.81    8.70
   7   0  11    6.51    4.27
  -7   0 -11    1.69    3.77
   7   0  11    1.43    3.41
  -7   0 -11    1.47    2.52
  -7   0  11   -1.02    2.35
   7   0 -11    1.38    3.10
   7   0  12  191.41   12.38
  -7   0 -12  159.74   11.02
  -7   0  12  160.53   10.84
  -7   0 -12  176.76   12.90
   7   0 -12  172.68   12.44
   7   0  13   18.91    6.56
  -7   0 -13   14.28    6.43
   7   0 -13   32.42    7.30
  -7   0 -13   13.51    4.83
  -7   0  13   12.91    4.36
   7   0  14 1047.36   29.59
  -7   0 -14  975.44   26.66
  -7   0  14  982.12   26.45
  -7   0 -14 1057.28   31.60
   7   0 -14  988.53   30.42
   7   0  15   16.40    6.18
  -7   0 -15    9.35    5.04
  -7   0 -15    6.26    3.27
  -7   0  15    3.94    3.21
   7   0 -15   14.23    5.84
   7   0  16  710.61   25.73
  -7   0 -16  736.47   22.97
  -7   0  16  718.93   22.43
  -7   0 -16  726.67   27.23
   7   0 -16  760.16   27.55
   7   0  17   16.89    6.29
  -7   0 -17    9.63    5.11
   7   0 -17   13.88    6.02
  -7   0 -17    7.55    3.44
  -7   0  17    9.16    3.39
   7   0  18   86.87    9.96
   7   0 -18   82.63    9.79
   7   0  19    1.86    3.94
   7   0 -19    2.04    4.49
   7   0  20  153.29   13.49
   7   0 -20  152.62   13.73
   7   0  21    2.07    3.95
   7   0 -21    2.35    3.88
   7   0  22   70.60    9.77
   7   0 -22   62.54    9.47
   7   0  23   -1.32    3.19
  -7   1   0   12.34    4.71
   7  -1   0    0.29    1.83
  -7  -1   0    5.72    3.52
   7   1   0   -1.22    1.82
   7   1   0    8.43    3.95
  -7  -1  -1  275.16   14.17
  -7  -1   1  286.56   14.46
  -7  -1  -1  260.43   12.46
   7  -1  -1  268.28   11.35
   7   1   1  263.89    9.73
   7   1  -1  263.25   10.78
   7   1  -1  268.74   13.66
   7   1   1  268.79   13.88
  -7   1  -1  259.52   13.63
  -7   1   1  275.99   14.01
  -7  -1  -2  454.69   18.04
  -7  -1   2  452.54   18.13
   7   1   2  422.47   11.61
  -7  -1  -2  438.27   16.25
   7  -1  -2  430.62   14.84
   7   1  -2  452.68   14.56
   7   1  -2  449.94   17.57
   7   1   2  435.58   17.75
  -7  -1  -2  426.21   11.55
  -7   1  -2  427.57   17.38
  -7   1   2  451.54   17.82
  -7  -1  -3  193.41   11.95
  -7  -1   3  188.35   11.73
  -7  -1  -3  189.38   11.05
   7   1   3  186.97    7.22
   7  -1  -3  182.82    9.96
   7   1  -3  174.41    9.49
   7   1  -3  196.99   11.49
   7   1   3  194.88   12.09
  -7  -1  -3  178.29    6.92
  -7   1  -3  205.31   12.08
  -7   1   3  195.06   11.73
  -7  -1  -4  121.70    9.53
  -7  -1   4  117.31    9.26
   7   1   4  111.09    5.08
  -7  -1  -4  117.48    8.88
   7  -1  -4  114.41    8.26
   7   1  -4  116.86    8.04
   7   1  -4  121.75    9.02
   7   1   4  118.02    9.60
  -7   1  -4  125.61    9.66
  -7   1   4  112.31    9.08
  -7   1  -5   -0.90    1.28
  -7   1  -5    5.21    3.56
  -7   1   5    3.44    3.11
  -7  -1  -5    7.66    3.72
  -7  -1  -5    3.81    3.42
  -7  -1   5    0.89    2.75
   7   1  -5    1.00    2.67
   7   1  -5    4.02    2.78
   7   1   5    0.71    2.96
   7  -1  -5    2.19    2.90
  -7   1  -5    0.86    0.57
  -7   1  -6  414.62    9.55
  -7  -1  -6  398.33   16.77
  -7  -1   6  398.17   16.62
  -7  -1  -6  408.14   16.96
   7  -1  -6  402.14   15.92
   7   1  -6  402.94   15.65
   7   1  -6  390.47   15.61
   7   1   6  396.96   17.41
  -7   1  -6  399.93   16.74
  -7   1   6  387.10   16.48
  -7   1  -7   18.53    1.81
  -7   1  -7   15.94    4.00
  -7   1   7   20.86    4.71
  -7  -1  -7   23.07    4.99
  -7   1  -7   17.98    4.81
   7  -1  -7   17.47    4.04
  -7  -1  -7   18.76    4.48
  -7  -1   7   20.96    4.58
   7   1  -7   28.47    5.20
   7   1  -7   19.94    4.17
   7   1   7   18.06    4.62
  -7  -1  -8  318.60   15.23
  -7  -1   8  319.14   15.25
  -7  -1  -8  328.42   15.94
  -7   1  -8  316.05   15.87
   7  -1  -8  320.51   15.03
   7   1  -8  314.99   14.82
   7   1  -8  323.13   13.75
   7   1   8  338.41   16.42
  -7  -1  -8  310.77    7.40
  -7   1  -8  318.25   14.92
  -7   1   8  350.03   15.54
  -7  -1  -9  225.43   12.84
  -7  -1   9  256.26   13.63
  -7  -1  -9  229.47   13.66
  -7   1  -9  253.51   14.56
   7  -1  -9  243.35   13.38
   7   1  -9  265.55   13.85
   7   1  -9  246.59   12.03
   7   1   9  256.14   14.50
  -7   1  -9  246.41   13.31
  -7   1   9  244.14   13.08
  -7   1 -10   37.43    5.69
  -7   1  10   40.37    5.74
   7   1  10   40.75    6.21
  -7  -1 -10   39.53    6.39
  -7   1 -10   32.09    5.64
   7  -1 -10   38.76    6.23
   7   1 -10   50.87    6.91
  -7  -1 -10   36.74    5.88
  -7  -1  10   32.11    5.20
   7   1  10   39.42    6.69
   7   1  11  290.80   14.65
  -7  -1 -11  289.43   14.61
  -7  -1  11  294.51   14.61
  -7  -1 -11  292.99   16.11
  -7   1 -11  304.82   16.41
   7  -1 -11  302.01   15.76
   7   1 -11  311.75   15.94
   7   1  11  294.09   16.11
  -7   1 -11  296.07   14.62
  -7   1  11  310.02   14.89
  -7   1 -12  566.60   20.28
  -7   1  12  572.71   20.19
   7   1  12  561.99   20.39
   7  -1  12  572.88   21.57
  -7  -1 -12  571.70   20.39
  -7  -1  12  563.16   20.06
  -7  -1 -12  605.23   23.11
  -7   1 -12  606.76   23.33
   7  -1 -12  605.38   22.50
   7   1 -12  563.85   21.83
   7   1  12  572.82   22.11
   7   1  13   19.62    5.41
  -7   1 -13   15.25    3.93
  -7  -1 -13   11.53    4.39
  -7   1  13   11.91    3.84
  -7   1 -13   10.97    4.59
   7  -1 -13   18.74    4.99
   7   1 -13   16.47    4.90
   7   1  13   15.35    4.67
  -7  -1 -13   11.22    3.35
  -7  -1  13    7.60    2.91
  -7   1 -14  101.01    8.71
  -7   1  14  111.70    9.01
   7   1  14  111.80   10.18
   7  -1  14  113.82   10.43
  -7  -1 -14  103.83    8.82
  -7  -1  14  109.19    8.95
  -7  -1 -14   95.49    9.86
  -7   1 -14   95.53    9.77
   7  -1 -14  104.58   10.22
   7   1 -14  117.15   10.82
   7   1  14  117.31   10.40
   7   1  15    4.08    3.52
   7  -1  15   10.08    4.57
  -7  -1 -15   -6.89    5.18
  -7   1 -15   -2.11    3.21
  -7   1 -15    1.19    2.09
  -7   1  15    3.57    2.48
   7  -1 -15    2.76    3.59
   7   1 -15    0.63    2.93
   7   1  15   -2.24    2.75
  -7  -1 -15   -0.36    2.38
  -7  -1  15   -0.52    2.24
   7   1  16    2.60    3.55
   7  -1  16    2.86    4.13
  -7   1 -16    4.35    3.51
   7   1  16    3.07    3.28
  -7   1 -16   -0.61    2.04
  -7   1  16    0.11    2.51
   7  -1 -16    3.25    3.24
   7   1 -16   -1.23    3.87
  -7  -1 -16   -1.34    2.06
  -7  -1  16    0.41    2.14
   7   1  17   17.15    4.74
   7  -1  17   24.89    6.39
  -7   1 -17   20.00    5.76
   7  -1 -17   15.59    4.92
   7   1 -17    9.28    3.75
  -7   1 -17   11.25    3.43
  -7   1  17   16.38    3.59
  -7  -1 -17   14.31    3.75
  -7  -1  17   11.05    3.17
   7   1  18    0.31    3.35
   7  -1  18    7.12    3.98
  -7   1 -18    6.48    4.56
   7  -1 -18   12.94    5.39
   7   1 -18    6.57    4.38
   7   1  19    5.84    4.11
   7  -1  19    4.11    3.93
  -7   1 -19    6.61    4.50
   7  -1 -19    2.52    3.35
   7   1 -19    0.82    2.92
   7   1  20    3.21    3.08
   7  -1  20    1.96    4.12
   7  -1 -20    3.27    3.64
   7   1 -20   -2.46    3.78
   7   1  21   -2.07    3.95
   7  -1  21   -4.03    3.60
   7  -1 -21   -1.78    3.84
   7   1 -21   -1.26    3.71
   7   1  22   -0.07    4.12
   7  -1  22    4.30    3.85
   7  -1 -22    0.58    3.13
   7   1 -22    2.83    3.81
   7   1  23   -5.28    4.39
   7  -1  23   -2.23    4.10
  -7   2   0    6.45    3.94
  -7  -2   0    0.42    2.57
   7   2   0    1.61    2.11
  -7  -2   0    5.91    3.85
   7   2   0    4.79    3.52
  -7  -2  -1  500.31   18.91
  -7  -2   1  513.83   19.18
  -7  -2  -1  513.96   16.87
  -7  -2   1  514.76   16.08
   7   2   1  482.19   13.28
   7   2  -1  510.21   18.58
   7   2   1  502.13   18.88
  -7   2  -1  482.26   18.68
  -7   2   1  493.71   18.85
   7   2  -1  497.08   14.76
  -7  -2  -2  121.23    9.78
  -7  -2   2  132.53   10.26
  -7  -2  -2  118.70    9.03
  -7  -2   2  133.55    8.53
   7  -2  -2  113.37    7.92
   7   2   2  127.40    6.61
   7   2  -2  120.54    7.79
   7   2  -2  125.48    9.56
   7   2   2  110.53    9.39
  -7   2  -2  124.05    9.69
  -7   2   2  127.69    9.92
  -7   2  -2  121.74    5.58
  -7   2  -3  102.53    6.30
  -7  -2  -3  107.29    9.21
  -7  -2   3  113.93    9.57
  -7  -2  -3  102.90    8.18
  -7  -2   3  101.07    7.03
   7  -2  -3   93.14    7.40
   7   2   3   99.44    5.38
   7   2  -3   98.22    7.22
   7   2  -3  103.32    8.61
   7   2   3  105.89    8.99
  -7   2  -3  101.60    4.55
  -7   2  -3  109.24    9.10
  -7   2   3   98.32    8.51
  -7   2  -4   12.06    4.69
  -7   2   4   11.41    4.64
  -7   2  -4    2.21    1.70
  -7  -2  -4    2.85    3.74
   7  -2  -4    4.19    3.08
  -7  -2   4   11.14    3.35
   7   2   4    3.64    1.33
   7   2  -4    7.11    3.64
  -7  -2  -4    8.18    4.01
  -7  -2   4   10.18    4.82
   7   2  -4   15.21    4.58
   7   2   4   18.41    5.27
  -7   2  -5 1345.99   19.87
  -7  -2  -5 1334.72   30.94
  -7  -2   5 1331.00   30.67
  -7  -2  -5 1305.87   29.21
   7   2   5 1270.12   14.77
   7  -2  -5 1332.76   29.01
   7   2  -5 1308.48   27.51
   7   2  -5 1345.95   28.98
   7   2   5 1340.60   31.57
  -7   2  -5 1327.45   30.72
  -7   2   5 1293.11   30.20
  -7   2  -6   65.25    4.18
  -7  -2  -6   67.48    7.59
  -7  -2   6   72.89    7.90
  -7  -2  -6   74.12    7.82
   7  -2  -6   66.97    6.96
   7   2  -6   66.87    7.09
   7   2  -6   67.97    6.83
   7   2   6   57.12    7.70
  -7   2  -6   69.46    7.71
  -7   2   6   55.93    7.16
  -7   2  -7  257.40    7.26
  -7  -2  -7  255.35   13.60
  -7  -2   7  242.97   13.34
  -7  -2  -7  252.14   13.53
   7  -2  -7  246.82   13.26
   7   2  -7  260.23   13.20
   7   2  -7  238.59   12.14
   7   2   7  258.49   14.42
  -7   2  -7  247.96   13.43
  -7   2   7  252.53   13.57
  -7   2  -8   54.88    6.53
  -7  -2  -8   70.67    7.47
  -7  -2  -8   64.87    7.57
   7  -2  -8   54.30    6.65
   7   2  -8   57.96    6.18
   7   2  -8   62.12    6.79
   7   2   8   60.92    7.78
  -7  -2   8   58.92    6.64
  -7   2   8   70.08    7.33
  -7   2  -9   -0.39    2.42
  -7   2   9   -0.01    2.72
   7   2   9   14.47    4.23
  -7  -2  -9   -4.21    3.73
   7  -2  -9    1.81    2.91
  -7   2  -9   -6.94    4.43
   7   2  -9    2.36    2.46
   7   2  -9    0.86    1.91
   7   2   9   11.17    4.13
  -7  -2  -9    4.43    2.80
  -7  -2   9   -0.65    2.60
  -7  -2  -9    1.90    1.04
   7   2  10  411.27   16.35
  -7  -2 -10  379.89   16.66
  -7  -2  10  383.08   16.50
  -7  -2 -10  406.77   18.22
  -7   2 -10  394.20   18.39
   7  -2 -10  398.01   17.99
   7   2 -10  395.86   17.59
   7   2 -10  395.09   15.15
   7   2  10  401.84   18.24
  -7   2 -10  381.17   16.70
  -7   2  10  392.91   16.66
   7   2  11   95.02    8.43
  -7  -2 -11   97.75    8.70
  -7  -2  11   89.32    8.20
  -7  -2 -11   83.51    8.60
   7  -2 -11  115.91   10.11
  -7   2 -11   89.26    9.15
   7   2 -11   85.30    8.55
   7   2 -11   93.26    7.45
   7   2  11   99.00    9.41
  -7   2 -11  106.52    8.95
  -7   2  11   90.66    8.24
  -7   2 -12   30.33    5.37
  -7   2  12   25.77    4.75
   7   2  12   26.58    5.41
  -7  -2 -12   20.38    4.92
  -7   2 -12   22.64    4.24
   7   2  12   32.46    6.05
   7  -2 -12   25.91    5.31
   7   2 -12   32.48    5.98
   7   2 -12   28.91    4.28
  -7  -2 -12   27.13    4.66
  -7  -2  12   24.55    4.56
   7   2  13  274.35   14.45
   7  -2 -13  252.49   15.35
  -7   2 -13  258.94   15.76
  -7  -2 -13  247.18   13.50
  -7  -2  13  241.85   13.23
   7   2 -13  252.68   14.92
   7   2  13  271.52   15.38
  -7   2 -13  260.86   13.89
  -7   2  13  250.78   13.58
   7   2  14    1.19    2.87
  -7   2 -14    2.15    2.27
  -7   2  14    1.86    2.18
   7  -2  14    6.08    5.11
  -7   2 -14    1.18    3.25
   7  -2 -14    2.02    3.93
   7   2 -14    5.88    3.15
   7   2  14   10.79    4.38
  -7  -2 -14   -2.49    3.03
  -7  -2  14   -1.68    2.92
   7   2  15   75.81    8.23
   7  -2  15   85.20    9.72
   7  -2 -15   80.00    9.33
  -7   2 -15   75.24    9.01
  -7  -2 -15   63.32    7.05
  -7  -2  15   66.20    7.06
   7   2  15   82.90    8.96
   7   2 -15   69.96    8.68
  -7   2 -15   75.42    7.83
  -7   2  15   67.92    7.26
  -7   2 -16  170.16   11.34
  -7   2  16  167.53   11.15
   7   2  16  181.29   12.70
   7  -2  16  190.45   14.02
  -7   2 -16  170.80   13.79
   7  -2 -16  165.45   13.39
   7   2 -16  186.31   14.13
   7   2  16  181.85   13.21
   7   2  17   37.65    6.18
   7  -2  17   63.96    8.97
  -7   2 -17   48.84    6.16
  -7   2 -17   44.47    7.86
  -7   2  17   44.82    5.88
   7  -2 -17   50.65    7.93
   7   2 -17   52.88    7.90
   7   2  17   50.89    7.45
   7   2  18    1.36    2.99
   7  -2  18    6.10    5.36
  -7   2 -18    6.44    5.09
   7  -2 -18    7.16    4.18
   7   2 -18    4.82    4.06
   7   2  18    2.51    3.30
   7   2  19  290.77   17.33
   7  -2  19  326.63   19.29
  -7   2 -19  307.73   19.12
   7  -2 -19  309.36   19.17
   7   2 -19  286.01   18.47
   7   2  19  303.86   17.26
   7   2  20  247.88   16.60
   7  -2  20  237.95   17.12
  -7   2 -20  234.02   17.06
   7  -2 -20  263.03   18.23
   7   2 -20  249.97   17.52
   7   2  20  246.94   15.92
   7   2  21    6.64    4.44
   7  -2  21   21.64    6.73
  -7   2 -21    9.38    4.75
   7  -2 -21   12.27    5.17
   7   2 -21   12.81    5.91
   7   2  22    3.64    3.73
   7  -2  22    9.37    5.82
   7   2 -22    5.73    5.32
   7  -2 -22    7.07    4.58
   7   2  23  166.72   14.50
  -7   3   0   -3.56    3.08
  -7  -3   0   -3.16    3.42
  -7  -3   0   -4.18    2.50
   7   3   0    1.30    1.43
   7   3   0   -3.21    3.29
  -7  -3   0   -2.24    3.13
  -7   3  -1   30.71    5.30
  -7   3   1   35.23    5.75
  -7   3  -1   45.93    4.96
  -7  -3  -1   40.70    5.77
  -7  -3   1   38.87    5.49
  -7  -3  -1   49.23    5.29
  -7  -3   1   42.46    4.78
   7   3  -1   42.99    4.61
   7   3   1   43.81    4.23
   7   3  -1   34.64    4.86
   7   3   1   37.08    5.31
  -7   3  -1   42.90    3.73
  -7  -3  -1   38.10    5.51
  -7  -3   1   34.65    5.37
  -7   3  -2   34.75    5.28
  -7   3   2   35.62    5.56
  -7   3  -2   32.65    4.00
  -7  -3   2   33.06    3.29
  -7  -3  -2   34.74    5.18
  -7  -3   2   28.06    4.99
  -7  -3  -2   40.27    5.15
  -7  -3   2   34.59    4.28
   7   3   2   35.11    3.66
   7   3  -2   34.58    4.34
   7   3  -2   36.88    5.45
   7   3   2   29.69    5.02
  -7  -3  -2   26.61    4.79
  -7  -3   2   37.41    5.39
  -7   3  -3    8.61    3.19
  -7   3   3    4.32    2.31
  -7   3  -3    7.92    2.22
  -7  -3  -3    2.58    2.53
  -7  -3   3    6.56    1.65
  -7  -3   3    8.38    3.84
  -7  -3  -3    4.21    2.22
  -7  -3   3    6.69    2.21
   7   3   3    8.74    2.00
   7   3  -3    4.00    1.84
   7   3  -3    5.94    2.57
   7   3   3   -0.47    3.43
  -7  -3  -3    6.58    2.60
  -7  -3   3    5.11    2.95
  -7   3  -4   54.82    4.83
  -7  -3  -4   63.28    7.04
  -7  -3   4   74.95    8.13
  -7  -3  -4   70.85    7.87
  -7  -3  -4   58.70    6.89
  -7  -3   4   63.20    5.42
   7   3   4   63.30    4.04
   7   3  -4   64.39    6.50
   7   3  -4   67.56    7.14
  -7   3  -4   68.66    7.91
  -7   3   4   66.54    7.69
   7   3   4   63.92    7.75
  -7  -3   4   67.33    7.44
  -7   3  -5  704.57   15.65
  -7  -3  -5  705.60   21.77
  -7  -3   5  711.91   23.73
  -7  -3  -5  753.63   22.17
  -7  -3  -5  697.69   22.96
  -7  -3   5  682.45   22.59
  -7  -3   5  732.44   16.92
   7  -3  -5  751.57   22.15
   7   3   5  705.90   11.81
   7   3  -5  710.37   20.66
   7   3  -5  697.84   21.64
   7   3   5  720.81   23.86
  -7   3  -5  727.00   23.21
  -7   3   5  714.45   23.05
  -7   3  -6   22.35    5.67
  -7   3   6   18.52    5.24
  -7   3  -6   10.46    2.36
  -7  -3   6   13.88    4.74
  -7  -3  -6   14.00    4.70
  -7  -3   6    9.02    2.61
   7  -3  -6   19.11    4.98
   7   3  -6   16.44    4.40
   7   3  -6   13.82    4.23
   7   3   6   24.14    5.98
  -7  -3  -6   24.81    5.52
  -7  -3   6   25.74    5.73
  -7  -3   7  132.46   10.45
  -7  -3  -7  153.33   10.73
  -7  -3   7  142.26    6.91
  -7  -3  -7  142.20   10.47
  -7  -3   7  134.66   10.22
   7  -3  -7  141.62   10.36
   7   3  -7  145.12   10.01
   7   3  -7  138.41    9.61
   7   3   7  145.74   11.03
  -7   3  -7  133.06   10.23
  -7   3   7  129.25   10.16
  -7   3  -7  145.98    6.20
   7   3   8   92.43    7.58
  -7  -3   8   95.32    9.10
  -7  -3  -8   95.02    8.71
  -7  -3   8  103.10    5.72
  -7  -3  -8   96.66    8.85
  -7  -3   8   98.28    8.68
   7  -3  -8   93.09    8.79
   7   3  -8   83.89    8.15
   7   3  -8   93.42    7.86
   7   3   8   97.91    9.12
  -7   3  -8   96.79    8.89
  -7   3   8   97.63    8.77
   7   3   9  124.05    8.64
  -7  -3   9  119.86   10.06
  -7  -3  -9   99.61    8.81
  -7  -3   9  100.85    8.88
   7  -3  -9  101.20    9.04
   7   3  -9  114.09    9.27
   7   3  -9  118.17    8.56
   7   3   9  121.64   10.08
  -7   3  -9  124.44   10.03
  -7   3   9  111.82    9.24
  -7   3 -10   -0.52    2.46
  -7   3  10    5.30    2.86
  -7  -3  10    4.11    2.91
   7   3  10    5.56    3.68
   7  -3 -10    1.39    2.56
   7   3 -10    1.01    2.50
   7   3 -10   -1.19    2.18
   7   3  10    3.51    3.02
  -7  -3 -10    2.57    1.57
  -7  -3 -10    1.24    2.21
  -7  -3  10    0.11    2.61
   7   3  11  236.47   12.58
  -7  -3  11  231.47   14.23
  -7   3 -11  242.35   15.07
   7  -3 -11  235.02   14.40
  -7  -3 -11  226.90   13.33
  -7  -3  11  236.33   13.42
   7   3 -11  230.43   13.97
   7   3 -11  224.10   11.57
   7   3  11  224.55   14.03
  -7   3 -11  236.83   13.46
  -7   3  11  227.54   13.07
   7   3  12  137.64   10.07
  -7   3 -12  138.28   11.60
   7  -3 -12  137.41   11.12
   7   3 -12  141.15   11.11
   7   3 -12  134.47    8.88
   7   3  12  128.20   10.75
  -7   3 -12  129.94   10.09
  -7   3  12  138.62   10.37
  -7   3 -13   44.56    6.22
  -7   3  13   38.57    5.58
   7   3  13   46.12    6.31
  -7   3 -13   41.12    6.70
   7  -3 -13   39.16    6.05
   7   3 -13   44.41    5.12
   7   3 -13   39.03    6.08
   7   3  13   43.81    6.70
  -7   3 -14    8.56    2.98
  -7   3  14    7.69    2.75
   7   3  14    7.11    2.94
  -7   3 -14    4.88    3.55
   7  -3 -14    3.94    3.08
   7   3 -14    5.75    2.95
   7   3  14    3.25    2.87
  -7   3 -15   38.81    5.61
  -7   3  15   46.41    6.03
   7   3  15   39.06    5.95
  -7   3 -15   50.98    7.88
   7  -3 -15   41.21    6.77
   7   3 -15   46.08    7.17
   7   3  15   37.38    6.32
   7  -3 -16    6.86    3.75
   7   3  16    5.36    3.46
  -7   3 -16    5.58    2.52
  -7   3  16    3.74    2.73
   7  -3  16   14.82    5.53
  -7   3 -16    5.63    4.06
   7   3 -16    0.47    3.23
   7   3  16    0.23    2.74
   7   3  17   22.66    5.04
  -7   3 -17   24.21    4.74
  -7   3  17   18.43    3.98
   7  -3  17   29.66    6.52
  -7   3 -17   25.14    6.00
   7  -3 -17   22.70    5.88
   7   3 -17   21.90    5.41
   7   3  17   18.02    4.88
   7   3  18    1.81    3.04
   7  -3  18    4.46    4.65
  -7   3 -18   -2.31    4.29
   7   3 -18   -2.91    4.10
   7  -3 -18   -4.41    4.71
   7   3  18    5.93    3.47
   7   3  19   -1.31    3.71
   7  -3  19   10.82    5.68
  -7   3 -19   -2.22    3.69
   7  -3 -19   -3.18    4.27
   7   3 -19   -2.83    3.43
   7   3  19   -1.96    2.92
   7   3  20   -5.50    4.70
   7  -3  20    4.04    4.66
   7  -3 -20    1.19    2.98
   7   3 -20    0.44    3.08
   7   3  20    4.73    3.56
  -7   3 -20   -3.08    3.66
   7   3  21   -1.34    3.91
   7  -3  21    4.27    4.03
  -7   3 -21    3.04    3.32
   7  -3 -21    5.40    3.85
   7   3 -21    5.66    3.73
   7   3  21    1.47    2.27
  -7   3 -22   -1.81    4.45
   7   3  22    5.10    3.21
   7   3  23   -6.43    5.04
  -7   4   0   -0.64    1.95
  -7  -4   0    2.90    3.76
   7   4   0    0.31    2.06
  -7  -4   0   10.48    4.31
  -7   4   0    1.67    2.86
  -7   4  -1  192.95   10.04
  -7   4   1  173.91   10.12
  -7  -4  -1  180.98   11.78
  -7  -4   1  200.92   12.60
  -7  -4   1  189.56    9.67
  -7  -4  -1  201.25   12.71
  -7  -4   1  173.18   11.90
   7   4   1  198.19    9.23
   7   4  -1  184.69    9.50
  -7   4   1  196.10   12.52
  -7   4  -1  204.34   12.68
  -7   4  -2  612.16   17.50
  -7   4   2  617.98   19.39
  -7  -4  -2  618.46   21.18
  -7  -4   2  620.14   21.97
  -7  -4   2  611.64   16.65
   7   4   2  614.47   15.21
   7   4  -2  616.55   17.89
  -7   4   2  616.55   21.84
  -7   4  -2  601.09   21.60
  -7  -4  -2  630.34   22.03
  -7  -4   2  625.54   21.89
  -7   4  -3   19.66    3.44
  -7   4   3   21.53    4.26
  -7  -4  -3   17.99    4.76
  -7  -4   3   29.94    6.27
  -7  -4   3   20.57    3.27
   7   4   3   17.96    3.02
   7   4  -3   21.92    4.25
  -7  -4  -3   40.77    6.71
  -7  -4   3   27.76    5.78
  -7   4   3   29.74    5.76
  -7   4  -3   20.78    5.08
  -7   4  -4  771.72   18.30
  -7  -4  -4  769.21   23.12
  -7  -4   4  781.04   24.89
  -7  -4   4  765.53   17.19
   7   4   4  770.21   15.04
   7   4  -4  747.62   21.02
  -7   4   4  761.17   24.39
  -7   4  -4  771.66   24.57
  -7  -4  -4  781.59   24.67
  -7  -4   4  717.30   23.66
  -7   4  -5  164.46    8.30
  -7  -4  -5  182.09   11.55
  -7  -4   5  184.09   12.76
  -7  -4   5  165.38    7.72
   7   4  -5  185.16   11.04
  -7   4   5  172.05   12.07
  -7   4  -5  179.74   12.24
  -7   4  -6  118.13    6.68
  -7  -4  -6  120.66    9.26
  -7  -4   6  130.21   10.79
   7   4  -6  113.36    9.04
   7   4  -6  109.62    8.90
  -7   4   6  123.35    9.90
  -7   4  -6  133.38   10.38
  -7  -4  -7   37.62    5.57
  -7  -4   7   45.77    6.62
   7   4  -7   33.79    5.26
   7   4  -7   31.73    4.95
   7   4   7   45.01    6.58
  -7   4  -7   37.25    3.64
  -7   4   7   33.51    5.67
  -7   4  -7   32.71    5.69
   7   4   8  170.45    9.54
  -7  -4  -8  172.19   10.76
  -7  -4   8  160.68   11.95
   7  -4  -8  165.42   11.78
   7   4  -8  164.25   11.16
   7   4  -8  158.96   10.49
   7   4   8  161.29   11.99
  -7   4   8  164.65   11.50
  -7   4  -8  173.59   11.75
   7   4   9  241.21   11.61
  -7  -4  -9  220.45   12.03
  -7  -4   9  223.50   14.01
   7  -4  -9  252.41   14.42
   7   4  -9  234.24   13.44
   7   4  -9  218.70   12.06
   7   4   9  254.69   14.85
  -7   4   9  243.67   13.90
  -7   4  -9  226.68   13.59
  -7   4 -10    8.42    3.54
  -7   4  10   12.46    3.97
  -7  -4 -10    6.69    2.77
  -7  -4  10    9.32    4.14
   7   4  10   13.37    3.71
   7  -4 -10    7.36    3.36
   7   4 -10   14.74    4.55
   7   4 -10   11.55    3.05
   7   4  10    5.12    3.31
  -7  -4 -10   11.52    2.52
  -7   4 -11    2.60    2.47
  -7   4  11    2.03    2.35
  -7  -4  11    1.08    2.99
   7   4  11   -0.95    2.36
   7  -4 -11   -3.22    3.46
   7   4 -11   -8.02    4.33
   7   4 -11   -0.57    2.12
   7   4  11   -9.21    4.61
  -7   4 -12    9.22    3.19
  -7   4  12    8.62    3.11
  -7  -4  12    4.03    2.56
   7   4  12    9.78    3.50
   7  -4 -12    9.77    4.24
   7   4 -12   11.18    4.03
   7   4 -12    8.03    2.69
   7   4  12    7.81    3.52
   7   4  13  220.93   12.56
  -7  -4  13  223.57   14.51
  -7   4 -13  237.44   15.39
   7  -4 -13  226.60   15.24
   7   4 -13  213.63   14.39
   7   4 -13  223.33   11.52
   7   4  13  222.72   14.27
  -7   4 -13  220.18   13.49
  -7   4  13  211.67   13.03
  -7   4 -14    2.91    2.09
  -7   4  14    2.34    2.23
   7   4  14    4.33    2.81
  -7  -4  14    0.51    2.86
   7  -4 -14   -1.02    3.28
  -7   4 -14    2.57    2.99
   7   4 -14   -3.12    3.36
   7   4  14    2.73    3.33
  -7   4 -15   13.20    3.51
  -7   4  15   14.24    3.78
  -7  -4  15    7.93    3.45
   7   4  15   18.64    4.79
   7  -4 -15    7.77    3.59
  -7   4 -15   15.62    4.94
   7   4 -15   13.15    4.84
   7   4  15   13.72    4.53
   7   4  16   98.86    9.46
  -7   4 -16  113.58   11.50
   7  -4 -16   98.58   11.04
   7   4 -16  103.24   10.70
   7   4  16   95.73    9.73
  -7   4 -16  111.68    9.50
  -7   4  16  100.39    8.90
   7   4  17   82.01    8.73
  -7   4 -17   97.05   10.78
   7  -4 -17   96.84   10.90
   7   4 -17   87.58   10.22
   7   4  17   86.78    9.62
  -7   4 -17   91.15    8.48
  -7   4  17   86.66    8.26
   7   4  18   92.00    9.57
   7  -4  18   97.36   11.20
  -7   4 -18   98.03   10.84
   7  -4 -18   94.12   10.64
   7   4  18   87.26    9.62
   7   4 -18   73.39    9.29
   7   4  19   40.30    6.80
   7  -4  19   45.81    8.25
  -7   4 -19   52.36    8.59
   7  -4 -19   55.27    8.70
   7   4 -19   34.15    6.98
   7   4  19   39.59    6.72
   7   4  20  109.67   10.79
   7  -4  20  140.68   13.73
  -7   4 -20  125.49   12.76
   7   4 -20  114.92   12.27
   7   4  20  111.66   10.99
   7  -4 -20  123.69   12.80
   7   4  21    6.28    3.84
  -7   4 -21    8.42    4.58
   7  -4 -21    9.26    4.71
   7   4 -21    8.21    4.81
   7   4  21    2.87    2.87
   7   4  21    1.07    4.18
   7   4  22    7.84    3.26
  -7   4 -22   10.32    4.47
   7   4  22    8.70    3.75
   7   4  23    2.34    3.62
  -7   5   0    1.09    2.39
  -7  -5   0    0.57    2.86
   7   5   0    0.72    1.76
  -7   5   0   -2.08    3.14
  -7   5  -1    7.97    2.87
  -7   5   1    4.05    2.58
  -7  -5  -1    5.87    2.99
  -7  -5   1    4.32    2.93
   7   5   1    9.26    2.82
   7   5  -1    6.23    2.63
  -7   5   1    2.58    3.34
  -7   5  -1    3.47    2.68
  -7   5  -2   20.78    3.81
  -7   5   2   17.26    3.77
  -7  -5  -2   16.82    4.47
  -7  -5   2   21.19    4.71
   7   5   2   19.90    3.18
   7   5  -2   16.16    3.12
  -7   5   2   16.61    4.34
  -7   5  -2   17.31    4.33
  -7   5  -3   55.06    5.65
  -7   5   3   46.49    5.88
  -7  -5  -3   45.99    6.43
  -7  -5   3   50.85    6.93
   7   5   3   54.13    4.68
   7   5  -3   57.20    6.15
  -7   5  -3   51.89    6.57
  -7   5   3   46.27    6.40
  -7   5  -4   23.09    3.80
  -7   5   4   22.74    4.39
  -7  -5  -4   16.87    3.99
  -7  -5   4   20.65    5.00
   7   5   4   23.86    3.13
   7   5  -4   21.26    4.12
  -7   5   4   18.11    4.14
  -7   5  -4   20.01    4.32
  -7   5  -5   10.57    2.46
  -7   5   5   10.53    3.60
  -7  -5  -5   10.50    3.74
  -7  -5   5   10.35    3.94
   7   5  -5   14.13    3.93
  -7   5   5    9.35    3.83
  -7   5  -5    9.49    3.78
  -7   5   6  101.53    8.99
  -7  -5  -6  111.47    9.31
  -7  -5   6  106.38    9.92
  -7   5   6  104.77    9.51
  -7   5  -6  100.26    9.44
   7   5  -6  103.49    8.98
  -7   5  -6  101.91    6.71
  -7   5   7  132.22   10.59
  -7  -5  -7  133.36    9.97
  -7  -5   7  123.08   10.59
  -7   5   7  135.39   10.80
  -7   5  -7  137.07   10.82
   7   5  -7  148.80   10.69
  -7   5  -7  139.04    7.51
  -7   5   8   10.00    3.77
  -7  -5  -8    3.63    2.62
  -7  -5   8    1.74    2.57
   7   5   8    5.24    2.77
   7   5  -8    3.89    2.34
  -7   5   8    1.32    2.70
  -7   5  -8    2.19    2.68
  -7  -5  -9   -1.53    2.10
  -7  -5   9   -2.06    3.48
   7   5   9    3.96    2.65
   7   5  -9   -0.41    2.67
  -7   5   9   -0.65    2.49
  -7   5  -9   -0.95    2.86
  -7  -5 -10   -1.58    2.41
  -7  -5  10   -0.74    3.25
   7   5  10    3.03    2.46
   7   5 -10   -3.28    3.62
  -7   5  10   -1.20    2.42
  -7   5 -10    1.94    2.11
  -7  -5 -11   37.60    5.34
   7   5  11   42.52    5.37
  -7  -5  11   37.48    6.43
   7   5 -11   45.35    6.65
  -7  -5 -11   42.04    4.99
  -7   5  11   39.62    6.04
  -7   5 -11   44.19    6.34
   7   5  12   28.29    4.61
  -7  -5 -12   21.42    4.18
  -7  -5  12   21.77    4.77
   7   5 -12   18.76    4.32
   7   5 -12   23.04    4.07
   7   5  12   23.61    5.24
  -7   5 -12   24.20    4.90
  -7   5  12   26.60    5.25
  -7   5  13    1.95    2.42
  -7   5 -13    1.35    2.87
  -7  -5 -13    1.42    1.83
   7   5  13   -3.05    2.87
  -7  -5  13   -0.63    3.21
   7   5 -13   -0.08    3.30
   7   5 -13    1.02    1.75
   7   5  13   -3.32    3.52
  -7   5 -14    8.90    3.30
  -7   5  14   10.87    3.37
   7   5  14   16.05    4.12
  -7  -5  14   11.08    3.82
   7  -5 -14   12.70    4.51
  -7   5 -14    9.71    3.73
   7   5 -14    5.87    2.91
   7   5  14    4.27    3.15
  -7   5 -15   23.98    4.75
  -7   5  15   25.29    4.99
   7   5  15   23.66    4.84
  -7  -5  15   24.90    5.67
   7  -5 -15   25.04    5.73
  -7   5 -15   30.20    6.30
   7   5 -15   28.56    6.02
   7   5  15   16.31    5.09
  -7   5 -16   39.90    6.02
  -7   5  16   34.84    5.65
   7  -5 -16   38.78    7.19
   7   5  16   34.09    5.75
  -7  -5  16   38.66    6.58
  -7   5 -16   33.63    6.84
   7   5 -16   33.11    6.58
   7   5  16   31.83    6.09
  -7   5 -17   12.73    4.01
   7  -5 -17    4.75    3.13
   7   5  17    9.63    3.86
  -7  -5  17   11.65    4.44
  -7   5 -17    9.85    3.81
   7   5 -17    5.86    3.67
   7   5  17   10.37    3.61
  -7  -5  18    6.50    3.43
   7   5  18   10.26    4.24
   7  -5 -18    4.38    3.54
  -7   5 -18    4.75    3.45
   7   5 -18    2.54    3.45
   7   5  18    7.46    4.52
   7   5  18    5.77    3.81
   7   5  19    4.01    3.37
  -7   5 -19   10.82    4.23
   7  -5 -19   12.98    4.62
   7   5 -19   17.37    5.43
   7   5  19    4.00    2.57
   7   5  19    9.17    4.72
   7   5  20   -0.91    3.76
  -7   5 -20   10.20    4.78
   7  -5 -20    6.88    4.84
   7   5 -20    6.54    4.62
   7   5  20    5.73    3.68
   7   5  20    3.83    3.44
   7   5  21   -4.13    3.94
  -7   5 -21    3.23    3.87
   7   5  21    3.01    3.12
   7   5  22   25.28    5.73
   7   5  22   28.48    6.23
   7   5  23   23.58    5.94
  -7   6   0    3.53    3.13
  -7  -6   0   10.87    4.71
   7   6   0    3.25    2.58
  -7   6   0    9.38    4.52
  -7   6  -1  392.36   15.80
  -7   6   1  373.76   16.24
  -7  -6  -1  384.55   18.16
  -7  -6   1  379.37   18.21
  -7   6   1  385.32   18.38
  -7   6  -1  413.39   19.00
   7   6  -1  390.47   15.21
   7   6   1  380.13   14.08
  -7   6  -2  440.28   16.48
  -7   6   2  417.90   17.58
  -7  -6  -2  444.04   19.03
  -7  -6   2  465.99   20.17
  -7   6   2  431.26   19.43
  -7   6  -2  442.63   19.79
   7   6  -2  456.80   16.83
   7   6   2  431.05   14.43
  -7   6  -3    1.21    2.22
  -7   6   3    3.03    2.81
  -7  -6  -3   12.87    4.37
  -7  -6   3    4.32    3.90
   7   6  -3    3.73    2.81
   7   6   3    3.19    2.02
  -7   6   3    3.88    3.16
  -7   6  -3    9.01    4.28
  -7   6  -4    2.21    2.06
  -7   6   4    1.72    2.42
  -7  -6  -4    5.40    3.54
  -7  -6   4    4.74    3.95
   7   6  -4    3.58    2.42
   7   6   4    1.50    1.74
  -7   6   4    1.44    3.13
  -7   6  -4    3.96    3.87
  -7   6   5  471.32   19.36
  -7  -6  -5  491.08   19.62
  -7  -6   5  490.33   21.02
  -7   6   5  482.36   20.48
  -7   6  -5  506.55   21.05
   7   6  -5  487.39   18.55
  -7   6  -5  480.37   16.13
  -7   6  -6   -0.21    1.70
  -7   6   6   -1.57    2.76
  -7  -6  -6    6.48    3.72
  -7  -6   6    3.15    3.79
   7   6  -6   10.11    4.11
  -7   6   6    2.87    2.98
  -7   6  -6   -0.01    2.84
  -7   6   7  111.65    9.97
  -7  -6  -7  121.28    9.74
  -7  -6   7  116.12   10.62
  -7   6   7  116.06   10.21
  -7   6  -7  116.28   10.32
   7   6  -7  114.80    9.84
  -7   6  -7  114.92    7.51
  -7   6   8   25.60    5.58
  -7  -6  -8   30.10    5.38
  -7  -6   8   37.34    7.03
   7   6  -8   29.33    5.80
  -7   6   8   26.25    5.35
  -7   6  -8   31.58    5.79
  -7   6   9   79.76    8.92
  -7  -6  -9   74.14    7.86
  -7  -6   9   78.23    9.17
  -7   6   9   68.81    8.14
   7   6  -9   67.84    8.49
  -7   6  -9   65.49    8.02
  -7   6  10  225.13   14.88
  -7  -6 -10  221.60   12.94
  -7  -6  10  229.18   15.05
  -7   6  10  214.95   13.97
  -7   6 -10  226.21   14.42
   7   6 -10  229.00   14.46
  -7   6  11   40.48    7.23
  -7  -6 -11   38.92    5.82
  -7  -6  11   41.23    7.00
   7   6 -11   43.76    7.22
  -7  -6 -11   39.36    5.33
  -7   6  11   36.37    6.22
  -7   6 -11   35.02    6.28
  -7   6  12  443.53   21.48
  -7  -6 -12  433.06   17.54
  -7  -6  12  399.30   19.99
  -7   6  12  386.24   18.76
  -7   6 -12  387.70   18.81
   7   6 -12  436.81   20.72
  -7  -6 -12  421.55   16.86
  -7   6  13  139.53   12.42
  -7  -6 -13  128.41    9.68
  -7  -6  13  133.19   12.07
  -7   6  13  132.89   11.05
  -7   6 -13  139.22   11.46
   7   6 -13  140.92   12.23
  -7   6  14    8.92    3.72
  -7  -6  14   10.92    4.17
   7   6 -14   11.69    4.99
   7   6  14    7.46    4.15
  -7   6  14    3.91    2.94
  -7   6 -14    6.43    3.40
  -7   6  15   -0.92    3.34
  -7  -6  15    4.21    3.51
  -7   6 -15    8.25    3.88
   7   6 -15    7.52    3.37
   7   6  15    4.01    3.58
   7   6  15    5.46    3.28
  -7   6 -15    7.23    3.93
  -7   6  15   14.27    4.20
  -7   6  16  106.41   11.52
  -7  -6  16   97.36   10.42
  -7   6 -16  114.34   11.99
   7   6 -16  104.58   11.19
   7   6  16  100.93   10.63
  -7   6  16  101.24    9.68
  -7   6 -16   95.56    9.47
   7   6  16   97.71   11.01
  -7   6 -17   30.44    5.68
  -7   6  17   26.87    6.26
  -7  -6  17   29.05    6.26
  -7   6 -17   35.14    7.08
   7   6 -17   35.44    6.85
   7   6  17   27.06    6.01
   7   6  17   24.71    6.09
  -7   6  18    9.03    4.09
  -7  -6  18   18.30    4.87
  -7   6 -18   25.09    6.53
   7   6 -18    6.68    3.43
   7   6  18   13.18    4.09
   7   6  18   12.41    4.95
  -7   6  19   25.56    6.38
  -7  -6  19   21.20    5.66
  -7   6 -19   20.68    5.77
   7   6 -19   22.95    5.93
   7   6  19   13.73    4.63
   7   6  19   21.07    5.96
  -7  -6  20   87.29   10.26
  -7   6 -20   76.43   10.23
   7   6  20   76.49    9.55
  -7  -6  21   -1.45    2.93
   7   6  21    2.58    3.49
   7   6  22   21.19    5.42
  -7   7   0   -2.95    2.52
  -7  -7   0   -4.28    3.95
   7   7   0   -0.15    2.20
  -7   7   0   -0.02    2.92
  -7   7  -1    2.75    2.63
  -7   7   1    0.06    2.57
  -7  -7   1    0.40    2.97
  -7  -7  -1    2.98    2.58
   7   7  -1    2.98    2.23
   7   7   1    1.56    1.86
  -7   7   1    1.98    3.26
  -7   7  -1   -3.47    3.39
  -7   7  -2   68.68    6.96
  -7   7   2   83.53    8.33
  -7  -7   2   80.00    8.92
  -7  -7  -2   65.21    8.14
  -7   7   2   83.82    9.06
   7   7  -2   67.87    6.88
   7   7   2   80.25    6.77
  -7   7  -2   73.20    8.71
  -7   7  -3  127.84    9.31
  -7   7   3  127.26   10.44
  -7  -7   3  131.10   11.40
  -7  -7  -3  121.91   10.56
  -7   7   3  117.05   10.96
  -7   7  -3  134.48   11.60
   7   7  -3  128.85    9.77
   7   7   3  133.79    8.38
   7   7  -3  128.15    8.67
  -7   7  -4    1.94    2.19
  -7   7   4    0.07    2.67
  -7  -7   4    8.10    4.39
  -7  -7  -4   -3.81    3.44
   7   7  -4   -0.44    2.40
  -7   7   4   -4.20    3.59
  -7   7  -4    0.26    3.05
   7   7  -4   -1.05    2.05
  -7   7  -5   36.28    5.07
  -7   7   5   31.36    5.34
  -7  -7  -5   36.99    5.94
  -7  -7   5   38.26    6.34
   7   7  -5   31.71    5.32
  -7   7   5   29.50    5.85
  -7   7  -5   35.92    6.23
  -7   7  -6    2.31    1.96
  -7   7   6    1.18    2.72
  -7  -7  -6    0.87    2.75
  -7  -7   6   -0.31    3.42
   7   7  -6   -1.44    2.34
  -7   7   6   -1.21    2.99
  -7   7  -6   -1.53    3.21
   7   7   6   -6.80    4.52
  -7   7  -7    9.31    2.61
  -7   7   7   11.85    3.62
  -7  -7  -7   12.17    3.75
  -7  -7   7   12.07    4.17
   7   7  -7    6.85    2.93
  -7   7   7   10.33    4.21
  -7   7  -7   10.63    3.87
   7   7   7    2.57    3.29
  -7   7   8    1.35    2.82
  -7  -7  -8    6.89    3.30
  -7  -7   8   -1.42    3.23
   7   7  -8    2.51    2.96
  -7   7   8    1.14    2.57
  -7   7  -8    0.77    2.55
   7   7   8   -1.79    2.91
  -7   7   9   88.20    9.56
  -7  -7  -9   83.54    8.36
  -7  -7   9   94.14   10.26
  -7   7   9   82.00    9.04
  -7   7  -9   86.59    9.28
   7   7  -9   87.42    9.18
   7   7   9   87.49    9.49
  -7   7  10    9.38    3.86
  -7  -7 -10   14.60    3.97
  -7  -7  10    5.97    3.85
   7   7 -10   20.14    5.22
   7   7  10   10.19    4.27
  -7   7  10   13.49    4.14
  -7   7 -10   11.25    4.53
  -7   7  11   20.54    5.23
  -7  -7 -11   26.45    4.86
  -7  -7  11   20.70    5.32
   7   7 -11   31.81    6.42
   7   7  11   19.48    5.62
  -7  -7 -11   18.06    4.23
  -7   7  11   21.36    4.97
  -7   7 -11   25.23    5.41
  -7   7  12   21.80    6.21
  -7  -7 -12   19.40    4.62
  -7  -7  12   28.84    6.72
   7   7 -12   22.13    5.70
   7   7  12   16.50    5.49
  -7  -7 -12   16.99    4.10
  -7   7  12   22.52    5.19
  -7   7 -12   18.76    5.14
  -7   7  13  258.85   17.33
  -7  -7 -13  240.18   13.49
  -7  -7  13  271.50   17.25
  -7   7  13  238.56   15.14
  -7   7 -13  243.61   15.50
   7   7 -13  258.66   16.88
   7   7  13  258.44   17.18
  -7   7  14   39.18    7.42
  -7  -7  14   53.01    8.28
   7   7 -14   51.76    8.27
   7   7  14   41.93    7.54
  -7   7  14   41.57    6.52
  -7   7 -14   41.65    6.54
  -7   7  15    3.05    3.77
  -7  -7  15    0.09    2.94
   7   7 -15    6.76    4.50
   7   7  15   -6.04    5.06
  -7   7  15   -0.39    2.55
  -7   7 -15   -2.66    3.23
  -7   7  16   20.38    5.48
  -7  -7  16   20.84    5.60
  -7   7 -16   23.30    6.19
   7   7 -16   19.21    5.58
   7   7  16   15.15    5.20
  -7   7  16   19.32    4.67
  -7   7 -16   22.88    5.36
  -7   7  17   34.56    7.63
  -7  -7  17   20.39    5.58
  -7   7 -17   20.87    5.91
   7   7 -17   17.01    5.32
   7   7  17   19.01    5.81
  -7  -7  18   -2.01    2.91
  -7   7 -18    3.47    4.43
   7   7 -18    7.52    4.96
   7   7  18   -0.15    2.76
  -7  -7  19   69.01    9.61
  -7   7 -19   61.88    9.31
   7   7  19   63.36    9.04
  -7  -7  20   75.29    9.83
   7   7  20   79.27    9.95
  -7  -7  21   62.07    9.21
   7   7  21   67.79    9.31
  -7  -7  22   11.19    4.44
  -7   8   0    5.22    3.53
  -7  -8   0    4.42    4.13
  -7   8   0    1.02    3.12
   7   8   0    0.13    2.23
   7   8   0    0.11    2.49
  -7   8  -1  466.94   19.29
   7   8  -1  460.34   17.59
  -7   8   1  463.18   19.68
  -7  -8   1  475.86   21.54
  -7  -8  -1  462.74   21.00
  -7   8   1  464.91   21.79
  -7   8  -1  476.73   22.01
   7   8  -1  492.94   18.85
   7   8   1  464.82   17.38
   7   8   1  470.26   18.83
  -7   8  -2   38.69    5.91
  -7   8   2   39.19    6.69
  -7  -8   2   39.22    7.01
  -7  -8  -2   51.55    7.81
  -7   8   2   38.40    7.11
  -7   8  -2   49.37    7.86
   7   8  -2   41.67    6.33
   7   8   2   36.14    5.20
   7   8   2   40.24    6.29
   7   8  -2   39.47    5.60
  -7   8   3   67.14    8.00
  -7  -8   3   65.90    8.30
  -7  -8  -3   63.51    7.74
   7   8  -3   72.80    7.92
  -7   8   3   66.48    8.58
  -7   8  -3   70.46    8.71
   7   8   3   60.15    7.05
  -7   8  -3   64.00    7.11
  -7   8  -4   17.90    3.97
  -7   8   4   31.96    6.19
  -7  -8   4   27.42    5.63
  -7  -8  -4   24.19    5.31
   7   8  -4   25.27    5.02
  -7   8   4   19.16    5.23
  -7   8  -4   26.67    5.57
   7   8   4   22.14    4.72
  -7   8   5   77.75    8.75
  -7  -8   5   73.64    8.95
  -7  -8  -5   60.12    7.78
   7   8  -5   69.97    7.89
  -7   8   5   63.64    8.38
  -7   8  -5   62.65    8.27
   7   8   5   59.40    7.45
  -7   8  -5   69.36    7.13
  -7   8  -6    1.56    1.85
  -7   8   6    8.56    4.48
  -7  -8   6    0.89    2.99
  -7  -8  -6   -0.63    2.60
   7   8  -6    2.51    3.15
  -7   8   6    8.31    4.49
  -7   8  -6   -0.15    2.97
   7   8   6    3.91    3.02
  -7   8   7   90.24    9.83
  -7  -8  -7   88.74    9.28
  -7  -8   7   92.20   10.04
  -7   8   7   74.47    8.93
  -7   8  -7   90.52    9.92
   7   8  -7   83.81    9.04
  -7   8  -7   82.55    7.57
   7   8   7   85.32    9.21
  -7   8   8    4.56    3.70
  -7  -8   8    1.60    3.65
  -7  -8  -8    3.43    3.22
   7   8  -8   -0.50    2.83
  -7   8   8    1.98    2.69
  -7   8  -8    3.64    3.86
   7   8   8    3.33    3.46
   7   8   9  348.44   19.01
  -7   8   9  346.87   19.31
  -7  -8   9  365.56   19.90
  -7  -8  -9  336.82   17.26
  -7   8   9  338.31   18.65
  -7   8  -9  357.73   19.29
   7   8  -9  353.01   18.62
  -7   8  10   17.61    5.17
  -7  -8 -10   18.29    4.69
  -7  -8  10   17.40    5.32
   7   8 -10   21.63    5.33
  -7   8  10   16.12    4.64
  -7   8 -10   21.68    5.63
   7   8  10   13.28    4.90
  -7   8  11   14.50    4.35
  -7  -8 -11   11.22    3.82
  -7  -8  11   13.15    5.04
   7   8 -11   16.80    5.17
  -7  -8 -11    8.96    3.22
  -7   8  11   16.08    4.58
  -7   8 -11   12.46    4.32
   7   8  11    6.15    3.37
  -7   8  12   18.59    5.46
  -7  -8 -12   23.32    4.95
  -7  -8  12   19.81    5.79
   7   8 -12   27.53    6.34
  -7  -8 -12   19.68    4.68
  -7   8  12   13.48    4.63
  -7   8 -12   20.16    4.81
   7   8  12   10.71    4.13
  -7   8  13   54.71    8.64
  -7  -8  13   54.68    8.27
   7   8 -13   53.17    8.10
  -7   8  13   49.27    7.42
  -7   8 -13   52.49    7.75
   7   8  13   61.73    8.97
  -7   8  14   21.71    6.57
  -7  -8  14   16.47    5.41
   7   8 -14   24.21    6.20
  -7   8  14   27.57    6.05
  -7   8 -14   12.37    3.80
   7   8  14   16.19    5.19
   7   8  15  133.29   13.16
  -7   8  15  128.51   13.02
  -7  -8  15  117.59   11.96
  -7   8  15  128.78   11.67
  -7   8 -15  129.84   11.79
   7   8 -15  113.19   12.05
   7   8  16    3.47    4.51
  -7   8  16    1.79    3.66
  -7  -8  16    2.97    4.28
   7   8 -16    0.17    3.74
  -7   8  16    1.36    2.79
  -7   8 -16    1.56    3.20
  -7  -8  17  104.48   11.57
  -7   8 -17  114.59   12.49
  -7  -8  18   11.23    4.93
  -7   8 -18   22.80    6.47
  -7  -8  19  130.01   13.00
  -7   9   0    0.71    2.57
   7   9   0   -1.03    2.15
  -7  -9   0   -7.99    4.49
  -7   9   0   -5.08    4.13
   7   9   0   -1.56    2.52
  -7   9  -1    5.21    3.38
  -7   9   1    3.48    2.52
   7   9   1   -1.01    2.42
  -7  -9   1    1.13    3.01
  -7  -9  -1   -1.41    2.86
  -7   9   1   -0.99    2.98
  -7   9  -1    2.61    2.64
   7   9  -1    5.64    2.82
   7   9   1    2.08    1.98
  -7   9  -2   -3.75    3.16
   7   9   2   -1.73    2.81
  -7   9   2    0.40    2.71
  -7  -9   2   -4.77    4.58
  -7  -9  -2   -5.78    3.93
  -7   9   2   -3.60    3.53
  -7   9  -2   -2.11    3.59
   7   9  -2    0.02    2.46
   7   9   2    0.59    2.44
  -7   9  -3   -2.12    3.57
   7   9   3   -1.87    2.65
  -7   9   3   -1.66    3.24
  -7  -9   3   -3.48    4.08
  -7  -9  -3   -2.90    3.96
  -7   9   3   -1.97    4.14
  -7   9  -3   -1.44    3.24
   7   9  -3    4.03    2.55
  -7   9  -4   12.33    3.11
   7   9   4   12.24    3.89
  -7   9   4   10.93    4.24
  -7  -9   4   13.68    4.33
  -7  -9  -4   12.94    4.47
  -7   9   4   18.33    5.06
  -7   9  -4    8.74    4.15
   7   9  -4   11.72    3.78
  -7   9   5  139.70   12.08
   7   9   5  130.59   11.12
  -7  -9   5  147.82   12.93
  -7  -9  -5  128.18   11.31
  -7   9   5  131.98   12.22
  -7   9  -5  124.32   12.04
   7   9  -5  138.54   11.40
  -7   9  -5  130.63   10.42
  -7   9  -6    9.86    3.35
   7   9   6    8.56    3.19
  -7   9   6    6.10    3.98
  -7  -9   6    1.15    3.52
  -7  -9  -6    7.03    3.41
  -7   9   6    5.46    3.88
  -7   9  -6    9.61    3.93
   7   9  -6   10.73    4.15
   7   9   7   73.33    8.67
  -7   9   7   72.07    9.14
  -7  -9   7   84.43   10.08
  -7  -9  -7   73.22    8.61
  -7   9   7   70.16    9.15
  -7   9  -7   70.56    9.20
   7   9  -7   71.04    8.46
   7   9   8   24.30    5.37
  -7   9   8   20.56    5.35
  -7  -9   8   25.11    5.77
  -7  -9  -8   17.40    4.69
   7   9  -8   28.41    5.98
  -7   9   8   22.82    5.63
  -7   9  -8   27.65    6.35
   7   9   9   30.91    6.55
  -7   9   9   23.05    5.97
  -7  -9   9   28.41    6.49
  -7  -9  -9   24.78    5.22
   7   9  -9   23.98    5.27
  -7   9   9   25.52    5.86
  -7   9  -9   23.27    5.91
   7   9  10   12.57    4.52
  -7   9  10   15.65    5.66
  -7  -9  10   13.65    5.20
  -7  -9 -10   11.40    4.06
   7   9 -10    9.33    4.57
  -7   9  10    9.53    3.84
  -7   9 -10   10.76    3.92
   7   9  11   67.16    9.05
  -7   9  11   81.61   10.32
  -7  -9 -11   73.81    8.54
  -7  -9  11   62.13    8.84
   7   9 -11   68.99    9.41
  -7  -9 -11   73.66    8.80
  -7   9  11   67.33    9.12
  -7   9 -11   58.38    8.39
   7   9  12    5.90    4.53
  -7   9  12    5.27    3.90
  -7  -9 -12    0.45    2.90
  -7  -9  12    3.35    2.89
   7   9 -12    4.54    3.94
  -7   9  12   -0.04    2.87
  -7   9 -12   -0.04    2.86
  -7  -9 -12    7.59    3.82
   7   9  13   80.93   10.49
  -7   9  13   80.44   10.65
  -7  -9  13   72.35    9.67
   7   9 -13   77.02   10.00
  -7   9  13   77.48    9.58
  -7   9 -13   76.19    9.50
   7   9  14   11.13    4.90
  -7   9  14    5.07    4.42
  -7  -9  14    4.62    3.94
   7   9 -14    5.58    4.58
  -7   9  14    1.85    3.60
  -7   9 -14    8.44    4.32
  -7  -9  15    3.74    3.47
   7   9 -15   -1.89    3.27
  -7   9  15   -1.44    2.43
  -7   9 -15   -2.02    2.73
  -7  -9  16    4.61    4.78
  -7   9 -16    7.41    3.83
  -7  10   0    0.73    2.73
  -7 -10   0    0.53    3.81
  -7  10   0   -5.76    4.56
   7  10   0   -2.71    2.84
  -7  10  -1   -1.98    2.55
  -7  10   1    3.22    3.24
  -7 -10   1    0.82    3.47
  -7 -10  -1   -2.44    3.51
  -7  10   1   -1.56    3.89
  -7  10  -1   -3.49    4.05
   7  10  -1    1.82    2.94
   7  10   1    1.06    2.29
  -7  10   2  109.58   10.81
   7  10   2  115.80   10.11
  -7 -10   2  100.52   10.71
  -7 -10  -2  103.59   10.88
  -7  10   2   98.02   10.75
  -7  10  -2  107.48   11.43
   7  10  -2  116.05   10.33
  -7  10  -2  111.68   10.58
  -7  10  -3   39.89    6.36
  -7  10   3   45.96    7.37
  -7 -10   3   46.63    7.40
  -7 -10  -3   41.65    7.23
   7  10   3   49.54    7.02
  -7  10   3   46.49    7.70
  -7  10  -3   58.19    8.69
   7  10  -3   41.37    6.66
  -7  10  -4   -0.59    2.30
  -7  10   4   -0.90    2.80
   7  10   4    1.47    3.02
  -7 -10   4   -2.14    3.62
  -7 -10  -4   -0.92    3.47
  -7  10   4    1.86    2.64
  -7  10  -4   -1.27    2.79
   7  10  -4    2.00    3.10
  -7  10  -5    5.51    3.33
  -7  10   5    8.71    4.30
   7  10   5    5.04    3.88
  -7 -10   5    4.38    3.60
  -7 -10  -5    5.88    3.58
  -7  10   5    4.80    3.61
  -7  10  -5   11.75    4.43
   7  10  -5    4.85    3.20
  -7  10   6   91.63   10.49
   7  10   6   90.16    9.84
  -7 -10   6   92.27   10.71
  -7 -10  -6   81.31    9.54
   7  10  -6   88.71    9.80
  -7  10   6   78.58    9.92
  -7  10  -6   81.93   10.28
  -7  10  -6   89.61    9.01
  -7  10   7   88.65   10.50
   7  10   7   74.10    9.10
  -7 -10   7   79.20   10.13
  -7 -10  -7   77.23    9.18
  -7  10   7   70.76    9.61
  -7  10  -7   71.38    9.61
   7  10  -7   79.89    9.40
  -7  10   8   79.72   10.11
   7  10   8   69.52    9.02
  -7 -10   8   63.53    9.32
  -7 -10  -8   54.87    8.08
  -7  10   8   65.80    9.44
  -7  10  -8   66.63    9.32
   7  10  -8   79.60    9.82
  -7  10   9   86.17   10.60
  -7 -10  -9   73.94    9.02
   7  10   9   80.37   10.08
  -7 -10   9   71.99    9.78
   7  10  -9   94.16   10.66
  -7  10   9   79.62   10.11
  -7  10  -9   74.75    9.64
  -7  10  10  132.16   13.28
   7  10  10  131.04   12.53
  -7 -10  10  135.42   13.20
  -7 -10 -10  111.43   10.86
  -7  10  10  123.40   12.41
  -7  10 -10  125.16   12.68
   7  10 -10  127.10   12.46
  -7  10  11    3.15    4.20
   7  10  11    3.49    3.88
  -7 -10  11    7.51    4.21
  -7 -10 -11   -1.75    2.87
   7  10 -11   -1.11    3.17
  -7  10  11   -2.15    2.56
  -7  10 -11   -4.66    3.31
  -7 -10 -11    1.20    2.97
   7  10  12  130.26   13.02
  -7  10  12  129.02   12.55
  -7  10 -12  123.87   12.59
   7  10 -12  143.12   13.32
  -7 -10 -12  131.35   12.13
   7  10 -13   23.57    6.20
  -7  10  13   23.71    5.96
  -7  10 -13   29.37    6.58
  -7  10  14    4.45    3.42
  -7  10 -14   -2.32    3.46
  -7  10  15   19.51    5.26
  -7  10 -15   16.61    4.89
  -7  11   0    2.40    3.06
  -7 -11   0   -3.22    4.08
  -7  11   0   -0.23    2.56
   7  11   0    1.75    2.56
  -7  11  -1    5.84    3.27
  -7  11   1    3.92    3.23
  -7 -11   1    8.20    4.37
  -7 -11  -1   -0.48    2.79
  -7  11   1    7.10    3.63
  -7  11  -1    4.78    3.09
   7  11  -1    2.15    2.85
  -7  11  -2   10.60    4.03
  -7  11   2    7.02    3.42
  -7 -11   2   10.94    4.76
  -7 -11  -2   16.05    4.89
  -7  11   2    9.55    4.15
  -7  11  -2    5.43    3.55
   7  11  -2   11.21    4.02
  -7  11  -3    7.10    3.36
  -7  11   3    5.65    3.63
  -7 -11   3    7.91    3.38
  -7 -11  -3    5.82    3.56
  -7  11   3    5.30    3.28
  -7  11  -3    9.18    3.94
   7  11  -3   10.40    3.80
  -7  11  -4   15.69    4.52
  -7  11   4   10.19    4.14
  -7 -11   4    6.50    3.21
  -7 -11  -4    6.52    4.35
  -7  11   4   11.14    5.03
  -7  11  -4   16.92    5.48
   7  11   4    9.90    3.69
   7  11  -4    7.79    3.38
  -7  11  -5   30.71    5.80
  -7  11   5   23.11    6.01
  -7 -11   5   21.65    5.82
  -7 -11  -5   23.14    5.61
   7  11   5   23.24    5.61
  -7  11   5   18.78    5.42
  -7  11  -5   24.88    6.06
   7  11  -5   19.25    5.11
  -7  11   6    1.13    3.81
  -7 -11   6   -0.99    3.63
  -7 -11  -6   -1.44    3.56
   7  11   6   -2.80    3.73
  -7  11   6    4.55    3.87
  -7  11  -6   -2.89    3.86
   7  11  -6    2.67    3.02
  -7  11   7    4.90    3.78
  -7 -11  -7    1.97    3.40
   7  11   7   -1.10    4.09
  -7  11   7   -0.41    2.94
  -7  11  -7   -2.09    3.58
   7  11  -7    5.07    3.33
  -7  11   8    4.34    3.40
  -7 -11  -8    2.86    3.08
   7  11   8   -1.66    4.03
  -7  11   8    8.56    4.75
  -7  11  -8   -3.26    4.18
   7  11  -8    2.34    2.71
  -7 -11  -9    3.40    3.63
   7  11   9   -0.23    3.20
  -7  11   9    2.20    2.86
  -7  11  -9    1.00    2.67
   7  11  -9    5.06    3.21
  -7 -11 -10   -2.55    3.26
   7  11  10   -1.61    3.83
  -7  11  10    1.17    2.84
  -7 -11 -10    1.36    3.35
   7  11 -10   -4.95    3.61
  -7 -11 -11    2.37    2.73
  -7  11  11    2.22    3.29
  -7 -11 -11    8.80    4.39
  -7 -11 -12   -0.05    3.23
  -7  12   0   -5.31    4.11
  -7  12  -1    2.26    3.15
  -7  12   1    1.79    2.86
  -7  12  -2   76.30    9.64
  -7  12   2   63.11    9.02
   7  12  -2   61.42    8.52
  -7  12   3   80.96   10.41
   7  12  -3   82.30   10.00
  -7  12  -3   83.73    9.84
  -7  12  -4    4.53    3.46
  -7  12   4    5.47    3.57
   7  12  -4   -0.96    2.58
   7  12  -5   -5.07    3.84
   7  12  -6   21.76    5.81
  -7 -12  -7    1.69    3.20
   7  12  -7    0.24    3.86
   7  12   7   -0.59    3.42
  -7 -12  -8   73.73    9.82
   7  12   8   78.23   10.21
  -7 -12  -9   98.10   11.21
  -7 -12 -10   20.47    5.25
   7  13  -3    1.88    2.51
  -7  13  -4    1.68    3.21
  -8   0   0  977.73   28.20
   8   0   0  965.50   21.37
  -8   0  -1   16.31    5.37
  -8   0   1    9.18    4.70
   8   0   1    1.51    1.68
   8   0  -1   -0.54    1.89
   8   0   1   11.93    4.94
  -8   0  -2  120.44   10.12
  -8   0   2  108.35    9.72
   8   0   2  116.30   10.16
   8   0  -2  101.15    7.71
  -8   0  -3   -0.86    2.41
  -8   0   3   -0.09    2.34
   8   0  -3    0.81    2.00
   8   0   3    6.25    4.22
  -8   0  -4   99.98    9.22
  -8   0   4   91.42    8.72
  -8   0  -4   94.78    8.73
   8   0  -4   86.02    7.33
   8   0   4   83.96    8.89
  -8   0  -5   -2.75    3.05
  -8   0   5    0.22    2.54
  -8   0  -5   -3.38    3.11
   8   0   5   -2.54    3.61
   8   0  -5    2.83    2.70
  -8   0  -6  111.69    9.75
  -8   0   6  110.62    9.47
  -8   0  -6  116.71   10.14
   8   0  -6  109.35    8.79
   8   0   6  109.44    9.75
  -8   0  -7   -0.36    2.30
  -8   0   7   -1.96    2.69
  -8   0  -7   -0.45    2.49
   8   0   7   -3.00    3.11
   8   0  -7   -5.92    3.93
  -8   0  -8   15.28    4.55
  -8   0  -8   19.20    4.35
  -8   0   8   24.37    4.84
   8   0  -8   25.24    4.54
  -8   0  -9   10.11    4.91
  -8   0  -9    0.77    3.35
  -8   0   9    6.69    3.92
   8   0  -9    2.69    3.04
  -8   0 -10  726.11   24.62
  -8   0  10  710.64   24.27
  -8   0 -10  695.36   25.48
   8   0 -10  684.84   24.02
  -8   0 -11   10.98    5.23
   8   0 -11    8.85    4.92
  -8   0 -11    2.18    3.09
  -8   0  11    1.32    2.44
  -8   0 -12   16.62    5.14
   8   0 -12   12.50    3.56
  -8   0 -12    9.33    3.54
  -8   0  12   12.06    3.85
  -8   0 -13    1.14    3.28
   8   0 -13   -0.17    2.80
  -8   0 -13    2.12    2.47
  -8   0  13    5.28    2.98
   8   0  14  222.57   14.70
  -8   0 -14  213.39   13.66
  -8   0  14  220.37   13.73
  -8   0 -14  242.84   16.27
   8   0 -14  240.39   15.81
   8   0  15   13.09    5.77
  -8   0 -15    6.01    4.56
   8   0 -15    4.85    4.11
  -8   0 -15    5.75    3.30
  -8   0  15    0.93    2.45
   8   0  16   51.10    8.04
  -8   0 -16   45.18    7.92
   8   0 -16   41.32    7.47
  -8   0 -16   48.87    6.79
  -8   0  16   41.05    6.16
   8   0  17    2.55    3.72
  -8   0 -17    1.87    3.83
   8   0 -17    5.64    4.45
  -8   0 -17   -2.07    2.91
   8   0  18   50.76    8.09
  -8   0 -18   53.10    8.83
   8   0 -18   48.15    8.21
   8   0  19    3.50    4.16
   8   0 -19   -2.38    3.06
   8   0  20   69.20    9.86
   8   0 -20   38.30    7.70
   8   0  21   10.02    5.55
  -8  -1   0  486.82   20.26
  -8  -1   0  499.29   18.35
   8   1   0  500.43   15.17
   8   1   0  521.01   20.40
  -8   1   0  493.08   20.17
  -8  -1  -1  407.95   18.45
  -8  -1   1  415.65   18.51
  -8  -1  -1  388.09   16.16
   8  -1  -1  383.17   14.38
   8   1   1  383.87   12.69
   8   1  -1  370.80   13.58
   8   1  -1  395.44   17.67
   8   1   1  408.46   18.54
  -8   1  -1  387.07   18.01
  -8   1   1  379.58   17.76
  -8   1  -2    0.47    2.55
  -8   1   2    4.90    3.43
   8  -1  -2   -0.44    1.91
   8   1   2    1.06    1.39
  -8  -1  -2    1.01    2.60
   8   1  -2    1.79    1.94
  -8  -1  -2    8.79    4.05
  -8  -1   2    2.86    3.49
   8   1  -2    4.42    3.77
   8   1   2    4.50    3.57
  -8   1  -3   38.48    6.16
  -8   1   3   36.06    5.94
   8   1   3   34.68    3.52
  -8  -1  -3   36.57    5.56
   8  -1  -3   34.55    4.90
   8   1  -3   37.00    5.03
  -8  -1  -3   31.09    5.46
  -8  -1   3   46.71    6.72
   8   1  -3   41.48    6.00
   8   1   3   33.68    5.67
  -8  -1  -4  309.52   16.10
  -8  -1   4  327.71   16.60
  -8  -1  -4  339.56   15.93
   8  -1  -4  316.75   14.38
   8   1  -4  337.24   14.35
   8   1  -4  310.22   15.33
   8   1   4  310.75   16.46
  -8   1  -4  317.66   16.14
  -8   1   4  319.60   16.26
  -8   1  -5    6.72    2.75
  -8   1   5    7.66    3.25
  -8  -1  -5    6.87    3.08
   8  -1  -5    7.15    2.85
   8   1  -5    8.12    3.22
  -8  -1  -5    9.05    3.96
  -8  -1   5    6.83    3.48
   8   1  -5    8.50    3.00
   8   1   5    6.40    3.40
  -8  -1  -6  130.81   10.55
  -8  -1   6  134.24   10.70
  -8  -1  -6  133.86   10.67
  -8   1  -6  154.03   11.65
   8  -1  -6  131.50    9.84
   8   1  -6  132.16    9.65
   8   1  -6  135.31   10.05
   8   1   6  131.65   10.82
  -8   1  -6  139.53   10.78
  -8   1   6  129.64   10.48
  -8  -1  -7   94.53    9.30
  -8  -1   7  104.82    9.57
  -8  -1  -7   93.94    9.34
  -8   1  -7   92.21    9.47
   8  -1  -7   96.14    8.73
   8   1  -7   99.75    8.76
   8   1  -7   98.40    8.67
   8   1   7  103.55   10.00
  -8   1  -7   97.42    9.17
  -8   1   7   94.94    8.98
  -8  -1  -8  111.71    9.86
  -8  -1   8  111.59    9.80
  -8  -1  -8  106.90    9.93
  -8   1  -8  118.01   10.53
   8  -1  -8   99.62    8.88
   8   1  -8   90.37    8.60
   8   1   8   97.85    9.63
  -8   1  -8   91.37    8.91
  -8   1   8  115.07    9.95
  -8   1  -9   33.47    5.88
  -8   1   9   36.79    6.12
  -8  -1  -9   38.54    6.45
  -8   1  -9   32.10    5.75
   8  -1  -9   39.71    5.98
   8   1  -9   31.19    5.61
   8   1   9   36.35    6.44
  -8  -1  -9   33.76    5.74
  -8  -1   9   32.67    5.46
  -8   1 -10   46.76    6.70
  -8   1  10   44.28    6.50
  -8  -1 -10   53.43    7.57
  -8   1 -10   46.76    6.91
   8  -1 -10   40.88    6.31
   8   1 -10   49.15    6.83
   8   1  10   43.41    6.88
  -8  -1 -10   40.77    6.51
  -8  -1  10   41.79    6.16
  -8   1 -11   27.64    5.70
  -8   1  11   23.06    5.32
  -8  -1 -11   24.10    6.04
  -8   1 -11   22.34    5.86
   8  -1 -11   22.34    5.76
   8   1 -11   34.82    6.57
   8   1  11   33.67    6.94
  -8  -1 -11   24.60    5.27
  -8  -1  11   17.16    4.69
  -8   1 -12  377.13   17.93
  -8   1  12  367.77   17.75
  -8  -1 -12  371.63   18.07
  -8  -1  12  367.75   17.63
  -8  -1 -12  383.83   19.46
  -8   1 -12  383.37   19.98
   8  -1 -12  402.00   19.51
   8   1 -12  418.17   19.60
   8   1  12  387.55   19.44
   8   1  13   14.07    4.76
  -8  -1 -13    4.57    3.86
  -8   1 -13    4.58    3.62
  -8   1 -13    7.20    2.99
  -8   1  13    4.78    3.28
   8  -1 -13   12.75    4.82
   8   1 -13   11.48    4.42
   8   1  13    7.30    4.34
  -8  -1 -13    4.39    2.91
  -8  -1  13    9.63    3.57
   8   1  14  119.67   10.72
  -8   1 -14  100.67    9.41
  -8   1  14   91.69    8.95
  -8  -1 -14  100.69    9.53
  -8  -1  14   97.47    9.24
  -8  -1 -14  105.94   11.03
  -8   1 -14  100.83   10.74
   8  -1 -14  104.54   10.61
   8   1 -14  115.86   11.18
   8   1  14   95.87   10.29
   8   1  15  143.76   12.09
  -8   1 -15  138.30   11.06
  -8   1  15  122.34   10.39
  -8  -1 -15  135.62   10.98
  -8  -1  15  135.21   10.75
  -8  -1 -15  136.10   12.73
  -8   1 -15  147.10   13.16
   8  -1 -15  146.64   12.83
   8   1 -15  145.57   12.72
  -8   1 -16   68.38    7.68
   8   1  16   70.28    8.97
   8  -1  16   55.84    8.39
  -8   1 -16   55.66    8.60
   8  -1 -16   69.93    9.46
   8   1 -16   66.11    9.10
  -8   1  16   56.09    6.97
  -8  -1 -16   61.20    7.37
  -8  -1  16   56.56    6.99
   8   1  17   50.28    8.02
   8  -1  17   61.51    9.09
  -8   1 -17   68.36    9.68
   8  -1 -17   63.63    9.31
   8   1 -17   69.05    9.82
  -8   1 -17   53.11    7.20
  -8  -1 -17   54.89    7.15
   8   1  18  549.09   24.30
   8  -1  18  569.42   25.41
  -8   1 -18  605.94   27.21
   8  -1 -18  571.77   26.56
   8   1 -18  561.36   25.98
   8   1  19   14.43    6.10
   8  -1  19   28.78    7.68
  -8   1 -19    5.16    4.95
   8  -1 -19    9.20    5.46
   8   1 -19   19.53    6.62
   8   1  20    4.96    4.62
   8  -1  20   14.15    6.28
  -8   1 -20    1.68    4.37
   8  -1 -20    2.13    3.48
   8   1 -20    8.55    5.13
   8   1  21   54.61    9.04
   8  -1  21   63.26    9.77
   8   1  22  141.55   13.63
  -8   2   0   63.47    7.75
  -8  -2   0   61.43    6.67
   8   2   0   66.67    5.68
   8   2   0   70.65    7.88
  -8  -2   0   64.49    7.69
  -8  -2  -1  134.73   10.81
  -8  -2   1  143.63   11.09
  -8  -2  -1  140.41    9.64
  -8  -2   1  149.84    9.64
   8   2   1  141.25    7.67
   8   2  -1  138.02    8.45
   8   2  -1  143.60   10.66
   8   2   1  156.66   11.49
  -8   2  -1  142.63   11.08
  -8   2   1  142.68   11.22
  -8   2  -2   16.33    4.24
  -8   2   2   19.85    5.04
  -8  -2  -2   13.19    3.62
  -8  -2   2   15.17    3.55
   8   2   2   18.18    2.81
   8   2  -2   19.55    3.84
   8   2  -2   17.70    4.63
   8   2   2   15.35    4.31
  -8  -2  -2   18.69    4.61
  -8  -2   2   18.76    4.72
  -8   2  -3  373.03   12.69
  -8  -2  -3  388.74   17.99
  -8  -2   3  380.97   17.92
  -8  -2  -3  383.70   16.48
  -8  -2   3  382.05   14.63
   8  -2  -3  388.41   15.74
   8   2  -3  379.83   14.77
   8   2  -3  368.53   17.10
   8   2   3  370.88   17.81
  -8   2  -3  367.08   17.40
  -8   2   3  380.48   17.64
  -8   2  -4   24.86    3.24
  -8   2  -4   29.74    5.68
  -8   2   4   22.19    5.25
  -8  -2  -4   22.69    4.66
   8  -2  -4   28.80    4.74
  -8  -2   4   24.62    4.35
   8   2  -4   29.79    4.55
   8   2  -4   28.44    5.08
   8   2   4   25.43    5.47
  -8  -2  -4   22.19    4.72
  -8  -2   4   39.97    6.32
  -8   2  -5   25.67    5.05
  -8   2   5   27.75    5.10
  -8  -2  -5   28.62    5.12
   8  -2  -5   30.08    4.91
  -8  -2   5   27.23    4.06
   8   2  -5   24.35    4.47
   8   2  -5   36.84    5.68
   8   2   5   34.01    6.10
  -8  -2  -5   38.09    6.19
  -8  -2   5   22.73    5.05
  -8  -2  -6  110.26    9.80
  -8  -2   6  110.11    9.81
  -8  -2  -6   97.73    9.33
  -8  -2   6  100.27    7.27
   8  -2  -6  100.08    9.01
   8   2  -6  104.15    8.69
   8   2  -6  100.21    8.94
   8   2   6  110.66   10.29
  -8   2  -6  102.59    9.43
  -8   2   6  110.63   10.07
  -8  -2  -7  595.75   22.53
  -8  -2   7  591.83   22.32
  -8  -2  -7  616.05   22.37
   8  -2  -7  603.07   21.65
   8   2  -7  607.57   21.23
   8   2  -7  590.25   20.81
   8   2   7  645.33   24.16
  -8   2  -7  563.72   21.79
  -8   2   7  586.22   22.25
  -8   2  -8   23.88    5.48
  -8   2   8   22.86    5.20
  -8  -2  -8   21.15    5.36
   8  -2  -8   22.68    5.38
   8   2  -8   23.54    5.12
   8   2  -8   20.29    4.54
   8   2   8   23.55    5.95
  -8  -2  -8   21.14    5.03
  -8  -2   8   18.02    5.10
  -8   2  -9   13.94    4.05
  -8   2   9   12.22    3.90
  -8  -2  -9    7.42    2.93
   8  -2  -9    9.64    3.56
  -8   2  -9   15.00    4.05
   8   2  -9   14.56    4.36
   8   2  -9   14.64    3.68
   8   2   9   17.44    4.89
  -8  -2  -9   15.01    4.37
  -8  -2   9    8.67    3.39
  -8   2 -10    3.75    3.37
  -8   2  10    3.68    3.32
  -8  -2 -10    1.53    2.97
  -8   2 -10    0.28    3.10
   8  -2 -10    2.21    2.90
   8   2 -10    5.49    3.77
   8   2 -10    1.66    2.63
   8   2  10    7.00    4.36
  -8  -2 -10    1.57    2.57
  -8  -2  10    2.17    2.86
  -8  -2 -11  151.61   11.49
  -8  -2  11  138.05   10.95
  -8  -2 -11  174.19   12.86
  -8   2 -11  170.61   13.17
   8  -2 -11  156.42   12.18
   8   2 -11  168.97   12.42
   8   2 -11  171.16   10.95
   8   2  11  155.15   12.49
  -8   2 -11  171.92   12.25
  -8   2  11  157.55   11.75
   8   2  12   68.55    8.09
  -8   2 -12   60.69    7.49
  -8  -2 -12   55.16    7.67
  -8   2 -12   62.33    8.30
   8  -2 -12   68.97    8.47
   8   2 -12   66.71    8.33
   8   2  12   66.40    8.18
  -8  -2 -12   64.76    7.62
  -8  -2  12   59.75    7.48
  -8   2  12   64.38    7.80
   8   2  13   47.63    7.09
  -8   2 -13   43.28    6.49
  -8   2  13   32.59    5.70
  -8   2 -13   30.31    6.20
   8  -2 -13   20.31    5.01
   8   2 -13   29.33    5.80
   8   2  13   43.82    7.34
  -8  -2 -13   30.58    5.47
  -8  -2  13   29.49    5.33
   8   2  14   40.79    6.48
  -8   2 -14   37.41    6.12
  -8   2  14   34.09    5.63
  -8   2 -14   39.69    7.28
   8  -2 -14   46.00    7.61
   8   2 -14   36.99    6.57
   8   2  14   39.49    6.84
  -8  -2 -14   27.66    4.94
  -8  -2  14   38.15    6.89
   8   2  15   10.44    4.39
  -8   2 -15    4.38    2.49
  -8   2  15    4.38    3.07
  -8   2 -15    6.17    3.86
   8  -2 -15    9.45    4.68
   8   2 -15    7.11    3.73
   8   2  15    9.50    4.25
  -8  -2 -15    6.83    3.03
  -8  -2  15    5.86    2.96
   8   2  16    6.86    4.24
  -8   2 -16    0.59    3.67
  -8   2 -16    5.19    2.90
  -8   2  16    3.50    2.80
   8  -2 -16    2.25    3.41
   8   2 -16    8.71    4.02
   8   2  16    4.98    3.52
  -8  -2 -16    5.42    2.94
  -8  -2  16    2.40    2.14
   8   2  17   -0.25    3.18
  -8   2 -17    0.15    3.59
  -8   2 -17    0.55    2.01
   8  -2 -17   -4.20    3.84
   8   2 -17    2.78    3.72
   8   2  17   -0.13    2.84
   8   2  18    9.49    4.69
   8  -2  18   18.99    6.37
  -8   2 -18    5.42    3.97
   8  -2 -18    5.93    4.19
   8   2  18    7.15    4.09
   8   2 -18   12.84    5.60
   8   2  19   72.65    9.33
   8  -2  19   86.80   11.01
  -8   2 -19   79.85   10.69
   8  -2 -19   68.88    9.72
   8   2  19   79.52   10.04
   8   2 -19   60.32    9.48
   8   2  20   44.55    8.01
   8  -2  20   42.21    8.38
  -8   2 -20   39.79    7.89
   8  -2 -20   31.96    7.10
   8   2 -20   38.03    7.89
   8   2  21  201.37   15.59
   8   2  22   -3.49    3.30
  -8   3   0   42.82    6.47
  -8   3   0   51.47    5.60
  -8  -3   0   47.90    5.54
   8   3   0   49.27    4.86
   8   3   0   45.21    6.36
  -8  -3   0   42.38    6.23
  -8   3  -1   51.54    6.71
  -8   3   1   45.25    6.49
  -8   3  -1   53.97    5.44
  -8  -3   1   55.44    5.97
  -8  -3  -1   54.20    5.99
   8   3   1   53.89    4.92
   8   3  -1   57.06    5.64
   8   3  -1   52.40    6.86
   8   3   1   54.21    6.97
  -8  -3  -1   58.75    7.26
  -8  -3   1   48.42    6.55
  -8   3  -2   22.30    4.68
  -8   3   2   21.85    4.72
  -8   3  -2   20.83    3.34
  -8  -3  -2   20.15    3.90
  -8  -3   2   19.91    3.73
   8   3   2   25.28    3.12
   8   3  -2   21.08    3.66
   8   3  -2   23.77    5.03
   8   3   2   18.63    4.35
  -8  -3  -2   20.52    4.80
  -8  -3   2   24.54    5.40
  -8   3  -3  148.03    8.34
  -8  -3  -3  144.70   11.50
  -8  -3   3  137.29   11.17
  -8  -3  -3  136.65    9.77
  -8  -3   3  130.89    8.46
   8   3  -3  145.00    9.39
   8   3  -3  132.18   10.64
   8   3   3  136.81   11.05
  -8   3  -3  155.64   11.74
  -8   3   3  144.61   11.19
  -8   3  -4  101.64    6.61
  -8  -3  -4  116.48   10.28
  -8  -3   4   96.41    9.40
  -8  -3  -4   94.91    8.55
  -8  -3   4  112.08    7.67
   8   3  -4  118.27    8.74
   8   3  -4  101.61    8.95
   8   3   4  108.18   10.20
  -8   3  -4   99.12    9.41
  -8   3   4   94.47    9.16
  -8   3  -5   37.22    6.00
  -8   3   5   26.33    5.42
  -8  -3  -5   29.68    5.06
  -8  -3   5   32.82    4.19
   8   3  -5   33.55    5.39
   8   3  -5   29.37    5.25
   8   3   5   43.30    7.02
  -8  -3  -5   37.38    6.12
  -8  -3   5   26.00    5.15
  -8  -3  -6  367.62   17.16
  -8  -3  -6  365.99   17.70
  -8  -3   6  345.58   17.27
  -8  -3   6  356.32   12.56
   8  -3  -6  370.09   16.93
   8   3  -6  354.71   15.91
   8   3  -6  357.36   16.48
   8   3   6  353.09   17.98
  -8   3  -6  349.81   17.49
  -8   3   6  354.90   17.49
  -8  -3  -7  141.72   11.04
  -8  -3  -7  154.40   11.93
  -8  -3   7  141.46   11.34
   8  -3  -7  147.43   11.15
   8   3  -7  150.87   10.75
   8   3  -7  146.78   10.68
   8   3   7  149.51   12.00
  -8   3  -7  137.60   11.16
  -8   3   7  140.05   11.19
  -8  -3  -8  167.26   12.19
  -8  -3  -8  177.19   12.54
  -8  -3   8  160.94   12.02
   8  -3  -8  177.81   12.50
   8   3  -8  187.92   12.30
   8   3  -8  178.39   11.62
   8   3   8  188.99   13.60
  -8   3  -8  176.74   12.63
  -8   3   8  154.31   11.80
  -8   3  -9   10.49    4.41
  -8   3   9    1.72    3.16
   8  -3  -9    3.48    3.42
   8   3  -9    4.69    3.48
   8   3  -9    2.71    2.51
   8   3   9    2.09    2.66
  -8  -3  -9    2.94    3.08
  -8  -3   9    2.84    2.61
  -8   3 -10   13.02    4.42
  -8   3  10   11.69    4.37
   8  -3 -10    6.89    3.03
  -8   3 -10   -1.77    4.14
   8   3 -10   -1.41    3.07
   8   3 -10    9.81    3.42
   8   3  10    7.13    4.18
  -8  -3 -10    2.20    3.00
  -8  -3  10    6.83    3.38
  -8   3 -11  141.09   12.38
   8  -3 -11  150.39   12.06
  -8  -3 -11  159.03   11.80
  -8  -3  11  134.21   11.03
   8   3 -11  160.22   12.21
   8   3 -11  151.41   10.33
   8   3  11  174.63   13.34
  -8   3 -11  142.61   11.24
  -8   3  11  144.63   11.33
  -8   3 -12   -1.19    2.23
  -8   3  12    2.15    2.63
   8   3  12    9.10    3.73
   8  -3 -12   -2.05    3.73
  -8   3 -12    2.01    3.28
   8   3 -12    0.49    3.29
   8   3 -12    2.41    2.27
   8   3  12   -2.99    4.08
  -8  -3 -12   -4.69    3.24
  -8  -3  12    1.03    2.31
  -8   3 -13   13.20    3.86
  -8   3  13   24.22    4.86
   8   3  13   24.60    5.28
  -8   3 -13   10.29    3.97
   8  -3 -13   20.92    5.11
   8   3 -13   13.82    4.32
   8   3 -13   23.68    4.17
   8   3  13   18.17    4.49
  -8   3 -14   17.80    4.48
  -8   3  14   20.22    4.59
   8   3  14   25.07    5.05
  -8   3 -14   16.30    4.65
   8  -3 -14   23.00    5.53
   8   3 -14   17.87    4.87
   8   3  14   18.44    4.54
  -8   3 -15   53.45    7.07
  -8   3  15   47.38    6.70
   8   3  15   58.60    7.94
  -8   3 -15   50.53    7.95
   8  -3 -15   57.36    8.56
   8   3 -15   46.92    7.52
   8   3  15   45.35    7.30
   8   3  16   39.97    6.57
  -8   3 -16   36.30    6.10
  -8   3  16   35.65    5.75
  -8   3 -16   36.00    7.30
   8  -3 -16   36.60    7.08
   8   3 -16   43.64    7.77
   8   3  16   35.23    6.92
   8   3  17  136.58   11.74
  -8   3 -17  144.94   13.59
   8  -3 -17  135.09   13.24
   8   3 -17  130.21   12.60
   8   3  17  136.20   12.53
  -8   3 -17  130.54   10.87
   8   3  18   10.47    5.02
  -8   3 -18   10.98    6.18
   8  -3 -18   10.18    5.52
   8   3 -18    6.06    4.62
   8   3  18   13.66    5.30
   8   3  19  185.34   14.57
  -8   3 -19  195.49   16.01
   8  -3 -19  194.97   16.08
   8   3 -19  206.65   16.46
   8   3  19  197.93   15.23
   8   3  20    4.64    4.10
   8   3  20    6.75    4.35
   8   3  21  110.59   11.98
   8   3  21  104.48   11.35
   8   3  22   40.63    7.70
  -8   4   0   16.87    4.78
  -8   4   0   21.07    3.96
  -8  -4   0   22.21    4.89
  -8  -4   0   26.66    4.35
   8   4   0   27.62    3.97
   8   4   0   20.55    4.86
  -8  -4   0   32.47    5.95
  -8   4  -1   58.00    7.94
  -8   4   1   67.72    8.38
  -8   4  -1   68.95    6.48
  -8   4   1   61.36    6.33
  -8  -4  -1   59.62    7.54
  -8  -4   1   67.17    8.02
  -8  -4  -1   62.89    6.49
  -8  -4   1   63.60    6.24
  -8  -4   1   73.39    8.64
   8   4   1   69.16    5.72
   8   4  -1   62.28    6.19
   8   4  -1   69.94    7.98
   8   4   1   66.23    8.06
  -8  -4  -1   68.12    8.23
  -8   4  -2  243.13   11.58
  -8   4   2  225.67   12.57
  -8  -4  -2  213.43   13.50
  -8  -4   2  220.38   14.05
  -8  -4   2  236.98   11.27
  -8  -4  -2  225.96   14.47
  -8  -4   2  234.94   14.52
   8   4  -2  234.91   11.75
   8   4  -2  237.58   14.23
   8   4   2  237.45   14.58
  -8   4   2  234.51   14.50
  -8   4  -2  247.07   15.02
  -8   4  -3   -0.47    2.36
  -8   4   3    6.93    3.82
  -8   4  -3    0.09    1.63
  -8   4   3   -2.44    2.49
  -8  -4  -3    9.56    4.28
  -8  -4   3    5.74    4.14
  -8  -4   3    2.24    2.18
   8   4  -3    2.42    2.22
   8   4  -3    1.22    2.85
   8   4   3   10.55    4.84
  -8  -4  -3    2.63    3.16
  -8  -4   3    2.46    2.85
  -8   4  -4   32.01    6.19
  -8   4   4   37.34    6.72
  -8   4  -4   36.62    4.50
  -8  -4  -4   37.33    6.41
  -8  -4   4   38.07    6.80
  -8  -4   4   30.00    3.84
   8   4  -4   38.89    5.50
   8   4  -4   35.25    6.02
   8   4   4   47.11    7.25
  -8  -4  -4   36.09    6.57
  -8  -4   4   47.17    7.40
  -8  -4  -5  291.68   15.54
  -8  -4   5  305.07   17.21
   8   4  -5  292.54   14.32
   8   4  -5  295.75   15.60
   8   4   5  298.44   16.74
  -8   4  -5  300.41   16.61
  -8   4   5  303.13   16.49
  -8  -4  -5  326.27   17.27
  -8  -4   5  308.70   16.79
  -8  -4  -6   83.36    8.33
  -8  -4   6   79.83    9.14
   8   4  -6   89.91    8.36
   8   4  -6   89.35    8.77
   8   4   6   86.31    9.43
  -8   4  -6   75.75    8.61
  -8   4   6   84.61    8.94
  -8  -4   7  100.10    9.96
   8   4  -7   85.41    8.30
   8   4  -7   87.49    8.37
   8   4   7   98.35   10.10
  -8   4  -7  102.86    9.95
  -8   4   7  103.43    9.91
  -8  -4   8  168.56   13.02
   8   4  -8  170.78   11.87
   8   4  -8  185.48   11.93
   8   4   8  185.18   13.39
  -8   4  -8  176.54   12.76
  -8   4   8  174.52   12.68
  -8   4  -9   34.98    6.08
  -8   4   9   35.22    6.29
  -8  -4   9   37.10    6.77
   8   4  -9   40.00    6.37
   8   4  -9   42.88    5.89
   8   4   9   37.90    6.30
  -8   4 -10   44.87    6.75
  -8   4  10   42.85    6.69
  -8  -4  10   46.16    7.34
   8  -4 -10   40.51    6.42
   8   4 -10   48.63    7.10
   8   4 -10   46.99    6.20
   8   4  10   53.25    7.70
  -8   4 -11   31.16    5.59
  -8   4  11   35.05    6.02
  -8  -4  11   30.68    5.88
   8   4  11   50.30    6.28
   8  -4 -11   29.54    5.84
   8   4 -11   39.01    6.45
   8   4 -11   36.94    5.42
   8   4  11   43.17    6.97
  -8   4 -12    7.34    3.14
  -8   4  12    6.74    3.03
   8   4  12   12.62    3.78
   8  -4 -12   11.06    3.86
  -8   4 -12    9.57    4.11
   8   4 -12   13.66    4.17
   8   4 -12    9.34    2.93
   8   4  12    3.91    2.76
  -8   4 -13    4.42    2.76
  -8   4  13    2.92    2.63
   8   4  13   11.05    3.71
   8  -4 -13    0.92    3.12
  -8   4 -13    0.09    3.19
   8   4 -13    3.31    2.71
   8   4  13    5.29    2.90
  -8   4 -14   12.15    3.70
  -8   4  14   12.24    3.97
   8   4  14   10.73    4.21
   8  -4 -14   12.80    4.22
  -8   4 -14    7.27    4.04
   8   4 -14   11.45    3.96
   8   4  14    9.43    3.59
  -8   4 -15   36.71    6.05
  -8   4  15   27.55    5.43
   8   4  15   39.69    6.24
   8  -4 -15   28.63    6.09
  -8   4 -15   37.05    7.03
   8   4 -15   35.81    6.56
   8   4  15   32.16    6.25
  -8   4 -16   -0.62    2.11
  -8   4  16   -0.72    2.51
   8   4  16   -0.71    2.81
  -8   4 -16    3.72    3.24
   8  -4 -16    4.88    4.08
   8   4 -16   -3.65    3.88
   8   4  16    0.38    2.64
  -8   4 -17   40.80    6.36
   8   4  17   51.24    7.47
  -8   4 -17   45.08    7.71
   8  -4 -17   46.48    8.32
   8   4 -17   35.67    7.09
   8   4  17   38.66    7.38
   8   4  18   98.30   10.16
  -8   4 -18   77.52   10.31
   8  -4 -18   74.18   10.33
   8   4 -18   83.78   10.87
   8   4  18   81.36   10.18
   8   4  19   62.38    8.34
  -8   4 -19   62.29    9.62
   8   4 -19   51.18    8.57
   8   4  19   60.03    8.56
   8   4  20   27.21    6.28
   8   4  20   27.17    6.57
   8   4  21    0.41    3.33
   8   4  21   -1.39    3.13
   8   4  22    4.53    3.05
  -8   5   0 1332.07   29.72
  -8  -5   0 1405.69   35.45
   8   5   0 1352.46   26.92
  -8   5   0 1378.45   35.94
  -8   5  -1   58.13    6.54
  -8   5   1   63.05    7.19
  -8  -5  -1   84.38    9.67
  -8  -5   1   81.72    9.75
   8   5   1   63.09    6.10
   8   5  -1   67.78    6.70
  -8   5   1   91.88   10.31
  -8   5  -1   98.03   10.39
  -8   5  -2   10.86    3.07
  -8   5   2    0.90    2.54
  -8  -5  -2    9.98    3.71
  -8  -5   2   13.32    4.73
   8   5  -2   10.88    3.24
  -8   5   2    8.84    4.54
  -8   5  -2   14.06    4.94
  -8   5  -3  103.41    7.94
  -8   5   3  100.76    8.83
  -8  -5  -3  110.81   10.09
  -8  -5   3   98.76    9.73
   8   5  -3  106.39    8.55
  -8   5   3  100.59   10.06
  -8   5  -3  109.33   10.48
  -8   5  -4   96.84    7.29
  -8   5   4   90.45    8.57
  -8  -5  -4   95.47    9.30
  -8  -5   4   93.54    9.66
   8   5  -4   90.49    8.10
  -8   5   4  101.33   10.05
  -8   5  -4  101.10   10.06
  -8   5   5   86.53    8.66
  -8  -5  -5   85.16    8.74
  -8  -5   5   99.72   10.14
   8   5  -5  101.75    8.99
   8   5  -5   96.82    9.34
   8   5   5   96.14    9.90
  -8   5   5   84.45    9.11
  -8   5  -5  100.81   10.07
  -8   5   6  172.03   12.30
  -8  -5  -6  163.37   11.93
  -8  -5   6  174.28   13.21
   8   5  -6  176.23   11.70
   8   5  -6  164.59   12.00
   8   5   6  166.88   13.07
  -8   5  -6  165.62   12.81
  -8   5   6  172.22   12.85
  -8   5   7   91.03    9.27
  -8  -5  -7   93.37    9.04
  -8  -5   7   99.20   10.38
   8   5  -7   86.16    8.67
   8   5  -7   88.85    8.64
   8   5   7   99.81   10.35
  -8   5  -7   94.11    9.86
  -8   5   7   97.46    9.93
  -8   5   8   87.51    9.42
  -8  -5  -8   75.27    8.04
  -8  -5   8   72.42    8.97
   8   5  -8   84.98    8.65
   8   5  -8   79.00    8.22
  -8   5   8   84.06    9.05
  -8   5  -8   80.76    9.02
   8   5   8   78.98    9.47
  -8   5  -9   33.68    5.96
  -8   5   9   33.96    5.95
  -8  -5  -9   28.55    5.02
  -8  -5   9   30.03    6.29
   8   5  -9   33.41    5.94
   8   5  -9   28.45    5.09
   8   5   9   29.01    6.20
  -8  -5 -10   77.88    8.10
  -8  -5  10   77.41    9.44
   8   5 -10   81.01    8.89
   8   5 -10   90.12    8.56
   8   5  10   78.59    9.28
  -8   5 -10   80.86    8.93
  -8   5  10   80.81    8.92
  -8   5 -11   40.53    6.72
  -8   5  11   23.47    5.27
  -8  -5  11   24.36    5.40
   8   5 -11   28.13    5.48
   8   5 -11   30.19    5.09
   8   5  11   27.93    5.71
  -8   5 -12   -0.08    2.31
  -8   5  12    2.90    2.82
  -8  -5  12   -9.32    4.72
   8   5 -12    0.77    3.24
   8   5 -12   -3.25    2.65
   8   5  12    1.04    2.86
  -8   5 -13   13.07    4.11
  -8   5  13   15.80    4.44
  -8  -5  13   18.56    4.92
  -8   5 -13   14.95    5.03
   8   5 -13   12.72    4.46
   8   5  13   11.47    4.63
  -8   5 -14   44.89    6.97
  -8   5  14   55.90    7.35
  -8  -5  14   48.22    7.39
  -8   5 -14   56.69    8.58
   8   5 -14   54.56    8.19
   8   5  14   63.65    8.77
  -8   5 -15    0.56    2.39
  -8   5  15   -3.07    2.50
  -8  -5  15   -4.68    3.78
  -8   5 -15   -2.67    4.64
   8   5 -15    0.67    3.38
   8   5  15   -2.45    3.82
  -8   5 -16    1.08    2.46
  -8   5  16    4.06    2.67
   8  -5 -16   -1.36    4.25
  -8   5 -16   -2.51    4.31
   8   5 -16   -3.69    4.13
   8   5  16   -1.09    2.83
   8  -5 -17   22.35    6.33
  -8   5 -17   17.62    5.86
   8   5 -17   17.76    5.55
   8   5  17   31.71    6.89
   8  -5 -18   93.57   11.61
  -8   5 -18  102.91   11.82
   8   5 -18   83.79   10.57
   8   5  18   78.79    9.98
   8   5  19    2.60    3.51
   8   5  20   24.84    6.20
   8   5  21   10.20    4.76
  -8   6   0    8.59    3.51
  -8  -6   0    9.72    4.27
   8   6   0    4.21    2.41
  -8   6   0    6.13    3.66
  -8   6  -1    7.82    3.69
  -8   6   1    8.12    3.47
  -8  -6  -1   10.33    4.82
  -8  -6   1   19.71    5.91
   8   6  -1    9.73    3.65
  -8   6   1   13.81    5.04
  -8   6  -1   18.01    5.65
  -8   6  -2  583.18   19.79
  -8   6   2  579.87   21.31
  -8  -6  -2  558.50   22.98
  -8  -6   2  626.82   24.55
  -8   6   2  602.32   24.63
  -8   6  -2  580.65   24.15
   8   6  -2  577.71   19.60
  -8   6  -3  194.84   11.22
  -8   6   3  178.78   12.23
  -8  -6  -3  200.60   13.76
  -8  -6   3  205.75   14.63
  -8   6   3  211.53   14.64
  -8   6  -3  207.22   14.55
   8   6  -3  176.53   11.39
  -8   6  -4   10.14    3.08
  -8   6   4   13.70    4.30
  -8  -6  -4   13.27    4.91
  -8  -6   4   11.91    4.63
   8   6  -4    7.13    2.89
  -8   6   4   14.25    4.84
  -8   6  -4   10.68    4.66
  -8   6   5    0.10    2.53
  -8  -6  -5    3.93    3.51
  -8  -6   5    0.55    3.97
   8   6  -5    0.65    2.35
  -8   6   5   -1.12    2.47
  -8   6  -5   -1.19    2.99
  -8   6   6    2.09    3.35
  -8  -6  -6    1.25    2.34
  -8  -6   6   -2.69    4.13
   8   6  -6   -1.66    2.40
  -8   6   6   -5.09    3.72
  -8   6  -6    3.61    3.31
  -8   6   7    1.36    3.07
  -8  -6  -7    7.69    3.26
  -8  -6   7    0.90    3.36
   8   6  -7    7.75    3.73
  -8   6   7    0.39    2.36
  -8   6  -7    3.45    2.83
  -8   6   8    0.52    2.43
  -8  -6  -8   -1.99    3.12
  -8  -6   8   -5.60    4.15
   8   6  -8   -3.98    2.97
  -8   6   8   -1.62    3.19
  -8   6  -8   -3.70    3.35
  -8   6   9   -0.66    2.69
  -8  -6  -9    1.22    2.89
  -8  -6   9    3.46    3.15
   8   6  -9   -1.49    3.18
  -8   6   9    3.89    3.29
  -8   6  -9    6.10    3.61
  -8   6  10   24.37    5.67
  -8  -6 -10   23.33    4.96
  -8  -6  10   16.90    5.02
   8   6 -10   19.73    5.00
   8   6 -10   27.67    5.53
  -8   6  10   30.65    6.04
  -8   6 -10   28.03    5.77
  -8   6  11   24.22    5.77
  -8  -6 -11   19.30    4.53
  -8  -6  11   27.77    6.31
   8   6 -11   28.37    5.73
   8   6 -11   28.17    5.22
   8   6  11   34.47    6.85
  -8   6 -11   30.44    5.97
  -8   6  11   20.47    4.72
  -8   6  12   58.89    8.01
  -8   6 -12   66.93    8.45
  -8   6  12   49.73    7.86
  -8  -6 -12   54.36    6.78
  -8  -6  12   54.17    8.21
   8   6 -12   67.05    7.46
   8   6 -12   65.01    8.79
   8   6  12   54.40    8.38
  -8   6 -13   -0.56    2.37
  -8   6  13    3.30    3.11
  -8   6  13    1.20    3.59
  -8  -6  13   -1.73    3.12
   8   6 -13   -0.36    3.15
   8   6  13    0.51    2.84
  -8   6 -14   53.21    7.52
  -8   6  14   51.90    7.43
  -8   6  14   56.61    8.44
  -8  -6  14   56.74    8.57
  -8   6 -14   62.55    9.30
   8   6 -14   48.53    7.87
   8   6  14   60.48    8.73
  -8   6 -15    0.69    2.71
  -8   6  15    2.58    2.68
  -8   6  15    0.06    3.77
  -8  -6  15    0.72    3.25
  -8   6 -15    8.79    4.84
   8   6 -15    1.70    3.52
   8   6  15    0.82    3.06
  -8   6 -16    1.90    2.81
  -8   6  16    0.33    2.50
  -8   6  16    2.87    3.87
  -8  -6  16    1.71    3.01
  -8   6 -16    0.22    3.86
   8   6 -16    1.78    3.22
   8   6  16   -4.04    3.68
   8   6  16   -3.25    4.20
  -8  -6  17   21.71    5.76
  -8   6 -17   30.51    7.37
   8   6 -17   24.33    6.39
   8   6  17   22.77    5.68
  -8  -6  18   38.88    7.47
   8   6  18   40.31    7.60
   8   6  19    5.09    3.21
  -8   7   0   34.27    6.41
  -8  -7   0   34.38    7.22
   8   7   0   28.99    5.42
  -8   7   0   38.16    7.37
  -8   7  -1  250.59   13.94
  -8   7   1  258.05   14.72
  -8  -7  -1  256.76   16.12
  -8  -7   1  271.90   16.91
  -8   7   1  246.87   16.28
  -8   7  -1  241.06   16.14
   8   7  -1  236.67   12.84
  -8   7  -2   14.92    3.87
  -8   7   2   16.92    5.05
  -8  -7  -2   17.22    5.61
  -8  -7   2   18.30    5.73
   8   7  -2   16.55    4.42
  -8   7   2   15.05    5.87
  -8   7  -2   17.18    5.40
  -8   7  -3  419.22   17.11
  -8   7   3  409.85   19.10
  -8  -7  -3  430.66   20.63
  -8  -7   3  422.71   21.25
  -8   7   3  433.79   21.36
  -8   7  -3  460.34   21.98
   8   7  -3  450.74   18.34
  -8   7   4   51.86    7.40
  -8  -7  -4   58.61    8.14
  -8  -7   4   55.55    8.22
   8   7  -4   55.77    7.40
  -8   7   4   54.32    8.36
  -8   7  -4   67.68    8.85
  -8   7  -4   56.41    6.49
  -8   7   5    1.39    3.02
  -8  -7  -5    1.82    3.19
  -8  -7   5    1.66    3.09
   8   7  -5    3.89    3.08
  -8   7   5    3.00    2.84
  -8   7  -5   -0.72    2.78
  -8   7   6   -0.57    2.67
  -8  -7  -6   -0.72    2.91
  -8  -7   6   -1.86    3.47
   8   7  -6    2.09    3.06
  -8   7   6    1.65    3.09
  -8   7  -6    1.96    2.79
  -8   7   7  105.15   10.52
  -8  -7  -7  104.91   10.28
  -8  -7   7  110.17   11.41
  -8   7   7  114.28   11.30
  -8   7  -7   99.66   10.49
   8   7  -7  108.50   10.23
  -8   7   8   80.63    9.70
  -8  -7  -8   81.31    8.88
  -8  -7   8  100.61   11.02
  -8   7  -8   85.67    9.64
   8   7  -8   93.35    9.61
  -8   7   8   78.62    9.35
  -8   7   9   14.67    4.96
  -8  -7  -9   18.41    4.50
  -8  -7   9   20.58    5.74
   8   7  -9   16.59    4.07
  -8   7   9   14.21    4.48
  -8   7  -9   21.14    5.36
  -8   7  10  107.92   11.40
  -8  -7 -10   99.00    9.63
  -8  -7  10  112.57   12.02
  -8   7  10  100.71   10.64
  -8   7 -10   96.54   10.53
   8   7 -10  109.22   11.01
   8   7  10  102.41   11.19
  -8   7  11  260.99   17.51
  -8  -7 -11  249.28   15.11
  -8  -7  11  277.53   18.27
  -8   7  11  259.25   16.89
  -8   7 -11  224.83   15.89
   8   7 -11  232.50   15.92
   8   7  11  262.36   17.47
  -8   7  12    8.91    4.61
  -8  -7 -12    2.22    2.82
  -8  -7  12    6.91    4.75
   8   7 -12    2.38    3.07
   8   7  12    5.91    4.06
  -8   7  12    2.78    3.45
  -8   7 -12    5.06    2.72
  -8   7  13   28.20    6.03
  -8  -7  13   31.21    6.30
   8   7 -13   42.24    7.49
   8   7  13   28.18    6.05
  -8   7  13   34.46    6.39
  -8   7 -13   36.30    6.86
  -8   7  14   13.17    4.90
  -8  -7  14    9.82    4.14
   8   7 -14   15.19    5.52
   8   7  14   20.62    5.87
   8   7  14   13.53    4.65
  -8   7 -14   10.51    4.50
  -8   7  14   11.18    3.86
  -8   7  15   25.56    5.49
  -8   7 -15   22.61    5.62
  -8   7  15   21.30    5.85
  -8  -7  15   18.61    5.12
  -8   7 -15   22.09    5.88
   8   7 -15   24.15    6.40
   8   7  15   21.27    5.72
   8   7  15   25.21    6.51
  -8   7 -16    0.48    2.28
  -8  -7  16   -3.04    3.13
   8   7 -16   -3.66    3.93
   8   7  16   -0.56    3.60
  -8  -7  17   54.13    8.77
   8   7  17   61.05    9.48
  -8   8   0  214.80   13.62
  -8  -8   0  216.99   15.50
  -8   8   0  239.32   16.60
   8   8   0  219.45   13.43
  -8   8  -1   63.52    7.58
  -8   8   1   55.89    7.33
  -8  -8  -1   62.55    8.67
  -8  -8   1   65.50    8.97
   8   8  -1   56.44    6.72
   8   8   1   56.01    7.10
  -8   8   1   76.87    9.69
  -8   8  -1   64.41    9.05
  -8   8  -2    2.77    2.78
  -8   8   2    8.56    3.96
  -8  -8  -2    3.85    3.90
  -8  -8   2    0.21    3.07
   8   8  -2    7.94    3.55
   8   8   2    6.65    3.54
  -8   8  -2    5.97    4.20
  -8   8   2    2.47    3.16
  -8   8  -3   15.33    4.08
  -8   8   3   10.62    3.87
  -8  -8  -3    9.77    4.30
  -8  -8   3   17.56    5.53
   8   8  -3   15.55    4.30
   8   8   3   18.59    4.89
  -8   8   3   13.65    4.93
  -8   8  -3   17.31    5.43
  -8   8   4    9.74    4.22
  -8  -8  -4   10.98    4.03
  -8  -8   4   12.80    5.34
   8   8  -4   10.45    3.80
   8   8   4    8.25    3.47
  -8   8   4    9.25    3.89
  -8   8  -4    5.82    3.91
  -8   8   5   63.61    8.31
  -8  -8  -5   65.41    8.37
  -8  -8   5   67.60    9.28
   8   8  -5   66.72    8.04
   8   8   5   56.51    7.81
  -8   8   5   58.34    8.48
  -8   8  -5   67.44    9.16
  -8   8   6   48.69    7.60
  -8  -8  -6   43.87    7.27
  -8  -8   6   52.09    8.54
   8   8  -6   46.47    7.00
   8   8   6   37.26    6.62
  -8   8   6   34.24    6.56
  -8   8  -6   45.62    7.68
  -8   8   7   86.08    9.86
  -8  -8  -7   88.58    9.59
  -8  -8   7   98.17   11.29
  -8   8   7   90.14   10.59
   8   8  -7   89.61    9.38
  -8   8  -7   72.99    9.56
   8   8   7   90.60   10.09
  -8   8   8    1.94    3.34
  -8  -8  -8    2.79    2.38
  -8  -8   8    6.20    4.59
   8   8  -8    5.20    3.80
   8   8   8    1.94    3.32
  -8   8   8    2.30    3.13
  -8   8  -8   -0.10    2.54
  -8   8   9    7.64    4.44
  -8  -8  -9   -0.33    2.65
  -8  -8   9    1.41    2.86
   8   8  -9    7.08    3.96
   8   8   9    3.12    3.51
  -8   8   9   -0.41    2.78
  -8   8  -9    4.14    3.04
  -8   8  10    4.97    4.38
  -8  -8 -10    2.32    2.92
  -8  -8  10    6.35    4.87
   8   8 -10    5.32    3.98
   8   8  10    1.24    2.91
  -8   8  10   11.06    5.02
  -8   8 -10    6.25    3.59
  -8   8  11  120.89   12.56
  -8  -8 -11  123.66   10.83
  -8  -8  11  127.75   12.89
  -8   8  11  132.67   12.55
  -8   8 -11  117.46   11.95
   8   8 -11  117.90   11.83
   8   8  11  125.27   12.64
  -8   8  12   12.06    4.84
  -8  -8  12   15.15    4.98
   8   8 -12   13.68    4.79
   8   8  12   11.25    4.60
  -8   8  12   10.61    4.22
  -8   8 -12   12.00    4.60
  -8   8  13   -0.66    3.42
  -8  -8  13    3.71    4.13
   8   8 -13    3.26    4.02
   8   8  13   -0.41    3.84
  -8   8  13    6.36    3.63
  -8   8 -13    1.82    2.37
  -8  -8  14    8.63    4.50
   8   8 -14   16.63    5.56
  -8   8  14   12.23    4.55
  -8   8 -14   10.24    4.18
  -8   8 -15  146.50   13.22
  -8   8  15  158.03   13.55
  -8   8 -16    9.92    3.71
  -8   9   0  128.82   11.19
  -8  -9   0  126.70   12.33
  -8   9   0  125.04   12.56
  -8   9   1   75.40    8.78
  -8  -9  -1   69.16    9.18
  -8  -9   1   78.71    9.89
  -8   9  -1   87.68   10.77
  -8   9   1   85.90   10.54
  -8   9  -1   80.31    8.65
  -8   9  -2   39.23    6.26
  -8   9   2   30.80    5.83
  -8  -9  -2   37.19    6.83
  -8  -9   2   38.21    7.31
   8   9  -2   29.98    5.29
  -8   9   2   31.54    6.66
  -8   9  -2   45.44    7.82
   8   9   2   34.38    6.04
  -8   9  -3   63.33    7.54
  -8   9   3   61.42    8.45
  -8  -9  -3   59.62    8.53
  -8  -9   3   70.98    9.58
   8   9  -3   57.50    7.44
  -8   9   3   62.42    9.04
  -8   9  -3   64.87    9.36
   8   9   3   64.40    7.83
  -8   9   4    4.77    3.76
  -8  -9  -4   12.74    4.96
  -8  -9   4   14.55    5.65
   8   9  -4    3.03    2.95
  -8   9   4    5.60    4.06
  -8   9  -4    2.77    3.86
   8   9   4    5.38    3.67
  -8   9   5   31.46    6.22
  -8  -9  -5   34.04    6.65
  -8  -9   5   37.68    7.63
   8   9  -5   33.52    5.76
  -8   9   5   42.07    7.78
  -8   9  -5   35.01    7.15
   8   9   5   34.26    6.29
  -8   9   6   37.29    7.14
  -8  -9  -6   34.21    6.94
  -8  -9   6   38.54    7.84
   8   9  -6   40.54    6.87
  -8   9   6   37.46    7.35
  -8   9  -6   27.01    6.60
   8   9   6   32.98    6.74
   8   9   7  333.33   19.31
  -8   9   7  344.78   19.97
  -8  -9  -7  351.78   19.63
  -8  -9   7  350.43   21.24
  -8   9   7  352.55   20.78
  -8   9  -7  350.57   20.87
   8   9  -7  324.32   18.54
  -8   9   8  101.38   11.45
  -8  -9  -8  110.21   11.06
  -8  -9   8  111.68   12.49
  -8   9   8  105.92   11.78
  -8   9  -8  101.50   11.58
   8   9  -8   93.37   10.45
   8   9   8   79.29    9.91
   8   9   9    0.14    3.31
  -8   9   9    0.72    2.82
  -8  -9  -9    2.00    2.99
  -8  -9   9    0.34    3.57
   8   9  -9   -0.19    2.65
  -8   9   9    2.48    3.37
  -8   9  -9    7.85    4.20
   8   9  10   14.00    5.04
  -8   9  10   13.67    4.96
  -8  -9 -10   17.62    4.68
  -8  -9  10   22.80    6.40
   8   9 -10   19.75    5.27
  -8   9  10   13.12    4.66
  -8   9 -10   19.91    5.58
   8   9  11   85.39   10.55
  -8   9  11   68.45    9.69
  -8  -9 -11   80.96    9.39
  -8   9  11   76.36    9.98
  -8   9 -11   78.35    9.91
   8   9 -11   82.37   10.22
   8   9  12   32.66    7.01
   8   9 -12   31.85    6.90
  -8   9  12   32.20    6.97
  -8   9 -12   26.71    6.36
   8   9 -13   76.32   10.31
  -8   9  13   73.69    9.60
  -8   9 -13   62.42    9.00
  -8   9  14   43.95    7.50
  -8   9 -14   35.35    7.07
  -8   9  15   47.18    7.89
  -8   9 -15   36.75    6.97
  -8 -10   0    4.13    3.35
  -8  10   0   -1.61    3.02
  -8  10  -1   29.85    5.73
  -8  10   1   23.44    5.63
  -8 -10   1   28.99    6.15
  -8 -10  -1   26.39    6.11
  -8  10   1   23.90    6.17
  -8  10  -1   16.68    5.08
  -8  10  -2    2.94    3.02
  -8  10   2    9.54    4.32
  -8 -10   2   11.11    5.22
  -8 -10  -2    2.58    3.24
  -8  10   2    2.67    2.45
  -8  10  -2    7.20    3.75
  -8  10   3    9.19    4.53
  -8 -10   3   11.04    5.04
  -8 -10  -3    7.08    3.39
   8  10  -3   12.48    4.39
  -8  10   3    6.25    3.36
  -8  10  -3   12.99    4.88
  -8  10   4   93.65   10.61
   8  10   4   83.32    9.51
  -8 -10   4   93.78   11.45
  -8 -10  -4   93.06   10.61
  -8  10  -4  100.85   11.69
   8  10  -4   90.96    9.66
  -8  10   4   86.11   10.75
  -8  10   5    2.76    3.47
   8  10   5    8.69    4.01
  -8 -10   5    5.90    3.94
  -8 -10  -5    8.02    4.27
   8  10  -5    5.73    3.46
  -8  10   5    6.66    4.02
  -8  10  -5   12.51    5.20
  -8  10   6    1.76    2.87
   8  10   6    1.90    3.32
  -8 -10  -6   -3.44    2.87
   8  10  -6   -3.65    3.65
  -8  10   6   -1.29    3.16
  -8  10  -6    6.52    3.65
  -8  10   7   28.66    6.76
   8  10   7   17.99    4.93
  -8 -10  -7   22.51    5.47
   8  10  -7   22.18    5.68
  -8  10   7   15.92    5.46
  -8  10  -7   33.61    7.71
  -8  10   8   12.01    5.21
   8  10   8   12.08    4.43
  -8 -10  -8    7.22    3.86
   8  10  -8   10.62    4.27
  -8  10   8   10.60    4.68
   8  10   9   18.18    5.45
  -8 -10  -9    7.48    3.67
   8  10  -9   14.44    4.74
  -8  10   9   13.13    4.79
   8  10  10    3.01    3.74
  -8 -10 -10    0.40    2.70
   8  10 -10   -1.65    2.89
   8  10 -11    5.10    3.25
  -8  11   0   39.08    6.89
  -8  11  -1    8.53    4.19
  -8  11   1    3.58    3.17
  -8  11  -2   -1.51    2.87
  -8  11   2    6.80    3.57
  -8  11   3   10.92    5.12
  -8  11   4  183.52   15.15
  -8  11   5    7.58    4.46
   8  11  -5   12.63    4.40
  -8 -11  -6   -3.30    3.94
   8  11  -6    2.05    3.30
  -8 -11  -7    3.97    3.89
   8  11   7   11.86    4.43
   8  11  -7    3.64    3.58
  -8 -11  -8    9.14    3.86
   8  11   8   25.53    6.15
   8  11  -8   22.05    5.96
  -8 -11  -9   27.48    6.24
  -8 -11 -10   94.16   10.81
  -8  12   0   39.14    7.48
  -8  12  -1   36.08    7.18
   9   0   0    3.13    2.06
  -9   0   0    4.12    3.38
  -9   0  -1    2.90    3.03
  -9   0   1    1.88    2.94
   9   0  -1   -1.28    2.20
  -9   0  -2   13.17    3.95
  -9   0   2   15.97    4.60
   9   0  -2   17.34    3.64
   9   0  -3    0.56    2.60
  -9   0   3   -2.31    3.65
  -9   0  -3    4.66    2.99
  -9   0  -4   16.92    4.32
  -9   0  -4   13.37    4.18
  -9   0   4    8.59    3.45
   9   0  -4    5.21    2.30
  -9   0  -5   -1.54    3.36
  -9   0  -5   -1.30    2.45
   9   0  -5   -2.71    3.18
  -9   0   5   -0.37    2.45
  -9   0  -6   97.27    9.77
  -9   0   6   92.32    9.48
  -9   0  -6   97.94    9.75
   9   0  -6  100.91    9.00
  -9   0  -7    0.86    3.19
   9   0  -7   -0.94    2.62
  -9   0  -7    2.32    2.80
  -9   0   7    0.60    2.28
  -9   0  -8   32.35    6.16
   9   0  -8   33.97    5.54
  -9   0  -8   29.82    5.78
  -9   0   8   27.75    5.61
  -9   0  -9    1.18    3.29
   9   0  -9    2.63    2.90
  -9   0  -9   -5.12    3.96
  -9   0   9   -1.20    3.61
  -9   0 -10   17.76    4.70
   9   0 -10   23.10    5.01
  -9   0 -10   16.22    4.92
  -9   0  10   17.40    4.66
  -9   0 -11    0.35    3.45
   9   0 -11   -2.81    3.64
  -9   0 -11   -0.49    2.64
  -9   0  11    1.88    2.70
  -9   0 -12   11.61    4.36
   9   0 -12    6.27    3.65
  -9   0 -12   12.03    3.95
  -9   0  12    5.05    3.29
  -9   0 -13   -3.11    3.83
   9   0 -13    1.15    2.93
  -9   0 -13    3.74    3.19
  -9   0  13   -0.85    2.47
  -9   0 -14   46.09    7.74
   9   0 -14   56.84    8.36
  -9   0 -14   45.55    6.88
  -9   0  14   46.06    6.99
  -9   0 -15   -0.97    3.68
   9   0 -15   -2.83    3.70
  -9   0 -15    0.60    2.43
  -9   0  15   -0.89    2.87
  -9   0 -16   24.50    6.47
   9   0 -16   20.02    5.89
  -9   0 -16   19.23    4.72
  -9   0  16   18.62    4.30
  -9   0 -17    6.04    4.82
   9   0 -17   -2.20    4.19
   9   0 -18  108.56   12.12
   9   0  19    7.10    4.79
  -9   1   0   13.51    4.98
   9   1   0    6.72    2.91
  -9  -1   0    9.12    4.35
  -9  -1   0    5.04    4.17
   9   1   0   10.75    5.07
  -9  -1  -1  226.01   14.92
  -9  -1   1  245.33   15.55
  -9  -1  -1  232.75   13.67
  -9  -1   1  229.22   13.44
   9   1  -1  210.74   11.02
   9   1  -1  234.98   14.95
   9   1   1  236.92   15.43
  -9   1  -1  236.11   15.24
  -9   1   1  208.54   14.45
  -9  -1  -2  796.32   27.75
  -9  -1   2  781.95   27.47
  -9  -1  -2  747.56   24.70
  -9  -1   2  789.05   23.58
   9  -1  -2  759.18   21.96
   9   1  -2  739.07   21.13
   9   1  -2  790.83   26.68
   9   1   2  782.41   27.35
  -9   1  -2  777.19   27.19
  -9   1   2  796.23   27.45
  -9   1  -3   26.54    6.28
  -9   1   3   22.48    5.79
   9  -1  -3   14.27    4.06
  -9  -1  -3   15.58    5.02
   9   1  -3   11.95    3.70
   9   1  -3   18.74    5.47
  -9  -1  -3   21.04    5.54
  -9  -1   3   20.17    5.90
   9   1   3   17.90    5.29
  -9   1   4  229.18   14.93
  -9  -1  -4  252.93   15.57
  -9  -1   4  227.19   14.87
  -9  -1  -4  214.63   13.63
   9  -1  -4  223.39   12.70
   9   1  -4  223.38   12.38
   9   1  -4  231.79   14.43
   9   1   4  234.78   15.36
  -9   1  -4  220.93   14.63
  -9   1  -5   68.03    8.75
  -9   1   5   78.19    9.39
  -9  -1  -5   63.10    8.38
  -9  -1   5   76.40    9.04
   9   1  -5   58.67    7.26
  -9  -1  -5   60.79    8.22
   9  -1  -5   54.79    7.11
  -9   1  -5   67.42    8.82
   9   1   5   67.54    8.85
  -9   1  -6  150.06   12.12
  -9   1   6  159.70   12.54
  -9  -1  -6  182.15   13.39
  -9  -1   6  167.58   12.80
  -9  -1  -6  151.53   11.94
  -9   1  -6  168.13   12.93
   9  -1  -6  158.26   11.39
   9   1  -6  163.93   11.34
   9   1   6  179.75   13.67
  -9   1  -7    4.14    2.94
  -9   1   7    3.60    4.00
  -9  -1  -7    6.31    3.15
  -9   1  -7    3.67    3.55
   9  -1  -7    5.86    3.45
   9   1  -7   -0.53    2.52
   9   1   7   16.44    5.64
  -9  -1  -7    6.14    3.64
  -9  -1   7    5.97    3.67
  -9   1  -8  271.77   16.36
  -9   1   8  299.48   17.06
  -9  -1  -8  283.93   16.75
  -9  -1   8  309.31   17.31
  -9  -1  -8  298.91   17.26
  -9   1  -8  289.27   17.13
   9  -1  -8  281.19   15.87
   9   1  -8  287.59   15.68
   9   1   8  290.54   17.52
  -9   1  -9  166.87   13.04
  -9   1   9  160.73   12.76
  -9  -1  -9  168.49   13.10
  -9  -1   9  178.83   13.52
  -9  -1  -9  168.38   13.52
  -9   1  -9  177.66   14.07
   9  -1  -9  159.70   12.54
   9   1  -9  152.64   12.36
   9   1   9  175.11   14.26
  -9   1 -10  240.28   15.47
  -9   1  10  238.64   15.32
  -9  -1 -10  212.99   14.63
  -9  -1  10  237.91   15.27
  -9  -1 -10  221.17   15.38
  -9   1 -10  249.62   16.64
   9  -1 -10  232.92   14.88
   9   1 -10  248.99   15.39
   9   1  10  238.89   16.12
  -9  -1 -11   18.82    5.55
  -9   1 -11   20.43    5.89
  -9   1 -11   17.81    4.80
  -9   1  11   28.54    5.80
   9  -1 -11   21.68    5.37
   9   1  11   23.16    5.95
   9   1 -11   28.27    6.00
  -9  -1 -11   17.08    4.78
  -9  -1  11   21.05    5.40
  -9   1 -12  191.17   13.89
  -9   1  12  193.78   13.79
  -9  -1 -12  194.29   14.06
  -9  -1  12  178.07   13.30
  -9  -1 -12  196.12   14.80
  -9   1 -12  210.86   15.68
   9  -1 -12  196.11   14.33
   9   1 -12  190.92   14.29
   9   1  12  223.62   15.95
  -9   1 -13   84.50    9.56
  -9   1  13   89.05    9.58
  -9  -1 -13   76.88    9.01
  -9  -1  13   82.43    9.20
  -9  -1 -13   87.58   10.54
  -9   1 -13   90.49   10.80
   9  -1 -13   88.24   10.18
   9   1 -13   92.21   10.47
  -9  -1 -14   11.86    4.76
  -9   1 -14    3.24    4.13
   9  -1 -14    2.43    3.49
   9   1 -14    7.61    4.13
  -9   1 -14   11.37    4.54
  -9   1  14    2.56    2.59
  -9  -1 -14    3.71    3.14
  -9  -1  14    2.92    2.80
  -9  -1 -15   11.38    4.21
  -9   1 -15    9.55    4.73
   9  -1 -15    4.55    3.98
   9   1 -15    3.03    3.85
  -9   1 -15   14.66    4.59
  -9   1  15    7.42    3.76
  -9  -1 -15    3.14    2.55
  -9  -1  15    8.03    3.13
  -9   1 -16  152.96   12.34
  -9   1  16  154.74   12.31
  -9  -1 -16  157.98   12.57
  -9   1 -16  172.19   14.85
  -9  -1  16  160.26   12.47
   9  -1 -16  174.23   14.69
   9   1 -16  157.38   14.03
  -9   1 -17   32.06    7.40
   9  -1 -17   36.35    7.75
   9   1 -17   39.26    7.67
   9   1  18   12.70    5.15
   9  -1 -18    7.31    3.64
   9   1 -18   14.24    5.69
   9   1  19    6.67    4.58
   9   1  20   99.27   11.42
  -9   2   0   -6.29    3.90
  -9  -2   0   -2.54    2.72
   9   2   0   -4.30    3.70
  -9  -2   0   -1.46    3.16
  -9   2  -1   -1.65    3.27
  -9   2   1    3.44    2.79
  -9  -2  -1    1.93    2.49
  -9  -2   1    6.73    2.97
   9   2  -1    2.93    1.83
   9   2  -1    5.78    3.03
   9   2   1    2.81    2.97
  -9  -2  -1    0.30    3.24
  -9  -2   1    1.49    3.37
  -9   2  -2    2.30    1.87
  -9   2  -2   -1.10    2.76
  -9   2   2    6.09    3.31
  -9  -2  -2   -0.25    2.56
  -9  -2   2    2.01    2.17
   9   2  -2   -0.28    2.59
   9   2  -2   -2.63    3.14
   9   2   2    1.54    3.48
  -9  -2  -2   -0.17    3.40
  -9  -2   2   -2.21    3.75
  -9   2  -3    2.13    2.62
  -9   2   3    2.68    2.81
  -9  -2  -3    1.54    2.79
  -9  -2   3    4.46    2.55
   9   2  -3   -0.41    2.33
   9   2  -3    0.17    3.68
   9   2   3    2.25    3.23
  -9  -2  -3    0.60    2.96
  -9  -2   3    3.60    2.83
  -9   2  -4   10.26    3.99
  -9   2   4    4.91    2.92
   9  -2  -4    1.22    3.17
  -9  -2  -4    4.78    2.94
  -9  -2   4    9.80    3.13
   9   2  -4    6.20    2.68
   9   2  -4    9.91    3.96
   9   2   4   10.43    4.46
  -9  -2  -4    6.21    3.01
  -9  -2   4    6.32    3.29
  -9  -2   5   82.12    9.26
  -9  -2  -5   79.81    8.58
  -9  -2   5   81.43    7.24
   9  -2  -5   81.37    8.22
   9   2  -5   81.05    7.72
   9   2  -5   83.99    8.84
   9   2   5   75.33    9.06
  -9  -2  -5   65.49    8.36
  -9   2  -5   81.59    9.08
  -9   2   5   90.05    9.53
  -9   2  -6   14.84    4.20
  -9   2   6   11.07    4.06
  -9  -2  -6   10.49    3.87
   9  -2  -6   14.24    4.03
  -9  -2   6   16.48    3.62
   9   2  -6   17.38    4.34
   9   2  -6   16.84    4.21
   9   2   6   14.85    4.97
  -9  -2  -6   16.00    4.78
  -9  -2   6   14.76    4.38
  -9   2  -7   56.32    7.69
  -9   2   7   49.41    7.21
  -9  -2  -7   47.59    6.97
   9  -2  -7   47.32    6.60
  -9   2  -7   51.94    7.39
   9   2  -7   54.63    7.03
   9   2  -7   59.85    7.52
   9   2   7   44.36    6.96
  -9  -2  -7   51.26    7.52
  -9  -2   7   47.98    7.22
  -9   2  -8   10.19    3.95
  -9   2   8    3.59    2.95
  -9  -2  -8    2.72    2.71
   9  -2  -8    6.19    2.78
  -9   2  -8    6.20    4.38
   9   2  -8    1.92    2.58
   9   2  -8    5.09    2.86
   9   2   8    2.10    3.52
  -9  -2  -8    2.55    2.91
  -9  -2   8   -2.66    2.84
  -9   2  -9   53.99    7.47
  -9   2   9   46.21    6.98
  -9  -2  -9   58.28    7.80
   9  -2  -9   47.06    7.03
  -9   2  -9   61.05    8.81
   9   2  -9   57.97    7.23
   9   2  -9   50.49    7.31
   9   2   9   40.11    6.94
  -9  -2  -9   46.88    7.16
  -9  -2   9   37.94    6.27
  -9   2 -10   32.30    6.43
  -9   2  10   26.03    5.59
  -9  -2 -10   24.00    5.98
  -9   2 -10   23.86    5.65
   9  -2 -10   30.54    5.92
   9   2 -10   18.25    4.68
   9   2  10   16.70    4.74
  -9  -2 -10   24.13    5.40
  -9  -2  10   21.66    5.26
  -9   2 -11    0.16    2.48
  -9   2  11    1.25    2.58
  -9  -2 -11   -0.96    3.47
  -9   2 -11   -3.99    3.72
   9  -2 -11   -4.14    3.11
   9   2 -11    4.59    3.47
   9   2  11    2.31    2.98
  -9  -2 -11    1.68    2.73
  -9  -2  11   -1.36    2.90
  -9  -2 -12    0.49    2.97
  -9   2 -12    8.41    4.11
  -9   2  12    4.48    2.92
  -9   2 -12    4.56    3.72
   9  -2 -12    3.48    2.84
   9   2 -12    0.52    3.08
   9   2  12    8.48    4.61
  -9  -2 -12    1.76    3.02
  -9  -2  12    3.01    2.89
  -9   2 -13   -4.94    3.55
  -9   2  13   -3.10    3.46
  -9   2 -13    0.58    4.11
   9  -2 -13   -4.07    3.70
   9   2 -13   -0.46    3.23
   9   2  13    5.87    3.44
  -9  -2 -13   -2.63    3.31
  -9  -2  13   -5.71    3.64
  -9   2 -14    1.78    2.80
  -9   2  14    9.98    3.86
  -9   2 -14    8.25    4.28
   9  -2 -14   15.69    5.22
   9   2 -14   13.74    4.36
   9   2  14   16.94    5.25
  -9  -2 -14    9.94    3.92
  -9  -2  14    7.22    3.58
  -9   2 -15  129.83   11.50
  -9   2  15  124.95   11.15
  -9   2 -15  142.97   13.53
   9  -2 -15  133.62   12.93
  -9  -2 -15  129.99   11.37
  -9  -2  15  128.24   11.38
   9   2 -15  132.59   12.76
   9   2  15  142.36   13.25
   9   2  16    9.90    4.70
  -9   2 -16    8.43    5.06
   9  -2 -16   -3.58    3.62
  -9   2 -16   -2.69    3.29
  -9   2  16    1.15    2.47
   9   2  16    1.31    3.60
   9   2 -16    5.52    4.48
  -9  -2 -16    4.34    2.93
  -9  -2  16   -2.71    3.05
   9   2  17  111.14   11.18
  -9   2 -17  108.05   12.26
   9   2 -17  109.00   11.98
   9  -2 -17  100.45   11.62
   9   2  17   99.34   11.28
   9   2  18   10.74    5.39
   9   2 -18   -4.92    4.04
   9   2  19    7.95    4.67
   9   2  20    2.54    4.15
  -9   3   0   -1.98    2.55
  -9   3   0    2.13    1.89
  -9  -3   0    2.12    2.76
   9   3   0    1.01    2.80
  -9  -3   0    3.65    3.77
  -9   3  -1  266.40   12.71
  -9  -3  -1  275.12   16.46
  -9  -3   1  282.13   16.63
  -9  -3  -1  298.10   14.76
  -9  -3   1  284.07   13.93
   9   3  -1  292.50   16.49
   9   3   1  270.28   16.26
  -9   3  -1  272.79   16.42
  -9   3   1  279.08   16.52
  -9   3  -2    7.47    3.99
  -9   3   2   13.08    4.82
  -9  -3  -2    5.66    3.38
  -9  -3   2    7.54    3.59
   9   3  -2   10.82    3.32
   9   3  -2    7.76    3.67
   9   3   2    9.04    4.13
  -9  -3  -2    7.86    4.22
  -9  -3   2   10.52    4.48
  -9   3  -3   65.61    8.28
  -9   3   3   69.38    8.38
  -9  -3  -3   70.12    7.62
  -9  -3   3   73.08    6.85
   9   3  -3   71.43    7.02
   9   3  -3   70.44    8.38
   9   3   3   77.77    9.07
  -9  -3  -3   64.42    8.15
  -9  -3   3   65.17    8.29
  -9   3  -4   13.55    4.72
  -9   3   4   12.64    4.39
  -9  -3  -4   14.01    4.26
  -9  -3   4   13.03    3.46
   9   3  -4   12.12    3.63
   9   3  -4   13.48    4.44
   9   3   4   18.91    5.25
  -9  -3  -4   20.40    5.23
  -9  -3   4   14.82    4.59
  -9  -3  -5  242.95   14.45
  -9  -3  -5  262.13   16.15
  -9  -3   5  255.12   15.91
   9   3  -5  223.99   12.84
   9   3  -5  236.49   14.67
   9   3   5  248.39   15.98
  -9   3  -5  231.55   15.23
  -9   3   5  223.51   14.91
  -9   3  -6   -0.21    3.07
  -9   3   6    5.03    3.81
  -9  -3  -6    1.59    2.89
   9   3  -6    0.60    2.48
   9   3  -6    1.64    2.61
   9   3   6    0.10    3.05
  -9  -3  -6    0.00    2.62
  -9  -3   6    3.19    3.01
  -9   3  -7    5.59    3.52
  -9   3   7   10.18    3.71
  -9  -3  -7    6.11    3.64
   9  -3  -7   -0.27    2.96
   9   3  -7    4.12    2.82
   9   3  -7    4.06    2.58
   9   3   7    8.94    4.05
  -9  -3  -7    8.10    3.58
  -9  -3   7   -0.16    3.11
  -9   3  -8   11.33    4.23
  -9   3   8   18.36    5.16
  -9  -3  -8   16.67    5.24
   9  -3  -8   13.31    4.28
   9   3  -8   18.50    5.07
   9   3  -8   19.60    4.74
   9   3   8   11.14    5.28
  -9  -3  -8   12.21    4.16
  -9  -3   8   15.56    4.80
  -9   3  -9  323.07   19.07
   9  -3  -9  327.76   17.82
  -9  -3  -9  312.93   18.01
  -9  -3   9  327.21   18.16
   9   3  -9  340.77   17.65
   9   3  -9  322.23   16.79
   9   3   9  370.84   20.12
  -9   3  -9  367.41   19.13
  -9   3   9  323.48   17.99
  -9   3 -10   38.44    6.75
  -9   3  10   32.22    6.21
   9  -3 -10   46.83    7.39
  -9   3 -10   41.40    7.49
   9   3 -10   32.38    5.83
   9   3 -10   39.90    6.40
   9   3  10   51.09    8.26
  -9  -3 -10   37.58    6.74
  -9  -3  10   27.47    5.89
  -9   3 -11   18.53    4.85
  -9   3  11    8.64    2.93
   9  -3 -11    9.07    4.19
  -9   3 -11   14.06    4.82
   9   3 -11   13.94    4.74
   9   3 -11   17.41    4.22
   9   3  11   14.35    4.72
  -9  -3 -11   10.64    3.52
  -9  -3  11   13.46    4.21
  -9   3 -12   13.20    4.40
  -9   3  12   13.32    4.24
   9  -3 -12   12.98    4.57
  -9   3 -12   17.16    5.63
   9   3 -12   15.78    4.76
   9   3 -12   17.51    4.09
   9   3  12   14.38    4.80
  -9  -3 -12   17.49    4.52
  -9  -3  12    9.19    4.03
  -9   3 -13   43.08    6.83
  -9   3  13   39.12    6.70
  -9   3 -13   46.79    8.02
   9  -3 -13   37.28    6.87
   9   3 -13   45.84    7.36
   9   3  13   44.96    7.79
  -9   3 -14   13.91    4.47
  -9   3  14    4.50    2.92
  -9   3 -14    7.73    4.46
   9  -3 -14    7.38    4.47
   9   3 -14    8.13    4.27
   9   3  14    9.96    4.55
  -9   3 -15  176.05   15.11
   9  -3 -15  195.32   15.51
   9   3 -15  177.85   14.62
   9   3  15  176.70   14.88
  -9   3 -15  182.95   13.74
  -9   3  15  172.67   13.20
  -9   3 -16    9.75    4.00
  -9   3  16    3.80    3.23
  -9   3 -16    7.81    4.95
   9  -3 -16    3.06    3.45
   9   3 -16   14.17    5.42
   9   3  16    6.82    4.46
   9  -3 -17    3.75    3.35
   9   3 -17    7.06    4.61
   9   3  17    8.57    4.19
   9   3  18   17.42    5.79
   9   3  19  157.25   14.45
  -9   4   0   -1.71    2.75
  -9   4   0    1.46    1.77
  -9  -4   0    2.82    2.10
   9   4   0    0.00    2.59
  -9  -4   0    0.21    2.87
  -9   4  -1    7.78    3.52
  -9   4   1    4.42    2.56
  -9   4  -1    8.09    2.81
  -9   4   1    9.04    3.02
  -9  -4  -1    9.24    3.26
  -9  -4   1   10.57    2.87
   9   4  -1   13.60    4.20
   9   4   1   11.26    4.37
  -9  -4  -1    8.39    3.83
  -9  -4   1    3.65    2.95
  -9   4  -2   33.57    6.45
  -9   4   2   33.03    5.97
  -9   4   2   31.00    5.22
  -9  -4   2   28.38    4.50
   9   4  -2   38.88    5.17
   9   4  -2   35.66    6.35
   9   4   2   34.73    5.95
  -9  -4  -2   32.17    6.42
  -9  -4   2   40.68    6.87
  -9   4  -3    1.53    3.03
  -9   4   3    6.79    3.91
  -9   4   3   -1.49    2.77
   9   4  -3   -1.65    2.32
   9   4  -3   -0.08    2.89
   9   4   3   -0.06    3.25
  -9  -4  -3    1.48    3.04
  -9  -4   3   -0.84    2.35
  -9   4  -4   -0.04    3.13
  -9   4   4    9.79    4.13
  -9   4   4   -1.40    2.76
   9   4  -4    5.56    2.15
   9   4  -4    0.84    2.52
   9   4   4    1.15    3.24
  -9  -4  -4    2.38    2.53
  -9  -4   4    4.89    3.31
  -9   4  -5   34.15    6.21
  -9   4   5   32.88    6.12
   9   4  -5   32.59    5.21
   9   4  -5   41.03    6.41
   9   4   5   39.85    6.88
  -9  -4  -5   33.83    6.39
  -9  -4   5   30.61    6.15
  -9   4  -6   21.94    5.37
  -9   4   6   25.57    5.78
   9   4  -6   25.59    4.90
   9   4  -6   23.93    5.08
   9   4   6   32.63    6.61
  -9   4  -7   10.17    3.91
  -9   4   7   14.57    4.77
   9   4  -7    8.66    3.37
   9   4  -7   16.36    4.63
   9   4   7   21.65    5.79
   9   4  -8  187.76   13.10
   9   4  -8  182.47   12.94
   9   4   8  210.71   15.35
  -9   4  -8  198.88   14.57
  -9   4   8  191.98   14.17
  -9   4  -9   11.85    4.20
  -9   4   9    9.08    4.28
   9   4  -9   11.28    4.33
   9   4  -9   13.71    4.01
   9   4   9    9.11    4.16
  -9   4 -10   11.78    4.09
  -9   4  10   19.96    5.02
   9   4 -10   19.87    4.94
   9   4 -10   20.18    4.73
   9   4  10   25.34    5.95
  -9   4 -11    3.96    2.52
  -9   4  11    4.34    2.78
  -9   4 -11    3.28    3.12
   9   4 -11    1.11    2.61
   9   4 -11    3.28    2.74
   9   4  11    8.45    4.44
  -9   4 -12    5.58    3.22
  -9   4  12    9.52    3.84
   9  -4 -12    6.26    3.61
  -9   4 -12   12.41    5.14
   9   4 -12    5.11    3.36
   9   4  12    1.25    3.13
  -9   4 -13    3.50    2.84
  -9   4  13   -3.48    3.12
   9  -4 -13    5.40    3.82
  -9   4 -13   -0.16    3.67
   9   4 -13    0.60    2.88
   9   4  13    1.00    2.98
  -9   4 -14   15.88    4.64
  -9   4  14   17.75    4.26
   9  -4 -14   21.23    5.19
  -9   4 -14   22.42    5.62
   9   4 -14   20.91    5.71
   9   4  14   23.85    5.90
  -9   4 -15   -0.53    2.28
  -9   4  15   -2.46    2.85
   9  -4 -15   -5.11    4.72
  -9   4 -15   -5.57    4.53
   9   4 -15    0.17    3.41
   9   4  15   -2.23    3.43
  -9   4 -16    2.43    2.36
  -9   4  16   -0.69    2.68
   9  -4 -16    1.90    3.46
   9   4 -16    1.34    2.89
   9   4  16    1.53    3.06
   9   4 -17   17.47    6.40
   9   4  17    8.55    5.04
   9   4  18   14.41    5.18
  -9   5   0    5.96    3.89
  -9   5   0    0.70    1.86
   9   5   0    1.56    3.07
  -9   5  -1    1.42    3.14
  -9   5   1    0.45    2.71
  -9   5  -1    2.77    2.24
  -9   5   1   -0.44    2.25
  -9  -5  -1   -0.90    3.59
  -9  -5   1   -1.88    3.80
   9   5  -1    0.59    2.87
   9   5   1    2.99    2.89
  -9   5   2  158.19   11.25
  -9  -5  -2  149.53   12.35
  -9  -5   2  150.58   12.68
   9   5  -2  168.14   13.16
   9   5   2  155.58   12.91
  -9   5  -2  165.28   13.43
  -9   5   2  154.12   13.01
  -9   5  -3   21.51    5.50
  -9   5   3   19.65    5.66
  -9   5   3   18.41    4.47
  -9  -5  -3   15.60    4.72
  -9  -5   3   18.06    5.17
   9   5  -3   16.51    3.96
   9   5  -3   22.16    5.37
   9   5   3   26.58    6.05
  -9   5  -4    3.38    2.86
  -9   5   4   -2.14    2.41
  -9   5   4   -1.53    2.79
  -9  -5  -4    0.70    2.85
  -9  -5   4    2.25    3.11
   9   5  -4    0.31    1.99
   9   5  -4   -1.90    2.59
   9   5   4    3.56    3.23
  -9   5  -5    6.47    3.45
  -9   5   5    4.69    3.30
  -9   5   5    0.79    2.35
  -9  -5  -5    4.75    3.59
  -9  -5   5    5.54    4.10
   9   5  -5    3.51    2.50
   9   5  -5    4.22    3.29
   9   5   5    0.77    3.34
  -9   5  -6   74.29    9.27
  -9   5   6   67.59    8.89
  -9   5   6   64.47    8.00
  -9  -5   6   55.99    8.76
   9   5  -6   71.85    8.06
   9   5   6   75.19    9.50
   9   5  -6   64.19    8.11
  -9   5  -7    4.55    3.39
  -9   5   7   11.19    4.58
  -9   5   7    9.91    4.12
  -9  -5   7    3.53    3.56
   9   5  -7   12.96    4.26
   9   5  -7    7.19    3.54
   9   5   7    4.85    3.93
  -9   5   8  170.06   13.31
  -9  -5   8  184.09   14.60
   9   5  -8  187.65   13.18
   9   5  -8  172.50   12.63
   9   5   8  166.29   13.92
  -9   5  -8  177.52   14.01
  -9   5   8  180.31   14.14
  -9   5  -9   13.27    4.91
  -9   5   9   13.41    4.83
  -9   5   9   13.94    4.77
  -9  -5   9   13.11    5.52
   9   5  -9   21.89    5.80
   9   5  -9   16.55    4.58
   9   5   9   21.69    5.99
  -9  -5  10  118.81   11.85
   9   5 -10  118.94   11.26
   9   5 -10  125.50   10.69
   9   5  10  117.66   11.92
  -9   5 -10  119.36   11.64
  -9   5  10  107.21   10.90
  -9   5 -11   31.09    6.25
  -9   5  11   35.43    6.72
  -9  -5  11   22.48    5.79
   9   5 -11   40.67    7.26
   9   5 -11   29.42    5.57
   9   5  11   34.58    6.90
  -9   5 -12  138.03   13.67
   9   5 -12  150.74   13.10
   9   5  12  148.53   13.62
  -9   5 -12  130.57   12.21
  -9   5  12  114.68   11.38
  -9   5 -13   49.87    7.82
  -9   5  13   48.31    7.63
  -9   5 -13   47.66    8.81
   9   5 -13   45.83    8.01
   9   5  13   53.89    9.01
  -9   5 -14   65.88    8.70
  -9   5  14   57.78    7.97
  -9   5 -14   64.83   10.35
   9   5 -14   58.46    8.73
   9   5  14   72.89    9.97
  -9   5 -15   40.77    7.02
  -9   5  15   34.89    6.60
   9   5 -15   37.35    6.99
   9   5  15   40.92    7.99
   9   5 -16  256.84   18.19
   9   5  16  235.14   17.48
  -9   5 -16  240.90   16.14
  -9   6   0    1.06    2.39
  -9  -6   0   -1.09    3.06
   9   6   0    5.24    4.12
  -9   6   0    2.94    3.20
  -9   6  -1   14.73    4.01
  -9   6   1   17.48    4.11
  -9  -6  -1   12.56    4.59
  -9  -6   1   14.84    4.78
   9   6  -1    9.37    4.21
   9   6   1   21.93    6.13
  -9   6  -1   11.27    4.29
  -9   6   1   19.17    5.32
  -9   6   2   19.20    4.20
  -9  -6  -2   13.43    4.30
  -9  -6   2   16.46    5.63
   9   6  -2   21.64    5.49
   9   6   2   17.00    5.09
  -9   6  -2   14.02    4.71
  -9   6   2   17.86    5.01
  -9   6  -3   32.37    6.44
  -9   6   3   29.61    5.80
  -9   6   3   28.08    5.22
  -9  -6  -3   32.61    6.49
  -9  -6   3   20.07    5.34
   9   6  -3   24.15    5.97
   9   6   3   36.80    6.84
  -9   6  -4    2.76    3.58
  -9   6   4    3.46    3.51
  -9   6   4    3.35    2.72
  -9  -6  -4    0.34    2.86
  -9  -6   4    4.36    3.36
   9   6  -4    4.93    3.05
   9   6  -4   -1.04    2.91
   9   6   4    1.33    2.87
  -9   6   5    5.10    3.34
  -9   6  -5   -1.39    2.82
  -9   6   5    2.29    2.73
  -9  -6  -5   -2.23    3.17
  -9  -6   5   -2.97    4.65
   9   6  -5    2.52    2.18
   9   6  -5   -0.39    2.43
   9   6   5    7.29    4.47
  -9   6   6    3.78    3.27
  -9   6  -6   -2.70    3.55
  -9   6   6    2.33    3.04
  -9  -6  -6    0.64    2.96
  -9  -6   6    1.40    3.43
   9   6  -6    4.24    2.72
   9   6  -6   -4.13    3.57
   9   6   6    0.23    3.28
  -9   6  -7    2.80    2.85
  -9   6   7    2.23    2.63
  -9   6   7   -1.35    2.87
  -9  -6  -7    2.19    2.61
  -9  -6   7    1.55    3.30
   9   6  -7    3.88    2.80
   9   6  -7    4.65    2.83
   9   6   7    1.24    3.77
  -9   6  -8   22.02    5.76
  -9   6   8   22.27    5.54
  -9   6   8   24.71    5.61
  -9  -6  -8   22.89    4.96
  -9  -6   8   25.10    6.10
   9   6  -8   23.33    4.99
   9   6  -8   22.33    5.00
   9   6   8   28.50    6.48
  -9   6  -9   14.43    5.22
  -9   6   9    9.91    4.10
  -9   6   9    6.32    3.78
  -9  -6  -9    7.86    3.49
  -9  -6   9   10.10    4.43
   9   6  -9   10.75    4.33
   9   6  -9    5.49    2.95
   9   6   9    8.94    4.10
  -9   6 -10   -1.63    2.85
  -9   6  10    0.10    2.42
  -9   6  10   -2.10    3.95
  -9  -6  10   -3.71    3.47
   9   6 -10   -1.89    3.24
   9   6 -10   -1.57    2.55
   9   6  10   -2.30    2.93
  -9   6 -11   -2.77    3.79
  -9   6  11   -0.89    2.40
  -9   6  11    5.06    3.43
  -9  -6  11    0.10    3.33
   9   6 -11    4.52    3.46
   9   6 -11    3.77    2.46
   9   6  11   -1.10    3.42
  -9   6 -12    5.40    3.75
  -9   6  12    3.56    2.88
  -9   6  12   -0.89    4.07
  -9  -6  12    0.31    3.56
   9   6 -12    5.57    3.74
   9   6  12    7.02    4.13
  -9   6 -13   14.96    4.48
  -9   6  13   14.47    5.12
  -9   6  13   13.33    5.30
  -9  -6  13   13.23    5.24
   9   6 -13    9.59    4.40
   9   6  13    6.21    3.36
  -9   6 -14    2.13    2.98
  -9   6  14    1.51    2.57
  -9   6  14   -4.35    4.42
  -9  -6  14   -3.48    3.48
   9   6 -14    1.13    3.10
   9   6  14    6.35    4.74
  -9   6 -15    8.00    3.62
  -9   6  15   11.62    4.69
   9   6 -15   14.77    5.42
  -9   6 -16    6.10    3.19
  -9   7   0   -1.02    2.47
  -9  -7   0   -0.19    2.97
  -9   7   0   -3.36    2.66
  -9   7  -1   27.59    4.92
  -9   7   1   26.00    5.57
  -9  -7  -1   17.50    5.27
  -9  -7   1   28.68    6.41
  -9   7   1   23.22    6.66
  -9   7  -1   27.09    6.12
  -9   7   2   57.65    7.63
  -9  -7  -2   57.39    8.55
  -9  -7   2   56.65    8.74
  -9   7   2   67.81    9.50
  -9   7  -2   65.88    9.45
  -9   7   3  210.82   14.33
  -9  -7  -3  209.74   15.21
  -9  -7   3  213.27   15.93
  -9   7   3  215.55   16.11
  -9   7  -3  230.52   16.59
  -9   7   4    4.96    3.90
  -9  -7  -4    2.69    3.41
  -9  -7   4    3.86    3.81
   9   7  -4    7.34    3.23
  -9   7   4    6.83    4.31
  -9   7  -4    3.98    3.42
  -9   7   5  134.54   11.94
  -9  -7  -5  134.10   12.18
  -9  -7   5  136.78   13.20
   9   7  -5  134.30   11.03
  -9   7   5  139.96   13.09
  -9   7  -5  131.24   12.77
  -9   7   6   29.44    6.28
  -9  -7  -6   30.26    6.32
  -9  -7   6   49.01    8.78
   9   7  -6   39.18    6.49
  -9   7  -6   29.06    6.60
  -9   7   6   27.00    6.30
  -9   7   7   16.68    4.87
  -9  -7  -7    8.12    3.45
  -9  -7   7   14.96    5.11
   9   7  -7   11.16    4.17
  -9   7   7   12.03    4.17
  -9   7  -7   12.09    4.62
  -9   7   8    6.41    3.93
  -9  -7  -8   -3.25    3.11
  -9  -7   8    1.22    3.57
   9   7  -8    6.87    3.81
   9   7  -8   -4.62    3.52
   9   7   8    8.69    4.60
  -9   7  -8    5.27    4.06
  -9   7   8    3.98    3.82
  -9   7   9  154.36   13.39
  -9  -7  -9  160.77   13.03
  -9  -7   9  173.69   14.92
   9   7  -9  156.55   12.86
   9   7  -9  178.50   13.59
   9   7   9  176.62   15.18
  -9   7  -9  164.11   14.25
  -9   7   9  160.83   13.93
  -9   7  10   67.23    9.24
  -9   7 -10   59.49    8.84
  -9   7  10   52.95    8.28
  -9  -7 -10   59.22    7.99
  -9  -7  10   65.87    9.75
   9   7 -10   63.40    8.72
   9   7 -10   63.16    8.28
   9   7  10   60.62    9.25
  -9   7 -11    2.35    3.29
  -9   7  11    2.46    3.64
  -9   7  11    1.55    3.06
  -9  -7 -11    1.42    2.89
  -9  -7  11    4.15    3.88
   9   7 -11    7.96    4.17
   9   7 -11   -1.49    2.92
   9   7  11    1.16    3.13
  -9   7 -12   49.79    8.33
  -9   7  12   52.76    8.52
  -9   7  12   48.74    8.56
   9   7 -12   44.04    7.93
   9   7  12   39.63    7.52
   9   7 -13  239.86   17.40
  -9   7 -13  236.43   16.97
  -9   7  13  240.80   16.89
  -9   7 -14    4.02    3.41
  -9   7  14    5.32    3.94
   9   7 -14   15.37    6.05
  -9   7 -15   52.14    8.25
  -9   7  15   56.85    8.68
  -9   8   0    2.17    2.47
  -9  -8   0    3.81    3.79
  -9   8   0    4.23    3.77
  -9   8   1   10.42    3.92
  -9  -8  -1    9.39    4.61
  -9  -8   1    4.53    3.64
  -9   8   1    7.10    3.77
  -9   8  -1   10.89    4.70
  -9   8   2   11.06    4.09
  -9  -8  -2   10.23    4.59
  -9  -8   2   10.27    4.64
   9   8   2    5.94    3.15
  -9   8   2    8.48    4.38
  -9   8  -2   10.46    4.64
  -9   8   3   31.49    5.89
  -9  -8  -3   22.90    5.39
  -9  -8   3   28.13    6.40
   9   8   3   30.20    5.80
  -9   8   3   16.53    5.52
  -9   8  -3   23.28    6.00
  -9   8   4   14.55    4.73
  -9  -8  -4    8.11    4.13
  -9  -8   4   22.73    6.28
   9   8   4   10.79    4.03
  -9   8   4   15.80    5.75
  -9   8  -4    8.64    4.45
  -9   8   5   63.85    8.78
  -9  -8  -5   53.89    8.06
  -9  -8   5   53.23    8.70
   9   8  -5   62.02    7.95
   9   8   5   52.84    7.95
  -9   8   5   55.44    8.74
  -9   8  -5   70.49    9.63
  -9   8   6    7.61    3.44
  -9  -8  -6   10.90    4.24
  -9  -8   6    9.56    4.21
   9   8  -6    8.90    3.73
   9   8   6    7.63    3.37
  -9   8   6   16.61    5.42
  -9   8  -6   17.12    4.86
  -9   8   7   15.61    4.84
  -9  -8  -7   13.23    4.46
  -9  -8   7    5.20    4.14
   9   8  -7   17.55    5.32
   9   8   7   13.76    4.64
  -9   8   7   19.69    6.01
  -9   8  -7    9.51    4.19
  -9   8   8    9.99    4.33
  -9  -8  -8    7.64    4.41
   9   8  -8   18.78    5.22
   9   8   8    8.51    4.11
  -9   8   8   14.72    4.98
  -9   8  -8    6.72    4.11
  -9   8   9   18.45    5.54
  -9  -8  -9   18.90    5.18
   9   8  -9   11.07    4.34
   9   8   9   17.60    5.21
  -9   8   9   17.59    5.44
  -9   8  -9   22.97    6.02
  -9   8  10   14.05    4.59
  -9  -8 -10   10.14    4.25
   9   8 -10    1.75    2.73
   9   8  10    5.15    3.85
  -9   8 -10   10.84    4.56
  -9   8  10    6.27    3.48
   9   8 -11    2.44    2.68
  -9   8 -11    7.20    3.66
  -9   8  11    5.14    3.87
   9   8 -12    9.46    4.30
  -9   8  12    0.73    2.89
  -9   8  13    6.30    3.99
  -9   8  14   21.89    5.97
  -9   9   0   -0.84    2.36
  -9  -9   0    3.02    3.89
  -9   9   1   68.01    8.70
  -9  -9  -1   76.99    9.87
  -9  -9   1   71.62   10.24
  -9   9   2   28.46    6.38
  -9  -9  -2   35.23    7.21
  -9  -9   2   28.25    7.00
  -9   9   3   21.29    5.52
  -9  -9  -3   23.77    6.21
  -9   9   4    8.43    4.04
  -9  -9  -4    9.59    4.48
   9   9   4    5.23    3.31
  -9   9   5    6.73    3.77
  -9  -9  -5    9.07    4.51
   9   9   5   10.75    4.96
   9   9   6  208.92   15.64
  -9   9   6  184.59   14.98
  -9  -9  -6  184.89   15.19
  -9   9   7   16.83    5.51
  -9  -9  -7   21.48    6.11
   9   9  -7   17.83    5.20
   9   9   7   29.50    6.80
  -9   9   8   32.80    6.86
  -9  -9  -8   24.91    5.97
   9   9  -8   27.58    6.36
   9   9   8   25.05    6.56
   9   9   9  168.52   14.88
  -9  -9  -9  168.36   14.13
   9   9  -9  182.77   14.74
  -9  -9 -10   10.22    4.85
   9   9 -10   12.41    5.17
  -9  10   1    0.51    3.00
  -9  10   2    0.83    2.83
  -9  10   3   14.98    4.91
  -9  10   4   29.63    6.59
  -9  10   5   14.66    5.31
   9  10   7   11.84    5.00
   9  10  -8   18.01    5.27
 -10   0   0  226.61   15.76
 -10   0   0  216.95   13.98
 -10   0  -1    5.10    4.45
 -10   0  -1    9.74    4.76
 -10   0   1   12.35    5.39
 -10   0  -2  104.51   10.95
 -10   0   2  109.39   11.23
 -10   0  -2  109.61   10.53
 -10   0  -3   -1.01    2.83
 -10   0  -3   -1.28    3.04
 -10   0   3   -1.66    2.75
 -10   0  -4   46.97    7.42
  10   0  -4   54.47    6.62
 -10   0  -4   51.56    7.71
 -10   0   4   47.73    7.36
 -10   0  -5   -2.89    3.62
  10   0  -5   -0.91    2.17
 -10   0  -5   -4.82    3.95
 -10   0   5    4.50    4.03
 -10   0  -6    3.27    3.09
  10   0  -6    5.45    2.81
 -10   0  -6    3.40    3.08
 -10   0   6    4.16    3.61
 -10   0  -7    3.32    3.68
  10   0  -7    3.09    3.14
 -10   0  -7   -0.61    3.27
 -10   0   7    3.65    3.52
 -10   0  -8   97.18   10.51
 -10   0   8   95.26   10.53
 -10   0  -8   98.92   10.73
  10   0  -8  108.13   10.24
 -10   0  -9   -2.30    3.23
  10   0  -9    2.51    2.64
 -10   0  -9   -3.00    3.45
 -10   0   9   -5.24    3.83
 -10   0 -10    7.17    3.41
  10   0 -10    0.23    3.79
 -10   0 -10    0.18    3.83
 -10   0  10    9.80    3.74
 -10   0 -11    0.96    3.64
  10   0 -11   -3.95    4.10
 -10   0 -11   -0.89    3.15
 -10   0  11    0.87    2.70
 -10   0 -12   79.60   10.58
  10   0 -12   67.96    8.83
 -10   0 -12   62.65    8.51
 -10   0  12   66.24    8.81
 -10   0 -13   -0.45    3.67
  10   0 -13    3.24    3.06
 -10   0 -13    0.39    3.14
 -10   0  13    1.40    2.48
 -10   0 -14   40.01    7.71
  10   0 -14   31.03    6.78
 -10   0 -14   31.69    6.29
 -10   0  14   26.66    5.73
  10   0 -15   -1.20    3.29
 -10   0 -15    2.84    2.88
 -10   0  15    0.85    3.26
  10   0 -16    6.56    4.74
 -10   0 -16   10.71    4.11
 -10  -1   0    3.09    2.27
 -10  -1   0    6.31    3.61
 -10   1  -1   17.25    4.94
 -10   1   1   18.07    4.73
 -10  -1  -1   13.09    4.19
 -10  -1   1   16.81    4.54
 -10  -1  -1   14.38    4.38
 -10  -1   1   14.07    4.73
 -10   1  -2   -3.30    3.30
 -10   1   2    5.48    3.64
 -10  -1  -2    4.48    3.69
 -10  -1   2   -0.77    2.50
 -10  -1  -2    3.33    3.44
 -10  -1   2    1.10    2.60
 -10   1  -3   10.61    4.31
  10  -1  -3   19.71    4.43
 -10   1   3   22.98    5.72
 -10  -1  -3   26.38    5.50
 -10  -1   3   32.54    5.59
 -10   1  -3   24.81    5.95
 -10  -1  -3   26.27    6.15
 -10  -1   3   19.80    5.15
 -10   1  -4  128.97   12.05
 -10   1   4  131.29   12.09
 -10  -1  -4  135.72   12.36
 -10  -1   4  132.53   12.27
 -10  -1  -4  121.74   11.10
 -10  -1   4  147.11   10.82
 -10   1  -4  145.04   12.32
  10  -1  -4  144.15   10.88
  10   1  -4  143.56   10.42
  10   1   4  134.63   12.47
 -10   1  -5   36.99    6.87
 -10   1   5   26.58    6.05
 -10  -1  -5   31.68    6.32
  10  -1  -5   28.63    5.31
 -10   1  -5   32.23    6.34
 -10  -1   5   36.13    5.65
  10   1  -5   34.09    5.81
 -10  -1  -5   33.07    6.67
 -10  -1   5   29.44    6.38
 -10  -1  -6   40.40    7.12
 -10   1  -6   39.40    7.05
 -10   1   6   39.27    7.27
  10  -1  -6   42.65    6.33
 -10   1  -6   31.75    6.33
  10   1  -6   39.02    6.07
 -10  -1  -6   46.06    7.58
 -10  -1   6   35.42    6.71
 -10   1  -7   97.01   10.70
 -10   1   7   85.21   10.05
 -10  -1  -7   93.03   10.56
 -10  -1   7   97.93   10.80
 -10  -1  -7  101.30   10.96
 -10   1  -7   76.42    9.82
  10  -1  -7   88.42    9.16
  10   1  -7   95.35    9.33
 -10   1  -8  135.93   12.54
 -10   1   8  121.76   11.79
 -10  -1  -8  129.49   12.23
 -10  -1   8  151.10   13.12
 -10  -1  -8  160.83   13.37
 -10   1  -8  150.85   13.11
  10  -1  -8  144.52   11.85
  10   1  -8  134.79   11.44
 -10  -1  -9   35.82    7.19
 -10   1  -9   30.00    6.58
  10  -1  -9   25.70    5.75
 -10   1  -9   28.89    6.43
 -10   1   9   22.26    5.57
  10   1  -9   30.12    5.83
 -10  -1  -9   27.58    6.36
 -10  -1   9   25.64    5.90
 -10   1 -10   76.22    9.72
 -10   1  10   76.83    9.67
 -10   1 -10   95.70   11.26
 -10  -1 -10   71.94    9.99
  10  -1 -10   80.34    9.47
  10   1 -10   70.86    8.91
 -10  -1 -10   68.26    8.98
 -10  -1  10   70.28    9.16
 -10   1 -11  151.83   13.30
 -10   1  11  140.93   12.53
 -10  -1 -11  155.81   13.37
 -10  -1  11  149.34   12.95
 -10  -1 -11  164.03   14.16
 -10   1 -11  145.09   13.82
  10  -1 -11  148.79   12.92
  10   1 -11  151.16   12.78
 -10  -1 -12   11.27    5.55
 -10   1 -12   18.30    6.49
  10  -1 -12   11.40    4.56
  10   1 -12    6.57    3.76
 -10   1 -12    8.89    3.86
 -10   1  12    7.64    4.11
 -10  -1 -12    6.13    3.89
 -10  -1  12    2.68    3.05
 -10  -1 -13   28.35    6.62
 -10   1 -13   22.89    6.05
  10  -1 -13   26.69    6.27
  10   1 -13   23.47    6.03
 -10   1 -13   24.55    5.79
 -10   1  13   32.61    6.56
 -10  -1 -13   18.79    5.13
 -10  -1  13   30.16    5.87
 -10  -1 -14   44.08    8.03
  10  -1 -14   31.82    6.61
  10   1 -14   26.52    6.28
 -10   1 -14   30.88    6.21
 -10   1  14   28.16    5.81
 -10  -1 -14   28.65    6.17
 -10  -1  14   35.29    6.28
  10  -1 -15   35.84    7.45
  10   1 -15   34.64    7.10
 -10   1 -15   29.93    6.38
 -10   1  15   31.61    6.21
 -10  -1 -15   34.09    6.33
 -10  -1  15   35.71    6.71
  10   1 -16   17.31    5.98
 -10   1 -16   12.88    4.08
 -10  -1 -16   15.02    4.50
 -10   2   0    1.69    3.03
 -10  -2   0    2.79    2.72
  10   2   0    2.32    3.38
 -10  -2   0    3.20    3.12
 -10   2  -1   -2.19    3.13
 -10   2   1   -2.31    2.77
 -10  -2  -1   -2.86    3.08
 -10  -2   1   -0.98    2.45
  10   2  -1   -0.35    3.10
  10   2   1    4.27    3.13
 -10  -2  -1   -5.00    4.28
 -10  -2   1   -2.83    3.13
 -10   2  -2    3.44    2.47
 -10   2   2    6.01    3.26
 -10  -2  -2    3.75    2.79
 -10  -2   2    6.50    2.80
  10   2  -2    1.10    2.88
  10   2   2    4.73    3.21
 -10  -2  -2    5.27    3.44
 -10  -2   2    1.03    2.66
 -10   2  -3   -1.56    2.93
 -10   2   3   -3.41    3.60
 -10  -2  -3    5.60    3.61
 -10  -2   3   -1.00    2.15
  10   2  -3    4.35    3.90
  10   2   3   -6.08    3.42
 -10  -2  -3   -3.20    3.51
 -10  -2   3    3.52    2.85
 -10   2  -4   58.09    8.06
 -10   2   4   65.66    8.61
 -10  -2  -4   75.21    8.54
  10   2  -4   67.64    8.76
  10   2   4   72.36    9.40
 -10  -2  -4   61.67    8.57
 -10  -2   4   58.31    8.36
 -10   2  -5   11.16    4.71
 -10   2   5    9.88    4.40
 -10  -2  -5    8.76    4.24
  10   2  -5    6.37    3.07
  10   2  -5   10.09    4.13
  10   2   5   15.17    5.43
 -10  -2  -5    5.77    3.64
 -10  -2   5    4.85    3.19
 -10   2  -6   11.24    3.65
 -10   2   6   18.49    5.03
  10  -2  -6   10.80    3.03
 -10  -2  -6   13.16    4.54
 -10   2  -6    7.06    3.65
  10   2  -6    8.92    3.88
  10   2  -6   16.45    4.11
  10   2   6   13.75    4.26
 -10  -2  -6   17.70    5.19
 -10  -2   6   15.56    4.59
 -10   2  -7    9.38    4.37
 -10   2   7    6.10    3.71
 -10  -2  -7    2.30    2.69
  10  -2  -7    3.96    3.04
 -10   2  -7    2.19    3.59
  10   2  -7    3.36    2.44
  10   2   7    5.21    3.94
 -10  -2  -7    3.24    3.66
 -10  -2   7    0.40    2.96
 -10   2  -8   43.72    7.38
 -10   2   8   49.13    7.75
 -10  -2  -8   48.73    7.86
  10  -2  -8   45.53    7.09
 -10   2  -8   44.33    7.66
  10   2  -8   47.95    7.20
  10   2   8   43.08    7.80
 -10  -2  -8   44.43    7.37
 -10  -2   8   56.61    8.24
 -10   2  -9    3.26    3.18
 -10   2   9    5.80    3.50
 -10  -2  -9   -1.01    3.24
  10  -2  -9    8.25    3.84
 -10   2  -9    1.10    3.76
  10   2  -9    0.57    2.72
  10   2   9    5.25    3.96
 -10  -2  -9   15.34    5.08
 -10  -2   9    6.04    3.55
 -10  -2 -10   81.62    9.90
 -10   2 -10   78.65    9.68
 -10   2  10   82.81    9.80
 -10  -2 -10   83.30   10.16
  10  -2 -10   84.90    9.84
  10   2 -10   84.75    9.63
 -10   2 -10   82.34   10.56
  10   2  10   94.56   11.29
 -10  -2  10   78.42    9.64
 -10  -2 -11   57.33    8.90
 -10   2 -11   47.85    7.77
 -10   2  11   44.55    7.44
 -10   2 -11   57.97    9.22
  10  -2 -11   57.27    8.33
  10   2 -11   50.10    7.84
  10   2  11   47.52    8.39
 -10  -2 -11   46.31    7.46
 -10  -2  11   44.30    7.56
 -10  -2 -12   12.36    4.78
 -10   2 -12   11.15    4.19
 -10   2  12    6.33    3.63
 -10   2 -12    9.72    4.42
  10  -2 -12   14.72    4.75
  10   2 -12   16.53    5.40
  10   2  12   11.25    4.59
 -10  -2 -12   10.70    4.47
 -10  -2  12   11.50    4.31
 -10   2 -13    7.57    4.69
 -10   2 -13    9.65    3.78
 -10   2  13    6.96    3.30
  10  -2 -13    9.39    4.12
  10   2  13   10.40    4.65
  10   2 -13    6.78    3.60
 -10  -2 -13    8.74    4.36
 -10  -2  13   13.75    4.57
  10  -2 -14   20.86    5.26
  10   2  14   23.29    6.13
 -10   2 -14   25.64    5.74
 -10   2  14   20.10    5.19
  10   2 -14   21.75    5.88
 -10  -2 -14   27.10    5.95
 -10  -2  14   21.85    5.24
  10  -2 -15    2.95    3.60
 -10   2 -15    0.96    2.76
 -10   2  15   -0.58    3.02
  10   2 -15    0.32    3.10
 -10  -2 -15   -3.11    3.11
 -10  -2  15    1.18    2.64
 -10   2 -16    6.67    3.30
 -10  -2 -16   -0.17    2.32
 -10   3   0    6.13    3.53
 -10  -3   0    7.98    2.95
  10   3   0    3.99    2.76
 -10  -3   0    7.43    3.83
 -10   3  -1    3.05    2.68
 -10   3   1    8.28    2.85
 -10  -3  -1    3.29    2.43
 -10  -3   1    5.14    2.57
  10   3  -1    4.47    3.02
  10   3   1    8.37    4.30
 -10  -3  -1    5.34    3.13
 -10  -3   1    8.15    4.20
 -10   3  -2    9.09    3.98
 -10   3   2    5.59    3.75
 -10  -3  -2   10.19    3.72
  10   3  -2    7.51    4.07
  10   3   2    6.32    4.46
 -10  -3  -2    9.48    4.48
 -10  -3   2   15.84    5.46
 -10  -3  -3  205.20   13.66
 -10  -3  -3  209.30   15.31
 -10  -3   3  208.45   15.32
  10   3  -3  204.34   14.79
  10   3   3  184.48   14.87
 -10   3  -3  192.16   14.78
 -10   3   3  200.94   15.15
 -10   3  -4   13.37    5.23
 -10   3   4   10.68    5.15
 -10  -3  -4   11.54    4.32
  10   3  -4   19.35    5.74
  10   3   4   17.36    5.50
 -10  -3  -4   10.74    4.51
 -10  -3   4    9.73    4.15
 -10  -3  -5   70.49    8.63
  10   3   5   84.90   10.30
  10   3  -5   72.09    8.76
 -10  -3  -5   72.98    9.61
 -10  -3   5   70.81    9.33
 -10   3  -5   85.02   10.06
 -10   3   5   81.36    9.84
 -10   3  -6   24.22    6.03
 -10   3   6   29.55    6.80
 -10  -3  -6   22.74    5.45
  10   3  -6   27.12    5.08
  10   3  -6   31.33    6.44
  10   3   6   32.38    7.30
 -10  -3  -6   35.70    7.30
 -10  -3   6   29.05    6.39
 -10  -3  -7  349.02   19.02
 -10  -3  -7  388.91   21.26
 -10  -3   7  370.82   20.60
  10   3  -7  371.43   18.39
  10   3  -7  383.87   19.64
  10   3   7  404.78   22.10
 -10   3  -7  409.06   21.60
 -10   3   7  398.36   21.23
 -10   3  -8   33.48    6.85
 -10   3   8   39.88    7.49
 -10  -3  -8   39.86    7.62
 -10   3  -8   32.27    7.88
  10   3  -8   37.06    6.53
  10   3  -8   33.36    6.63
  10   3   8   30.20    7.52
 -10  -3  -8   33.81    7.03
 -10  -3   8   20.42    5.67
 -10   3  -9   22.54    5.32
 -10   3   9   14.33    4.71
  10  -3  -9   17.69    4.96
 -10   3  -9   20.42    6.11
  10   3  -9   24.17    5.50
  10   3  -9   27.93    5.77
  10   3   9   28.89    6.71
 -10  -3  -9   20.53    5.42
 -10  -3   9   10.64    4.28
 -10   3 -10   -1.11    2.82
 -10   3  10    1.32    3.37
  10  -3 -10   -3.92    4.30
 -10   3 -10    6.42    4.38
  10   3 -10    6.20    3.29
  10   3 -10    1.63    2.56
  10   3  10    0.05    3.15
 -10  -3 -10    2.84    3.01
 -10  -3  10   -0.27    2.68
 -10   3 -11   61.69    8.49
 -10   3  11   55.83    8.24
  10  -3 -11   46.13    7.66
 -10   3 -11   65.24    9.60
  10   3 -11   65.17    8.52
  10   3  11   52.52    8.36
 -10  -3 -11   55.77    8.24
 -10  -3  11   48.46    7.67
 -10   3 -12    3.18    3.17
 -10   3  12    0.99    2.79
  10  -3 -12    2.98    3.44
 -10   3 -12    5.02    4.70
  10   3 -12    9.62    4.04
  10   3  12    3.78    3.68
 -10  -3 -12    5.17    3.40
 -10   3 -13   65.88    8.88
 -10   3  13   61.48    8.72
  10  -3 -13   69.23    9.55
  10   3 -13   62.38    8.71
  10   3  13   71.44   10.10
 -10   3 -14    1.83    2.89
 -10   3  14   10.31    4.52
  10  -3 -14    6.06    3.80
  10   3 -14    4.10    3.46
 -10   3 -15   72.23    9.38
 -10   3  15   74.83    9.34
  10   3 -15   76.08   10.19
 -10   3 -16   -1.74    2.97
 -10   4   0   24.34    5.89
  10   4   0   30.50    6.52
 -10  -4   0   35.66    7.16
 -10   4  -1   58.20    8.58
 -10   4   1   68.60    9.08
 -10  -4   1   70.52    9.59
  10   4  -1   53.06    7.91
  10   4   1   61.28    8.82
 -10  -4  -1   67.89    9.27
 -10   4  -2   -3.18    3.09
 -10   4   2    4.74    3.72
 -10   4   2   -1.93    2.37
  10   4  -2    1.36    2.91
  10   4   2    2.89    3.10
 -10  -4  -2    6.66    4.33
 -10  -4   2   -1.62    3.14
 -10   4  -3    0.66    3.31
 -10   4   3    5.47    3.83
 -10   4   3    0.67    2.14
  10   4  -3    1.01    2.50
  10   4   3   -0.58    2.97
 -10  -4  -3    0.35    3.19
 -10  -4   3   -0.22    3.25
 -10   4  -4    5.92    3.46
 -10   4   4    7.54    3.59
 -10   4   4    3.89    2.51
  10   4  -4   14.45    4.60
  10   4   4    7.70    4.10
 -10  -4  -4    0.42    2.95
 -10  -4   4    2.07    3.09
 -10   4  -5    1.34    2.35
 -10   4   5    0.38    2.55
 -10   4   5    0.16    2.89
  10   4  -5    0.67    2.68
  10   4   5   -3.61    3.66
 -10   4  -6    8.42    3.76
 -10   4   6    7.28    4.06
  10   4  -6    5.69    2.99
  10   4  -6   10.68    3.69
  10   4   6    7.49    4.64
  10   4  -7   94.47    9.45
  10   4  -7  103.29   10.60
  10   4   7  103.85   11.55
 -10   4  -7  100.88   11.07
 -10   4   7  110.49   11.47
 -10   4  -8    5.16    3.83
 -10   4   8   -4.20    4.01
  10   4  -8   -2.35    2.85
  10   4  -8    2.34    2.56
  10   4   8    6.28    4.31
 -10   4  -9    0.59    2.98
 -10   4   9    3.15    2.91
  10   4  -9    5.53    3.03
  10   4  -9    1.12    2.43
  10   4   9    3.96    3.62
 -10   4 -10   -1.12    2.57
 -10   4  10    1.97    2.91
 -10   4 -10    2.22    4.25
  10   4 -10   -0.73    2.56
  10   4 -10   -1.34    2.52
  10   4  10    1.35    3.14
 -10   4 -11   -4.56    3.72
 -10   4  11   -1.03    3.16
  10   4 -11    1.44    2.73
  10   4  11   -7.30    4.50
 -10   4 -12    9.98    4.25
 -10   4  12   11.44    4.49
  10   4 -12   11.81    4.70
 -10   4 -13   62.30    8.72
 -10   4  13   54.27    8.35
  10   4 -13   57.46    8.60
 -10   4 -14    0.78    2.80
 -10   4  14   -1.04    3.03
  10   4 -14    2.76    3.30
 -10   4 -15    0.64    2.69
 -10   4  15   -1.01    3.40
  10   5   0  104.53   11.24
 -10   5   0   91.71   10.87
  10   5  -1  106.77   11.34
  10   5   1  121.90   12.37
 -10   5  -1  125.28   12.48
 -10   5   1  124.65   12.41
 -10   5  -2   21.97    5.79
 -10   5   2   28.41    6.83
 -10   5   2   24.79    5.14
  10   5  -2   30.61    6.47
  10   5   2   33.43    7.36
 -10   5  -3   29.69    6.50
 -10   5   3   28.36    6.28
 -10   5   3   30.75    5.85
  10   5  -3   35.96    7.08
  10   5   3   34.74    6.89
 -10   5   4  118.26   10.66
  10   5  -4  120.43   11.85
  10   5   4  113.00   11.88
 -10   5  -4  120.40   12.38
 -10   5   4  110.16   11.65
 -10   5  -5    7.11    3.84
 -10   5   5    4.34    3.45
 -10   5   5    4.52    2.97
  10   5  -5    5.04    3.18
  10   5   5    4.25    3.70
 -10   5  -6    5.17    3.04
 -10   5   6    2.45    2.35
 -10   5   6    4.88    2.90
  10   5  -6    5.49    3.53
  10   5   6    9.38    4.42
 -10   5  -7    0.89    3.11
 -10   5   7   -1.14    3.04
 -10   5   7   -2.35    3.08
  10   5  -7    3.18    3.21
  10   5  -7    4.59    3.45
  10   5   7   -1.15    3.15
 -10   5  -8   42.86    7.57
 -10   5   8   53.59    8.17
 -10   5   8   40.59    7.33
  10   5  -8   52.01    7.40
  10   5  -8   45.91    7.32
  10   5   8   46.03    8.01
 -10   5  -9   40.83    7.51
 -10   5   9   37.60    7.22
 -10   5   9   39.73    7.32
  10   5  -9   46.25    7.47
  10   5  -9   35.43    6.36
  10   5   9   51.64    8.93
 -10   5  10  164.33   14.07
  10   5 -10  162.31   13.48
  10   5 -10  168.94   13.34
 -10   5 -10  161.30   14.10
 -10   5  10  169.50   14.31
 -10   5 -11   18.68    5.57
 -10   5  11   11.14    4.17
 -10   5  11   20.39    5.57
  10   5 -11   18.33    5.26
 -10   5  12   -0.75    3.90
 -10   5 -12   -3.78    3.31
 -10   5  12    0.80    2.57
  10   5 -12    1.06    3.08
 -10   5 -13   -1.73    3.05
 -10   5  13   -5.75    3.86
  10   5 -13    0.69    2.76
 -10   5 -14   61.56    8.88
 -10   5  14   58.13    8.52
  10   5 -14   62.91    9.30
 -10   5 -15    2.84    3.46
 -10   5  15   -6.80    3.41
 -10  -6   0  106.03   11.72
  10   6   0   97.16   11.30
 -10   6   0  113.47   12.36
 -10   6  -1    4.45    4.30
 -10   6   1    9.45    4.66
 -10  -6  -1   13.94    5.15
 -10  -6   1   18.10    6.01
  10   6  -1    5.34    3.81
  10   6   1   13.28    5.32
 -10   6  -2    9.75    3.94
 -10   6   2   10.86    4.98
 -10  -6  -2    8.63    3.73
 -10  -6   2   14.42    5.73
  10   6  -2    6.71    3.32
  10   6   2   17.96    6.01
 -10   6  -3    8.80    4.11
 -10   6   3    7.70    4.40
 -10   6   3    7.22    3.62
 -10  -6  -3    6.37    3.80
 -10  -6   3    2.68    3.69
  10   6  -3    6.92    4.18
  10   6   3   11.25    5.49
 -10   6  -4   58.93    9.10
 -10   6   4   50.57    8.07
 -10   6   4   58.07    7.82
 -10  -6   4   57.23    9.11
  10   6  -4   54.04    8.34
  10   6   4   53.46    8.61
 -10   6  -5    8.26    4.34
 -10   6   5   16.67    5.63
 -10   6   5   14.39    4.59
 -10  -6   5   10.30    4.78
  10   6  -5   10.77    4.56
  10   6   5    5.06    3.35
 -10   6  -6   13.27    5.18
 -10   6   6    9.81    4.01
 -10   6   6   11.23    4.04
 -10  -6   6    4.49    3.09
  10   6  -6    4.61    3.69
  10   6   6   20.83    6.69
 -10   6  -7    0.36    3.28
 -10   6   7   -3.37    3.81
 -10   6   7   -0.93    2.66
  10   6  -7   -2.25    2.68
 -10   6  -8   29.08    6.40
 -10   6   8   33.21    6.94
 -10   6   8   24.17    6.00
  10   6  -8   20.14    5.06
  10   6  -8   24.56    5.43
 -10   6  -9   23.13    6.22
 -10   6   9   26.26    6.47
 -10   6   9   13.62    5.12
  10   6  -9   24.15    5.95
  10   6  -9   17.41    5.05
 -10   6  10  141.01   13.36
  10   6 -10  147.01   13.15
  10   6 -10  150.51   12.77
 -10   6 -10  140.81   13.61
 -10   6  10  148.72   13.94
 -10   6  11    9.36    4.81
 -10   6  11    4.53    3.97
  10   6 -11    3.06    3.46
 -10   6  12    1.94    2.44
  10   6 -12   -0.70    2.90
 -10   6  13   -0.95    2.89
  10   6 -13    7.60    3.73
 -10  -7   0   32.66    7.82
  10   7   0   39.39    8.21
 -10  -7  -1  186.90   15.57
 -10  -7   1  201.85   16.32
  10   7  -1  197.15   15.89
  10   7   1  191.64   15.71
 -10  -7  -2   35.36    7.57
 -10  -7   2   51.07    8.94
  10   7  -2   38.61    7.48
  10   7   2   43.12    8.37
 -10   7   3   85.48    9.54
 -10  -7  -3   85.13   10.58
  10   7  -3  104.08   11.73
 -10   7   4   27.23    5.83
 -10  -7  -4   17.06    4.70
  10   7  -4   27.82    6.58
 -10   7   5   12.11    4.20
 -10  -7  -5    0.87    3.20
  10   7  -5    4.67    3.70
 -10   7   6   14.73    4.69
 -10  -7  -6    8.17    4.39
  10   7  -6   12.97    4.53
 -10   7   7   54.74    8.28
 -10  -7  -7   64.44    9.03
  10   7  -7   66.46    9.22
 -10   7   8   -0.85    3.59
 -10  -7  -8    1.80    2.59
  10   7  -8    1.96    2.41
 -10   7   9    4.49    3.31
  10   7  -9    6.14    3.63
  10   7 -10   20.22    5.93
  10   7 -10   11.78    4.36
  10   7 -11  189.69   15.33
 -10   8   4    4.68    3.80
 -10   8   5    8.23    4.10
 -10  -8  -5    6.33    4.09
  10   8   5    2.18    2.57
 -10   8   6   16.86    5.08
 -10  -8  -6   24.64    6.06
  10   8  -6   34.12    7.20
  10   8   6   18.54    5.28
 -10   8   7  102.12   11.49
 -10  -8  -7   92.53   10.84
  10   8  -7  113.31   12.04
  10   8   7   97.78   11.20
 -10  -8  -8   -0.61    2.79
  10   8  -8    7.69    4.17
 -10  -8  -9    5.60    3.74
  10   8  -9    5.58    3.80
 -10   9   4   65.44    9.16
 -10   9   5   40.84    7.56
 -11   0   0    6.97    3.84
 -11   0   0    5.56    3.62
 -11   0  -1    3.30    3.41
 -11   0   1    7.75    4.40
 -11   0  -1    7.98    4.51
 -11   0   1    4.60    4.43
 -11   0  -2  134.04   13.18
 -11   0   2  147.61   13.78
 -11   0  -2  145.93   12.91
 -11   0   2  157.90   12.42
 -11   0  -3    1.59    2.60
 -11   0   3    7.93    3.94
 -11   0  -3    0.86    2.89
 -11   0   3    5.61    4.39
 -11   0  -4   54.38    8.30
 -11   0  -4   62.49    9.40
 -11   0   4   46.87    8.19
 -11   0  -5    7.44    4.87
 -11   0  -5    7.24    4.51
 -11   0   5    9.27    4.84
 -11   0  -6   39.37    7.54
 -11   0  -6   32.95    7.03
 -11   0   6   30.90    6.72
 -11   0  -7    3.53    3.41
 -11   0  -7   -8.09    4.46
 -11   0   7   -3.24    3.67
 -11   0  -8   14.40    4.75
  11   0  -8   15.04    4.36
 -11   0  -8   17.65    5.58
 -11   0   8   19.65    5.45
 -11   0  -9    2.37    3.98
  11   0  -9   -0.40    2.87
 -11   0  -9    2.68    3.76
 -11   0   9    3.18    3.31
  11   0 -10   88.33    9.99
 -11   0 -10   83.29   10.52
 -11   0  10   94.69   11.17
  11   0 -11   -1.16    3.29
 -11   0 -11   -4.62    3.77
 -11   0  11   -1.83    2.90
  11   0 -12    2.84    2.82
 -11   0  12    5.14    3.13
  11   0 -13    4.35    4.27
 -11   0  13    4.53    3.74
 -11   0  14  109.10   11.95
 -11  -1   0   -1.11    2.59
 -11  -1   0    0.24    2.70
 -11  -1  -1   -4.57    3.04
 -11  -1   1   -0.72    2.53
 -11   1  -1   -1.53    3.13
 -11   1   1    2.77    2.79
 -11   1  -1    4.58    3.91
 -11  -1  -1    0.44    2.63
 -11  -1   1    3.21    3.11
 -11  -1  -2   25.80    5.73
 -11  -1   2   13.69    4.02
 -11   1  -2   21.69    5.55
 -11   1  -2    9.47    3.76
 -11   1   2   15.82    4.72
 -11  -1  -2   14.12    4.78
 -11  -1   2    9.55    4.43
 -11  -1  -3    6.64    3.82
 -11   1  -3    2.06    3.05
 -11   1  -3    1.38    2.86
 -11   1   3    5.57    3.66
 -11  -1  -3    1.25    3.12
 -11  -1   3    6.86    3.96
 -11  -1  -4   14.49    4.70
 -11   1  -4   14.16    5.06
 -11   1  -4   13.61    4.97
 -11   1   4    6.63    3.60
 -11  -1  -4    9.61    4.54
 -11  -1   4    7.06    3.44
 -11  -1  -5    1.46    3.04
 -11   1  -5    8.88    4.61
 -11   1  -5    1.79    3.27
 -11   1   5   -1.95    3.34
 -11  -1  -5   -1.01    2.62
 -11  -1   5    0.45    2.91
 -11  -1  -6   37.92    7.35
 -11   1  -6   45.09    7.74
 -11   1  -6   38.18    7.29
 -11   1   6   41.95    7.75
 -11  -1  -6   41.82    7.77
 -11  -1   6   44.96    7.86
 -11  -1  -7   10.60    4.32
 -11   1  -7   12.77    4.69
 -11   1  -7    2.51    2.89
 -11   1   7   10.27    4.77
 -11  -1  -7   12.99    4.67
 -11  -1   7   10.64    4.51
 -11  -1  -8    3.39    3.54
 -11   1  -8   -7.30    4.51
  11  -1  -8   -2.11    3.29
 -11   1  -8    1.26    2.53
 -11   1   8    8.24    4.01
 -11  -1  -8    2.92    2.63
 -11  -1   8   -5.65    4.03
 -11  -1  -9    4.60    3.95
 -11   1  -9   -0.48    3.33
  11  -1  -9   -0.89    3.22
  11   1  -9    1.69    2.87
 -11   1  -9    3.88    3.66
 -11   1   9    0.71    3.10
 -11  -1  -9    5.36    3.74
 -11  -1   9    3.38    3.06
 -11  -1 -10   60.45    9.21
  11  -1 -10   61.03    8.63
  11   1 -10   57.05    8.43
 -11   1 -10   52.53    8.51
 -11   1  10   49.66    8.09
 -11  -1 -10   49.62    8.07
 -11  -1  10   58.76    8.76
  11  -1 -11    4.87    3.47
  11   1 -11    4.44    3.79
 -11   1  11    6.78    3.77
 -11  -1  11    3.07    3.10
  11  -1 -12   22.93    5.78
  11   1 -12   20.20    5.30
 -11   1  12   22.57    5.68
 -11  -1  12   28.05    6.51
  11  -1 -13   40.24    7.75
  11   1 -13   33.67    7.19
 -11   1  13   40.95    7.51
 -11  -1  13   46.38    7.81
 -11   2   0    2.79    3.22
 -11  -2   0    0.44    2.85
  11   2   0   -0.83    3.27
 -11  -2   0   -2.12    2.91
 -11   2  -1   41.55    7.76
 -11   2   1   32.77    6.80
 -11  -2  -1   44.95    7.00
  11   2  -1   49.54    8.38
  11   2   1   44.72    8.13
 -11  -2  -1   43.87    7.77
 -11  -2   1   49.11    8.39
 -11   2   2   77.54   10.36
 -11  -2  -2   94.57    9.97
 -11   2  -2   74.39    9.98
  11   2   2   88.99   10.79
 -11  -2  -2   85.72   10.78
 -11  -2   2   85.61   10.64
 -11   2  -3   -0.02    2.81
 -11   2   3   -1.84    3.39
 -11  -2  -3   -2.77    3.30
  11   2   3    3.07    4.00
 -11  -2  -3    4.34    3.77
 -11  -2   3    0.01    3.11
 -11   2  -4   12.36    4.89
 -11   2   4   17.00    5.52
 -11  -2  -4   22.29    5.38
 -11   2  -4   26.65    6.19
  11   2   4   25.03    6.08
 -11  -2  -4   16.49    4.94
 -11  -2   4   18.65    5.19
 -11   2  -5   23.51    6.01
 -11   2   5   28.46    6.56
 -11  -2  -5   34.90    6.56
 -11   2  -5   27.07    6.50
  11   2   5   33.19    7.31
 -11  -2  -5   23.95    6.19
 -11  -2   5   28.57    6.44
 -11   2  -6    4.41    3.44
 -11   2   6   -1.15    3.20
 -11  -2  -6   -2.78    3.00
 -11   2  -6   -1.48    3.54
  11   2   6   -1.19    3.13
 -11  -2  -6    0.55    2.94
 -11  -2   6    3.75    3.41
 -11  -2  -7    0.40    2.92
 -11   2  -7   -1.91    2.93
 -11   2   7    2.68    3.61
 -11   2  -7    2.19    3.58
 -11  -2  -7    1.32    2.45
 -11  -2   7   -0.01    2.94
 -11  -2  -8   12.83    4.59
  11  -2  -8   18.75    5.51
 -11   2  -8   15.46    5.30
 -11   2   8   16.09    5.39
 -11   2  -8   12.55    4.85
 -11  -2  -8   16.86    5.36
 -11  -2   8   17.14    5.37
 -11  -2  -9   50.95    8.63
  11  -2  -9   45.89    7.42
 -11   2  -9   42.14    7.66
 -11   2   9   46.44    8.01
 -11  -2  -9   52.12    8.52
 -11  -2   9   36.48    7.13
 -11  -2 -10   56.93    8.99
  11  -2 -10   48.22    7.82
 -11   2  10   39.55    7.59
  11   2 -10   55.50    8.07
 -11  -2  10   48.31    8.03
 -11   2  11   94.29   11.19
 -11  -2  11   90.10   10.88
  11  -2 -11  103.78   11.50
  11   2 -11   96.27   10.58
  11  -2 -12    4.87    3.75
  11   2 -12    5.42    4.18
  11   2 -13   53.20    8.63
 -11   3   0   -2.60    4.04
  11   3   0   -2.55    3.27
 -11  -3   0    0.75    2.86
 -11   3  -1   -4.15    4.71
 -11   3   1    3.74    3.69
  11   3  -1    5.24    2.94
  11   3   1   -1.66    4.13
 -11  -3  -1    1.10    3.36
 -11  -3   1    2.38    3.76
 -11   3  -2    0.47    3.21
 -11   3   2    4.26    3.48
 -11  -3  -2    1.66    2.70
  11   3  -2    5.93    3.71
  11   3   2    6.38    4.22
 -11  -3  -2    7.18    4.44
 -11  -3   2    7.74    4.37
 -11   3  -3    0.49    2.80
 -11   3   3    7.75    4.59
 -11  -3  -3   -0.73    2.45
  11   3  -3    3.29    2.93
  11   3   3    4.24    4.37
 -11  -3  -3    7.11    3.90
 -11  -3   3    8.11    4.64
 -11   3  -4   -4.89    3.42
 -11   3   4    2.90    3.58
 -11  -3  -4    5.79    3.61
  11   3  -4    7.14    4.01
  11   3   4    9.08    5.04
 -11  -3  -4   -1.05    2.56
 -11  -3   4   -1.03    3.31
 -11   3  -5   72.35   10.15
 -11   3   5   59.64    8.87
 -11  -3  -5   68.55    8.72
  11   3  -5   66.54    9.14
 -11  -3  -5   63.46    9.37
 -11  -3   5   68.45    9.73
 -11   3  -6   19.14    5.84
 -11   3   6   12.17    5.18
 -11  -3  -6   11.22    4.02
 -11   3  -6   12.11    4.69
  11   3  -6    9.51    3.97
 -11  -3  -6   14.96    5.19
 -11  -3   6    6.39    3.36
 -11   3   7   -3.42    3.18
 -11   3  -7   -3.95    4.02
  11   3  -7    0.59    2.95
 -11  -3   7    5.43    4.11
 -11   3   8    6.43    4.03
 -11  -3   8    2.57    2.68
  11   3 -10   23.50    5.36
  11   3 -11    0.48    3.13
  11   3 -12   -1.07    3.47
  11   4   0    3.05    3.24
  11   4   1  102.11   11.62
  11   4  -1   95.55   11.14
  11   4  -2   17.90    5.58
  11   4   2   11.76    5.01
  11   4  -3    2.84    3.12
  11   4  -4    2.65    2.84
  11   4  -5   -0.76    3.44
 -11   4   6    0.51    2.59
  11   4  -6   -0.13    2.94
 -11   4   7    0.59    2.77
  11   4  -7   -2.48    2.61
 -11   4   8   19.63    5.07
  11   4  -8   20.60    5.42
  11   4  -9   18.30    5.37
  11   4 -11    5.93    3.92
  11   4 -12    5.92    3.60
  11   5  -2  138.55   13.59
  11   5  -3    6.44    3.94
  11   5  -4   21.42    5.63
  11   5  -5   -1.64    3.02
 -11   5   6   53.32    8.01
  11   5  -6   52.07    8.25
 -11   5   7   -0.49    2.51
  11   5  -7   -6.76    4.57
 -11   5   8    3.32    2.57
  11   5  -8   13.73    4.18
 -11   5   9    1.56    2.64
  11   5  -9    2.67    3.20
 -11   6   7   -0.97    3.00
 -12   0   0   21.68    5.25
 -12   0  -1    2.13    3.38
 -12   0  -2    3.79    3.26
 -12   0  -3    3.30    3.39
 -12   0  -4   59.53    8.88
 -12   1   0    3.66    3.29
 -12  -1  -1    5.27    3.31
 -12   1  -1   11.04    4.46
 -12   1   1   16.42    4.82
 -12  -1  -2   -0.26    2.95
 -12   1  -2   -1.68    3.17
 -12   1   2   -2.47    3.10
 -12  -1  -3    2.62    2.62
 -12   1  -3    0.49    2.80
 -12  -1  -4    2.79    2.86
 -12  -1  -5   23.55    6.07
 -12   2  -1    5.79    3.99
 -12  -2  -3   53.01    8.20
 -12  -2  -4   74.82    9.62
 -12  -2  -5   25.16    6.11
  
TITL smz_fiilt200 in Pbca
REM Pbca (#61 in standard setting)
CELL 0.71073   9.090651  11.577900  22.810367  90.0000  90.0000  90.0000
ZERR    6.00   0.000310   0.000443   0.000748   0.0000   0.0000   0.0000
LATT  1
SYMM -x+1/2,-y, z+1/2
SYMM -x, y+1/2,-z+1/2
SYMM  x+1/2,-y+1/2,-z
SFAC C H N O S
UNIT 90.00 90.00 18.00 12.00 6.00
TREF
HKLF 4
END
_computing_structure_solution     'SHELXT 2014/4 (Sheldrick, 2014)'
;
_shelx_hkl_checksum              33233
loop_
_space_group_symop_operation_xyz
'x, y, z'
'-x+1/2, -y, z+1/2'
'-x, y+1/2, -z+1/2'
'x+1/2, -y+1/2, -z'
'-x, -y, -z'
'x-1/2, y, -z-1/2'
'x, -y-1/2, z-1/2'
'-x-1/2, y-1/2, z'
loop_
_atom_site_label
_atom_site_type_symbol
_atom_site_fract_x
_atom_site_fract_y
_atom_site_fract_z
_atom_site_U_iso_or_equiv
_atom_site_adp_type
_atom_site_occupancy
_atom_site_site_symmetry_order
_atom_site_calc_flag
_atom_site_refinement_flags_posn
_atom_site_refinement_flags_adp
_atom_site_refinement_flags_occupancy
_atom_site_disorder_assembly
_atom_site_disorder_group
S1 S 0.33193(4) 0.34616(3) 0.38967(2) 0.02381(12) Uani 1 1 d . . . . .
O2 O 0.19677(12) 0.39709(11) 0.40959(5) 0.0302(3) Uani 1 1 d . . . . .
O1 O 0.34201(14) 0.22324(10) 0.38642(5) 0.0331(3) Uani 1 1 d . . . . .
N4 N 0.66656(14) 0.42616(12) 0.48539(6) 0.0270(3) Uani 1 1 d . . . . .
N3 N 0.65595(15) 0.28506(12) 0.40887(6) 0.0282(3) Uani 1 1 d . . . . .
N2 N 0.45121(14) 0.39511(12) 0.43728(6) 0.0261(3) Uani 1 1 d . . . . .
N1 N 0.45483(19) 0.53264(16) 0.15456(7) 0.0386(4) Uani 1 1 d . . . . .
C1 C 0.37512(17) 0.40371(13) 0.32153(7) 0.0245(3) Uani 1 1 d . . . . .
C2 C 0.4482(2) 0.33689(15) 0.28024(7) 0.0334(4) Uani 1 1 d . . . . .
H2 H 0.4776 0.2622 0.2896 0.043 Uiso 1 1 calc R U . . .
C3 C 0.4773(2) 0.38134(15) 0.22555(8) 0.0349(4) Uani 1 1 d . . . . .
H3 H 0.5280 0.3366 0.1984 0.045 Uiso 1 1 calc R U . . .
C4 C 0.43177(18) 0.49277(14) 0.21006(7) 0.0294(3) Uani 1 1 d . . . . .
C5 C 0.35832(19) 0.55930(14) 0.25244(8) 0.0305(3) Uani 1 1 d . . . . .
H5 H 0.3276 0.6337 0.2432 0.040 Uiso 1 1 calc R U . . .
C6 C 0.33124(17) 0.51543(14) 0.30763(7) 0.0276(3) Uani 1 1 d . . . . .
H6 H 0.2837 0.5606 0.3355 0.036 Uiso 1 1 calc R U . . .
C7 C 0.59812(17) 0.36598(13) 0.44323(6) 0.0238(3) Uani 1 1 d . . . . .
C8 C 0.80851(18) 0.40067(16) 0.49291(7) 0.0319(4) Uani 1 1 d . . . . .
H8 H 0.8612 0.4402 0.5215 0.041 Uiso 1 1 calc R U . . .
C9 C 0.87985(18) 0.31877(16) 0.46025(7) 0.0329(4) Uani 1 1 d . . . . .
H9 H 0.9789 0.3025 0.4663 0.043 Uiso 1 1 calc R U . . .
C10 C 0.79926(19) 0.26120(15) 0.41801(7) 0.0305(3) Uani 1 1 d . . . . .
C11 C 0.8669(2) 0.16808(18) 0.38152(9) 0.0436(5) Uani 1 1 d . . . . .
H11A H 0.8209 0.0956 0.3905 0.057 Uiso 1 1 calc R U . . .
H11B H 0.9702 0.1633 0.3899 0.057 Uiso 1 1 calc R U . . .
H11C H 0.8530 0.1856 0.3408 0.057 Uiso 1 1 calc R U . . .
H1N2 H 0.419(2) 0.4464(19) 0.4594(10) 0.041(6) Uiso 1 1 d . . . . .
H1N1 H 0.516(3) 0.493(2) 0.1341(11) 0.052(7) Uiso 1 1 d . . . . .
H2N1 H 0.448(3) 0.606(2) 0.1464(11) 0.059(7) Uiso 1 1 d . . . . .
loop_
_atom_site_aniso_label
_atom_site_aniso_U_11
_atom_site_aniso_U_22
_atom_site_aniso_U_33
_atom_site_aniso_U_23
_atom_site_aniso_U_13
_atom_site_aniso_U_12
S1 0.0243(2) 0.0252(2) 0.02195(19) -0.00194(14) -0.00060(13) -0.00311(13)
O2 0.0226(5) 0.0413(7) 0.0267(6) -0.0019(5) 0.0008(4) -0.0023(5)
O1 0.0436(7) 0.0247(6) 0.0311(6) -0.0016(5) -0.0007(5) -0.0070(5)
N4 0.0238(6) 0.0318(7) 0.0254(7) -0.0020(5) -0.0015(5) 0.0018(5)
N3 0.0293(7) 0.0282(7) 0.0272(7) -0.0007(5) 0.0023(5) 0.0039(5)
N2 0.0238(6) 0.0290(7) 0.0256(7) -0.0085(5) -0.0029(5) 0.0036(5)
N1 0.0503(10) 0.0347(9) 0.0308(8) 0.0048(6) 0.0123(7) 0.0025(7)
C1 0.0260(7) 0.0255(7) 0.0221(7) -0.0018(6) -0.0001(6) -0.0017(6)
C2 0.0407(10) 0.0278(8) 0.0317(9) -0.0004(7) 0.0056(7) 0.0088(7)
C3 0.0429(10) 0.0317(9) 0.0301(8) -0.0031(7) 0.0117(7) 0.0063(7)
C4 0.0306(8) 0.0300(8) 0.0276(8) 0.0000(6) 0.0042(6) -0.0036(6)
C5 0.0365(9) 0.0229(7) 0.0321(8) 0.0001(6) 0.0044(7) 0.0005(6)
C6 0.0304(8) 0.0239(7) 0.0284(8) -0.0048(6) 0.0053(6) -0.0006(6)
C7 0.0248(7) 0.0247(7) 0.0217(7) 0.0027(6) 0.0005(6) 0.0005(6)
C8 0.0267(8) 0.0405(10) 0.0286(8) 0.0013(7) -0.0032(6) 0.0004(7)
C9 0.0241(8) 0.0429(10) 0.0316(9) 0.0077(7) 0.0017(6) 0.0063(7)
C10 0.0312(8) 0.0294(8) 0.0309(8) 0.0066(7) 0.0073(7) 0.0065(6)
C11 0.0408(10) 0.0418(11) 0.0483(11) -0.0033(8) 0.0103(9) 0.0136(8)
loop_
_atom_type_symbol
_atom_type_description
_atom_type_scat_dispersion_real
_atom_type_scat_dispersion_imag
_atom_type_scat_source
C C 0.0033 0.0016 'International Tables Vol C Tables 4.2.6.8 and 6.1.1.4'
H H 0.0000 0.0000 'International Tables Vol C Tables 4.2.6.8 and 6.1.1.4'
N N 0.0061 0.0033 'International Tables Vol C Tables 4.2.6.8 and 6.1.1.4'
O O 0.0106 0.0060 'International Tables Vol C Tables 4.2.6.8 and 6.1.1.4'
S S 0.1246 0.1234 'International Tables Vol C Tables 4.2.6.8 and 6.1.1.4'
loop_
_geom_angle_atom_site_label_1
_geom_angle_atom_site_label_2
_geom_angle_atom_site_label_3
_geom_angle
_geom_angle_site_symmetry_1
_geom_angle_site_symmetry_3
O1 S1 O2 118.71(7) . .
O1 S1 N2 109.70(7) . .
O2 S1 N2 102.40(7) . .
O1 S1 C1 108.76(7) . .
O2 S1 C1 108.61(7) . .
N2 S1 C1 108.15(7) . .
C8 N4 C7 115.21(14) . .
C7 N3 C10 115.81(15) . .
C7 N2 S1 128.33(11) . .
C7 N2 H1N2 117.3(16) . .
S1 N2 H1N2 114.3(16) . .
C4 N1 H1N1 115.1(16) . .
C4 N1 H2N1 121.0(17) . .
H1N1 N1 H2N1 117(2) . .
C2 C1 C6 120.07(15) . .
C2 C1 S1 120.12(13) . .
C6 C1 S1 119.77(12) . .
C3 C2 C1 119.93(16) . .
C3 C2 H2 120.0 . .
C1 C2 H2 120.0 . .
C2 C3 C4 121.13(15) . .
C2 C3 H3 119.4 . .
C4 C3 H3 119.4 . .
N1 C4 C5 121.75(16) . .
N1 C4 C3 120.05(16) . .
C5 C4 C3 118.17(15) . .
C6 C5 C4 120.72(15) . .
C6 C5 H5 119.6 . .
C4 C5 H5 119.6 . .
C5 C6 C1 119.97(14) . .
C5 C6 H6 120.0 . .
C1 C6 H6 120.0 . .
N3 C7 N4 127.26(14) . .
N3 C7 N2 119.69(14) . .
N4 C7 N2 113.05(13) . .
N4 C8 C9 122.76(16) . .
N4 C8 H8 118.6 . .
C9 C8 H8 118.6 . .
C8 C9 C10 117.54(16) . .
C8 C9 H9 121.2 . .
C10 C9 H9 121.2 . .
N3 C10 C9 121.42(15) . .
N3 C10 C11 117.35(17) . .
C9 C10 C11 121.22(16) . .
C10 C11 H11A 109.5 . .
C10 C11 H11B 109.5 . .
H11A C11 H11B 109.5 . .
C10 C11 H11C 109.5 . .
H11A C11 H11C 109.5 . .
H11B C11 H11C 109.5 . .
loop_
_geom_bond_atom_site_label_1
_geom_bond_atom_site_label_2
_geom_bond_distance
_geom_bond_site_symmetry_2
S1 O1 1.4280(12) .
S1 O2 1.4366(12) .
S1 N2 1.6360(13) .
S1 C1 1.7360(16) .
N4 C8 1.335(2) .
N4 C7 1.341(2) .
N3 C7 1.330(2) .
N3 C10 1.348(2) .
N2 C7 1.3841(19) .
N2 H1N2 0.83(2) .
N1 C4 1.364(2) .
N1 H1N1 0.86(3) .
N1 H2N1 0.87(3) .
C1 C2 1.388(2) .
C1 C6 1.390(2) .
C2 C3 1.375(2) .
C2 H2 0.9300 .
C3 C4 1.400(2) .
C3 H3 0.9300 .
C4 C5 1.405(2) .
C5 C6 1.380(2) .
C5 H5 0.9300 .
C6 H6 0.9300 .
C8 C9 1.369(2) .
C8 H8 0.9300 .
C9 C10 1.382(3) .
C9 H9 0.9300 .
C10 C11 1.494(2) .
C11 H11A 0.9600 .
C11 H11B 0.9600 .
C11 H11C 0.9600 .
loop_
_geom_torsion_atom_site_label_1
_geom_torsion_atom_site_label_2
_geom_torsion_atom_site_label_3
_geom_torsion_atom_site_label_4
_geom_torsion
_geom_torsion_site_symmetry_1
_geom_torsion_site_symmetry_2
_geom_torsion_site_symmetry_3
_geom_torsion_site_symmetry_4
O1 S1 N2 C7 46.47(16) . . . .
O2 S1 N2 C7 173.41(14) . . . .
C1 S1 N2 C7 -72.02(16) . . . .
O1 S1 C1 C2 -17.16(16) . . . .
O2 S1 C1 C2 -147.67(14) . . . .
N2 S1 C1 C2 101.92(15) . . . .
O1 S1 C1 C6 160.37(13) . . . .
O2 S1 C1 C6 29.86(15) . . . .
N2 S1 C1 C6 -80.56(14) . . . .
C6 C1 C2 C3 0.0(3) . . . .
S1 C1 C2 C3 177.53(14) . . . .
C1 C2 C3 C4 -1.3(3) . . . .
C2 C3 C4 N1 -176.46(18) . . . .
C2 C3 C4 C5 1.4(3) . . . .
N1 C4 C5 C6 177.47(16) . . . .
C3 C4 C5 C6 -0.4(3) . . . .
C4 C5 C6 C1 -0.8(3) . . . .
C2 C1 C6 C5 1.0(2) . . . .
S1 C1 C6 C5 -176.50(13) . . . .
C10 N3 C7 N4 0.3(2) . . . .
C10 N3 C7 N2 -179.33(14) . . . .
C8 N4 C7 N3 0.1(2) . . . .
C8 N4 C7 N2 179.74(14) . . . .
S1 N2 C7 N3 -3.0(2) . . . .
S1 N2 C7 N4 177.27(12) . . . .
C7 N4 C8 C9 -0.2(2) . . . .
N4 C8 C9 C10 0.0(3) . . . .
C7 N3 C10 C9 -0.6(2) . . . .
C7 N3 C10 C11 178.11(15) . . . .
C8 C9 C10 N3 0.4(3) . . . .
C8 C9 C10 C11 -178.19(17) . . . .
